MODEL        1
REMARK 921   NORMALIZED FREE ENERGY PREDICTED BY IDOCK:   -7.74 KCAL/MOL
REMARK 922        TOTAL FREE ENERGY PREDICTED BY IDOCK:  -13.68 KCAL/MOL
REMARK 923 INTER-LIGAND FREE ENERGY PREDICTED BY IDOCK:  -11.81 KCAL/MOL
REMARK 924 INTRA-LIGAND FREE ENERGY PREDICTED BY IDOCK:   -1.87 KCAL/MOL
REMARK 927      BINDING AFFINITY PREDICTED BY RF-SCORE:    0.00 PKD
ROOT
HETATM    1  C   UNL     1     -10.213  19.735  65.953  1.00  0.00    -0.459 C  
HETATM    2  O   UNL     1     -10.505  18.337  65.874  1.00  0.00    -0.532 OA 
ENDROOT
BRANCH   2   3
HETATM    3  C   UNL     1     -10.048  17.600  66.939  1.00  0.00    -0.331 A  
HETATM    4  C   UNL     1     -10.888  17.390  68.048  1.00  0.00    -0.281 A  
HETATM    5  C   UNL     1     -10.457  16.748  69.202  1.00  0.00    -0.343 A  
HETATM    6  C   UNL     1      -9.141  16.278  69.197  1.00  0.00    -0.230 A  
HETATM    7  C   UNL     1      -8.291  16.406  68.086  1.00  0.00    -0.186 A  
HETATM    8  C   UNL     1      -8.752  17.047  66.916  1.00  0.00    -0.227 A  
BRANCH   5   9
HETATM    9  N   UNL     1     -11.256  16.582  70.338  1.00  0.00    -0.473 NA 
HETATM   10  H   UNL     1     -11.382  17.443  70.869  1.00  0.00     0.000 HD 
BRANCH   9  11
HETATM   11  C   UNL     1     -11.916  15.489  70.899  1.00  0.00    -0.375 A  
HETATM   12  N   UNL     1     -12.447  15.732  72.106  1.00  0.00    -0.419 NA 
HETATM   13  N   UNL     1     -12.014  14.293  70.280  1.00  0.00    -0.308 NA 
HETATM   14  C   UNL     1     -12.672  13.279  70.900  1.00  0.00    -0.254 A  
HETATM   15  F   UNL     1     -14.028  12.552  72.731  1.00  0.00    -0.435 F  
HETATM   16  C   UNL     1     -13.126  14.721  72.687  1.00  0.00    -0.441 A  
HETATM   17  C   UNL     1     -13.298  13.486  72.110  1.00  0.00    -0.500 A  
BRANCH  14  18
HETATM   18  N   UNL     1     -12.725  12.070  70.186  1.00  0.00     0.115 NA 
HETATM   19  H   UNL     1     -13.668  11.699  70.068  1.00  0.00     0.000 HD 
BRANCH  18  20
HETATM   20  C   UNL     1     -11.714  11.275  69.600  1.00  0.00    -0.350 A  
HETATM   21  N   UNL     1     -11.475  11.265  68.271  1.00  0.00    -0.318 NA 
HETATM   22  C   UNL     1     -10.430  10.531  67.780  1.00  0.00    -0.224 A  
HETATM   23  C   UNL     1      -9.651   9.712  68.594  1.00  0.00    -0.150 A  
HETATM   24  O   UNL     1      -8.667   8.875  68.133  1.00  0.00    -0.133 OA 
HETATM   25  C   UNL     1      -9.897   9.716  69.956  1.00  0.00    -0.286 A  
HETATM   26  C   UNL     1      -8.779   8.583  66.743  1.00  0.00    -0.122 C  
HETATM   27  C   UNL     1     -10.936  10.498  70.460  1.00  0.00    -0.173 A  
HETATM   28  C   UNL     1      -9.052   9.829  65.888  1.00  0.00    -0.168 C  
HETATM   29  C   UNL     1      -7.483   7.907  66.283  1.00  0.00    -0.079 C  
HETATM   30  C   UNL     1      -9.958   7.613  66.474  1.00  0.00    -0.226 C  
HETATM   31  N   UNL     1     -10.067  10.615  66.408  1.00  0.00    -0.218 N  
HETATM   32  O   UNL     1      -8.563  10.011  64.774  1.00  0.00    -0.154 OA 
BRANCH  31  33
HETATM   33  C   UNL     1     -10.836  11.356  65.465  1.00  0.00    -0.220 C  
BRANCH  33  34
HETATM   34  O   UNL     1     -10.845  12.701  65.824  1.00  0.00    -0.266 OA 
HETATM   35  P   UNL     1     -11.801  13.603  64.699  1.00  0.00    -0.442 P  
HETATM   36  O   UNL     1     -10.582  14.684  64.830  1.00  0.00    -0.416 OA 
HETATM   37  O   UNL     1     -12.635  14.065  66.024  1.00  0.00    -0.481 OA 
HETATM   38  O   UNL     1     -12.656  14.411  63.692  1.00  0.00    -0.817 OA 
ENDBRANCH  33  34
ENDBRANCH  31  33
ENDBRANCH  18  20
ENDBRANCH  14  18
ENDBRANCH   9  11
ENDBRANCH   5   9
BRANCH   7  39
HETATM   39  O   UNL     1      -7.040  15.901  68.350  1.00  0.00    -0.113 OA 
HETATM   40  C   UNL     1      -6.828  15.074  69.483  1.00  0.00    -0.174 C  
ENDBRANCH   7  39
BRANCH   8  41
HETATM   41  O   UNL     1      -7.895  17.034  65.853  1.00  0.00    -0.438 OA 
HETATM   42  C   UNL     1      -6.861  17.986  65.674  1.00  0.00    -0.166 C  
ENDBRANCH   8  41
ENDBRANCH   2   3
TORSDOF 9
ENDMDL
MODEL        2
REMARK 921   NORMALIZED FREE ENERGY PREDICTED BY IDOCK:   -7.65 KCAL/MOL
REMARK 922        TOTAL FREE ENERGY PREDICTED BY IDOCK:  -13.53 KCAL/MOL
REMARK 923 INTER-LIGAND FREE ENERGY PREDICTED BY IDOCK:  -11.91 KCAL/MOL
REMARK 924 INTRA-LIGAND FREE ENERGY PREDICTED BY IDOCK:   -1.62 KCAL/MOL
REMARK 927      BINDING AFFINITY PREDICTED BY RF-SCORE:    0.00 PKD
ROOT
HETATM    1  C   UNL     1      -6.716  10.099  70.212  1.00  0.00    -0.143 C  
HETATM    2  O   UNL     1      -7.309   9.284  71.227  1.00  0.00    -0.272 OA 
ENDROOT
BRANCH   2   3
HETATM    3  C   UNL     1      -8.634   8.990  71.020  1.00  0.00    -0.210 A  
HETATM    4  C   UNL     1      -9.147   8.992  69.710  1.00  0.00    -0.163 A  
HETATM    5  C   UNL     1     -10.497   8.810  69.435  1.00  0.00    -0.222 A  
HETATM    6  C   UNL     1     -11.330   8.584  70.533  1.00  0.00    -0.235 A  
HETATM    7  C   UNL     1     -10.849   8.507  71.851  1.00  0.00    -0.322 A  
HETATM    8  C   UNL     1      -9.472   8.677  72.109  1.00  0.00    -0.303 A  
BRANCH   5   9
HETATM    9  N   UNL     1     -11.037   8.868  68.146  1.00  0.00    -0.449 NA 
HETATM   10  H   UNL     1     -11.669   8.095  67.939  1.00  0.00     0.000 HD 
BRANCH   9  11
HETATM   11  C   UNL     1     -10.895   9.760  67.082  1.00  0.00    -0.136 A  
HETATM   12  N   UNL     1     -10.150   9.289  66.072  1.00  0.00    -0.270 NA 
HETATM   13  N   UNL     1     -11.459  10.986  67.072  1.00  0.00    -0.395 NA 
HETATM   14  C   UNL     1     -11.266  11.794  65.996  1.00  0.00    -0.296 A  
HETATM   15  F   UNL     1     -10.414  12.059  63.777  1.00  0.00    -0.308 F  
HETATM   16  C   UNL     1     -10.001  10.095  64.999  1.00  0.00    -0.305 A  
HETATM   17  C   UNL     1     -10.569  11.342  64.897  1.00  0.00    -0.307 A  
BRANCH  14  18
HETATM   18  N   UNL     1     -11.889  13.051  66.069  1.00  0.00    -0.396 NA 
HETATM   19  H   UNL     1     -12.905  13.009  66.136  1.00  0.00     0.000 HD 
BRANCH  18  20
HETATM   20  C   UNL     1     -11.365  14.365  66.065  1.00  0.00    -0.335 A  
HETATM   21  N   UNL     1     -10.829  14.937  67.165  1.00  0.00    -0.304 NA 
HETATM   22  C   UNL     1     -10.270  16.182  67.072  1.00  0.00    -0.285 A  
HETATM   23  C   UNL     1     -10.314  16.929  65.897  1.00  0.00    -0.315 A  
HETATM   24  O   UNL     1      -9.869  18.221  65.786  1.00  0.00    -0.516 OA 
HETATM   25  C   UNL     1     -10.869  16.348  64.770  1.00  0.00    -0.197 A  
HETATM   26  C   UNL     1      -9.749  18.888  67.040  1.00  0.00    -0.309 C  
HETATM   27  C   UNL     1     -11.400  15.062  64.856  1.00  0.00    -0.419 A  
HETATM   28  C   UNL     1      -9.059  18.032  68.111  1.00  0.00    -0.276 C  
HETATM   29  C   UNL     1      -8.968  20.189  66.826  1.00  0.00    -0.431 C  
HETATM   30  C   UNL     1     -11.145  19.246  67.612  1.00  0.00    -0.211 C  
HETATM   31  N   UNL     1      -9.573  16.747  68.174  1.00  0.00    -0.236 N  
HETATM   32  O   UNL     1      -8.276  18.486  68.945  1.00  0.00    -0.277 OA 
BRANCH  31  33
HETATM   33  C   UNL     1      -9.529  16.113  69.449  1.00  0.00    -0.198 C  
BRANCH  33  34
HETATM   34  O   UNL     1     -10.663  16.454  70.179  1.00  0.00    -0.299 OA 
HETATM   35  P   UNL     1     -11.528  15.023  70.626  1.00  0.00    -0.270 P  
HETATM   36  O   UNL     1     -12.832  15.920  70.219  1.00  0.00    -0.335 OA 
HETATM   37  O   UNL     1     -11.352  15.586  72.148  1.00  0.00    -0.417 OA 
HETATM   38  O   UNL     1     -12.301  13.743  71.025  1.00  0.00    -0.355 OA 
ENDBRANCH  33  34
ENDBRANCH  31  33
ENDBRANCH  18  20
ENDBRANCH  14  18
ENDBRANCH   9  11
ENDBRANCH   5   9
BRANCH   7  39
HETATM   39  O   UNL     1     -11.872   8.318  72.749  1.00  0.00    -0.388 OA 
HETATM   40  C   UNL     1     -13.198   8.691  72.410  1.00  0.00    -0.346 C  
ENDBRANCH   7  39
BRANCH   8  41
HETATM   41  O   UNL     1      -9.080   8.484  73.402  1.00  0.00    -0.220 OA 
HETATM   42  C   UNL     1      -9.141   7.229  74.056  1.00  0.00    -0.242 C  
ENDBRANCH   8  41
ENDBRANCH   2   3
TORSDOF 9
ENDMDL
MODEL        3
REMARK 921   NORMALIZED FREE ENERGY PREDICTED BY IDOCK:   -7.55 KCAL/MOL
REMARK 922        TOTAL FREE ENERGY PREDICTED BY IDOCK:  -13.39 KCAL/MOL
REMARK 923 INTER-LIGAND FREE ENERGY PREDICTED BY IDOCK:  -11.63 KCAL/MOL
REMARK 924 INTRA-LIGAND FREE ENERGY PREDICTED BY IDOCK:   -1.76 KCAL/MOL
REMARK 927      BINDING AFFINITY PREDICTED BY RF-SCORE:    0.00 PKD
ROOT
HETATM    1  C   UNL     1     -11.479   5.915  72.666  1.00  0.00    -0.272 C  
HETATM    2  O   UNL     1     -11.076   7.237  73.034  1.00  0.00    -0.324 OA 
ENDROOT
BRANCH   2   3
HETATM    3  C   UNL     1     -10.439   7.935  72.038  1.00  0.00    -0.231 A  
HETATM    4  C   UNL     1     -11.071   8.096  70.791  1.00  0.00    -0.275 A  
HETATM    5  C   UNL     1     -10.444   8.696  69.706  1.00  0.00    -0.220 A  
HETATM    6  C   UNL     1      -9.149   9.174  69.922  1.00  0.00    -0.188 A  
HETATM    7  C   UNL     1      -8.507   9.095  71.169  1.00  0.00    -0.113 A  
HETATM    8  C   UNL     1      -9.167   8.497  72.265  1.00  0.00    -0.272 A  
BRANCH   5   9
HETATM    9  N   UNL     1     -11.031   8.811  68.441  1.00  0.00    -0.451 NA 
HETATM   10  H   UNL     1     -11.750   8.110  68.267  1.00  0.00     0.000 HD 
BRANCH   9  11
HETATM   11  C   UNL     1     -10.841   9.683  67.368  1.00  0.00    -0.172 A  
HETATM   12  N   UNL     1     -10.008   9.216  66.428  1.00  0.00    -0.281 NA 
HETATM   13  N   UNL     1     -11.445  10.887  67.285  1.00  0.00    -0.451 NA 
HETATM   14  C   UNL     1     -11.200  11.676  66.206  1.00  0.00    -0.271 A  
HETATM   15  F   UNL     1     -10.196  11.920  64.049  1.00  0.00    -0.285 F  
HETATM   16  C   UNL     1      -9.808  10.001  65.348  1.00  0.00    -0.314 A  
HETATM   17  C   UNL     1     -10.408  11.225  65.173  1.00  0.00    -0.295 A  
BRANCH  14  18
HETATM   18  N   UNL     1     -11.869  12.912  66.200  1.00  0.00    -0.409 NA 
HETATM   19  H   UNL     1     -12.885  12.834  66.239  1.00  0.00     0.000 HD 
BRANCH  18  20
HETATM   20  C   UNL     1     -11.393  14.242  66.149  1.00  0.00    -0.342 A  
HETATM   21  N   UNL     1     -10.921  14.888  67.237  1.00  0.00    -0.314 NA 
HETATM   22  C   UNL     1     -10.403  16.147  67.102  1.00  0.00    -0.291 A  
HETATM   23  C   UNL     1     -10.428  16.833  65.890  1.00  0.00    -0.301 A  
HETATM   24  O   UNL     1     -10.025  18.133  65.729  1.00  0.00    -0.547 OA 
HETATM   25  C   UNL     1     -10.917  16.175  64.773  1.00  0.00    -0.330 A  
HETATM   26  C   UNL     1      -9.979  18.866  66.951  1.00  0.00    -0.345 C  
HETATM   27  C   UNL     1     -11.405  14.876  64.906  1.00  0.00    -0.415 A  
HETATM   28  C   UNL     1      -9.301  18.090  68.090  1.00  0.00    -0.284 C  
HETATM   29  C   UNL     1      -9.236  20.182  66.700  1.00  0.00    -0.467 C  
HETATM   30  C   UNL     1     -11.407  19.199  67.451  1.00  0.00     0.280 C  
HETATM   31  N   UNL     1      -9.771  16.792  68.199  1.00  0.00    -0.240 N  
HETATM   32  O   UNL     1      -8.568  18.614  68.927  1.00  0.00    -0.277 OA 
BRANCH  31  33
HETATM   33  C   UNL     1      -9.755  16.224  69.505  1.00  0.00    -0.131 C  
BRANCH  33  34
HETATM   34  O   UNL     1     -10.928  16.558  70.174  1.00  0.00    -0.347 OA 
HETATM   35  P   UNL     1     -11.650  15.135  70.844  1.00  0.00    -0.364 P  
HETATM   36  O   UNL     1     -13.032  15.818  70.302  1.00  0.00    -0.340 OA 
HETATM   37  O   UNL     1     -11.553  15.947  72.257  1.00  0.00    -0.427 OA 
HETATM   38  O   UNL     1     -12.295  13.862  71.443  1.00  0.00    -0.348 OA 
ENDBRANCH  33  34
ENDBRANCH  31  33
ENDBRANCH  18  20
ENDBRANCH  14  18
ENDBRANCH   9  11
ENDBRANCH   5   9
BRANCH   7  39
HETATM   39  O   UNL     1      -7.230   9.598  71.110  1.00  0.00    -0.328 OA 
HETATM   40  C   UNL     1      -6.815  10.364  69.990  1.00  0.00    -0.151 C  
ENDBRANCH   7  39
BRANCH   8  41
HETATM   41  O   UNL     1      -8.510   8.557  73.460  1.00  0.00    -0.365 OA 
HETATM   42  C   UNL     1      -7.727   7.493  73.974  1.00  0.00    -0.134 C  
ENDBRANCH   8  41
ENDBRANCH   2   3
TORSDOF 9
ENDMDL
MODEL        4
REMARK 921   NORMALIZED FREE ENERGY PREDICTED BY IDOCK:   -7.50 KCAL/MOL
REMARK 922        TOTAL FREE ENERGY PREDICTED BY IDOCK:  -13.31 KCAL/MOL
REMARK 923 INTER-LIGAND FREE ENERGY PREDICTED BY IDOCK:  -12.00 KCAL/MOL
REMARK 924 INTRA-LIGAND FREE ENERGY PREDICTED BY IDOCK:   -1.31 KCAL/MOL
REMARK 927      BINDING AFFINITY PREDICTED BY RF-SCORE:    0.00 PKD
ROOT
HETATM    1  C   UNL     1      -9.214   3.293  72.127  1.00  0.00    -0.111 C  
HETATM    2  O   UNL     1      -9.821   3.054  70.855  1.00  0.00    -0.140 OA 
ENDROOT
BRANCH   2   3
HETATM    3  C   UNL     1      -9.626   4.055  69.934  1.00  0.00    -0.211 A  
HETATM    4  C   UNL     1      -9.565   5.392  70.367  1.00  0.00    -0.233 A  
HETATM    5  C   UNL     1      -9.478   6.461  69.484  1.00  0.00    -0.145 A  
HETATM    6  C   UNL     1      -9.415   6.142  68.126  1.00  0.00    -0.113 A  
HETATM    7  C   UNL     1      -9.405   4.818  67.654  1.00  0.00    -0.138 A  
HETATM    8  C   UNL     1      -9.477   3.745  68.568  1.00  0.00    -0.145 A  
BRANCH   5   9
HETATM    9  N   UNL     1      -9.476   7.800  69.890  1.00  0.00    -0.161 NA 
HETATM   10  H   UNL     1      -8.554   8.233  69.842  1.00  0.00     0.000 HD 
BRANCH   9  11
HETATM   11  C   UNL     1     -10.468   8.668  70.346  1.00  0.00    -0.208 A  
HETATM   12  N   UNL     1     -10.939   8.367  71.565  1.00  0.00    -0.247 NA 
HETATM   13  N   UNL     1     -10.913   9.719  69.625  1.00  0.00    -0.240 NA 
HETATM   14  C   UNL     1     -11.886  10.512  70.143  1.00  0.00    -0.320 A  
HETATM   15  F   UNL     1     -13.260  11.090  72.014  1.00  0.00    -0.549 F  
HETATM   16  C   UNL     1     -11.880   9.189  72.075  1.00  0.00    -0.337 A  
HETATM   17  C   UNL     1     -12.362  10.296  71.418  1.00  0.00    -0.401 A  
BRANCH  14  18
HETATM   18  N   UNL     1     -12.290  11.582  69.327  1.00  0.00    -0.257 NA 
HETATM   19  H   UNL     1     -13.003  11.335  68.640  1.00  0.00     0.000 HD 
BRANCH  18  20
HETATM   20  C   UNL     1     -11.890  12.937  69.281  1.00  0.00    -0.309 A  
HETATM   21  N   UNL     1     -11.400  13.514  68.163  1.00  0.00    -0.268 NA 
HETATM   22  C   UNL     1     -11.106  14.850  68.167  1.00  0.00    -0.283 A  
HETATM   23  C   UNL     1     -11.206  15.628  69.318  1.00  0.00    -0.320 A  
HETATM   24  O   UNL     1     -10.818  16.941  69.400  1.00  0.00    -0.308 OA 
HETATM   25  C   UNL     1     -11.703  15.038  70.468  1.00  0.00    -0.344 A  
HETATM   26  C   UNL     1      -9.921  17.331  68.363  1.00  0.00    -0.322 C  
HETATM   27  C   UNL     1     -12.042  13.686  70.449  1.00  0.00    -0.421 A  
HETATM   28  C   UNL     1     -10.365  16.849  66.974  1.00  0.00    -0.307 C  
HETATM   29  C   UNL     1      -9.802  18.859  68.373  1.00  0.00    -0.435 C  
HETATM   30  C   UNL     1      -8.511  16.730  68.594  1.00  0.00    -0.259 C  
HETATM   31  N   UNL     1     -10.726  15.513  66.968  1.00  0.00    -0.319 N  
HETATM   32  O   UNL     1     -10.234  17.516  65.948  1.00  0.00    -0.509 OA 
BRANCH  31  33
HETATM   33  C   UNL     1     -10.514  14.808  65.748  1.00  0.00    -0.334 C  
BRANCH  33  34
HETATM   34  O   UNL     1     -11.729  14.628  65.095  1.00  0.00    -0.357 OA 
HETATM   35  P   UNL     1     -11.731  13.111  64.262  1.00  0.00    -0.447 P  
HETATM   36  O   UNL     1     -12.450  13.983  63.082  1.00  0.00    -0.733 OA 
HETATM   37  O   UNL     1     -13.070  12.810  65.146  1.00  0.00    -0.750 OA 
HETATM   38  O   UNL     1     -11.732  11.754  63.517  1.00  0.00    -0.450 OA 
ENDBRANCH  33  34
ENDBRANCH  31  33
ENDBRANCH  18  20
ENDBRANCH  14  18
ENDBRANCH   9  11
ENDBRANCH   5   9
BRANCH   7  39
HETATM   39  O   UNL     1      -9.380   4.774  66.281  1.00  0.00    -0.132 OA 
HETATM   40  C   UNL     1     -10.574   4.543  65.552  1.00  0.00    -0.183 C  
ENDBRANCH   7  39
BRANCH   8  41
HETATM   41  O   UNL     1      -9.358   2.495  68.030  1.00  0.00    -0.193 OA 
HETATM   42  C   UNL     1      -8.115   1.838  67.854  1.00  0.00    -0.059 C  
ENDBRANCH   8  41
ENDBRANCH   2   3
TORSDOF 9
ENDMDL
MODEL        5
REMARK 921   NORMALIZED FREE ENERGY PREDICTED BY IDOCK:   -7.45 KCAL/MOL
REMARK 922        TOTAL FREE ENERGY PREDICTED BY IDOCK:  -13.23 KCAL/MOL
REMARK 923 INTER-LIGAND FREE ENERGY PREDICTED BY IDOCK:  -13.11 KCAL/MOL
REMARK 924 INTRA-LIGAND FREE ENERGY PREDICTED BY IDOCK:   -0.12 KCAL/MOL
REMARK 927      BINDING AFFINITY PREDICTED BY RF-SCORE:    0.00 PKD
ROOT
HETATM    1  C   UNL     1     -10.327   5.829  74.446  1.00  0.00    -0.254 C  
HETATM    2  O   UNL     1     -10.224   4.917  73.349  1.00  0.00    -0.154 OA 
ENDROOT
BRANCH   2   3
HETATM    3  C   UNL     1     -10.536   5.458  72.127  1.00  0.00    -0.227 A  
HETATM    4  C   UNL     1     -11.410   6.559  72.059  1.00  0.00    -0.326 A  
HETATM    5  C   UNL     1     -11.854   7.089  70.854  1.00  0.00    -0.356 A  
HETATM    6  C   UNL     1     -11.356   6.494  69.692  1.00  0.00    -0.443 A  
HETATM    7  C   UNL     1     -10.430   5.437  69.715  1.00  0.00    -0.307 A  
HETATM    8  C   UNL     1      -9.977   4.923  70.949  1.00  0.00    -0.217 A  
BRANCH   5   9
HETATM    9  N   UNL     1     -12.768   8.143  70.764  1.00  0.00    -0.465 NA 
HETATM   10  H   UNL     1     -13.719   7.835  70.562  1.00  0.00     0.000 HD 
BRANCH   9  11
HETATM   11  C   UNL     1     -12.656   9.528  70.893  1.00  0.00    -0.177 A  
HETATM   12  N   UNL     1     -13.448  10.054  71.839  1.00  0.00    -0.379 NA 
HETATM   13  N   UNL     1     -11.823  10.271  70.134  1.00  0.00    -0.270 NA 
HETATM   14  C   UNL     1     -11.780  11.616  70.323  1.00  0.00    -0.266 A  
HETATM   15  F   UNL     1     -12.456  13.514  71.612  1.00  0.00    -0.391 F  
HETATM   16  C   UNL     1     -13.362  11.387  72.032  1.00  0.00    -0.283 A  
HETATM   17  C   UNL     1     -12.517  12.208  71.324  1.00  0.00    -0.185 A  
BRANCH  14  18
HETATM   18  N   UNL     1     -10.886  12.312  69.491  1.00  0.00    -0.452 NA 
HETATM   19  H   UNL     1     -10.134  11.735  69.114  1.00  0.00     0.000 HD 
BRANCH  18  20
HETATM   20  C   UNL     1     -10.838  13.663  69.079  1.00  0.00    -0.204 A  
HETATM   21  N   UNL     1     -10.710  14.025  67.785  1.00  0.00    -0.241 NA 
HETATM   22  C   UNL     1     -10.749  15.351  67.448  1.00  0.00    -0.296 A  
HETATM   23  C   UNL     1     -10.823  16.358  68.408  1.00  0.00    -0.342 A  
HETATM   24  O   UNL     1     -10.752  17.699  68.129  1.00  0.00    -0.375 OA 
HETATM   25  C   UNL     1     -10.948  15.990  69.737  1.00  0.00    -0.334 A  
HETATM   26  C   UNL     1     -10.177  17.981  66.856  1.00  0.00    -0.362 C  
HETATM   27  C   UNL     1     -10.951  14.637  70.073  1.00  0.00    -0.149 A  
HETATM   28  C   UNL     1     -10.736  17.093  65.735  1.00  0.00    -0.138 C  
HETATM   29  C   UNL     1     -10.428  19.457  66.527  1.00  0.00    -0.572 C  
HETATM   30  C   UNL     1      -8.646  17.738  66.873  1.00  0.00    -0.260 C  
HETATM   31  N   UNL     1     -10.761  15.753  66.085  1.00  0.00    -0.312 N  
HETATM   32  O   UNL     1     -10.955  17.495  64.594  1.00  0.00    -0.892 OA 
BRANCH  31  33
HETATM   33  C   UNL     1     -10.610  14.820  65.019  1.00  0.00    -0.429 C  
BRANCH  33  34
HETATM   34  O   UNL     1     -11.862  14.465  64.528  1.00  0.00    -0.422 OA 
HETATM   35  P   UNL     1     -11.817  12.847  63.916  1.00  0.00    -0.534 P  
HETATM   36  O   UNL     1     -12.714  13.487  62.709  1.00  0.00    -0.419 OA 
HETATM   37  O   UNL     1     -13.036  12.586  64.969  1.00  0.00    -0.765 OA 
HETATM   38  O   UNL     1     -11.776  11.400  63.368  1.00  0.00    -0.272 OA 
ENDBRANCH  33  34
ENDBRANCH  31  33
ENDBRANCH  18  20
ENDBRANCH  14  18
ENDBRANCH   9  11
ENDBRANCH   5   9
BRANCH   7  39
HETATM   39  O   UNL     1     -10.130   5.005  68.445  1.00  0.00    -0.157 OA 
HETATM   40  C   UNL     1     -10.521   5.773  67.318  1.00  0.00    -0.266 C  
ENDBRANCH   7  39
BRANCH   8  41
HETATM   41  O   UNL     1      -9.003   3.970  70.876  1.00  0.00    -0.090 OA 
HETATM   42  C   UNL     1      -9.273   2.579  70.851  1.00  0.00    -0.129 C  
ENDBRANCH   8  41
ENDBRANCH   2   3
TORSDOF 9
ENDMDL
MODEL        6
REMARK 921   NORMALIZED FREE ENERGY PREDICTED BY IDOCK:   -7.43 KCAL/MOL
REMARK 922        TOTAL FREE ENERGY PREDICTED BY IDOCK:  -13.20 KCAL/MOL
REMARK 923 INTER-LIGAND FREE ENERGY PREDICTED BY IDOCK:  -11.88 KCAL/MOL
REMARK 924 INTRA-LIGAND FREE ENERGY PREDICTED BY IDOCK:   -1.32 KCAL/MOL
REMARK 927      BINDING AFFINITY PREDICTED BY RF-SCORE:    0.00 PKD
ROOT
HETATM    1  C   UNL     1      -9.012   5.190  65.380  1.00  0.00    -0.156 C  
HETATM    2  O   UNL     1     -10.100   4.930  66.270  1.00  0.00    -0.206 OA 
ENDROOT
BRANCH   2   3
HETATM    3  C   UNL     1      -9.807   5.123  67.598  1.00  0.00    -0.160 A  
HETATM    4  C   UNL     1      -9.881   6.419  68.143  1.00  0.00    -0.127 A  
HETATM    5  C   UNL     1      -9.497   6.705  69.446  1.00  0.00    -0.146 A  
HETATM    6  C   UNL     1      -9.062   5.624  70.218  1.00  0.00    -0.163 A  
HETATM    7  C   UNL     1      -9.037   4.305  69.735  1.00  0.00    -0.117 A  
HETATM    8  C   UNL     1      -9.447   4.031  68.412  1.00  0.00    -0.149 A  
BRANCH   5   9
HETATM    9  N   UNL     1      -9.505   7.994  69.989  1.00  0.00    -0.160 NA 
HETATM   10  H   UNL     1      -8.572   8.350  70.194  1.00  0.00     0.000 HD 
BRANCH   9  11
HETATM   11  C   UNL     1     -10.520   8.897  70.308  1.00  0.00    -0.210 A  
HETATM   12  N   UNL     1     -11.076   8.690  71.510  1.00  0.00    -0.266 NA 
HETATM   13  N   UNL     1     -10.906   9.892  69.481  1.00  0.00    -0.236 NA 
HETATM   14  C   UNL     1     -11.906  10.725  69.870  1.00  0.00    -0.335 A  
HETATM   15  F   UNL     1     -13.401  11.445  71.592  1.00  0.00    -0.481 F  
HETATM   16  C   UNL     1     -12.044   9.551  71.890  1.00  0.00    -0.337 A  
HETATM   17  C   UNL     1     -12.470  10.606  71.121  1.00  0.00    -0.418 A  
BRANCH  14  18
HETATM   18  N   UNL     1     -12.243  11.731  68.949  1.00  0.00    -0.326 NA 
HETATM   19  H   UNL     1     -12.866  11.420  68.203  1.00  0.00     0.000 HD 
BRANCH  18  20
HETATM   20  C   UNL     1     -11.879  13.094  68.865  1.00  0.00    -0.320 A  
HETATM   21  N   UNL     1     -11.424  13.657  67.725  1.00  0.00    -0.299 NA 
HETATM   22  C   UNL     1     -11.164  15.000  67.693  1.00  0.00    -0.326 A  
HETATM   23  C   UNL     1     -11.262  15.801  68.828  1.00  0.00    -0.342 A  
HETATM   24  O   UNL     1     -10.906  17.125  68.873  1.00  0.00    -0.289 OA 
HETATM   25  C   UNL     1     -11.723  15.226  70.001  1.00  0.00    -0.344 A  
HETATM   26  C   UNL     1     -10.039  17.513  67.811  1.00  0.00    -0.330 C  
HETATM   27  C   UNL     1     -12.028  13.866  70.019  1.00  0.00    -0.404 A  
HETATM   28  C   UNL     1     -10.496  16.989  66.442  1.00  0.00    -0.252 C  
HETATM   29  C   UNL     1      -9.958  19.043  67.785  1.00  0.00    -0.426 C  
HETATM   30  C   UNL     1      -8.610  16.952  68.029  1.00  0.00    -0.214 C  
HETATM   31  N   UNL     1     -10.823  15.644  66.473  1.00  0.00    -0.295 N  
HETATM   32  O   UNL     1     -10.400  17.635  65.400  1.00  0.00    -0.617 OA 
BRANCH  31  33
HETATM   33  C   UNL     1     -10.615  14.916  65.265  1.00  0.00    -0.401 C  
BRANCH  33  34
HETATM   34  O   UNL     1     -11.843  14.619  64.683  1.00  0.00    -0.419 OA 
HETATM   35  P   UNL     1     -11.829  12.998  64.074  1.00  0.00    -0.500 P  
HETATM   36  O   UNL     1     -12.603  13.677  62.805  1.00  0.00    -0.456 OA 
HETATM   37  O   UNL     1     -13.134  12.798  65.034  1.00  0.00    -0.811 OA 
HETATM   38  O   UNL     1     -11.816  11.549  63.530  1.00  0.00    -0.364 OA 
ENDBRANCH  33  34
ENDBRANCH  31  33
ENDBRANCH  18  20
ENDBRANCH  14  18
ENDBRANCH   9  11
ENDBRANCH   5   9
BRANCH   7  39
HETATM   39  O   UNL     1      -8.531   3.437  70.672  1.00  0.00    -0.065 OA 
HETATM   40  C   UNL     1      -9.236   3.199  71.879  1.00  0.00    -0.117 C  
ENDBRANCH   7  39
BRANCH   8  41
HETATM   41  O   UNL     1      -9.488   2.712  68.062  1.00  0.00    -0.211 OA 
HETATM   42  C   UNL     1      -8.445   2.059  67.360  1.00  0.00    -0.083 C  
ENDBRANCH   8  41
ENDBRANCH   2   3
TORSDOF 9
ENDMDL
MODEL        7
REMARK 921   NORMALIZED FREE ENERGY PREDICTED BY IDOCK:   -7.42 KCAL/MOL
REMARK 922        TOTAL FREE ENERGY PREDICTED BY IDOCK:  -13.18 KCAL/MOL
REMARK 923 INTER-LIGAND FREE ENERGY PREDICTED BY IDOCK:  -11.67 KCAL/MOL
REMARK 924 INTRA-LIGAND FREE ENERGY PREDICTED BY IDOCK:   -1.51 KCAL/MOL
REMARK 927      BINDING AFFINITY PREDICTED BY RF-SCORE:    0.00 PKD
ROOT
HETATM    1  C   UNL     1      -7.258   9.333  64.597  1.00  0.00    -0.100 C  
HETATM    2  O   UNL     1      -8.554   8.749  64.751  1.00  0.00    -0.174 OA 
ENDROOT
BRANCH   2   3
HETATM    3  C   UNL     1      -8.667   7.888  65.816  1.00  0.00    -0.135 A  
HETATM    4  C   UNL     1      -9.038   8.390  67.077  1.00  0.00    -0.171 A  
HETATM    5  C   UNL     1      -9.068   7.599  68.218  1.00  0.00    -0.136 A  
HETATM    6  C   UNL     1      -8.744   6.250  68.048  1.00  0.00    -0.114 A  
HETATM    7  C   UNL     1      -8.433   5.694  66.796  1.00  0.00    -0.111 A  
HETATM    8  C   UNL     1      -8.425   6.510  65.645  1.00  0.00    -0.144 A  
BRANCH   5   9
HETATM    9  N   UNL     1      -9.375   8.091  69.491  1.00  0.00    -0.156 NA 
HETATM   10  H   UNL     1      -8.718   7.785  70.209  1.00  0.00     0.000 HD 
BRANCH   9  11
HETATM   11  C   UNL     1     -10.389   8.910  69.987  1.00  0.00    -0.204 A  
HETATM   12  N   UNL     1     -10.813   8.572  71.213  1.00  0.00    -0.238 NA 
HETATM   13  N   UNL     1     -10.896   9.952  69.295  1.00  0.00    -0.224 NA 
HETATM   14  C   UNL     1     -11.887  10.696  69.851  1.00  0.00    -0.315 A  
HETATM   15  F   UNL     1     -13.232  11.189  71.767  1.00  0.00    -0.497 F  
HETATM   16  C   UNL     1     -11.773   9.347  71.761  1.00  0.00    -0.374 A  
HETATM   17  C   UNL     1     -12.318  10.442  71.135  1.00  0.00    -0.400 A  
BRANCH  14  18
HETATM   18  N   UNL     1     -12.356  11.760  69.062  1.00  0.00    -0.217 NA 
HETATM   19  H   UNL     1     -13.131  11.511  68.447  1.00  0.00     0.000 HD 
BRANCH  18  20
HETATM   20  C   UNL     1     -11.953  13.111  68.963  1.00  0.00    -0.285 A  
HETATM   21  N   UNL     1     -11.479  13.647  67.818  1.00  0.00    -0.299 NA 
HETATM   22  C   UNL     1     -11.180  14.981  67.771  1.00  0.00    -0.321 A  
HETATM   23  C   UNL     1     -11.258  15.799  68.896  1.00  0.00    -0.332 A  
HETATM   24  O   UNL     1     -10.864  17.112  68.926  1.00  0.00    -0.289 OA 
HETATM   25  C   UNL     1     -11.738  15.251  70.074  1.00  0.00    -0.344 A  
HETATM   26  C   UNL     1      -9.983  17.462  67.862  1.00  0.00    -0.301 C  
HETATM   27  C   UNL     1     -12.083  13.901  70.107  1.00  0.00    -0.418 A  
HETATM   28  C   UNL     1     -10.451  16.935  66.498  1.00  0.00    -0.253 C  
HETATM   29  C   UNL     1      -9.858  18.989  67.818  1.00  0.00    -0.398 C  
HETATM   30  C   UNL     1      -8.572  16.864  68.092  1.00  0.00    -0.221 C  
HETATM   31  N   UNL     1     -10.817  15.600  66.544  1.00  0.00    -0.295 N  
HETATM   32  O   UNL     1     -10.334  17.566  65.448  1.00  0.00    -0.629 OA 
BRANCH  31  33
HETATM   33  C   UNL     1     -10.627  14.853  65.346  1.00  0.00    -0.373 C  
BRANCH  33  34
HETATM   34  O   UNL     1     -11.860  14.595  64.756  1.00  0.00    -0.404 OA 
HETATM   35  P   UNL     1     -11.856  13.015  64.050  1.00  0.00    -0.500 P  
HETATM   36  O   UNL     1     -12.637  13.771  62.830  1.00  0.00    -0.611 OA 
HETATM   37  O   UNL     1     -13.155  12.761  65.006  1.00  0.00    -0.811 OA 
HETATM   38  O   UNL     1     -11.853  11.602  63.419  1.00  0.00    -0.415 OA 
ENDBRANCH  33  34
ENDBRANCH  31  33
ENDBRANCH  18  20
ENDBRANCH  14  18
ENDBRANCH   9  11
ENDBRANCH   5   9
BRANCH   7  39
HETATM   39  O   UNL     1      -8.112   4.362  66.904  1.00  0.00    -0.101 OA 
HETATM   40  C   UNL     1      -9.123   3.403  67.168  1.00  0.00    -0.173 C  
ENDBRANCH   7  39
BRANCH   8  41
HETATM   41  O   UNL     1      -8.215   5.867  64.459  1.00  0.00    -0.133 OA 
HETATM   42  C   UNL     1      -6.932   5.694  63.882  1.00  0.00    -0.050 C  
ENDBRANCH   8  41
ENDBRANCH   2   3
TORSDOF 9
ENDMDL
MODEL        8
REMARK 921   NORMALIZED FREE ENERGY PREDICTED BY IDOCK:   -7.33 KCAL/MOL
REMARK 922        TOTAL FREE ENERGY PREDICTED BY IDOCK:  -13.06 KCAL/MOL
REMARK 923 INTER-LIGAND FREE ENERGY PREDICTED BY IDOCK:  -11.42 KCAL/MOL
REMARK 924 INTRA-LIGAND FREE ENERGY PREDICTED BY IDOCK:   -1.63 KCAL/MOL
REMARK 927      BINDING AFFINITY PREDICTED BY RF-SCORE:    0.00 PKD
ROOT
HETATM    1  C   UNL     1      -9.126   5.125  66.677  1.00  0.00    -0.120 C  
HETATM    2  O   UNL     1      -9.294   6.450  66.166  1.00  0.00    -0.153 OA 
ENDROOT
BRANCH   2   3
HETATM    3  C   UNL     1      -8.777   7.439  66.966  1.00  0.00    -0.123 A  
HETATM    4  C   UNL     1      -9.236   7.571  68.290  1.00  0.00    -0.138 A  
HETATM    5  C   UNL     1      -8.838   8.611  69.120  1.00  0.00    -0.137 A  
HETATM    6  C   UNL     1      -7.916   9.514  68.586  1.00  0.00    -0.092 A  
HETATM    7  C   UNL     1      -7.380   9.381  67.294  1.00  0.00    -0.087 A  
HETATM    8  C   UNL     1      -7.784   8.308  66.471  1.00  0.00    -0.092 A  
BRANCH   5   9
HETATM    9  N   UNL     1      -9.328   8.795  70.417  1.00  0.00    -0.169 NA 
HETATM   10  H   UNL     1      -8.597   8.787  71.128  1.00  0.00     0.000 HD 
BRANCH   9  11
HETATM   11  C   UNL     1     -10.605   8.986  70.945  1.00  0.00    -0.250 A  
HETATM   12  N   UNL     1     -11.123   7.896  71.529  1.00  0.00    -0.237 NA 
HETATM   13  N   UNL     1     -11.260  10.165  70.875  1.00  0.00    -0.341 NA 
HETATM   14  C   UNL     1     -12.504  10.263  71.412  1.00  0.00    -0.424 A  
HETATM   15  F   UNL     1     -14.248   9.260  72.705  1.00  0.00    -0.467 F  
HETATM   16  C   UNL     1     -12.345   8.027  72.086  1.00  0.00    -0.315 A  
HETATM   17  C   UNL     1     -13.062   9.199  72.086  1.00  0.00    -0.446 A  
BRANCH  14  18
HETATM   18  N   UNL     1     -13.112  11.525  71.295  1.00  0.00    -0.276 NA 
HETATM   19  H   UNL     1     -14.105  11.530  71.528  1.00  0.00     0.000 HD 
BRANCH  18  20
HETATM   20  C   UNL     1     -12.601  12.786  70.913  1.00  0.00    -0.255 A  
HETATM   21  N   UNL     1     -12.154  13.043  69.665  1.00  0.00    -0.278 NA 
HETATM   22  C   UNL     1     -11.746  14.309  69.342  1.00  0.00    -0.316 A  
HETATM   23  C   UNL     1     -11.686  15.332  70.285  1.00  0.00    -0.308 A  
HETATM   24  O   UNL     1     -11.180  16.582  70.038  1.00  0.00    -0.314 OA 
HETATM   25  C   UNL     1     -12.138  15.070  71.568  1.00  0.00    -0.403 A  
HETATM   26  C   UNL     1     -10.339  16.635  68.888  1.00  0.00    -0.300 C  
HETATM   27  C   UNL     1     -12.593  13.791  71.883  1.00  0.00    -0.284 A  
HETATM   28  C   UNL     1     -10.933  15.901  67.677  1.00  0.00    -0.298 C  
HETATM   29  C   UNL     1     -10.088  18.105  68.537  1.00  0.00    -0.413 C  
HETATM   30  C   UNL     1      -8.973  15.959  69.170  1.00  0.00    -0.256 C  
HETATM   31  N   UNL     1     -11.408  14.641  68.002  1.00  0.00    -0.296 N  
HETATM   32  O   UNL     1     -10.827  16.303  66.519  1.00  0.00    -0.240 OA 
BRANCH  31  33
HETATM   33  C   UNL     1     -11.356  13.662  66.969  1.00  0.00    -0.324 C  
BRANCH  33  34
HETATM   34  O   UNL     1     -12.402  13.871  66.075  1.00  0.00    -0.443 OA 
HETATM   35  P   UNL     1     -11.955  13.299  64.503  1.00  0.00    -0.441 P  
HETATM   36  O   UNL     1     -12.682  14.677  64.011  1.00  0.00    -0.772 OA 
HETATM   37  O   UNL     1     -13.302  12.385  64.630  1.00  0.00    -0.778 OA 
HETATM   38  O   UNL     1     -11.556  12.788  63.098  1.00  0.00    -0.445 OA 
ENDBRANCH  33  34
ENDBRANCH  31  33
ENDBRANCH  18  20
ENDBRANCH  14  18
ENDBRANCH   9  11
ENDBRANCH   5   9
BRANCH   7  39
HETATM   39  O   UNL     1      -6.530  10.418  66.993  1.00  0.00    -0.069 OA 
HETATM   40  C   UNL     1      -7.002  11.755  67.002  1.00  0.00    -0.135 C  
ENDBRANCH   7  39
BRANCH   8  41
HETATM   41  O   UNL     1      -7.137   8.199  65.273  1.00  0.00    -0.062 OA 
HETATM   42  C   UNL     1      -7.643   8.732  64.062  1.00  0.00    -0.123 C  
ENDBRANCH   8  41
ENDBRANCH   2   3
TORSDOF 9
ENDMDL
MODEL        9
REMARK 921   NORMALIZED FREE ENERGY PREDICTED BY IDOCK:   -7.32 KCAL/MOL
REMARK 922        TOTAL FREE ENERGY PREDICTED BY IDOCK:  -13.04 KCAL/MOL
REMARK 923 INTER-LIGAND FREE ENERGY PREDICTED BY IDOCK:  -12.00 KCAL/MOL
REMARK 924 INTRA-LIGAND FREE ENERGY PREDICTED BY IDOCK:   -1.04 KCAL/MOL
REMARK 927      BINDING AFFINITY PREDICTED BY RF-SCORE:    0.00 PKD
ROOT
HETATM    1  C   UNL     1     -11.700  15.818  64.321  1.00  0.00    -0.162 C  
HETATM    2  O   UNL     1     -10.713  16.764  64.740  1.00  0.00    -0.726 OA 
ENDROOT
BRANCH   2   3
HETATM    3  C   UNL     1     -10.139  16.486  65.956  1.00  0.00    -0.348 A  
HETATM    4  C   UNL     1     -10.595  15.384  66.702  1.00  0.00    -0.306 A  
HETATM    5  C   UNL     1     -10.137  15.106  67.984  1.00  0.00    -0.222 A  
HETATM    6  C   UNL     1      -9.159  15.964  68.493  1.00  0.00    -0.200 A  
HETATM    7  C   UNL     1      -8.627  17.036  67.757  1.00  0.00    -0.213 A  
HETATM    8  C   UNL     1      -9.093  17.292  66.449  1.00  0.00    -0.253 A  
BRANCH   5   9
HETATM    9  N   UNL     1     -10.620  14.052  68.766  1.00  0.00    -0.251 NA 
HETATM   10  H   UNL     1     -10.210  13.151  68.523  1.00  0.00     0.000 HD 
BRANCH   9  11
HETATM   11  C   UNL     1     -11.544  13.972  69.808  1.00  0.00    -0.281 A  
HETATM   12  N   UNL     1     -11.959  15.163  70.262  1.00  0.00    -0.295 NA 
HETATM   13  N   UNL     1     -11.982  12.799  70.314  1.00  0.00    -0.328 NA 
HETATM   14  C   UNL     1     -12.880  12.812  71.332  1.00  0.00    -0.275 A  
HETATM   15  F   UNL     1     -14.343  14.077  72.741  1.00  0.00    -0.441 F  
HETATM   16  C   UNL     1     -12.878  15.152  71.250  1.00  0.00    -0.391 A  
HETATM   17  C   UNL     1     -13.397  14.002  71.796  1.00  0.00    -0.386 A  
BRANCH  14  18
HETATM   18  N   UNL     1     -13.281  11.548  71.797  1.00  0.00    -0.432 NA 
HETATM   19  H   UNL     1     -14.130  11.564  72.363  1.00  0.00     0.000 HD 
BRANCH  18  20
HETATM   20  C   UNL     1     -12.726  10.260  71.626  1.00  0.00    -0.456 A  
HETATM   21  N   UNL     1     -11.549  10.053  70.997  1.00  0.00    -0.372 NA 
HETATM   22  C   UNL     1     -11.031   8.788  70.935  1.00  0.00    -0.262 A  
HETATM   23  C   UNL     1     -11.722   7.679  71.418  1.00  0.00    -0.283 A  
HETATM   24  O   UNL     1     -11.297   6.383  71.279  1.00  0.00    -0.282 OA 
HETATM   25  C   UNL     1     -12.932   7.887  72.058  1.00  0.00    -0.270 A  
HETATM   26  C   UNL     1     -10.328   6.213  70.248  1.00  0.00    -0.214 C  
HETATM   27  C   UNL     1     -13.437   9.183  72.158  1.00  0.00    -0.530 A  
HETATM   28  C   UNL     1      -9.224   7.280  70.281  1.00  0.00    -0.155 C  
HETATM   29  C   UNL     1      -9.711   4.817  70.386  1.00  0.00    -0.289 C  
HETATM   30  C   UNL     1     -10.984   6.320  68.848  1.00  0.00    -0.435 C  
HETATM   31  N   UNL     1      -9.731   8.562  70.408  1.00  0.00    -0.172 N  
HETATM   32  O   UNL     1      -8.042   7.043  70.034  1.00  0.00    -0.123 OA 
BRANCH  31  33
HETATM   33  C   UNL     1      -8.963   9.605  69.813  1.00  0.00    -0.211 C  
BRANCH  33  34
HETATM   34  O   UNL     1      -9.044   9.511  68.427  1.00  0.00    -0.127 OA 
HETATM   35  P   UNL     1     -10.404  10.417  67.855  1.00  0.00    -0.224 P  
HETATM   36  O   UNL     1     -10.609   9.121  66.881  1.00  0.00    -0.238 OA 
HETATM   37  O   UNL     1      -9.297  11.194  66.941  1.00  0.00    -0.171 OA 
HETATM   38  O   UNL     1     -11.620  11.227  67.344  1.00  0.00    -0.519 OA 
ENDBRANCH  33  34
ENDBRANCH  31  33
ENDBRANCH  18  20
ENDBRANCH  14  18
ENDBRANCH   9  11
ENDBRANCH   5   9
BRANCH   7  39
HETATM   39  O   UNL     1      -7.713  17.749  68.495  1.00  0.00    -0.271 OA 
HETATM   40  C   UNL     1      -6.329  17.454  68.395  1.00  0.00    -0.175 C  
ENDBRANCH   7  39
BRANCH   8  41
HETATM   41  O   UNL     1      -8.449  18.286  65.771  1.00  0.00    -0.473 OA 
HETATM   42  C   UNL     1      -8.685  19.664  65.999  1.00  0.00    -0.240 C  
ENDBRANCH   8  41
ENDBRANCH   2   3
TORSDOF 9
ENDMDL
MODEL       10
REMARK 921   NORMALIZED FREE ENERGY PREDICTED BY IDOCK:   -7.29 KCAL/MOL
REMARK 922        TOTAL FREE ENERGY PREDICTED BY IDOCK:  -12.99 KCAL/MOL
REMARK 923 INTER-LIGAND FREE ENERGY PREDICTED BY IDOCK:  -11.42 KCAL/MOL
REMARK 924 INTRA-LIGAND FREE ENERGY PREDICTED BY IDOCK:   -1.57 KCAL/MOL
REMARK 927      BINDING AFFINITY PREDICTED BY RF-SCORE:    0.00 PKD
ROOT
HETATM    1  C   UNL     1     -10.980  14.777  69.768  1.00  0.00    -0.234 C  
HETATM    2  O   UNL     1     -12.255  14.217  70.092  1.00  0.00    -0.307 OA 
ENDROOT
BRANCH   2   3
HETATM    3  C   UNL     1     -12.245  12.858  70.292  1.00  0.00    -0.289 A  
HETATM    4  C   UNL     1     -11.590  12.026  69.366  1.00  0.00    -0.393 A  
HETATM    5  C   UNL     1     -11.631  10.640  69.446  1.00  0.00    -0.280 A  
HETATM    6  C   UNL     1     -12.332  10.100  70.527  1.00  0.00    -0.330 A  
HETATM    7  C   UNL     1     -12.943  10.895  71.511  1.00  0.00    -0.451 A  
HETATM    8  C   UNL     1     -12.877  12.302  71.422  1.00  0.00    -0.271 A  
BRANCH   5   9
HETATM    9  N   UNL     1     -11.038   9.794  68.502  1.00  0.00    -0.462 NA 
HETATM   10  H   UNL     1     -10.942   8.833  68.829  1.00  0.00     0.000 HD 
BRANCH   9  11
HETATM   11  C   UNL     1     -10.550   9.986  67.210  1.00  0.00    -0.257 A  
HETATM   12  N   UNL     1      -9.650   9.070  66.824  1.00  0.00    -0.183 NA 
HETATM   13  N   UNL     1     -10.950  11.004  66.417  1.00  0.00    -0.193 NA 
HETATM   14  C   UNL     1     -10.420  11.120  65.172  1.00  0.00    -0.277 A  
HETATM   15  F   UNL     1      -9.050  10.186  63.448  1.00  0.00    -0.193 F  
HETATM   16  C   UNL     1      -9.164   9.185  65.570  1.00  0.00    -0.224 A  
HETATM   17  C   UNL     1      -9.543  10.171  64.692  1.00  0.00    -0.315 A  
BRANCH  14  18
HETATM   18  N   UNL     1     -10.892  12.206  64.416  1.00  0.00    -0.306 NA 
HETATM   19  H   UNL     1     -11.334  11.939  63.536  1.00  0.00     0.000 HD 
BRANCH  18  20
HETATM   20  C   UNL     1     -10.866  13.600  64.649  1.00  0.00    -0.407 A  
HETATM   21  N   UNL     1      -9.870  14.205  65.330  1.00  0.00    -0.244 NA 
HETATM   22  C   UNL     1      -9.867  15.568  65.451  1.00  0.00    -0.256 A  
HETATM   23  C   UNL     1     -10.912  16.357  64.976  1.00  0.00    -0.252 A  
HETATM   24  O   UNL     1     -11.010  17.711  65.171  1.00  0.00    -0.651 OA 
HETATM   25  C   UNL     1     -11.939  15.738  64.283  1.00  0.00    -0.062 A  
HETATM   26  C   UNL     1     -10.201  18.187  66.245  1.00  0.00    -0.395 C  
HETATM   27  C   UNL     1     -11.917  14.354  64.123  1.00  0.00    -0.373 A  
HETATM   28  C   UNL     1      -8.777  17.614  66.222  1.00  0.00    -0.179 C  
HETATM   29  C   UNL     1     -10.152  19.716  66.174  1.00  0.00    -0.574 C  
HETATM   30  C   UNL     1     -10.804  17.780  67.614  1.00  0.00    -0.234 C  
HETATM   31  N   UNL     1      -8.761  16.242  66.036  1.00  0.00    -0.315 N  
HETATM   32  O   UNL     1      -7.777  18.265  66.523  1.00  0.00    -0.228 OA 
BRANCH  31  33
HETATM   33  C   UNL     1      -7.672  15.538  66.628  1.00  0.00     0.046 C  
BRANCH  33  34
HETATM   34  O   UNL     1      -8.112  14.876  67.770  1.00  0.00    -0.133 OA 
HETATM   35  P   UNL     1      -6.948  13.686  68.244  1.00  0.00    -0.148 P  
HETATM   36  O   UNL     1      -8.278  12.773  68.507  1.00  0.00    -0.142 OA 
HETATM   37  O   UNL     1      -6.954  14.481  69.670  1.00  0.00    -0.152 OA 
HETATM   38  O   UNL     1      -5.907  12.621  68.668  1.00  0.00    -0.060 OA 
ENDBRANCH  33  34
ENDBRANCH  31  33
ENDBRANCH  18  20
ENDBRANCH  14  18
ENDBRANCH   9  11
ENDBRANCH   5   9
BRANCH   7  39
HETATM   39  O   UNL     1     -13.601  10.126  72.440  1.00  0.00    -0.308 OA 
HETATM   40  C   UNL     1     -13.764   8.733  72.228  1.00  0.00    -0.440 C  
ENDBRANCH   7  39
BRANCH   8  41
HETATM   41  O   UNL     1     -13.408  12.991  72.474  1.00  0.00    -0.519 OA 
HETATM   42  C   UNL     1     -14.403  13.988  72.330  1.00  0.00    -0.429 C  
ENDBRANCH   8  41
ENDBRANCH   2   3
TORSDOF 9
ENDMDL
MODEL       11
REMARK 921   NORMALIZED FREE ENERGY PREDICTED BY IDOCK:   -7.24 KCAL/MOL
REMARK 922        TOTAL FREE ENERGY PREDICTED BY IDOCK:  -12.92 KCAL/MOL
REMARK 923 INTER-LIGAND FREE ENERGY PREDICTED BY IDOCK:  -11.59 KCAL/MOL
REMARK 924 INTRA-LIGAND FREE ENERGY PREDICTED BY IDOCK:   -1.33 KCAL/MOL
REMARK 927      BINDING AFFINITY PREDICTED BY RF-SCORE:    0.00 PKD
ROOT
HETATM    1  C   UNL     1      -9.767   4.773  68.663  1.00  0.00    -0.157 C  
HETATM    2  O   UNL     1     -10.421   4.722  69.934  1.00  0.00    -0.181 OA 
ENDROOT
BRANCH   2   3
HETATM    3  C   UNL     1     -10.555   5.940  70.554  1.00  0.00    -0.275 A  
HETATM    4  C   UNL     1     -11.085   7.028  69.837  1.00  0.00    -0.301 A  
HETATM    5  C   UNL     1     -11.150   8.312  70.365  1.00  0.00    -0.235 A  
HETATM    6  C   UNL     1     -10.691   8.469  71.675  1.00  0.00    -0.351 A  
HETATM    7  C   UNL     1     -10.216   7.397  72.450  1.00  0.00    -0.199 A  
HETATM    8  C   UNL     1     -10.174   6.096  71.902  1.00  0.00    -0.200 A  
BRANCH   5   9
HETATM    9  N   UNL     1     -11.617   9.418  69.649  1.00  0.00    -0.429 NA 
HETATM   10  H   UNL     1     -12.364   9.921  70.128  1.00  0.00     0.000 HD 
BRANCH   9  11
HETATM   11  C   UNL     1     -11.278   9.981  68.418  1.00  0.00    -0.127 A  
HETATM   12  N   UNL     1     -10.444   9.230  67.686  1.00  0.00    -0.253 NA 
HETATM   13  N   UNL     1     -11.750  11.176  68.002  1.00  0.00    -0.576 NA 
HETATM   14  C   UNL     1     -11.365  11.653  66.790  1.00  0.00    -0.286 A  
HETATM   15  F   UNL     1     -10.219  11.276  64.724  1.00  0.00    -0.268 F  
HETATM   16  C   UNL     1     -10.103   9.707  66.470  1.00  0.00    -0.244 A  
HETATM   17  C   UNL     1     -10.565  10.897  65.961  1.00  0.00    -0.189 A  
BRANCH  14  18
HETATM   18  N   UNL     1     -11.903  12.902  66.436  1.00  0.00    -0.400 NA 
HETATM   19  H   UNL     1     -12.905  12.884  66.247  1.00  0.00     0.000 HD 
BRANCH  18  20
HETATM   20  C   UNL     1     -11.311  14.177  66.292  1.00  0.00    -0.338 A  
HETATM   21  N   UNL     1     -10.848  14.886  67.344  1.00  0.00    -0.296 NA 
HETATM   22  C   UNL     1     -10.215  16.080  67.126  1.00  0.00    -0.278 A  
HETATM   23  C   UNL     1     -10.111  16.643  65.856  1.00  0.00    -0.320 A  
HETATM   24  O   UNL     1      -9.588  17.885  65.602  1.00  0.00    -0.457 OA 
HETATM   25  C   UNL     1     -10.591  15.921  64.776  1.00  0.00    -0.146 A  
HETATM   26  C   UNL     1      -9.548  18.728  66.751  1.00  0.00    -0.321 C  
HETATM   27  C   UNL     1     -11.197  14.685  64.997  1.00  0.00    -0.388 A  
HETATM   28  C   UNL     1      -9.006  18.015  67.999  1.00  0.00    -0.272 C  
HETATM   29  C   UNL     1      -8.680  19.949  66.428  1.00  0.00    -0.397 C  
HETATM   30  C   UNL     1     -10.968  19.223  67.124  1.00  0.00    -0.439 C  
HETATM   31  N   UNL     1      -9.592  16.777  68.197  1.00  0.00    -0.236 N  
HETATM   32  O   UNL     1      -8.279  18.558  68.830  1.00  0.00    -0.312 OA 
BRANCH  31  33
HETATM   33  C   UNL     1      -9.700  16.340  69.549  1.00  0.00    -0.131 C  
BRANCH  33  34
HETATM   34  O   UNL     1     -10.951  16.684  70.052  1.00  0.00    -0.333 OA 
HETATM   35  P   UNL     1     -11.552  15.409  71.056  1.00  0.00    -0.441 P  
HETATM   36  O   UNL     1     -12.959  15.736  70.292  1.00  0.00    -0.340 OA 
HETATM   37  O   UNL     1     -11.656  16.574  72.196  1.00  0.00    -0.424 OA 
HETATM   38  O   UNL     1     -12.090  14.269  71.954  1.00  0.00    -0.253 OA 
ENDBRANCH  33  34
ENDBRANCH  31  33
ENDBRANCH  18  20
ENDBRANCH  14  18
ENDBRANCH   9  11
ENDBRANCH   5   9
BRANCH   7  39
HETATM   39  O   UNL     1      -9.788   7.820  73.685  1.00  0.00    -0.290 OA 
HETATM   40  C   UNL     1      -8.418   8.118  73.902  1.00  0.00    -0.241 C  
ENDBRANCH   7  39
BRANCH   8  41
HETATM   41  O   UNL     1      -9.797   5.101  72.757  1.00  0.00    -0.155 OA 
HETATM   42  C   UNL     1      -8.494   4.546  72.782  1.00  0.00    -0.113 C  
ENDBRANCH   8  41
ENDBRANCH   2   3
TORSDOF 9
ENDMDL
MODEL       12
REMARK 921   NORMALIZED FREE ENERGY PREDICTED BY IDOCK:   -7.20 KCAL/MOL
REMARK 922        TOTAL FREE ENERGY PREDICTED BY IDOCK:  -12.85 KCAL/MOL
REMARK 923 INTER-LIGAND FREE ENERGY PREDICTED BY IDOCK:  -11.49 KCAL/MOL
REMARK 924 INTRA-LIGAND FREE ENERGY PREDICTED BY IDOCK:   -1.36 KCAL/MOL
REMARK 927      BINDING AFFINITY PREDICTED BY RF-SCORE:    0.00 PKD
ROOT
HETATM    1  C   UNL     1      -8.494  10.432  65.238  1.00  0.00    -0.169 C  
HETATM    2  O   UNL     1      -8.362   9.030  64.991  1.00  0.00    -0.146 OA 
ENDROOT
BRANCH   2   3
HETATM    3  C   UNL     1      -8.608   8.233  66.082  1.00  0.00    -0.140 A  
HETATM    4  C   UNL     1      -8.932   8.828  67.315  1.00  0.00    -0.144 A  
HETATM    5  C   UNL     1      -9.088   8.093  68.483  1.00  0.00    -0.136 A  
HETATM    6  C   UNL     1      -8.942   6.708  68.370  1.00  0.00    -0.123 A  
HETATM    7  C   UNL     1      -8.685   6.067  67.146  1.00  0.00    -0.109 A  
HETATM    8  C   UNL     1      -8.547   6.830  65.967  1.00  0.00    -0.145 A  
BRANCH   5   9
HETATM    9  N   UNL     1      -9.350   8.670  69.730  1.00  0.00    -0.163 NA 
HETATM   10  H   UNL     1      -8.513   9.017  70.197  1.00  0.00     0.000 HD 
BRANCH   9  11
HETATM   11  C   UNL     1     -10.515   8.871  70.471  1.00  0.00    -0.215 A  
HETATM   12  N   UNL     1     -10.900   7.802  71.183  1.00  0.00    -0.232 NA 
HETATM   13  N   UNL     1     -11.193  10.038  70.472  1.00  0.00    -0.313 NA 
HETATM   14  C   UNL     1     -12.322  10.147  71.220  1.00  0.00    -0.400 A  
HETATM   15  F   UNL     1     -13.787   9.183  72.846  1.00  0.00    -0.469 F  
HETATM   16  C   UNL     1     -12.005   7.944  71.946  1.00  0.00    -0.305 A  
HETATM   17  C   UNL     1     -12.731   9.108  72.026  1.00  0.00    -0.398 A  
BRANCH  14  18
HETATM   18  N   UNL     1     -12.964  11.396  71.163  1.00  0.00    -0.316 NA 
HETATM   19  H   UNL     1     -13.956  11.364  71.395  1.00  0.00     0.000 HD 
BRANCH  18  20
HETATM   20  C   UNL     1     -12.487  12.688  70.843  1.00  0.00    -0.278 A  
HETATM   21  N   UNL     1     -12.030  13.011  69.614  1.00  0.00    -0.318 NA 
HETATM   22  C   UNL     1     -11.657  14.301  69.351  1.00  0.00    -0.306 A  
HETATM   23  C   UNL     1     -11.643  15.284  70.337  1.00  0.00    -0.308 A  
HETATM   24  O   UNL     1     -11.173  16.559  70.151  1.00  0.00    -0.323 OA 
HETATM   25  C   UNL     1     -12.105  14.955  71.600  1.00  0.00    -0.415 A  
HETATM   26  C   UNL     1     -10.317  16.686  69.018  1.00  0.00    -0.317 C  
HETATM   27  C   UNL     1     -12.525  13.650  71.854  1.00  0.00    -0.152 A  
HETATM   28  C   UNL     1     -10.869  15.987  67.768  1.00  0.00    -0.324 C  
HETATM   29  C   UNL     1     -10.106  18.177  68.734  1.00  0.00    -0.392 C  
HETATM   30  C   UNL     1      -8.934  16.042  69.294  1.00  0.00    -0.228 C  
HETATM   31  N   UNL     1     -11.309  14.701  68.032  1.00  0.00    -0.296 N  
HETATM   32  O   UNL     1     -10.759  16.441  66.630  1.00  0.00    -0.278 OA 
BRANCH  31  33
HETATM   33  C   UNL     1     -11.211  13.768  66.959  1.00  0.00    -0.311 C  
BRANCH  33  34
HETATM   34  O   UNL     1     -12.264  13.967  66.071  1.00  0.00    -0.412 OA 
HETATM   35  P   UNL     1     -11.880  13.262  64.537  1.00  0.00    -0.437 P  
HETATM   36  O   UNL     1     -12.547  14.638  63.959  1.00  0.00    -0.819 OA 
HETATM   37  O   UNL     1     -13.268  12.430  64.753  1.00  0.00    -0.784 OA 
HETATM   38  O   UNL     1     -11.537  12.633  63.166  1.00  0.00    -0.442 OA 
ENDBRANCH  33  34
ENDBRANCH  31  33
ENDBRANCH  18  20
ENDBRANCH  14  18
ENDBRANCH   9  11
ENDBRANCH   5   9
BRANCH   7  39
HETATM   39  O   UNL     1      -8.545   4.710  67.309  1.00  0.00    -0.105 OA 
HETATM   40  C   UNL     1      -9.662   3.852  67.144  1.00  0.00    -0.139 C  
ENDBRANCH   7  39
BRANCH   8  41
HETATM   41  O   UNL     1      -8.402   6.119  64.810  1.00  0.00    -0.135 OA 
HETATM   42  C   UNL     1      -7.144   5.774  64.260  1.00  0.00    -0.053 C  
ENDBRANCH   8  41
ENDBRANCH   2   3
TORSDOF 9
ENDMDL
MODEL       13
REMARK 921   NORMALIZED FREE ENERGY PREDICTED BY IDOCK:   -7.15 KCAL/MOL
REMARK 922        TOTAL FREE ENERGY PREDICTED BY IDOCK:  -12.78 KCAL/MOL
REMARK 923 INTER-LIGAND FREE ENERGY PREDICTED BY IDOCK:  -11.69 KCAL/MOL
REMARK 924 INTRA-LIGAND FREE ENERGY PREDICTED BY IDOCK:   -1.09 KCAL/MOL
REMARK 927      BINDING AFFINITY PREDICTED BY RF-SCORE:    0.00 PKD
ROOT
HETATM    1  C   UNL     1     -10.190  20.235  68.334  1.00  0.00    -0.199 C  
HETATM    2  O   UNL     1      -9.900  18.964  68.922  1.00  0.00    -0.399 OA 
ENDROOT
BRANCH   2   3
HETATM    3  C   UNL     1      -9.364  18.044  68.055  1.00  0.00    -0.272 A  
HETATM    4  C   UNL     1     -10.119  17.616  66.947  1.00  0.00    -0.331 A  
HETATM    5  C   UNL     1      -9.686  16.611  66.090  1.00  0.00    -0.303 A  
HETATM    6  C   UNL     1      -8.430  16.062  66.361  1.00  0.00    -0.363 A  
HETATM    7  C   UNL     1      -7.616  16.507  67.416  1.00  0.00    -0.149 A  
HETATM    8  C   UNL     1      -8.065  17.540  68.265  1.00  0.00    -0.268 A  
BRANCH   5   9
HETATM    9  N   UNL     1     -10.446  16.129  65.020  1.00  0.00    -0.615 NA 
HETATM   10  H   UNL     1     -10.699  16.853  64.348  1.00  0.00     0.000 HD 
BRANCH   9  11
HETATM   11  C   UNL     1     -10.931  14.866  64.676  1.00  0.00    -0.306 A  
HETATM   12  N   UNL     1     -12.063  14.894  63.958  1.00  0.00    -0.502 NA 
HETATM   13  N   UNL     1     -10.314  13.720  65.033  1.00  0.00    -0.379 NA 
HETATM   14  C   UNL     1     -10.858  12.533  64.660  1.00  0.00    -0.310 A  
HETATM   15  F   UNL     1     -12.516  11.361  63.396  1.00  0.00    -0.506 F  
HETATM   16  C   UNL     1     -12.565  13.704  63.568  1.00  0.00     0.092 A  
HETATM   17  C   UNL     1     -11.981  12.495  63.863  1.00  0.00    -0.480 A  
BRANCH  14  18
HETATM   18  N   UNL     1     -10.151  11.390  65.074  1.00  0.00    -0.259 NA 
HETATM   19  H   UNL     1      -9.409  11.106  64.434  1.00  0.00     0.000 HD 
BRANCH  18  20
HETATM   20  C   UNL     1     -10.279  10.563  66.212  1.00  0.00    -0.235 A  
HETATM   21  N   UNL     1     -10.756  11.017  67.391  1.00  0.00    -0.240 NA 
HETATM   22  C   UNL     1     -10.928  10.143  68.430  1.00  0.00    -0.244 A  
HETATM   23  C   UNL     1     -10.539   8.808  68.349  1.00  0.00    -0.137 A  
HETATM   24  O   UNL     1     -10.587   7.924  69.396  1.00  0.00    -0.225 OA 
HETATM   25  C   UNL     1     -10.044   8.341  67.143  1.00  0.00    -0.334 A  
HETATM   26  C   UNL     1     -10.658   8.559  70.670  1.00  0.00    -0.209 C  
HETATM   27  C   UNL     1      -9.911   9.224  66.072  1.00  0.00    -0.363 A  
HETATM   28  C   UNL     1     -11.680   9.704  70.713  1.00  0.00    -0.314 C  
HETATM   29  C   UNL     1     -11.011   7.502  71.721  1.00  0.00    -0.268 C  
HETATM   30  C   UNL     1      -9.294   9.189  71.051  1.00  0.00    -0.333 C  
HETATM   31  N   UNL     1     -11.560  10.562  69.633  1.00  0.00    -0.266 N  
HETATM   32  O   UNL     1     -12.395   9.941  71.686  1.00  0.00    -0.372 OA 
BRANCH  31  33
HETATM   33  C   UNL     1     -11.928  11.919  69.862  1.00  0.00    -0.325 C  
BRANCH  33  34
HETATM   34  O   UNL     1     -11.464  12.711  68.816  1.00  0.00    -0.260 OA 
HETATM   35  P   UNL     1     -11.629  14.384  69.228  1.00  0.00    -0.343 P  
HETATM   36  O   UNL     1     -12.134  14.513  67.679  1.00  0.00    -0.343 OA 
HETATM   37  O   UNL     1     -10.025  14.449  68.932  1.00  0.00    -0.225 OA 
HETATM   38  O   UNL     1     -11.776  15.881  69.595  1.00  0.00    -0.333 OA 
ENDBRANCH  33  34
ENDBRANCH  31  33
ENDBRANCH  18  20
ENDBRANCH  14  18
ENDBRANCH   9  11
ENDBRANCH   5   9
BRANCH   7  39
HETATM   39  O   UNL     1      -6.452  15.779  67.493  1.00  0.00    -0.152 OA 
HETATM   40  C   UNL     1      -6.364  14.665  68.367  1.00  0.00    -0.100 C  
ENDBRANCH   7  39
BRANCH   8  41
HETATM   41  O   UNL     1      -7.168  17.979  69.197  1.00  0.00    -0.241 OA 
HETATM   42  C   UNL     1      -6.438  19.186  69.068  1.00  0.00    -0.283 C  
ENDBRANCH   8  41
ENDBRANCH   2   3
TORSDOF 9
ENDMDL
MODEL       14
REMARK 921   NORMALIZED FREE ENERGY PREDICTED BY IDOCK:   -7.15 KCAL/MOL
REMARK 922        TOTAL FREE ENERGY PREDICTED BY IDOCK:  -12.78 KCAL/MOL
REMARK 923 INTER-LIGAND FREE ENERGY PREDICTED BY IDOCK:  -11.86 KCAL/MOL
REMARK 924 INTRA-LIGAND FREE ENERGY PREDICTED BY IDOCK:   -0.92 KCAL/MOL
REMARK 927      BINDING AFFINITY PREDICTED BY RF-SCORE:    0.00 PKD
ROOT
HETATM    1  C   UNL     1     -10.244   6.589  74.163  1.00  0.00    -0.358 C  
HETATM    2  O   UNL     1     -10.969   5.584  73.449  1.00  0.00    -0.276 OA 
ENDROOT
BRANCH   2   3
HETATM    3  C   UNL     1     -10.639   5.480  72.120  1.00  0.00    -0.226 A  
HETATM    4  C   UNL     1     -10.826   6.586  71.271  1.00  0.00    -0.294 A  
HETATM    5  C   UNL     1     -10.616   6.520  69.899  1.00  0.00    -0.233 A  
HETATM    6  C   UNL     1     -10.168   5.295  69.397  1.00  0.00    -0.321 A  
HETATM    7  C   UNL     1      -9.904   4.186  70.218  1.00  0.00    -0.169 A  
HETATM    8  C   UNL     1     -10.107   4.278  71.612  1.00  0.00    -0.146 A  
BRANCH   5   9
HETATM    9  N   UNL     1     -10.854   7.589  69.029  1.00  0.00    -0.402 NA 
HETATM   10  H   UNL     1     -11.555   7.381  68.319  1.00  0.00     0.000 HD 
BRANCH   9  11
HETATM   11  C   UNL     1     -10.335   8.880  68.927  1.00  0.00    -0.212 A  
HETATM   12  N   UNL     1      -9.032   8.921  68.615  1.00  0.00    -0.137 NA 
HETATM   13  N   UNL     1     -11.080   9.988  69.124  1.00  0.00    -0.215 NA 
HETATM   14  C   UNL     1     -10.493  11.208  69.009  1.00  0.00    -0.206 A  
HETATM   15  F   UNL     1      -8.564  12.491  68.415  1.00  0.00    -0.165 F  
HETATM   16  C   UNL     1      -8.478  10.144  68.472  1.00  0.00    -0.121 A  
HETATM   17  C   UNL     1      -9.175  11.319  68.623  1.00  0.00    -0.161 A  
BRANCH  14  18
HETATM   18  N   UNL     1     -11.341  12.307  69.230  1.00  0.00    -0.330 NA 
HETATM   19  H   UNL     1     -12.261  12.056  69.590  1.00  0.00     0.000 HD 
BRANCH  18  20
HETATM   20  C   UNL     1     -11.153  13.696  69.045  1.00  0.00    -0.255 A  
HETATM   21  N   UNL     1     -10.871  14.238  67.840  1.00  0.00    -0.250 NA 
HETATM   22  C   UNL     1     -10.779  15.597  67.717  1.00  0.00    -0.297 A  
HETATM   23  C   UNL     1     -10.873  16.449  68.815  1.00  0.00    -0.338 A  
HETATM   24  O   UNL     1     -10.677  17.805  68.761  1.00  0.00    -0.221 OA 
HETATM   25  C   UNL     1     -11.156  15.896  70.053  1.00  0.00    -0.356 A  
HETATM   26  C   UNL     1      -9.959  18.226  67.603  1.00  0.00    -0.338 C  
HETATM   27  C   UNL     1     -11.292  14.513  70.168  1.00  0.00    -0.250 A  
HETATM   28  C   UNL     1     -10.468  17.570  66.311  1.00  0.00    -0.283 C  
HETATM   29  C   UNL     1     -10.067  19.751  67.493  1.00  0.00    -0.554 C  
HETATM   30  C   UNL     1      -8.460  17.849  67.713  1.00  0.00    -0.242 C  
HETATM   31  N   UNL     1     -10.627  16.201  66.440  1.00  0.00    -0.297 N  
HETATM   32  O   UNL     1     -10.543  18.159  65.234  1.00  0.00    -0.591 OA 
BRANCH  31  33
HETATM   33  C   UNL     1     -10.439  15.431  65.255  1.00  0.00    -0.415 C  
BRANCH  33  34
HETATM   34  O   UNL     1     -11.668  15.219  64.638  1.00  0.00    -0.392 OA 
HETATM   35  P   UNL     1     -12.146  13.567  64.831  1.00  0.00    -0.437 P  
HETATM   36  O   UNL     1     -12.598  13.719  63.268  1.00  0.00    -0.830 OA 
HETATM   37  O   UNL     1     -13.491  14.203  65.502  1.00  0.00    -0.643 OA 
HETATM   38  O   UNL     1     -12.574  12.089  65.004  1.00  0.00    -0.415 OA 
ENDBRANCH  33  34
ENDBRANCH  31  33
ENDBRANCH  18  20
ENDBRANCH  14  18
ENDBRANCH   9  11
ENDBRANCH   5   9
BRANCH   7  39
HETATM   39  O   UNL     1      -9.515   3.095  69.479  1.00  0.00    -0.162 OA 
HETATM   40  C   UNL     1      -8.141   2.763  69.366  1.00  0.00    -0.047 C  
ENDBRANCH   7  39
BRANCH   8  41
HETATM   41  O   UNL     1      -9.728   3.188  72.342  1.00  0.00    -0.128 OA 
HETATM   42  C   UNL     1     -10.641   2.223  72.835  1.00  0.00    -0.149 C  
ENDBRANCH   8  41
ENDBRANCH   2   3
TORSDOF 9
ENDMDL
MODEL       15
REMARK 921   NORMALIZED FREE ENERGY PREDICTED BY IDOCK:   -7.14 KCAL/MOL
REMARK 922        TOTAL FREE ENERGY PREDICTED BY IDOCK:  -12.77 KCAL/MOL
REMARK 923 INTER-LIGAND FREE ENERGY PREDICTED BY IDOCK:  -10.97 KCAL/MOL
REMARK 924 INTRA-LIGAND FREE ENERGY PREDICTED BY IDOCK:   -1.80 KCAL/MOL
REMARK 927      BINDING AFFINITY PREDICTED BY RF-SCORE:    0.00 PKD
ROOT
HETATM    1  C   UNL     1     -11.330  15.544  71.363  1.00  0.00    -0.395 C  
HETATM    2  O   UNL     1     -11.192  16.708  70.545  1.00  0.00    -0.250 OA 
ENDROOT
BRANCH   2   3
HETATM    3  C   UNL     1     -11.005  16.446  69.209  1.00  0.00    -0.322 A  
HETATM    4  C   UNL     1     -11.616  15.317  68.632  1.00  0.00    -0.370 A  
HETATM    5  C   UNL     1     -11.386  14.931  67.318  1.00  0.00    -0.349 A  
HETATM    6  C   UNL     1     -10.534  15.749  66.570  1.00  0.00    -0.304 A  
HETATM    7  C   UNL     1      -9.957  16.921  67.087  1.00  0.00    -0.276 A  
HETATM    8  C   UNL     1     -10.216  17.306  68.420  1.00  0.00    -0.358 A  
BRANCH   5   9
HETATM    9  N   UNL     1     -11.936  13.781  66.743  1.00  0.00    -0.413 NA 
HETATM   10  H   UNL     1     -12.899  13.609  67.030  1.00  0.00     0.000 HD 
BRANCH   9  11
HETATM   11  C   UNL     1     -11.445  12.818  65.860  1.00  0.00    -0.356 A  
HETATM   12  N   UNL     1     -12.013  12.852  64.646  1.00  0.00    -0.369 NA 
HETATM   13  N   UNL     1     -10.484  11.933  66.198  1.00  0.00    -0.230 NA 
HETATM   14  C   UNL     1     -10.067  11.026  65.277  1.00  0.00    -0.275 A  
HETATM   15  F   UNL     1     -10.133  10.239  63.019  1.00  0.00    -0.289 F  
HETATM   16  C   UNL     1     -11.559  11.964  63.737  1.00  0.00    -0.462 A  
HETATM   17  C   UNL     1     -10.562  11.053  63.992  1.00  0.00    -0.324 A  
BRANCH  14  18
HETATM   18  N   UNL     1      -9.064  10.143  65.713  1.00  0.00    -0.163 NA 
HETATM   19  H   UNL     1      -8.117  10.443  65.479  1.00  0.00     0.000 HD 
BRANCH  18  20
HETATM   20  C   UNL     1      -9.124   8.918  66.415  1.00  0.00    -0.174 A  
HETATM   21  N   UNL     1      -9.505   8.838  67.708  1.00  0.00    -0.140 NA 
HETATM   22  C   UNL     1      -9.617   7.612  68.303  1.00  0.00    -0.153 A  
HETATM   23  C   UNL     1      -9.261   6.435  67.650  1.00  0.00    -0.116 A  
HETATM   24  O   UNL     1      -9.249   5.196  68.238  1.00  0.00    -0.110 OA 
HETATM   25  C   UNL     1      -8.865   6.513  66.325  1.00  0.00    -0.154 A  
HETATM   26  C   UNL     1      -9.214   5.248  69.663  1.00  0.00    -0.118 C  
HETATM   27  C   UNL     1      -8.793   7.761  65.707  1.00  0.00    -0.141 A  
HETATM   28  C   UNL     1     -10.209   6.260  70.250  1.00  0.00    -0.196 C  
HETATM   29  C   UNL     1      -9.511   3.846  70.207  1.00  0.00    -0.255 C  
HETATM   30  C   UNL     1      -7.814   5.681  70.167  1.00  0.00    -0.091 C  
HETATM   31  N   UNL     1     -10.151   7.489  69.615  1.00  0.00    -0.185 N  
HETATM   32  O   UNL     1     -10.845   6.065  71.285  1.00  0.00    -0.251 OA 
BRANCH  31  33
HETATM   33  C   UNL     1     -10.475   8.626  70.411  1.00  0.00    -0.208 C  
BRANCH  33  34
HETATM   34  O   UNL     1     -11.767   9.048  70.116  1.00  0.00    -0.085 OA 
HETATM   35  P   UNL     1     -11.940  10.726  70.504  1.00  0.00    -0.394 P  
HETATM   36  O   UNL     1     -13.384  10.240  71.093  1.00  0.00    -0.361 OA 
HETATM   37  O   UNL     1     -12.389  10.876  68.942  1.00  0.00    -0.486 OA 
HETATM   38  O   UNL     1     -12.094  12.227  70.851  1.00  0.00    -0.296 OA 
ENDBRANCH  33  34
ENDBRANCH  31  33
ENDBRANCH  18  20
ENDBRANCH  14  18
ENDBRANCH   9  11
ENDBRANCH   5   9
BRANCH   7  39
HETATM   39  O   UNL     1      -9.130  17.521  66.168  1.00  0.00    -0.445 OA 
HETATM   40  C   UNL     1      -7.726  17.339  66.244  1.00  0.00    -0.318 C  
ENDBRANCH   7  39
BRANCH   8  41
HETATM   41  O   UNL     1      -9.698  18.509  68.804  1.00  0.00    -0.357 OA 
HETATM   42  C   UNL     1     -10.280  19.754  68.460  1.00  0.00    -0.433 C  
ENDBRANCH   8  41
ENDBRANCH   2   3
TORSDOF 9
ENDMDL
MODEL       16
REMARK 921   NORMALIZED FREE ENERGY PREDICTED BY IDOCK:   -7.14 KCAL/MOL
REMARK 922        TOTAL FREE ENERGY PREDICTED BY IDOCK:  -12.77 KCAL/MOL
REMARK 923 INTER-LIGAND FREE ENERGY PREDICTED BY IDOCK:  -10.80 KCAL/MOL
REMARK 924 INTRA-LIGAND FREE ENERGY PREDICTED BY IDOCK:   -1.97 KCAL/MOL
REMARK 927      BINDING AFFINITY PREDICTED BY RF-SCORE:    0.00 PKD
ROOT
HETATM    1  C   UNL     1     -12.234  11.103  70.684  1.00  0.00    -0.397 C  
HETATM    2  O   UNL     1     -12.299  12.517  70.882  1.00  0.00    -0.372 OA 
ENDROOT
BRANCH   2   3
HETATM    3  C   UNL     1     -12.141  13.260  69.738  1.00  0.00    -0.290 A  
HETATM    4  C   UNL     1     -12.275  12.638  68.484  1.00  0.00     0.040 A  
HETATM    5  C   UNL     1     -12.023  13.301  67.289  1.00  0.00    -0.343 A  
HETATM    6  C   UNL     1     -11.661  14.647  67.389  1.00  0.00    -0.413 A  
HETATM    7  C   UNL     1     -11.581  15.324  68.617  1.00  0.00    -0.354 A  
HETATM    8  C   UNL     1     -11.857  14.638  69.820  1.00  0.00    -0.316 A  
BRANCH   5   9
HETATM    9  N   UNL     1     -12.092  12.685  66.035  1.00  0.00    -0.574 NA 
HETATM   10  H   UNL     1     -12.953  12.896  65.531  1.00  0.00     0.000 HD 
BRANCH   9  11
HETATM   11  C   UNL     1     -11.233  11.844  65.327  1.00  0.00    -0.295 A  
HETATM   12  N   UNL     1     -10.962  12.263  64.083  1.00  0.00    -0.331 NA 
HETATM   13  N   UNL     1     -10.718  10.711  65.850  1.00  0.00    -0.099 NA 
HETATM   14  C   UNL     1      -9.892   9.948  65.090  1.00  0.00    -0.278 A  
HETATM   15  F   UNL     1      -8.648   9.692  63.063  1.00  0.00    -0.150 F  
HETATM   16  C   UNL     1     -10.111  11.507  63.358  1.00  0.00    -0.420 A  
HETATM   17  C   UNL     1      -9.521  10.359  63.828  1.00  0.00    -0.305 A  
BRANCH  14  18
HETATM   18  N   UNL     1      -9.402   8.787  65.713  1.00  0.00    -0.361 NA 
HETATM   19  H   UNL     1      -8.612   8.358  65.230  1.00  0.00     0.000 HD 
BRANCH  18  20
HETATM   20  C   UNL     1      -9.801   8.104  66.884  1.00  0.00    -0.247 A  
HETATM   21  N   UNL     1      -9.509   8.554  68.123  1.00  0.00    -0.140 NA 
HETATM   22  C   UNL     1      -9.994   7.887  69.215  1.00  0.00    -0.190 A  
HETATM   23  C   UNL     1     -10.707   6.696  69.099  1.00  0.00    -0.264 A  
HETATM   24  O   UNL     1     -11.116   5.933  70.163  1.00  0.00    -0.348 OA 
HETATM   25  C   UNL     1     -11.003   6.228  67.830  1.00  0.00    -0.427 A  
HETATM   26  C   UNL     1     -10.403   6.213  71.366  1.00  0.00    -0.214 C  
HETATM   27  C   UNL     1     -10.544   6.934  66.719  1.00  0.00    -0.304 A  
HETATM   28  C   UNL     1     -10.254   7.717  71.638  1.00  0.00    -0.185 C  
HETATM   29  C   UNL     1     -11.137   5.541  72.532  1.00  0.00    -0.324 C  
HETATM   30  C   UNL     1      -8.963   5.644  71.302  1.00  0.00    -0.149 C  
HETATM   31  N   UNL     1      -9.824   8.416  70.523  1.00  0.00    -0.182 N  
HETATM   32  O   UNL     1     -10.322   8.215  72.761  1.00  0.00    -0.313 OA 
BRANCH  31  33
HETATM   33  C   UNL     1      -9.045   9.583  70.773  1.00  0.00    -0.110 C  
BRANCH  33  34
HETATM   34  O   UNL     1      -7.705   9.232  70.899  1.00  0.00    -0.152 OA 
HETATM   35  P   UNL     1      -6.728  10.283  69.931  1.00  0.00    -0.151 P  
HETATM   36  O   UNL     1      -5.947   8.896  69.562  1.00  0.00    -0.036 OA 
HETATM   37  O   UNL     1      -5.955  10.593  71.336  1.00  0.00    -0.340 OA 
HETATM   38  O   UNL     1      -5.854  11.223  69.066  1.00  0.00    -0.040 OA 
ENDBRANCH  33  34
ENDBRANCH  31  33
ENDBRANCH  18  20
ENDBRANCH  14  18
ENDBRANCH   9  11
ENDBRANCH   5   9
BRANCH   7  39
HETATM   39  O   UNL     1     -11.166  16.623  68.448  1.00  0.00    -0.357 OA 
HETATM   40  C   UNL     1     -10.206  16.943  67.455  1.00  0.00    -0.298 C  
ENDBRANCH   7  39
BRANCH   8  41
HETATM   41  O   UNL     1     -11.856  15.399  70.953  1.00  0.00    -0.293 OA 
HETATM   42  C   UNL     1     -13.029  15.713  71.683  1.00  0.00    -0.476 C  
ENDBRANCH   8  41
ENDBRANCH   2   3
TORSDOF 9
ENDMDL
MODEL       17
REMARK 921   NORMALIZED FREE ENERGY PREDICTED BY IDOCK:   -7.10 KCAL/MOL
REMARK 922        TOTAL FREE ENERGY PREDICTED BY IDOCK:  -12.70 KCAL/MOL
REMARK 923 INTER-LIGAND FREE ENERGY PREDICTED BY IDOCK:  -10.63 KCAL/MOL
REMARK 924 INTRA-LIGAND FREE ENERGY PREDICTED BY IDOCK:   -2.07 KCAL/MOL
REMARK 927      BINDING AFFINITY PREDICTED BY RF-SCORE:    0.00 PKD
ROOT
HETATM    1  C   UNL     1      -5.373  16.384  67.595  1.00  0.00    -0.139 C  
HETATM    2  O   UNL     1      -6.054  16.434  66.338  1.00  0.00    -0.167 OA 
ENDROOT
BRANCH   2   3
HETATM    3  C   UNL     1      -7.333  16.928  66.404  1.00  0.00    -0.267 A  
HETATM    4  C   UNL     1      -8.421  16.036  66.400  1.00  0.00    -0.363 A  
HETATM    5  C   UNL     1      -9.742  16.466  66.356  1.00  0.00    -0.287 A  
HETATM    6  C   UNL     1      -9.945  17.849  66.352  1.00  0.00    -0.358 A  
HETATM    7  C   UNL     1      -8.890  18.774  66.422  1.00  0.00    -0.291 A  
HETATM    8  C   UNL     1      -7.556  18.317  66.484  1.00  0.00    -0.242 A  
BRANCH   5   9
HETATM    9  N   UNL     1     -10.835  15.597  66.291  1.00  0.00    -0.297 NA 
HETATM   10  H   UNL     1     -11.586  15.847  66.935  1.00  0.00     0.000 HD 
BRANCH   9  11
HETATM   11  C   UNL     1     -11.118  14.460  65.533  1.00  0.00    -0.326 A  
HETATM   12  N   UNL     1     -11.980  14.674  64.530  1.00  0.00    -0.462 NA 
HETATM   13  N   UNL     1     -10.569  13.253  65.787  1.00  0.00    -0.279 NA 
HETATM   14  C   UNL     1     -10.902  12.197  65.001  1.00  0.00    -0.300 A  
HETATM   15  F   UNL     1     -12.030  11.383  63.055  1.00  0.00    -0.376 F  
HETATM   16  C   UNL     1     -12.270  13.618  63.741  1.00  0.00    -0.356 A  
HETATM   17  C   UNL     1     -11.729  12.366  63.913  1.00  0.00    -0.447 A  
BRANCH  14  18
HETATM   18  N   UNL     1     -10.285  10.979  65.336  1.00  0.00    -0.262 NA 
HETATM   19  H   UNL     1      -9.696  10.595  64.597  1.00  0.00     0.000 HD 
BRANCH  18  20
HETATM   20  C   UNL     1     -10.331  10.189  66.507  1.00  0.00    -0.202 A  
HETATM   21  N   UNL     1     -10.927  10.607  67.644  1.00  0.00    -0.292 NA 
HETATM   22  C   UNL     1     -11.004   9.760  68.716  1.00  0.00    -0.148 A  
HETATM   23  C   UNL     1     -10.402   8.504  68.713  1.00  0.00    -0.213 A  
HETATM   24  O   UNL     1     -10.355   7.667  69.798  1.00  0.00    -0.212 OA 
HETATM   25  C   UNL     1      -9.784   8.074  67.551  1.00  0.00    -0.206 A  
HETATM   26  C   UNL     1     -10.585   8.334  71.037  1.00  0.00    -0.204 C  
HETATM   27  C   UNL     1      -9.746   8.923  66.445  1.00  0.00    -0.332 A  
HETATM   28  C   UNL     1     -11.779   9.298  70.986  1.00  0.00    -0.311 C  
HETATM   29  C   UNL     1     -10.812   7.277  72.123  1.00  0.00    -0.263 C  
HETATM   30  C   UNL     1      -9.358   9.192  71.440  1.00  0.00    -0.246 C  
HETATM   31  N   UNL     1     -11.749  10.119  69.872  1.00  0.00    -0.214 N  
HETATM   32  O   UNL     1     -12.566   9.456  71.919  1.00  0.00    -0.358 OA 
BRANCH  31  33
HETATM   33  C   UNL     1     -12.340  11.407  70.022  1.00  0.00    -0.237 C  
BRANCH  33  34
HETATM   34  O   UNL     1     -11.341  12.361  70.200  1.00  0.00    -0.036 OA 
HETATM   35  P   UNL     1     -11.872  13.889  69.585  1.00  0.00    -0.340 P  
HETATM   36  O   UNL     1     -10.346  13.962  69.003  1.00  0.00    -0.200 OA 
HETATM   37  O   UNL     1     -11.547  14.426  71.092  1.00  0.00    -0.241 OA 
HETATM   38  O   UNL     1     -12.345  15.256  69.035  1.00  0.00    -0.162 OA 
ENDBRANCH  33  34
ENDBRANCH  31  33
ENDBRANCH  18  20
ENDBRANCH  14  18
ENDBRANCH   9  11
ENDBRANCH   5   9
BRANCH   7  39
HETATM   39  O   UNL     1      -9.351  20.067  66.362  1.00  0.00    -0.376 OA 
HETATM   40  C   UNL     1     -10.220  20.563  67.366  1.00  0.00    -0.202 C  
ENDBRANCH   7  39
BRANCH   8  41
HETATM   41  O   UNL     1      -6.604  19.281  66.655  1.00  0.00    -0.188 OA 
HETATM   42  C   UNL     1      -6.345  19.911  67.897  1.00  0.00    -0.229 C  
ENDBRANCH   8  41
ENDBRANCH   2   3
TORSDOF 9
ENDMDL
MODEL       18
REMARK 921   NORMALIZED FREE ENERGY PREDICTED BY IDOCK:   -7.06 KCAL/MOL
REMARK 922        TOTAL FREE ENERGY PREDICTED BY IDOCK:  -12.64 KCAL/MOL
REMARK 923 INTER-LIGAND FREE ENERGY PREDICTED BY IDOCK:  -10.47 KCAL/MOL
REMARK 924 INTRA-LIGAND FREE ENERGY PREDICTED BY IDOCK:   -2.18 KCAL/MOL
REMARK 927      BINDING AFFINITY PREDICTED BY RF-SCORE:    0.00 PKD
ROOT
HETATM    1  C   UNL     1     -10.001  20.327  66.969  1.00  0.00    -0.460 C  
HETATM    2  O   UNL     1     -10.231  19.665  68.216  1.00  0.00    -0.420 OA 
ENDROOT
BRANCH   2   3
HETATM    3  C   UNL     1      -9.866  18.341  68.233  1.00  0.00    -0.350 A  
HETATM    4  C   UNL     1     -10.779  17.364  67.796  1.00  0.00    -0.332 A  
HETATM    5  C   UNL     1     -10.519  16.003  67.886  1.00  0.00    -0.292 A  
HETATM    6  C   UNL     1      -9.273  15.641  68.405  1.00  0.00    -0.191 A  
HETATM    7  C   UNL     1      -8.306  16.584  68.790  1.00  0.00    -0.248 A  
HETATM    8  C   UNL     1      -8.582  17.963  68.675  1.00  0.00    -0.266 A  
BRANCH   5   9
HETATM    9  N   UNL     1     -11.437  15.015  67.514  1.00  0.00    -0.343 NA 
HETATM   10  H   UNL     1     -12.268  14.995  68.104  1.00  0.00     0.000 HD 
BRANCH   9  11
HETATM   11  C   UNL     1     -11.456  14.050  66.506  1.00  0.00    -0.357 A  
HETATM   12  N   UNL     1     -12.568  14.065  65.758  1.00  0.00    -0.503 NA 
HETATM   13  N   UNL     1     -10.443  13.181  66.302  1.00  0.00    -0.280 NA 
HETATM   14  C   UNL     1     -10.545  12.270  65.300  1.00  0.00    -0.287 A  
HETATM   15  F   UNL     1     -11.752  11.461  63.399  1.00  0.00    -0.488 F  
HETATM   16  C   UNL     1     -12.632  13.174  64.745  1.00  0.00    -0.364 A  
HETATM   17  C   UNL     1     -11.632  12.279  64.453  1.00  0.00    -0.360 A  
BRANCH  14  18
HETATM   18  N   UNL     1      -9.447  11.405  65.158  1.00  0.00    -0.289 NA 
HETATM   19  H   UNL     1      -8.767  11.708  64.461  1.00  0.00     0.000 HD 
BRANCH  18  20
HETATM   20  C   UNL     1      -9.111  10.193  65.803  1.00  0.00    -0.171 A  
HETATM   21  N   UNL     1      -9.294   9.998  67.126  1.00  0.00    -0.148 NA 
HETATM   22  C   UNL     1      -9.021   8.774  67.672  1.00  0.00    -0.135 A  
HETATM   23  C   UNL     1      -8.467   7.736  66.926  1.00  0.00    -0.125 A  
HETATM   24  O   UNL     1      -8.073   6.532  67.450  1.00  0.00    -0.118 OA 
HETATM   25  C   UNL     1      -8.273   7.935  65.569  1.00  0.00    -0.140 A  
HETATM   26  C   UNL     1      -7.874   6.567  68.861  1.00  0.00    -0.110 C  
HETATM   27  C   UNL     1      -8.593   9.170  65.007  1.00  0.00    -0.204 A  
HETATM   28  C   UNL     1      -9.008   7.284  69.608  1.00  0.00    -0.141 C  
HETATM   29  C   UNL     1      -7.740   5.128  69.368  1.00  0.00    -0.076 C  
HETATM   30  C   UNL     1      -6.574   7.334  69.217  1.00  0.00    -0.041 C  
HETATM   31  N   UNL     1      -9.339   8.498  69.030  1.00  0.00    -0.146 N  
HETATM   32  O   UNL     1      -9.440   6.918  70.700  1.00  0.00    -0.165 OA 
BRANCH  31  33
HETATM   33  C   UNL     1      -9.833   9.502  69.911  1.00  0.00    -0.226 C  
BRANCH  33  34
HETATM   34  O   UNL     1     -11.206   9.642  69.734  1.00  0.00    -0.233 OA 
HETATM   35  P   UNL     1     -11.630  11.321  69.727  1.00  0.00    -0.344 P  
HETATM   36  O   UNL     1     -12.884  10.807  70.640  1.00  0.00    -0.340 OA 
HETATM   37  O   UNL     1     -12.280  10.984  68.268  1.00  0.00    -0.582 OA 
HETATM   38  O   UNL     1     -12.009  12.821  69.720  1.00  0.00    -0.314 OA 
ENDBRANCH  33  34
ENDBRANCH  31  33
ENDBRANCH  18  20
ENDBRANCH  14  18
ENDBRANCH   9  11
ENDBRANCH   5   9
BRANCH   7  39
HETATM   39  O   UNL     1      -7.187  15.974  69.304  1.00  0.00    -0.205 OA 
HETATM   40  C   UNL     1      -7.139  14.563  69.436  1.00  0.00    -0.140 C  
ENDBRANCH   7  39
BRANCH   8  41
HETATM   41  O   UNL     1      -7.549  18.805  68.975  1.00  0.00    -0.299 OA 
HETATM   42  C   UNL     1      -6.578  19.214  68.028  1.00  0.00    -0.236 C  
ENDBRANCH   8  41
ENDBRANCH   2   3
TORSDOF 9
ENDMDL
MODEL       19
REMARK 921   NORMALIZED FREE ENERGY PREDICTED BY IDOCK:   -7.06 KCAL/MOL
REMARK 922        TOTAL FREE ENERGY PREDICTED BY IDOCK:  -12.64 KCAL/MOL
REMARK 923 INTER-LIGAND FREE ENERGY PREDICTED BY IDOCK:  -11.18 KCAL/MOL
REMARK 924 INTRA-LIGAND FREE ENERGY PREDICTED BY IDOCK:   -1.45 KCAL/MOL
REMARK 927      BINDING AFFINITY PREDICTED BY RF-SCORE:    0.00 PKD
ROOT
HETATM    1  C   UNL     1     -10.542  19.718  65.972  1.00  0.00    -0.468 C  
HETATM    2  O   UNL     1      -9.673  20.410  66.873  1.00  0.00    -0.428 OA 
ENDROOT
BRANCH   2   3
HETATM    3  C   UNL     1      -8.795  19.601  67.551  1.00  0.00    -0.311 A  
HETATM    4  C   UNL     1      -9.183  18.293  67.896  1.00  0.00    -0.284 A  
HETATM    5  C   UNL     1      -8.390  17.458  68.674  1.00  0.00    -0.264 A  
HETATM    6  C   UNL     1      -7.153  17.971  69.073  1.00  0.00    -0.241 A  
HETATM    7  C   UNL     1      -6.698  19.245  68.694  1.00  0.00    -0.286 A  
HETATM    8  C   UNL     1      -7.511  20.073  67.890  1.00  0.00    -0.295 A  
BRANCH   5   9
HETATM    9  N   UNL     1      -8.781  16.178  69.079  1.00  0.00    -0.248 NA 
HETATM   10  H   UNL     1      -8.362  15.890  69.962  1.00  0.00     0.000 HD 
BRANCH   9  11
HETATM   11  C   UNL     1      -9.624  15.211  68.530  1.00  0.00    -0.214 A  
HETATM   12  N   UNL     1      -9.481  15.050  67.207  1.00  0.00    -0.204 NA 
HETATM   13  N   UNL     1     -10.504  14.500  69.266  1.00  0.00    -0.212 NA 
HETATM   14  C   UNL     1     -11.290  13.580  68.650  1.00  0.00    -0.288 A  
HETATM   15  F   UNL     1     -11.830  12.370  66.659  1.00  0.00    -0.408 F  
HETATM   16  C   UNL     1     -10.248  14.106  66.622  1.00  0.00    -0.270 A  
HETATM   17  C   UNL     1     -11.143  13.319  67.306  1.00  0.00    -0.279 A  
BRANCH  14  18
HETATM   18  N   UNL     1     -12.177  12.886  69.491  1.00  0.00    -0.185 NA 
HETATM   19  H   UNL     1     -13.087  13.333  69.596  1.00  0.00     0.000 HD 
BRANCH  18  20
HETATM   20  C   UNL     1     -12.039  11.682  70.219  1.00  0.00    -0.358 A  
HETATM   21  N   UNL     1     -11.035  10.807  69.995  1.00  0.00    -0.252 NA 
HETATM   22  C   UNL     1     -10.916   9.699  70.789  1.00  0.00    -0.327 A  
HETATM   23  C   UNL     1     -11.853   9.386  71.770  1.00  0.00    -0.382 A  
HETATM   24  O   UNL     1     -11.839   8.234  72.513  1.00  0.00    -0.387 OA 
HETATM   25  C   UNL     1     -12.888  10.278  71.999  1.00  0.00    -0.457 A  
HETATM   26  C   UNL     1     -11.058   7.194  71.929  1.00  0.00    -0.236 C  
HETATM   27  C   UNL     1     -12.982  11.428  71.217  1.00  0.00    -0.415 A  
HETATM   28  C   UNL     1      -9.693   7.682  71.424  1.00  0.00    -0.163 C  
HETATM   29  C   UNL     1     -10.865   6.087  72.972  1.00  0.00    -0.290 C  
HETATM   30  C   UNL     1     -11.778   6.585  70.699  1.00  0.00    -0.436 C  
HETATM   31  N   UNL     1      -9.791   8.839  70.670  1.00  0.00    -0.182 N  
HETATM   32  O   UNL     1      -8.659   7.022  71.514  1.00  0.00    -0.117 OA 
BRANCH  31  33
HETATM   33  C   UNL     1      -8.809   9.013  69.652  1.00  0.00    -0.145 C  
BRANCH  33  34
HETATM   34  O   UNL     1      -9.095   8.172  68.580  1.00  0.00    -0.143 OA 
HETATM   35  P   UNL     1      -9.451   9.113  67.173  1.00  0.00    -0.173 P  
HETATM   36  O   UNL     1     -10.633   8.003  66.970  1.00  0.00    -0.335 OA 
HETATM   37  O   UNL     1      -8.240   8.257  66.491  1.00  0.00    -0.102 OA 
HETATM   38  O   UNL     1      -9.771   9.955  65.914  1.00  0.00    -0.222 OA 
ENDBRANCH  33  34
ENDBRANCH  31  33
ENDBRANCH  18  20
ENDBRANCH  14  18
ENDBRANCH   9  11
ENDBRANCH   5   9
BRANCH   7  39
HETATM   39  O   UNL     1      -5.473  19.527  69.248  1.00  0.00    -0.187 OA 
HETATM   40  C   UNL     1      -5.389  20.086  70.549  1.00  0.00    -0.247 C  
ENDBRANCH   7  39
BRANCH   8  41
HETATM   41  O   UNL     1      -6.948  21.249  67.485  1.00  0.00    -0.490 OA 
HETATM   42  C   UNL     1      -6.136  21.368  66.330  1.00  0.00    -0.251 C  
ENDBRANCH   8  41
ENDBRANCH   2   3
TORSDOF 9
ENDMDL
MODEL       20
REMARK 921   NORMALIZED FREE ENERGY PREDICTED BY IDOCK:   -7.02 KCAL/MOL
REMARK 922        TOTAL FREE ENERGY PREDICTED BY IDOCK:  -12.58 KCAL/MOL
REMARK 923 INTER-LIGAND FREE ENERGY PREDICTED BY IDOCK:  -10.43 KCAL/MOL
REMARK 924 INTRA-LIGAND FREE ENERGY PREDICTED BY IDOCK:   -2.15 KCAL/MOL
REMARK 927      BINDING AFFINITY PREDICTED BY RF-SCORE:    0.00 PKD
ROOT
HETATM    1  C   UNL     1      -6.975  15.216  69.707  1.00  0.00    -0.174 C  
HETATM    2  O   UNL     1      -7.095  16.533  69.162  1.00  0.00    -0.208 OA 
ENDROOT
BRANCH   2   3
HETATM    3  C   UNL     1      -8.356  16.853  68.721  1.00  0.00    -0.240 A  
HETATM    4  C   UNL     1      -9.291  15.828  68.491  1.00  0.00    -0.198 A  
HETATM    5  C   UNL     1     -10.545  16.068  67.944  1.00  0.00    -0.301 A  
HETATM    6  C   UNL     1     -10.856  17.401  67.662  1.00  0.00    -0.233 A  
HETATM    7  C   UNL     1      -9.977  18.462  67.938  1.00  0.00    -0.350 A  
HETATM    8  C   UNL     1      -8.714  18.200  68.510  1.00  0.00    -0.296 A  
BRANCH   5   9
HETATM    9  N   UNL     1     -11.467  15.057  67.652  1.00  0.00    -0.339 NA 
HETATM   10  H   UNL     1     -12.249  15.026  68.305  1.00  0.00     0.000 HD 
BRANCH   9  11
HETATM   11  C   UNL     1     -11.543  14.083  66.656  1.00  0.00    -0.382 A  
HETATM   12  N   UNL     1     -12.648  14.160  65.901  1.00  0.00    -0.470 NA 
HETATM   13  N   UNL     1     -10.587  13.148  66.469  1.00  0.00    -0.282 NA 
HETATM   14  C   UNL     1     -10.743  12.233  65.477  1.00  0.00    -0.279 A  
HETATM   15  F   UNL     1     -11.989  11.479  63.580  1.00  0.00    -0.524 F  
HETATM   16  C   UNL     1     -12.764  13.262  64.899  1.00  0.00    -0.327 A  
HETATM   17  C   UNL     1     -11.822  12.301  64.624  1.00  0.00    -0.367 A  
BRANCH  14  18
HETATM   18  N   UNL     1      -9.702  11.297  65.353  1.00  0.00    -0.222 NA 
HETATM   19  H   UNL     1      -8.987  11.558  64.673  1.00  0.00     0.000 HD 
BRANCH  18  20
HETATM   20  C   UNL     1      -9.462  10.061  65.996  1.00  0.00    -0.197 A  
HETATM   21  N   UNL     1      -9.584   9.900  67.331  1.00  0.00    -0.152 NA 
HETATM   22  C   UNL     1      -9.414   8.658  67.878  1.00  0.00    -0.139 A  
HETATM   23  C   UNL     1      -9.024   7.559  67.117  1.00  0.00    -0.126 A  
HETATM   24  O   UNL     1      -8.733   6.323  67.635  1.00  0.00    -0.114 OA 
HETATM   25  C   UNL     1      -8.892   7.722  65.748  1.00  0.00    -0.141 A  
HETATM   26  C   UNL     1      -8.445   6.349  69.031  1.00  0.00    -0.124 C  
HETATM   27  C   UNL     1      -9.109   8.980  65.187  1.00  0.00    -0.203 A  
HETATM   28  C   UNL     1      -9.445   7.194  69.834  1.00  0.00    -0.153 C  
HETATM   29  C   UNL     1      -8.439   4.909  69.553  1.00  0.00    -0.090 C  
HETATM   30  C   UNL     1      -7.050   6.971  69.297  1.00  0.00    -0.083 C  
HETATM   31  N   UNL     1      -9.676   8.431  69.257  1.00  0.00    -0.174 N  
HETATM   32  O   UNL     1      -9.848   6.887  70.955  1.00  0.00    -0.178 OA 
BRANCH  31  33
HETATM   33  C   UNL     1     -10.002   9.492  70.150  1.00  0.00    -0.241 C  
BRANCH  33  34
HETATM   34  O   UNL     1     -11.373   9.727  70.115  1.00  0.00    -0.247 OA 
HETATM   35  P   UNL     1     -11.679  11.430  70.111  1.00  0.00    -0.245 P  
HETATM   36  O   UNL     1     -12.862  11.022  71.162  1.00  0.00    -0.377 OA 
HETATM   37  O   UNL     1     -12.502  11.117  68.737  1.00  0.00    -0.468 OA 
HETATM   38  O   UNL     1     -11.952  12.954  70.109  1.00  0.00    -0.341 OA 
ENDBRANCH  33  34
ENDBRANCH  31  33
ENDBRANCH  18  20
ENDBRANCH  14  18
ENDBRANCH   9  11
ENDBRANCH   5   9
BRANCH   7  39
HETATM   39  O   UNL     1     -10.500  19.666  67.531  1.00  0.00    -0.422 OA 
HETATM   40  C   UNL     1     -10.286  20.126  66.206  1.00  0.00    -0.394 C  
ENDBRANCH   7  39
BRANCH   8  41
HETATM   41  O   UNL     1      -7.969  19.296  68.839  1.00  0.00    -0.349 OA 
HETATM   42  C   UNL     1      -7.007  19.874  67.974  1.00  0.00    -0.281 C  
ENDBRANCH   8  41
ENDBRANCH   2   3
TORSDOF 9
ENDMDL
MODEL       21
REMARK 921   NORMALIZED FREE ENERGY PREDICTED BY IDOCK:   -6.99 KCAL/MOL
REMARK 922        TOTAL FREE ENERGY PREDICTED BY IDOCK:  -12.53 KCAL/MOL
REMARK 923 INTER-LIGAND FREE ENERGY PREDICTED BY IDOCK:  -11.32 KCAL/MOL
REMARK 924 INTRA-LIGAND FREE ENERGY PREDICTED BY IDOCK:   -1.21 KCAL/MOL
REMARK 927      BINDING AFFINITY PREDICTED BY RF-SCORE:    0.00 PKD
ROOT
HETATM    1  C   UNL     1      -6.634   7.327  74.172  1.00  0.00    -0.077 C  
HETATM    2  O   UNL     1      -6.206   6.810  72.910  1.00  0.00    -0.056 OA 
ENDROOT
BRANCH   2   3
HETATM    3  C   UNL     1      -7.228   6.426  72.076  1.00  0.00    -0.090 A  
HETATM    4  C   UNL     1      -7.893   7.397  71.304  1.00  0.00    -0.095 A  
HETATM    5  C   UNL     1      -9.002   7.099  70.522  1.00  0.00    -0.155 A  
HETATM    6  C   UNL     1      -9.412   5.764  70.507  1.00  0.00    -0.201 A  
HETATM    7  C   UNL     1      -8.736   4.752  71.210  1.00  0.00    -0.123 A  
HETATM    8  C   UNL     1      -7.601   5.070  71.986  1.00  0.00    -0.096 A  
BRANCH   5   9
HETATM    9  N   UNL     1      -9.714   8.059  69.795  1.00  0.00    -0.175 NA 
HETATM   10  H   UNL     1      -9.471   8.074  68.805  1.00  0.00     0.000 HD 
BRANCH   9  11
HETATM   11  C   UNL     1     -10.685   9.000  70.137  1.00  0.00    -0.233 A  
HETATM   12  N   UNL     1     -11.257   8.785  71.330  1.00  0.00    -0.269 NA 
HETATM   13  N   UNL     1     -11.017  10.037  69.338  1.00  0.00    -0.238 NA 
HETATM   14  C   UNL     1     -11.978  10.905  69.747  1.00  0.00    -0.351 A  
HETATM   15  F   UNL     1     -13.446  11.647  71.484  1.00  0.00    -0.395 F  
HETATM   16  C   UNL     1     -12.184   9.680  71.731  1.00  0.00    -0.384 A  
HETATM   17  C   UNL     1     -12.554  10.778  70.992  1.00  0.00    -0.420 A  
BRANCH  14  18
HETATM   18  N   UNL     1     -12.261  11.954  68.855  1.00  0.00    -0.265 NA 
HETATM   19  H   UNL     1     -12.874  11.689  68.084  1.00  0.00     0.000 HD 
BRANCH  18  20
HETATM   20  C   UNL     1     -11.853  13.307  68.829  1.00  0.00    -0.334 A  
HETATM   21  N   UNL     1     -11.351  13.894  67.721  1.00  0.00    -0.293 NA 
HETATM   22  C   UNL     1     -11.049  15.228  67.744  1.00  0.00    -0.318 A  
HETATM   23  C   UNL     1     -11.152  15.993  68.904  1.00  0.00    -0.331 A  
HETATM   24  O   UNL     1     -10.756  17.302  69.005  1.00  0.00    -0.292 OA 
HETATM   25  C   UNL     1     -11.660  15.391  70.043  1.00  0.00    -0.343 A  
HETATM   26  C   UNL     1      -9.850  17.699  67.979  1.00  0.00    -0.310 C  
HETATM   27  C   UNL     1     -12.008  14.042  70.005  1.00  0.00    -0.404 A  
HETATM   28  C   UNL     1     -10.287  17.237  66.581  1.00  0.00    -0.305 C  
HETATM   29  C   UNL     1      -9.721  19.225  68.009  1.00  0.00    -0.430 C  
HETATM   30  C   UNL     1      -8.446  17.086  68.212  1.00  0.00    -0.233 C  
HETATM   31  N   UNL     1     -10.657  15.903  66.556  1.00  0.00    -0.309 N  
HETATM   32  O   UNL     1     -10.145  17.916  65.565  1.00  0.00    -0.530 OA 
BRANCH  31  33
HETATM   33  C   UNL     1     -10.440  15.212  65.329  1.00  0.00    -0.409 C  
BRANCH  33  34
HETATM   34  O   UNL     1     -11.650  15.059  64.660  1.00  0.00    -0.410 OA 
HETATM   35  P   UNL     1     -11.890  13.394  64.250  1.00  0.00    -0.441 P  
HETATM   36  O   UNL     1     -12.417  14.021  62.836  1.00  0.00    -0.515 OA 
HETATM   37  O   UNL     1     -13.284  13.557  65.085  1.00  0.00    -0.720 OA 
HETATM   38  O   UNL     1     -12.104  11.906  63.884  1.00  0.00    -0.420 OA 
ENDBRANCH  33  34
ENDBRANCH  31  33
ENDBRANCH  18  20
ENDBRANCH  14  18
ENDBRANCH   9  11
ENDBRANCH   5   9
BRANCH   7  39
HETATM   39  O   UNL     1      -9.361   3.537  71.065  1.00  0.00    -0.117 OA 
HETATM   40  C   UNL     1      -9.395   2.898  69.800  1.00  0.00    -0.137 C  
ENDBRANCH   7  39
BRANCH   8  41
HETATM   41  O   UNL     1      -6.948   4.012  72.549  1.00  0.00    -0.047 OA 
HETATM   42  C   UNL     1      -7.331   3.425  73.780  1.00  0.00    -0.052 C  
ENDBRANCH   8  41
ENDBRANCH   2   3
TORSDOF 9
ENDMDL
MODEL       22
REMARK 921   NORMALIZED FREE ENERGY PREDICTED BY IDOCK:   -6.98 KCAL/MOL
REMARK 922        TOTAL FREE ENERGY PREDICTED BY IDOCK:  -12.52 KCAL/MOL
REMARK 923 INTER-LIGAND FREE ENERGY PREDICTED BY IDOCK:  -11.02 KCAL/MOL
REMARK 924 INTRA-LIGAND FREE ENERGY PREDICTED BY IDOCK:   -1.51 KCAL/MOL
REMARK 927      BINDING AFFINITY PREDICTED BY RF-SCORE:    0.00 PKD
ROOT
HETATM    1  C   UNL     1      -7.248   8.808  71.794  1.00  0.00    -0.048 C  
HETATM    2  O   UNL     1      -8.369   8.583  72.653  1.00  0.00    -0.316 OA 
ENDROOT
BRANCH   2   3
HETATM    3  C   UNL     1      -9.581   8.543  72.009  1.00  0.00    -0.301 A  
HETATM    4  C   UNL     1      -9.688   9.052  70.701  1.00  0.00    -0.287 A  
HETATM    5  C   UNL     1     -10.901   9.142  70.031  1.00  0.00    -0.234 A  
HETATM    6  C   UNL     1     -12.024   8.663  70.710  1.00  0.00    -0.143 A  
HETATM    7  C   UNL     1     -11.952   8.086  71.989  1.00  0.00    -0.327 A  
HETATM    8  C   UNL     1     -10.708   7.987  72.647  1.00  0.00    -0.358 A  
BRANCH   5   9
HETATM    9  N   UNL     1     -11.039   9.700  68.755  1.00  0.00    -0.450 NA 
HETATM   10  H   UNL     1     -11.993   9.994  68.546  1.00  0.00     0.000 HD 
BRANCH   9  11
HETATM   11  C   UNL     1     -10.149   9.938  67.708  1.00  0.00    -0.180 A  
HETATM   12  N   UNL     1     -10.275   9.088  66.680  1.00  0.00    -0.275 NA 
HETATM   13  N   UNL     1      -9.241  10.938  67.729  1.00  0.00    -0.151 NA 
HETATM   14  C   UNL     1      -8.408  11.097  66.668  1.00  0.00    -0.160 A  
HETATM   15  F   UNL     1      -7.799  10.458  64.444  1.00  0.00    -0.155 F  
HETATM   16  C   UNL     1      -9.461   9.286  65.621  1.00  0.00    -0.256 A  
HETATM   17  C   UNL     1      -8.535  10.299  65.551  1.00  0.00    -0.162 A  
BRANCH  14  18
HETATM   18  N   UNL     1      -7.496  12.160  66.772  1.00  0.00    -0.376 NA 
HETATM   19  H   UNL     1      -6.551  11.929  66.466  1.00  0.00     0.000 HD 
BRANCH  18  20
HETATM   20  C   UNL     1      -7.647  13.491  67.223  1.00  0.00    -0.058 A  
HETATM   21  N   UNL     1      -8.551  14.342  66.691  1.00  0.00    -0.108 NA 
HETATM   22  C   UNL     1      -8.698  15.592  67.228  1.00  0.00    -0.195 A  
HETATM   23  C   UNL     1      -7.879  16.060  68.253  1.00  0.00    -0.144 A  
HETATM   24  O   UNL     1      -7.913  17.339  68.747  1.00  0.00    -0.265 OA 
HETATM   25  C   UNL     1      -6.947  15.192  68.797  1.00  0.00    -0.111 A  
HETATM   26  C   UNL     1      -8.537  18.269  67.865  1.00  0.00    -0.258 C  
HETATM   27  C   UNL     1      -6.829  13.904  68.276  1.00  0.00    -0.108 A  
HETATM   28  C   UNL     1      -9.854  17.744  67.274  1.00  0.00    -0.312 C  
HETATM   29  C   UNL     1      -8.791  19.571  68.633  1.00  0.00    -0.386 C  
HETATM   30  C   UNL     1      -7.621  18.585  66.655  1.00  0.00    -0.259 C  
HETATM   31  N   UNL     1      -9.736  16.454  66.783  1.00  0.00    -0.241 N  
HETATM   32  O   UNL     1     -10.843  18.449  67.085  1.00  0.00    -0.373 OA 
BRANCH  31  33
HETATM   33  C   UNL     1     -10.584  16.117  65.689  1.00  0.00    -0.363 C  
BRANCH  33  34
HETATM   34  O   UNL     1     -11.390  15.038  66.038  1.00  0.00    -0.338 OA 
HETATM   35  P   UNL     1     -11.933  14.223  64.611  1.00  0.00    -0.457 P  
HETATM   36  O   UNL     1     -13.352  14.166  65.420  1.00  0.00    -0.705 OA 
HETATM   37  O   UNL     1     -11.247  12.909  65.296  1.00  0.00    -0.282 OA 
HETATM   38  O   UNL     1     -12.419  13.494  63.335  1.00  0.00    -0.750 OA 
ENDBRANCH  33  34
ENDBRANCH  31  33
ENDBRANCH  18  20
ENDBRANCH  14  18
ENDBRANCH   9  11
ENDBRANCH   5   9
BRANCH   7  39
HETATM   39  O   UNL     1     -13.196   7.732  72.452  1.00  0.00    -0.058 OA 
HETATM   40  C   UNL     1     -14.361   8.292  71.867  1.00  0.00    -0.476 C  
ENDBRANCH   7  39
BRANCH   8  41
HETATM   41  O   UNL     1     -10.715   7.320  73.839  1.00  0.00    -0.318 OA 
HETATM   42  C   UNL     1     -10.515   5.922  73.951  1.00  0.00    -0.273 C  
ENDBRANCH   8  41
ENDBRANCH   2   3
TORSDOF 9
ENDMDL
MODEL       23
REMARK 921   NORMALIZED FREE ENERGY PREDICTED BY IDOCK:   -6.94 KCAL/MOL
REMARK 922        TOTAL FREE ENERGY PREDICTED BY IDOCK:  -12.46 KCAL/MOL
REMARK 923 INTER-LIGAND FREE ENERGY PREDICTED BY IDOCK:  -10.76 KCAL/MOL
REMARK 924 INTRA-LIGAND FREE ENERGY PREDICTED BY IDOCK:   -1.70 KCAL/MOL
REMARK 927      BINDING AFFINITY PREDICTED BY RF-SCORE:    0.00 PKD
ROOT
HETATM    1  C   UNL     1     -13.905   9.146  72.365  1.00  0.00    -0.457 C  
HETATM    2  O   UNL     1     -12.543   8.818  72.650  1.00  0.00    -0.371 OA 
ENDROOT
BRANCH   2   3
HETATM    3  C   UNL     1     -11.816   8.408  71.560  1.00  0.00    -0.297 A  
HETATM    4  C   UNL     1     -11.193   9.368  70.742  1.00  0.00    -0.367 A  
HETATM    5  C   UNL     1     -10.533   9.034  69.566  1.00  0.00    -0.219 A  
HETATM    6  C   UNL     1     -10.484   7.675  69.245  1.00  0.00    -0.220 A  
HETATM    7  C   UNL     1     -11.034   6.678  70.068  1.00  0.00    -0.311 A  
HETATM    8  C   UNL     1     -11.686   7.036  71.268  1.00  0.00    -0.317 A  
BRANCH   5   9
HETATM    9  N   UNL     1      -9.959   9.978  68.707  1.00  0.00    -0.165 NA 
HETATM   10  H   UNL     1      -9.508  10.748  69.201  1.00  0.00     0.000 HD 
BRANCH   9  11
HETATM   11  C   UNL     1      -9.872  10.089  67.319  1.00  0.00    -0.181 A  
HETATM   12  N   UNL     1      -9.121   9.140  66.742  1.00  0.00    -0.140 NA 
HETATM   13  N   UNL     1     -10.490  11.064  66.620  1.00  0.00    -0.247 NA 
HETATM   14  C   UNL     1     -10.349  11.101  65.270  1.00  0.00    -0.277 A  
HETATM   15  F   UNL     1      -9.541  10.051  63.278  1.00  0.00    -0.317 F  
HETATM   16  C   UNL     1      -9.024   9.175  65.396  1.00  0.00    -0.207 A  
HETATM   17  C   UNL     1      -9.648  10.115  64.611  1.00  0.00    -0.315 A  
BRANCH  14  18
HETATM   18  N   UNL     1     -11.026  12.148  64.622  1.00  0.00    -0.300 NA 
HETATM   19  H   UNL     1     -11.678  11.838  63.901  1.00  0.00     0.000 HD 
BRANCH  18  20
HETATM   20  C   UNL     1     -10.970  13.551  64.785  1.00  0.00    -0.373 A  
HETATM   21  N   UNL     1      -9.976  14.166  65.461  1.00  0.00    -0.319 NA 
HETATM   22  C   UNL     1      -9.941  15.533  65.514  1.00  0.00    -0.341 A  
HETATM   23  C   UNL     1     -10.952  16.322  64.971  1.00  0.00    -0.298 A  
HETATM   24  O   UNL     1     -11.019  17.686  65.095  1.00  0.00    -0.651 OA 
HETATM   25  C   UNL     1     -11.977  15.694  64.282  1.00  0.00    -0.121 A  
HETATM   26  C   UNL     1     -10.227  18.195  66.165  1.00  0.00    -0.367 C  
HETATM   27  C   UNL     1     -11.986  14.303  64.193  1.00  0.00    -0.401 A  
HETATM   28  C   UNL     1      -8.817  17.587  66.209  1.00  0.00    -0.184 C  
HETATM   29  C   UNL     1     -10.135  19.718  66.018  1.00  0.00    -0.574 C  
HETATM   30  C   UNL     1     -10.875  17.875  67.536  1.00  0.00    -0.239 C  
HETATM   31  N   UNL     1      -8.833  16.208  66.094  1.00  0.00    -0.336 N  
HETATM   32  O   UNL     1      -7.810  18.228  66.505  1.00  0.00    -0.232 OA 
BRANCH  31  33
HETATM   33  C   UNL     1      -7.779  15.508  66.750  1.00  0.00    -0.076 C  
BRANCH  33  34
HETATM   34  O   UNL     1      -8.229  15.032  67.978  1.00  0.00    -0.129 OA 
HETATM   35  P   UNL     1      -7.760  13.378  68.174  1.00  0.00    -0.171 P  
HETATM   36  O   UNL     1      -9.273  13.224  68.772  1.00  0.00    -0.037 OA 
HETATM   37  O   UNL     1      -7.046  13.911  69.542  1.00  0.00    -0.045 OA 
HETATM   38  O   UNL     1      -7.341  11.898  68.350  1.00  0.00    -0.082 OA 
ENDBRANCH  33  34
ENDBRANCH  31  33
ENDBRANCH  18  20
ENDBRANCH  14  18
ENDBRANCH   9  11
ENDBRANCH   5   9
BRANCH   7  39
HETATM   39  O   UNL     1     -10.890   5.430  69.510  1.00  0.00    -0.269 OA 
HETATM   40  C   UNL     1      -9.674   4.716  69.664  1.00  0.00    -0.213 C  
ENDBRANCH   7  39
BRANCH   8  41
HETATM   41  O   UNL     1     -12.099   5.998  72.053  1.00  0.00    -0.280 OA 
HETATM   42  C   UNL     1     -11.259   5.348  72.991  1.00  0.00    -0.311 C  
ENDBRANCH   8  41
ENDBRANCH   2   3
TORSDOF 9
ENDMDL
MODEL       24
REMARK 921   NORMALIZED FREE ENERGY PREDICTED BY IDOCK:   -6.92 KCAL/MOL
REMARK 922        TOTAL FREE ENERGY PREDICTED BY IDOCK:  -12.43 KCAL/MOL
REMARK 923 INTER-LIGAND FREE ENERGY PREDICTED BY IDOCK:  -11.06 KCAL/MOL
REMARK 924 INTRA-LIGAND FREE ENERGY PREDICTED BY IDOCK:   -1.37 KCAL/MOL
REMARK 927      BINDING AFFINITY PREDICTED BY RF-SCORE:    0.00 PKD
ROOT
HETATM    1  C   UNL     1      -9.724  18.086  68.553  1.00  0.00    -0.352 C  
HETATM    2  O   UNL     1     -10.582  17.560  69.569  1.00  0.00    -0.163 OA 
ENDROOT
BRANCH   2   3
HETATM    3  C   UNL     1     -11.044  16.290  69.322  1.00  0.00    -0.325 A  
HETATM    4  C   UNL     1     -11.163  15.841  67.994  1.00  0.00    -0.338 A  
HETATM    5  C   UNL     1     -11.722  14.612  67.667  1.00  0.00    -0.363 A  
HETATM    6  C   UNL     1     -12.134  13.812  68.735  1.00  0.00    -0.344 A  
HETATM    7  C   UNL     1     -11.972  14.193  70.078  1.00  0.00    -0.340 A  
HETATM    8  C   UNL     1     -11.386  15.438  70.392  1.00  0.00    -0.327 A  
BRANCH   5   9
HETATM    9  N   UNL     1     -11.905  14.173  66.351  1.00  0.00    -0.405 NA 
HETATM   10  H   UNL     1     -12.546  14.759  65.817  1.00  0.00     0.000 HD 
BRANCH   9  11
HETATM   11  C   UNL     1     -11.397  13.102  65.615  1.00  0.00    -0.303 A  
HETATM   12  N   UNL     1     -11.576  13.216  64.292  1.00  0.00    -0.372 NA 
HETATM   13  N   UNL     1     -10.779  12.046  66.186  1.00  0.00    -0.265 NA 
HETATM   14  C   UNL     1     -10.317  11.043  65.394  1.00  0.00    -0.268 A  
HETATM   15  F   UNL     1      -9.901  10.219  63.188  1.00  0.00    -0.337 F  
HETATM   16  C   UNL     1     -11.078  12.226  63.522  1.00  0.00    -0.464 A  
HETATM   17  C   UNL     1     -10.409  11.134  64.023  1.00  0.00    -0.376 A  
BRANCH  14  18
HETATM   18  N   UNL     1      -9.687   9.984  66.070  1.00  0.00    -0.222 NA 
HETATM   19  H   UNL     1      -9.265   9.291  65.453  1.00  0.00     0.000 HD 
BRANCH  18  20
HETATM   20  C   UNL     1      -9.531   9.703  67.446  1.00  0.00    -0.142 A  
HETATM   21  N   UNL     1      -9.932   8.539  68.001  1.00  0.00    -0.175 NA 
HETATM   22  C   UNL     1      -9.680   8.301  69.325  1.00  0.00    -0.177 A  
HETATM   23  C   UNL     1      -9.103   9.260  70.154  1.00  0.00    -0.222 A  
HETATM   24  O   UNL     1      -8.932   9.111  71.506  1.00  0.00    -0.319 OA 
HETATM   25  C   UNL     1      -8.696  10.457  69.589  1.00  0.00    -0.056 A  
HETATM   26  C   UNL     1      -9.761   8.099  72.072  1.00  0.00    -0.227 C  
HETATM   27  C   UNL     1      -8.916  10.680  68.231  1.00  0.00    -0.143 A  
HETATM   28  C   UNL     1      -9.768   6.801  71.251  1.00  0.00    -0.172 C  
HETATM   29  C   UNL     1      -9.275   7.813  73.497  1.00  0.00    -0.350 C  
HETATM   30  C   UNL     1     -11.237   8.568  72.145  1.00  0.00    -0.432 C  
HETATM   31  N   UNL     1      -9.960   7.032  69.899  1.00  0.00    -0.176 N  
HETATM   32  O   UNL     1      -9.793   5.678  71.753  1.00  0.00    -0.163 OA 
BRANCH  31  33
HETATM   33  C   UNL     1     -10.622   6.001  69.172  1.00  0.00    -0.295 C  
BRANCH  33  34
HETATM   34  O   UNL     1      -9.678   5.182  68.559  1.00  0.00    -0.133 OA 
HETATM   35  P   UNL     1     -10.132   4.890  66.914  1.00  0.00    -0.184 P  
HETATM   36  O   UNL     1      -9.654   3.366  67.258  1.00  0.00    -0.205 OA 
HETATM   37  O   UNL     1      -8.658   5.500  66.569  1.00  0.00    -0.116 OA 
HETATM   38  O   UNL     1     -10.538   4.629  65.444  1.00  0.00    -0.229 OA 
ENDBRANCH  33  34
ENDBRANCH  31  33
ENDBRANCH  18  20
ENDBRANCH  14  18
ENDBRANCH   9  11
ENDBRANCH   5   9
BRANCH   7  39
HETATM   39  O   UNL     1     -12.494  13.252  70.933  1.00  0.00    -0.362 OA 
HETATM   40  C   UNL     1     -12.274  11.871  70.696  1.00  0.00    -0.331 C  
ENDBRANCH   7  39
BRANCH   8  41
HETATM   41  O   UNL     1     -11.174  15.680  71.718  1.00  0.00    -0.363 OA 
HETATM   42  C   UNL     1     -12.202  16.058  72.616  1.00  0.00    -0.522 C  
ENDBRANCH   8  41
ENDBRANCH   2   3
TORSDOF 9
ENDMDL
MODEL       25
REMARK 921   NORMALIZED FREE ENERGY PREDICTED BY IDOCK:   -6.91 KCAL/MOL
REMARK 922        TOTAL FREE ENERGY PREDICTED BY IDOCK:  -12.41 KCAL/MOL
REMARK 923 INTER-LIGAND FREE ENERGY PREDICTED BY IDOCK:  -10.74 KCAL/MOL
REMARK 924 INTRA-LIGAND FREE ENERGY PREDICTED BY IDOCK:   -1.68 KCAL/MOL
REMARK 927      BINDING AFFINITY PREDICTED BY RF-SCORE:    0.00 PKD
ROOT
HETATM    1  C   UNL     1      -9.914   5.647  74.440  1.00  0.00    -0.251 C  
HETATM    2  O   UNL     1     -10.974   5.231  73.576  1.00  0.00    -0.287 OA 
ENDROOT
BRANCH   2   3
HETATM    3  C   UNL     1     -11.051   5.927  72.394  1.00  0.00    -0.280 A  
HETATM    4  C   UNL     1     -11.842   7.089  72.324  1.00  0.00    -0.272 A  
HETATM    5  C   UNL     1     -12.052   7.781  71.138  1.00  0.00    -0.286 A  
HETATM    6  C   UNL     1     -11.402   7.284  70.005  1.00  0.00    -0.195 A  
HETATM    7  C   UNL     1     -10.551   6.167  70.044  1.00  0.00    -0.261 A  
HETATM    8  C   UNL     1     -10.336   5.487  71.262  1.00  0.00    -0.233 A  
BRANCH   5   9
HETATM    9  N   UNL     1     -12.881   8.903  71.034  1.00  0.00    -0.503 NA 
HETATM   10  H   UNL     1     -13.874   8.669  71.030  1.00  0.00     0.000 HD 
BRANCH   9  11
HETATM   11  C   UNL     1     -12.638  10.273  70.936  1.00  0.00    -0.371 A  
HETATM   12  N   UNL     1     -13.314  11.012  71.827  1.00  0.00    -0.358 NA 
HETATM   13  N   UNL     1     -11.797  10.806  70.025  1.00  0.00    -0.313 NA 
HETATM   14  C   UNL     1     -11.621  12.153  69.995  1.00  0.00    -0.171 A  
HETATM   15  F   UNL     1     -12.037  14.283  71.002  1.00  0.00    -0.352 F  
HETATM   16  C   UNL     1     -13.097  12.344  71.802  1.00  0.00    -0.342 A  
HETATM   17  C   UNL     1     -12.234  12.960  70.929  1.00  0.00    -0.198 A  
BRANCH  14  18
HETATM   18  N   UNL     1     -10.729  12.622  69.017  1.00  0.00    -0.411 NA 
HETATM   19  H   UNL     1     -10.699  13.639  68.935  1.00  0.00     0.000 HD 
BRANCH  18  20
HETATM   20  C   UNL     1      -9.864  11.946  68.126  1.00  0.00    -0.192 A  
HETATM   21  N   UNL     1     -10.224  11.631  66.863  1.00  0.00    -0.211 NA 
HETATM   22  C   UNL     1      -9.311  11.046  66.028  1.00  0.00    -0.201 A  
HETATM   23  C   UNL     1      -8.040  10.674  66.462  1.00  0.00    -0.140 A  
HETATM   24  O   UNL     1      -7.133   9.987  65.698  1.00  0.00    -0.105 OA 
HETATM   25  C   UNL     1      -7.671  10.991  67.759  1.00  0.00    -0.108 A  
HETATM   26  C   UNL     1      -7.723   9.312  64.590  1.00  0.00    -0.116 C  
HETATM   27  C   UNL     1      -8.589  11.626  68.594  1.00  0.00    -0.086 A  
HETATM   28  C   UNL     1      -8.722  10.186  63.819  1.00  0.00    -0.212 C  
HETATM   29  C   UNL     1      -6.603   8.846  63.653  1.00  0.00    -0.089 C  
HETATM   30  C   UNL     1      -8.517   8.066  65.060  1.00  0.00    -0.089 C  
HETATM   31  N   UNL     1      -9.614  10.835  64.656  1.00  0.00    -0.244 N  
HETATM   32  O   UNL     1      -8.841  10.164  62.594  1.00  0.00    -0.182 OA 
BRANCH  31  33
HETATM   33  C   UNL     1     -10.906  11.100  64.116  1.00  0.00    -0.285 C  
BRANCH  33  34
HETATM   34  O   UNL     1     -10.938  12.391  63.597  1.00  0.00    -0.410 OA 
HETATM   35  P   UNL     1     -12.094  13.344  64.463  1.00  0.00    -0.411 P  
HETATM   36  O   UNL     1     -12.473  13.888  62.969  1.00  0.00    -0.689 OA 
HETATM   37  O   UNL     1     -10.830  14.340  64.735  1.00  0.00    -0.390 OA 
HETATM   38  O   UNL     1     -13.129  14.197  65.238  1.00  0.00    -0.763 OA 
ENDBRANCH  33  34
ENDBRANCH  31  33
ENDBRANCH  18  20
ENDBRANCH  14  18
ENDBRANCH   9  11
ENDBRANCH   5   9
BRANCH   7  39
HETATM   39  O   UNL     1     -10.070   5.858  68.795  1.00  0.00    -0.147 OA 
HETATM   40  C   UNL     1     -10.849   6.132  67.642  1.00  0.00    -0.332 C  
ENDBRANCH   7  39
BRANCH   8  41
HETATM   41  O   UNL     1      -9.416   4.479  71.228  1.00  0.00    -0.139 OA 
HETATM   42  C   UNL     1      -9.759   3.115  71.059  1.00  0.00    -0.115 C  
ENDBRANCH   8  41
ENDBRANCH   2   3
TORSDOF 9
ENDMDL
MODEL       26
REMARK 921   NORMALIZED FREE ENERGY PREDICTED BY IDOCK:   -6.89 KCAL/MOL
REMARK 922        TOTAL FREE ENERGY PREDICTED BY IDOCK:  -12.38 KCAL/MOL
REMARK 923 INTER-LIGAND FREE ENERGY PREDICTED BY IDOCK:  -10.92 KCAL/MOL
REMARK 924 INTRA-LIGAND FREE ENERGY PREDICTED BY IDOCK:   -1.46 KCAL/MOL
REMARK 927      BINDING AFFINITY PREDICTED BY RF-SCORE:    0.00 PKD
ROOT
HETATM    1  C   UNL     1     -10.523  19.711  66.174  1.00  0.00    -0.524 C  
HETATM    2  O   UNL     1     -10.169  19.819  67.555  1.00  0.00    -0.384 OA 
ENDROOT
BRANCH   2   3
HETATM    3  C   UNL     1      -9.254  18.890  67.984  1.00  0.00    -0.307 A  
HETATM    4  C   UNL     1      -9.643  17.544  68.117  1.00  0.00    -0.294 A  
HETATM    5  C   UNL     1      -8.804  16.571  68.645  1.00  0.00    -0.237 A  
HETATM    6  C   UNL     1      -7.521  16.988  69.010  1.00  0.00    -0.211 A  
HETATM    7  C   UNL     1      -7.069  18.307  68.831  1.00  0.00    -0.274 A  
HETATM    8  C   UNL     1      -7.931  19.277  68.277  1.00  0.00    -0.326 A  
BRANCH   5   9
HETATM    9  N   UNL     1      -9.190  15.242  68.842  1.00  0.00    -0.199 NA 
HETATM   10  H   UNL     1      -8.924  14.877  69.756  1.00  0.00     0.000 HD 
BRANCH   9  11
HETATM   11  C   UNL     1      -9.864  14.308  68.053  1.00  0.00    -0.224 A  
HETATM   12  N   UNL     1      -9.618  14.425  66.741  1.00  0.00    -0.258 NA 
HETATM   13  N   UNL     1     -10.688  13.371  68.567  1.00  0.00    -0.257 NA 
HETATM   14  C   UNL     1     -11.308  12.503  67.726  1.00  0.00    -0.296 A  
HETATM   15  F   UNL     1     -11.559  11.648  65.506  1.00  0.00    -0.344 F  
HETATM   16  C   UNL     1     -10.217  13.530  65.927  1.00  0.00    -0.301 A  
HETATM   17  C   UNL     1     -11.043  12.527  66.374  1.00  0.00    -0.290 A  
BRANCH  14  18
HETATM   18  N   UNL     1     -12.147  11.561  68.344  1.00  0.00    -0.560 NA 
HETATM   19  H   UNL     1     -13.070  11.482  67.916  1.00  0.00     0.000 HD 
BRANCH  18  20
HETATM   20  C   UNL     1     -11.949  10.703  69.450  1.00  0.00    -0.226 A  
HETATM   21  N   UNL     1     -10.937   9.810  69.506  1.00  0.00    -0.236 NA 
HETATM   22  C   UNL     1     -10.757   9.065  70.640  1.00  0.00    -0.239 A  
HETATM   23  C   UNL     1     -11.641   9.125  71.715  1.00  0.00    -0.387 A  
HETATM   24  O   UNL     1     -11.567   8.320  72.822  1.00  0.00    -0.395 OA 
HETATM   25  C   UNL     1     -12.683  10.035  71.658  1.00  0.00    -0.535 A  
HETATM   26  C   UNL     1     -10.791   7.143  72.614  1.00  0.00    -0.279 C  
HETATM   27  C   UNL     1     -12.839  10.824  70.519  1.00  0.00    -0.335 A  
HETATM   28  C   UNL     1      -9.462   7.419  71.897  1.00  0.00    -0.144 C  
HETATM   29  C   UNL     1     -10.525   6.490  73.975  1.00  0.00    -0.306 C  
HETATM   30  C   UNL     1     -11.554   6.127  71.726  1.00  0.00    -0.333 C  
HETATM   31  N   UNL     1      -9.620   8.225  70.782  1.00  0.00    -0.169 N  
HETATM   32  O   UNL     1      -8.410   6.841  72.167  1.00  0.00    -0.108 OA 
BRANCH  31  33
HETATM   33  C   UNL     1      -8.691   8.022  69.721  1.00  0.00    -0.136 C  
BRANCH  33  34
HETATM   34  O   UNL     1      -9.203   7.087  68.825  1.00  0.00    -0.134 OA 
HETATM   35  P   UNL     1      -8.925   7.616  67.201  1.00  0.00    -0.134 P  
HETATM   36  O   UNL     1     -10.451   7.077  66.973  1.00  0.00    -0.259 OA 
HETATM   37  O   UNL     1      -8.168   6.180  67.034  1.00  0.00    -0.106 OA 
HETATM   38  O   UNL     1      -8.678   8.089  65.748  1.00  0.00    -0.152 OA 
ENDBRANCH  33  34
ENDBRANCH  31  33
ENDBRANCH  18  20
ENDBRANCH  14  18
ENDBRANCH   9  11
ENDBRANCH   5   9
BRANCH   7  39
HETATM   39  O   UNL     1      -5.790  18.468  69.306  1.00  0.00    -0.216 OA 
HETATM   40  C   UNL     1      -5.365  17.769  70.464  1.00  0.00    -0.270 C  
ENDBRANCH   7  39
BRANCH   8  41
HETATM   41  O   UNL     1      -7.377  20.503  68.044  1.00  0.00    -0.253 OA 
HETATM   42  C   UNL     1      -6.660  20.824  66.865  1.00  0.00    -0.288 C  
ENDBRANCH   8  41
ENDBRANCH   2   3
TORSDOF 9
ENDMDL
MODEL       27
REMARK 921   NORMALIZED FREE ENERGY PREDICTED BY IDOCK:   -6.89 KCAL/MOL
REMARK 922        TOTAL FREE ENERGY PREDICTED BY IDOCK:  -12.37 KCAL/MOL
REMARK 923 INTER-LIGAND FREE ENERGY PREDICTED BY IDOCK:  -10.67 KCAL/MOL
REMARK 924 INTRA-LIGAND FREE ENERGY PREDICTED BY IDOCK:   -1.71 KCAL/MOL
REMARK 927      BINDING AFFINITY PREDICTED BY RF-SCORE:    0.00 PKD
ROOT
HETATM    1  C   UNL     1     -10.959  19.348  67.335  1.00  0.00    -0.334 C  
HETATM    2  O   UNL     1      -9.593  19.699  67.571  1.00  0.00    -0.309 OA 
ENDROOT
BRANCH   2   3
HETATM    3  C   UNL     1      -8.722  18.638  67.557  1.00  0.00    -0.270 A  
HETATM    4  C   UNL     1      -9.051  17.480  66.828  1.00  0.00    -0.276 A  
HETATM    5  C   UNL     1      -8.271  16.331  66.856  1.00  0.00    -0.226 A  
HETATM    6  C   UNL     1      -7.105  16.390  67.623  1.00  0.00    -0.157 A  
HETATM    7  C   UNL     1      -6.704  17.547  68.312  1.00  0.00    -0.197 A  
HETATM    8  C   UNL     1      -7.501  18.711  68.258  1.00  0.00    -0.281 A  
BRANCH   5   9
HETATM    9  N   UNL     1      -8.611  15.150  66.188  1.00  0.00    -0.388 NA 
HETATM   10  H   UNL     1      -7.815  14.700  65.737  1.00  0.00     0.000 HD 
BRANCH   9  11
HETATM   11  C   UNL     1      -9.809  14.458  66.006  1.00  0.00    -0.319 A  
HETATM   12  N   UNL     1     -10.309  14.548  64.766  1.00  0.00    -0.375 NA 
HETATM   13  N   UNL     1     -10.409  13.758  66.992  1.00  0.00    -0.258 NA 
HETATM   14  C   UNL     1     -11.577  13.116  66.731  1.00  0.00    -0.366 A  
HETATM   15  F   UNL     1     -13.209  12.434  65.121  1.00  0.00    -0.310 F  
HETATM   16  C   UNL     1     -11.451  13.874  64.520  1.00  0.00    -0.381 A  
HETATM   17  C   UNL     1     -12.106  13.114  65.459  1.00  0.00    -0.442 A  
BRANCH  14  18
HETATM   18  N   UNL     1     -12.133  12.412  67.813  1.00  0.00    -0.423 NA 
HETATM   19  H   UNL     1     -13.047  12.757  68.107  1.00  0.00     0.000 HD 
BRANCH  18  20
HETATM   20  C   UNL     1     -11.659  11.316  68.569  1.00  0.00    -0.315 A  
HETATM   21  N   UNL     1     -11.068  10.242  68.001  1.00  0.00    -0.289 NA 
HETATM   22  C   UNL     1     -10.562   9.251  68.797  1.00  0.00    -0.193 A  
HETATM   23  C   UNL     1     -10.715   9.261  70.181  1.00  0.00    -0.235 A  
HETATM   24  O   UNL     1     -10.326   8.241  71.010  1.00  0.00    -0.187 OA 
HETATM   25  C   UNL     1     -11.326  10.358  70.766  1.00  0.00    -0.370 A  
HETATM   26  C   UNL     1     -10.143   7.000  70.331  1.00  0.00    -0.187 C  
HETATM   27  C   UNL     1     -11.803  11.387  69.955  1.00  0.00    -0.440 A  
HETATM   28  C   UNL     1      -9.349   7.143  69.025  1.00  0.00    -0.140 C  
HETATM   29  C   UNL     1      -9.426   6.031  71.276  1.00  0.00    -0.180 C  
HETATM   30  C   UNL     1     -11.507   6.379  69.937  1.00  0.00    -0.483 C  
HETATM   31  N   UNL     1      -9.810   8.183  68.236  1.00  0.00    -0.166 N  
HETATM   32  O   UNL     1      -8.527   6.315  68.635  1.00  0.00    -0.121 OA 
BRANCH  31  33
HETATM   33  C   UNL     1      -9.655   8.024  66.829  1.00  0.00    -0.216 C  
BRANCH  33  34
HETATM   34  O   UNL     1      -8.644   8.866  66.373  1.00  0.00    -0.119 OA 
HETATM   35  P   UNL     1      -9.071   9.513  64.825  1.00  0.00    -0.124 P  
HETATM   36  O   UNL     1      -7.501   9.212  64.485  1.00  0.00    -0.097 OA 
HETATM   37  O   UNL     1      -8.856  10.959  65.551  1.00  0.00    -0.190 OA 
HETATM   38  O   UNL     1      -9.453  10.091  63.441  1.00  0.00    -0.294 OA 
ENDBRANCH  33  34
ENDBRANCH  31  33
ENDBRANCH  18  20
ENDBRANCH  14  18
ENDBRANCH   9  11
ENDBRANCH   5   9
BRANCH   7  39
HETATM   39  O   UNL     1      -5.547  17.334  69.022  1.00  0.00    -0.153 OA 
HETATM   40  C   UNL     1      -5.601  16.774  70.324  1.00  0.00    -0.198 C  
ENDBRANCH   7  39
BRANCH   8  41
HETATM   41  O   UNL     1      -6.984  19.816  68.870  1.00  0.00    -0.322 OA 
HETATM   42  C   UNL     1      -6.042  20.678  68.256  1.00  0.00    -0.333 C  
ENDBRANCH   8  41
ENDBRANCH   2   3
TORSDOF 9
ENDMDL
MODEL       28
REMARK 921   NORMALIZED FREE ENERGY PREDICTED BY IDOCK:   -6.88 KCAL/MOL
REMARK 922        TOTAL FREE ENERGY PREDICTED BY IDOCK:  -12.37 KCAL/MOL
REMARK 923 INTER-LIGAND FREE ENERGY PREDICTED BY IDOCK:  -10.40 KCAL/MOL
REMARK 924 INTRA-LIGAND FREE ENERGY PREDICTED BY IDOCK:   -1.96 KCAL/MOL
REMARK 927      BINDING AFFINITY PREDICTED BY RF-SCORE:    0.00 PKD
ROOT
HETATM    1  C   UNL     1     -10.729  16.941  68.180  1.00  0.00    -0.375 C  
HETATM    2  O   UNL     1     -11.645  16.285  69.061  1.00  0.00    -0.323 OA 
ENDROOT
BRANCH   2   3
HETATM    3  C   UNL     1     -11.712  14.923  68.901  1.00  0.00    -0.315 A  
HETATM    4  C   UNL     1     -11.681  14.375  67.605  1.00  0.00    -0.421 A  
HETATM    5  C   UNL     1     -11.852  13.018  67.362  1.00  0.00    -0.357 A  
HETATM    6  C   UNL     1     -12.023  12.202  68.484  1.00  0.00    -0.273 A  
HETATM    7  C   UNL     1     -11.994  12.699  69.797  1.00  0.00    -0.295 A  
HETATM    8  C   UNL     1     -11.801  14.078  70.025  1.00  0.00    -0.320 A  
BRANCH   5   9
HETATM    9  N   UNL     1     -11.884  12.461  66.079  1.00  0.00    -0.531 NA 
HETATM   10  H   UNL     1     -12.713  12.725  65.547  1.00  0.00     0.000 HD 
BRANCH   9  11
HETATM   11  C   UNL     1     -11.024  11.620  65.374  1.00  0.00    -0.270 A  
HETATM   12  N   UNL     1     -10.681  12.081  64.163  1.00  0.00    -0.324 NA 
HETATM   13  N   UNL     1     -10.575  10.446  65.868  1.00  0.00    -0.108 NA 
HETATM   14  C   UNL     1      -9.742   9.685  65.111  1.00  0.00    -0.217 A  
HETATM   15  F   UNL     1      -8.415   9.471  63.133  1.00  0.00    -0.149 F  
HETATM   16  C   UNL     1      -9.824  11.326  63.443  1.00  0.00    -0.385 A  
HETATM   17  C   UNL     1      -9.298  10.137  63.888  1.00  0.00    -0.287 A  
BRANCH  14  18
HETATM   18  N   UNL     1      -9.323   8.481  65.702  1.00  0.00    -0.426 NA 
HETATM   19  H   UNL     1      -8.609   7.983  65.170  1.00  0.00     0.000 HD 
BRANCH  18  20
HETATM   20  C   UNL     1      -9.709   7.832  66.897  1.00  0.00    -0.216 A  
HETATM   21  N   UNL     1      -9.426   8.331  68.120  1.00  0.00    -0.137 NA 
HETATM   22  C   UNL     1      -9.898   7.692  69.234  1.00  0.00    -0.168 A  
HETATM   23  C   UNL     1     -10.587   6.484  69.161  1.00  0.00    -0.243 A  
HETATM   24  O   UNL     1     -10.981   5.751  70.251  1.00  0.00    -0.309 OA 
HETATM   25  C   UNL     1     -10.874   5.967  67.908  1.00  0.00    -0.378 A  
HETATM   26  C   UNL     1     -10.275   6.087  71.442  1.00  0.00    -0.206 C  
HETATM   27  C   UNL     1     -10.429   6.643  66.773  1.00  0.00    -0.298 A  
HETATM   28  C   UNL     1     -10.154   7.602  71.662  1.00  0.00    -0.180 C  
HETATM   29  C   UNL     1     -10.994   5.441  72.631  1.00  0.00    -0.321 C  
HETATM   30  C   UNL     1      -8.823   5.544  71.397  1.00  0.00    -0.142 C  
HETATM   31  N   UNL     1      -9.738   8.270  70.523  1.00  0.00    -0.170 N  
HETATM   32  O   UNL     1     -10.232   8.137  72.767  1.00  0.00    -0.295 OA 
BRANCH  31  33
HETATM   33  C   UNL     1      -8.983   9.460  70.731  1.00  0.00    -0.191 C  
BRANCH  33  34
HETATM   34  O   UNL     1      -7.626   9.180  70.601  1.00  0.00    -0.103 OA 
HETATM   35  P   UNL     1      -6.813  10.530  69.885  1.00  0.00    -0.119 P  
HETATM   36  O   UNL     1      -6.037   9.365  69.042  1.00  0.00    -0.042 OA 
HETATM   37  O   UNL     1      -5.882  10.474  71.225  1.00  0.00    -0.296 OA 
HETATM   38  O   UNL     1      -6.086  11.737  69.245  1.00  0.00    -0.068 OA 
ENDBRANCH  33  34
ENDBRANCH  31  33
ENDBRANCH  18  20
ENDBRANCH  14  18
ENDBRANCH   9  11
ENDBRANCH   5   9
BRANCH   7  39
HETATM   39  O   UNL     1     -12.227  11.703  70.716  1.00  0.00    -0.375 OA 
HETATM   40  C   UNL     1     -12.734  10.448  70.295  1.00  0.00    -0.155 C  
ENDBRANCH   7  39
BRANCH   8  41
HETATM   41  O   UNL     1     -11.683  14.456  71.332  1.00  0.00    -0.277 OA 
HETATM   42  C   UNL     1     -12.668  15.209  72.018  1.00  0.00    -0.342 C  
ENDBRANCH   8  41
ENDBRANCH   2   3
TORSDOF 9
ENDMDL
MODEL       29
REMARK 921   NORMALIZED FREE ENERGY PREDICTED BY IDOCK:   -6.87 KCAL/MOL
REMARK 922        TOTAL FREE ENERGY PREDICTED BY IDOCK:  -12.35 KCAL/MOL
REMARK 923 INTER-LIGAND FREE ENERGY PREDICTED BY IDOCK:  -10.69 KCAL/MOL
REMARK 924 INTRA-LIGAND FREE ENERGY PREDICTED BY IDOCK:   -1.66 KCAL/MOL
REMARK 927      BINDING AFFINITY PREDICTED BY RF-SCORE:    0.00 PKD
ROOT
HETATM    1  C   UNL     1      -6.481   8.261  70.680  1.00  0.00    -0.036 C  
HETATM    2  O   UNL     1      -7.418   8.968  71.497  1.00  0.00    -0.261 OA 
ENDROOT
BRANCH   2   3
HETATM    3  C   UNL     1      -8.735   8.734  71.185  1.00  0.00    -0.212 A  
HETATM    4  C   UNL     1      -9.136   8.718  69.836  1.00  0.00    -0.158 A  
HETATM    5  C   UNL     1     -10.465   8.595  69.452  1.00  0.00    -0.218 A  
HETATM    6  C   UNL     1     -11.398   8.447  70.481  1.00  0.00    -0.228 A  
HETATM    7  C   UNL     1     -11.034   8.390  71.837  1.00  0.00    -0.305 A  
HETATM    8  C   UNL     1      -9.677   8.500  72.207  1.00  0.00    -0.310 A  
BRANCH   5   9
HETATM    9  N   UNL     1     -10.891   8.637  68.120  1.00  0.00    -0.464 NA 
HETATM   10  H   UNL     1     -11.474   7.843  67.860  1.00  0.00     0.000 HD 
BRANCH   9  11
HETATM   11  C   UNL     1     -10.688   9.536  67.073  1.00  0.00    -0.149 A  
HETATM   12  N   UNL     1      -9.801   9.118  66.159  1.00  0.00    -0.287 NA 
HETATM   13  N   UNL     1     -11.328  10.722  66.988  1.00  0.00    -0.327 NA 
HETATM   14  C   UNL     1     -11.067  11.540  65.935  1.00  0.00    -0.214 A  
HETATM   15  F   UNL     1      -9.984  11.863  63.827  1.00  0.00    -0.295 F  
HETATM   16  C   UNL     1      -9.584   9.931  65.104  1.00  0.00    -0.300 A  
HETATM   17  C   UNL     1     -10.219  11.137  64.928  1.00  0.00    -0.303 A  
BRANCH  14  18
HETATM   18  N   UNL     1     -11.777  12.753  65.925  1.00  0.00    -0.391 NA 
HETATM   19  H   UNL     1     -12.789  12.642  65.993  1.00  0.00     0.000 HD 
BRANCH  18  20
HETATM   20  C   UNL     1     -11.348  14.097  65.838  1.00  0.00    -0.323 A  
HETATM   21  N   UNL     1     -10.519  14.655  66.746  1.00  0.00    -0.274 NA 
HETATM   22  C   UNL     1     -10.080  15.938  66.558  1.00  0.00    -0.282 A  
HETATM   23  C   UNL     1     -10.534  16.731  65.507  1.00  0.00    -0.237 A  
HETATM   24  O   UNL     1     -10.212  18.053  65.341  1.00  0.00    -0.488 OA 
HETATM   25  C   UNL     1     -11.390  16.162  64.578  1.00  0.00    -0.273 A  
HETATM   26  C   UNL     1      -9.732  18.672  66.532  1.00  0.00    -0.351 C  
HETATM   27  C   UNL     1     -11.801  14.841  64.748  1.00  0.00    -0.425 A  
HETATM   28  C   UNL     1      -8.694  17.818  67.275  1.00  0.00    -0.237 C  
HETATM   29  C   UNL     1      -9.124  20.029  66.163  1.00  0.00    -0.357 C  
HETATM   30  C   UNL     1     -10.888  18.911  67.536  1.00  0.00    -0.440 C  
HETATM   31  N   UNL     1      -9.097  16.501  67.417  1.00  0.00    -0.203 N  
HETATM   32  O   UNL     1      -7.710  18.287  67.845  1.00  0.00    -0.234 OA 
BRANCH  31  33
HETATM   33  C   UNL     1      -8.618  15.816  68.571  1.00  0.00    -0.183 C  
BRANCH  33  34
HETATM   34  O   UNL     1      -7.467  15.105  68.247  1.00  0.00    -0.103 OA 
HETATM   35  P   UNL     1      -6.608  14.687  69.691  1.00  0.00    -0.155 P  
HETATM   36  O   UNL     1      -5.303  15.111  68.804  1.00  0.00    -0.088 OA 
HETATM   37  O   UNL     1      -6.749  13.157  69.138  1.00  0.00    -0.105 OA 
HETATM   38  O   UNL     1      -5.840  14.313  70.982  1.00  0.00    -0.190 OA 
ENDBRANCH  33  34
ENDBRANCH  31  33
ENDBRANCH  18  20
ENDBRANCH  14  18
ENDBRANCH   9  11
ENDBRANCH   5   9
BRANCH   7  39
HETATM   39  O   UNL     1     -12.137   8.283  72.649  1.00  0.00    -0.384 OA 
HETATM   40  C   UNL     1     -13.325   8.993  72.338  1.00  0.00    -0.460 C  
ENDBRANCH   7  39
BRANCH   8  41
HETATM   41  O   UNL     1      -9.405   8.330  73.534  1.00  0.00    -0.210 OA 
HETATM   42  C   UNL     1      -9.218   7.061  74.136  1.00  0.00    -0.232 C  
ENDBRANCH   8  41
ENDBRANCH   2   3
TORSDOF 9
ENDMDL
MODEL       30
REMARK 921   NORMALIZED FREE ENERGY PREDICTED BY IDOCK:   -6.78 KCAL/MOL
REMARK 922        TOTAL FREE ENERGY PREDICTED BY IDOCK:  -12.22 KCAL/MOL
REMARK 923 INTER-LIGAND FREE ENERGY PREDICTED BY IDOCK:  -10.62 KCAL/MOL
REMARK 924 INTRA-LIGAND FREE ENERGY PREDICTED BY IDOCK:   -1.60 KCAL/MOL
REMARK 927      BINDING AFFINITY PREDICTED BY RF-SCORE:    0.00 PKD
ROOT
HETATM    1  C   UNL     1      -7.457   3.056  71.337  1.00  0.00    -0.040 C  
HETATM    2  O   UNL     1      -8.575   2.727  70.509  1.00  0.00    -0.055 OA 
ENDROOT
BRANCH   2   3
HETATM    3  C   UNL     1      -9.288   3.811  70.058  1.00  0.00    -0.180 A  
HETATM    4  C   UNL     1      -9.996   4.606  70.977  1.00  0.00    -0.270 A  
HETATM    5  C   UNL     1     -10.822   5.651  70.581  1.00  0.00    -0.234 A  
HETATM    6  C   UNL     1     -10.891   5.904  69.209  1.00  0.00    -0.414 A  
HETATM    7  C   UNL     1     -10.149   5.177  68.263  1.00  0.00    -0.134 A  
HETATM    8  C   UNL     1      -9.301   4.131  68.685  1.00  0.00    -0.157 A  
BRANCH   5   9
HETATM    9  N   UNL     1     -11.581   6.415  71.473  1.00  0.00    -0.305 NA 
HETATM   10  H   UNL     1     -11.908   5.884  72.280  1.00  0.00     0.000 HD 
BRANCH   9  11
HETATM   11  C   UNL     1     -11.986   7.750  71.493  1.00  0.00    -0.300 A  
HETATM   12  N   UNL     1     -13.142   7.960  72.139  1.00  0.00    -0.217 NA 
HETATM   13  N   UNL     1     -11.276   8.742  70.915  1.00  0.00    -0.261 NA 
HETATM   14  C   UNL     1     -11.746  10.015  70.978  1.00  0.00    -0.392 A  
HETATM   15  F   UNL     1     -13.360  11.548  71.852  1.00  0.00    -0.533 F  
HETATM   16  C   UNL     1     -13.572   9.237  72.219  1.00  0.00    -0.480 A  
HETATM   17  C   UNL     1     -12.892  10.305  71.686  1.00  0.00    -0.463 A  
BRANCH  14  18
HETATM   18  N   UNL     1     -10.944  10.984  70.351  1.00  0.00    -0.381 NA 
HETATM   19  H   UNL     1      -9.997  11.045  70.724  1.00  0.00     0.000 HD 
BRANCH  18  20
HETATM   20  C   UNL     1     -11.209  11.890  69.298  1.00  0.00    -0.242 A  
HETATM   21  N   UNL     1     -11.004  11.577  68.001  1.00  0.00    -0.215 NA 
HETATM   22  C   UNL     1     -11.355  12.472  67.028  1.00  0.00    -0.328 A  
HETATM   23  C   UNL     1     -11.835  13.745  67.329  1.00  0.00    -0.401 A  
HETATM   24  O   UNL     1     -12.094  14.715  66.395  1.00  0.00    -0.333 OA 
HETATM   25  C   UNL     1     -12.040  14.071  68.659  1.00  0.00    -0.332 A  
HETATM   26  C   UNL     1     -11.445  14.485  65.147  1.00  0.00    -0.368 C  
HETATM   27  C   UNL     1     -11.722  13.140  69.647  1.00  0.00    -0.370 A  
HETATM   28  C   UNL     1     -11.577  13.035  64.661  1.00  0.00    -0.346 C  
HETATM   29  C   UNL     1     -12.039  15.442  64.108  1.00  0.00    -0.104 C  
HETATM   30  C   UNL     1      -9.924  14.764  65.254  1.00  0.00    -0.331 C  
HETATM   31  N   UNL     1     -11.285  12.115  65.654  1.00  0.00    -0.324 N  
HETATM   32  O   UNL     1     -11.735  12.725  63.481  1.00  0.00    -0.480 OA 
BRANCH  31  33
HETATM   33  C   UNL     1     -10.737  10.873  65.222  1.00  0.00    -0.124 C  
BRANCH  33  34
HETATM   34  O   UNL     1      -9.392  11.040  64.909  1.00  0.00    -0.211 OA 
HETATM   35  P   UNL     1      -8.627   9.495  64.754  1.00  0.00    -0.200 P  
HETATM   36  O   UNL     1      -7.421  10.228  65.577  1.00  0.00    -0.140 OA 
HETATM   37  O   UNL     1      -8.219  10.027  63.265  1.00  0.00    -0.145 OA 
HETATM   38  O   UNL     1      -7.943   8.114  64.615  1.00  0.00    -0.135 OA 
ENDBRANCH  33  34
ENDBRANCH  31  33
ENDBRANCH  18  20
ENDBRANCH  14  18
ENDBRANCH   9  11
ENDBRANCH   5   9
BRANCH   7  39
HETATM   39  O   UNL     1     -10.424   5.592  66.982  1.00  0.00    -0.226 OA 
HETATM   40  C   UNL     1     -10.748   6.949  66.725  1.00  0.00    -0.226 C  
ENDBRANCH   7  39
BRANCH   8  41
HETATM   41  O   UNL     1      -8.541   3.549  67.711  1.00  0.00    -0.092 OA 
HETATM   42  C   UNL     1      -8.945   2.398  66.991  1.00  0.00    -0.138 C  
ENDBRANCH   8  41
ENDBRANCH   2   3
TORSDOF 9
ENDMDL
MODEL       31
REMARK 921   NORMALIZED FREE ENERGY PREDICTED BY IDOCK:   -6.77 KCAL/MOL
REMARK 922        TOTAL FREE ENERGY PREDICTED BY IDOCK:  -12.20 KCAL/MOL
REMARK 923 INTER-LIGAND FREE ENERGY PREDICTED BY IDOCK:  -10.54 KCAL/MOL
REMARK 924 INTRA-LIGAND FREE ENERGY PREDICTED BY IDOCK:   -1.66 KCAL/MOL
REMARK 927      BINDING AFFINITY PREDICTED BY RF-SCORE:    0.00 PKD
ROOT
HETATM    1  C   UNL     1     -11.251  11.862  64.016  1.00  0.00    -0.396 C  
HETATM    2  O   UNL     1     -12.335  12.181  64.892  1.00  0.00    -0.421 OA 
ENDROOT
BRANCH   2   3
HETATM    3  C   UNL     1     -11.952  12.678  66.114  1.00  0.00    -0.395 A  
HETATM    4  C   UNL     1     -11.575  11.787  67.136  1.00  0.00    -0.342 A  
HETATM    5  C   UNL     1     -11.280  12.211  68.426  1.00  0.00    -0.265 A  
HETATM    6  C   UNL     1     -11.341  13.587  68.657  1.00  0.00    -0.323 A  
HETATM    7  C   UNL     1     -11.648  14.516  67.649  1.00  0.00    -0.378 A  
HETATM    8  C   UNL     1     -11.928  14.068  66.340  1.00  0.00    -0.438 A  
BRANCH   5   9
HETATM    9  N   UNL     1     -10.962  11.338  69.471  1.00  0.00    -0.379 NA 
HETATM   10  H   UNL     1      -9.958  11.247  69.627  1.00  0.00     0.000 HD 
BRANCH   9  11
HETATM   11  C   UNL     1     -11.726  10.565  70.346  1.00  0.00    -0.344 A  
HETATM   12  N   UNL     1     -12.578  11.275  71.099  1.00  0.00    -0.403 NA 
HETATM   13  N   UNL     1     -11.617   9.222  70.426  1.00  0.00    -0.222 NA 
HETATM   14  C   UNL     1     -12.397   8.547  71.310  1.00  0.00    -0.271 A  
HETATM   15  F   UNL     1     -14.193   8.593  72.889  1.00  0.00    -0.401 F  
HETATM   16  C   UNL     1     -13.368  10.580  71.944  1.00  0.00    -0.355 A  
HETATM   17  C   UNL     1     -13.341   9.211  72.062  1.00  0.00    -0.445 A  
BRANCH  14  18
HETATM   18  N   UNL     1     -12.219   7.153  71.327  1.00  0.00    -0.347 NA 
HETATM   19  H   UNL     1     -12.979   6.643  71.777  1.00  0.00     0.000 HD 
BRANCH  18  20
HETATM   20  C   UNL     1     -11.181   6.328  70.838  1.00  0.00    -0.324 A  
HETATM   21  N   UNL     1     -10.959   6.144  69.518  1.00  0.00    -0.359 NA 
HETATM   22  C   UNL     1      -9.888   5.395  69.113  1.00  0.00    -0.177 A  
HETATM   23  C   UNL     1      -9.062   4.731  70.017  1.00  0.00    -0.103 A  
HETATM   24  O   UNL     1      -8.048   3.881  69.657  1.00  0.00    -0.055 OA 
HETATM   25  C   UNL     1      -9.291   4.912  71.370  1.00  0.00    -0.199 A  
HETATM   26  C   UNL     1      -8.165   3.395  68.322  1.00  0.00    -0.077 C  
HETATM   27  C   UNL     1     -10.357   5.711  71.781  1.00  0.00    -0.268 A  
HETATM   28  C   UNL     1      -8.505   4.498  67.310  1.00  0.00    -0.104 C  
HETATM   29  C   UNL     1      -6.846   2.718  67.935  1.00  0.00    -0.048 C  
HETATM   30  C   UNL     1      -9.302   2.347  68.212  1.00  0.00    -0.265 C  
HETATM   31  N   UNL     1      -9.547   5.304  67.736  1.00  0.00    -0.127 N  
HETATM   32  O   UNL     1      -8.038   4.544  66.172  1.00  0.00    -0.102 OA 
BRANCH  31  33
HETATM   33  C   UNL     1     -10.361   5.874  66.715  1.00  0.00    -0.244 C  
BRANCH  33  34
HETATM   34  O   UNL     1     -10.557   7.227  66.975  1.00  0.00    -0.306 OA 
HETATM   35  P   UNL     1      -9.136   8.120  66.552  1.00  0.00    -0.197 P  
HETATM   36  O   UNL     1      -9.451   8.905  67.950  1.00  0.00    -0.140 OA 
HETATM   37  O   UNL     1     -10.152   8.972  65.599  1.00  0.00    -0.082 OA 
HETATM   38  O   UNL     1      -7.866   8.918  66.173  1.00  0.00    -0.099 OA 
ENDBRANCH  33  34
ENDBRANCH  31  33
ENDBRANCH  18  20
ENDBRANCH  14  18
ENDBRANCH   9  11
ENDBRANCH   5   9
BRANCH   7  39
HETATM   39  O   UNL     1     -11.683  15.799  68.141  1.00  0.00    -0.316 OA 
HETATM   40  C   UNL     1     -10.477  16.483  68.438  1.00  0.00    -0.307 C  
ENDBRANCH   7  39
BRANCH   8  41
HETATM   41  O   UNL     1     -12.113  15.044  65.403  1.00  0.00    -0.145 OA 
HETATM   42  C   UNL     1     -11.049  15.666  64.704  1.00  0.00    -0.373 C  
ENDBRANCH   8  41
ENDBRANCH   2   3
TORSDOF 9
ENDMDL
MODEL       32
REMARK 921   NORMALIZED FREE ENERGY PREDICTED BY IDOCK:   -6.75 KCAL/MOL
REMARK 922        TOTAL FREE ENERGY PREDICTED BY IDOCK:  -12.17 KCAL/MOL
REMARK 923 INTER-LIGAND FREE ENERGY PREDICTED BY IDOCK:  -10.74 KCAL/MOL
REMARK 924 INTRA-LIGAND FREE ENERGY PREDICTED BY IDOCK:   -1.43 KCAL/MOL
REMARK 927      BINDING AFFINITY PREDICTED BY RF-SCORE:    0.00 PKD
ROOT
HETATM    1  C   UNL     1      -6.108  16.210  69.016  1.00  0.00    -0.131 C  
HETATM    2  O   UNL     1      -6.593  17.552  69.093  1.00  0.00    -0.228 OA 
ENDROOT
BRANCH   2   3
HETATM    3  C   UNL     1      -7.908  17.705  68.727  1.00  0.00    -0.242 A  
HETATM    4  C   UNL     1      -8.805  16.636  68.905  1.00  0.00    -0.238 A  
HETATM    5  C   UNL     1     -10.120  16.681  68.460  1.00  0.00    -0.266 A  
HETATM    6  C   UNL     1     -10.530  17.870  67.851  1.00  0.00    -0.404 A  
HETATM    7  C   UNL     1      -9.687  18.985  67.714  1.00  0.00    -0.325 A  
HETATM    8  C   UNL     1      -8.359  18.926  68.188  1.00  0.00    -0.309 A  
BRANCH   5   9
HETATM    9  N   UNL     1     -11.011  15.608  68.572  1.00  0.00    -0.286 NA 
HETATM   10  H   UNL     1     -11.806  15.808  69.179  1.00  0.00     0.000 HD 
BRANCH   9  11
HETATM   11  C   UNL     1     -11.042  14.322  68.031  1.00  0.00    -0.269 A  
HETATM   12  N   UNL     1     -10.333  14.189  66.901  1.00  0.00    -0.267 NA 
HETATM   13  N   UNL     1     -11.724  13.304  68.597  1.00  0.00    -0.320 NA 
HETATM   14  C   UNL     1     -11.704  12.083  68.000  1.00  0.00    -0.331 A  
HETATM   15  F   UNL     1     -10.815  10.667  66.290  1.00  0.00    -0.281 F  
HETATM   16  C   UNL     1     -10.299  12.960  66.346  1.00  0.00    -0.268 A  
HETATM   17  C   UNL     1     -10.939  11.865  66.876  1.00  0.00    -0.289 A  
BRANCH  14  18
HETATM   18  N   UNL     1     -12.440  11.081  68.655  1.00  0.00    -0.621 NA 
HETATM   19  H   UNL     1     -13.357  10.904  68.245  1.00  0.00     0.000 HD 
BRANCH  18  20
HETATM   20  C   UNL     1     -12.144  10.274  69.777  1.00  0.00    -0.056 A  
HETATM   21  N   UNL     1     -11.070   9.456  69.821  1.00  0.00    -0.211 NA 
HETATM   22  C   UNL     1     -10.799   8.761  70.968  1.00  0.00    -0.260 A  
HETATM   23  C   UNL     1     -11.647   8.793  72.073  1.00  0.00    -0.366 A  
HETATM   24  O   UNL     1     -11.478   8.030  73.200  1.00  0.00    -0.299 OA 
HETATM   25  C   UNL     1     -12.752   9.626  72.029  1.00  0.00    -0.470 A  
HETATM   26  C   UNL     1     -10.629   6.903  72.997  1.00  0.00    -0.278 C  
HETATM   27  C   UNL     1     -13.002  10.366  70.874  1.00  0.00    -0.475 A  
HETATM   28  C   UNL     1      -9.348   7.249  72.224  1.00  0.00    -0.138 C  
HETATM   29  C   UNL     1     -10.271   6.313  74.365  1.00  0.00    -0.339 C  
HETATM   30  C   UNL     1     -11.348   5.810  72.167  1.00  0.00    -0.317 C  
HETATM   31  N   UNL     1      -9.601   8.006  71.093  1.00  0.00    -0.158 N  
HETATM   32  O   UNL     1      -8.250   6.753  72.471  1.00  0.00    -0.105 OA 
BRANCH  31  33
HETATM   33  C   UNL     1      -8.698   7.835  70.004  1.00  0.00    -0.141 C  
BRANCH  33  34
HETATM   34  O   UNL     1      -8.944   6.615  69.381  1.00  0.00    -0.133 OA 
HETATM   35  P   UNL     1      -9.537   6.883  67.777  1.00  0.00    -0.126 P  
HETATM   36  O   UNL     1     -10.563   5.672  68.165  1.00  0.00    -0.216 OA 
HETATM   37  O   UNL     1      -8.273   5.952  67.328  1.00  0.00    -0.105 OA 
HETATM   38  O   UNL     1     -10.067   7.122  66.343  1.00  0.00    -0.122 OA 
ENDBRANCH  33  34
ENDBRANCH  31  33
ENDBRANCH  18  20
ENDBRANCH  14  18
ENDBRANCH   9  11
ENDBRANCH   5   9
BRANCH   7  39
HETATM   39  O   UNL     1     -10.314  20.010  67.047  1.00  0.00    -0.428 OA 
HETATM   40  C   UNL     1     -10.621  19.882  65.668  1.00  0.00    -0.327 C  
ENDBRANCH   7  39
BRANCH   8  41
HETATM   41  O   UNL     1      -7.645  20.087  68.107  1.00  0.00    -0.298 OA 
HETATM   42  C   UNL     1      -6.917  20.476  66.955  1.00  0.00    -0.293 C  
ENDBRANCH   8  41
ENDBRANCH   2   3
TORSDOF 9
ENDMDL
MODEL       33
REMARK 921   NORMALIZED FREE ENERGY PREDICTED BY IDOCK:   -6.74 KCAL/MOL
REMARK 922        TOTAL FREE ENERGY PREDICTED BY IDOCK:  -12.16 KCAL/MOL
REMARK 923 INTER-LIGAND FREE ENERGY PREDICTED BY IDOCK:   -9.96 KCAL/MOL
REMARK 924 INTRA-LIGAND FREE ENERGY PREDICTED BY IDOCK:   -2.20 KCAL/MOL
REMARK 927      BINDING AFFINITY PREDICTED BY RF-SCORE:    0.00 PKD
ROOT
HETATM    1  C   UNL     1      -8.609   5.030  66.002  1.00  0.00    -0.121 C  
HETATM    2  O   UNL     1      -9.128   5.766  67.113  1.00  0.00    -0.113 OA 
ENDROOT
BRANCH   2   3
HETATM    3  C   UNL     1      -8.806   7.101  67.111  1.00  0.00    -0.121 A  
HETATM    4  C   UNL     1      -9.225   7.913  66.042  1.00  0.00    -0.162 A  
HETATM    5  C   UNL     1      -8.846   9.244  65.920  1.00  0.00    -0.166 A  
HETATM    6  C   UNL     1      -8.047   9.759  66.944  1.00  0.00    -0.113 A  
HETATM    7  C   UNL     1      -7.661   9.002  68.062  1.00  0.00    -0.097 A  
HETATM    8  C   UNL     1      -8.070   7.656  68.177  1.00  0.00    -0.124 A  
BRANCH   5   9
HETATM    9  N   UNL     1      -9.202  10.053  64.835  1.00  0.00    -0.219 NA 
HETATM   10  H   UNL     1      -8.823   9.724  63.948  1.00  0.00     0.000 HD 
BRANCH   9  11
HETATM   11  C   UNL     1      -9.966  11.213  64.710  1.00  0.00    -0.287 A  
HETATM   12  N   UNL     1     -10.895  11.154  63.745  1.00  0.00    -0.345 NA 
HETATM   13  N   UNL     1      -9.786  12.299  65.492  1.00  0.00    -0.206 NA 
HETATM   14  C   UNL     1     -10.571  13.390  65.299  1.00  0.00    -0.325 A  
HETATM   15  F   UNL     1     -12.447  14.378  64.191  1.00  0.00    -0.480 F  
HETATM   16  C   UNL     1     -11.687  12.236  63.596  1.00  0.00    -0.504 A  
HETATM   17  C   UNL     1     -11.589  13.366  64.371  1.00  0.00    -0.384 A  
BRANCH  14  18
HETATM   18  N   UNL     1     -10.316  14.475  66.156  1.00  0.00    -0.287 NA 
HETATM   19  H   UNL     1      -9.681  15.171  65.767  1.00  0.00     0.000 HD 
BRANCH  18  20
HETATM   20  C   UNL     1     -10.778  14.778  67.457  1.00  0.00    -0.269 A  
HETATM   21  N   UNL     1     -11.388  13.865  68.244  1.00  0.00    -0.277 NA 
HETATM   22  C   UNL     1     -11.740  14.204  69.522  1.00  0.00    -0.312 A  
HETATM   23  C   UNL     1     -11.577  15.495  70.018  1.00  0.00    -0.341 A  
HETATM   24  O   UNL     1     -12.015  15.912  71.249  1.00  0.00    -0.384 OA 
HETATM   25  C   UNL     1     -10.957  16.436  69.211  1.00  0.00    -0.322 A  
HETATM   26  C   UNL     1     -13.014  15.063  71.810  1.00  0.00    -0.347 C  
HETATM   27  C   UNL     1     -10.561  16.075  67.924  1.00  0.00    -0.301 A  
HETATM   28  C   UNL     1     -12.669  13.572  71.691  1.00  0.00    -0.287 C  
HETATM   29  C   UNL     1     -13.200  15.441  73.283  1.00  0.00    -0.612 C  
HETATM   30  C   UNL     1     -14.370  15.249  71.083  1.00  0.00    -0.384 C  
HETATM   31  N   UNL     1     -12.251  13.226  70.417  1.00  0.00    -0.353 N  
HETATM   32  O   UNL     1     -12.918  12.744  72.566  1.00  0.00    -0.234 OA 
BRANCH  31  33
HETATM   33  C   UNL     1     -12.535  11.893  70.000  1.00  0.00    -0.021 C  
BRANCH  33  34
HETATM   34  O   UNL     1     -11.374  11.129  70.055  1.00  0.00    -0.279 OA 
HETATM   35  P   UNL     1     -11.760   9.502  70.502  1.00  0.00    -0.126 P  
HETATM   36  O   UNL     1     -10.427   9.649  71.435  1.00  0.00    -0.272 OA 
HETATM   37  O   UNL     1     -11.001   9.111  69.111  1.00  0.00    -0.161 OA 
HETATM   38  O   UNL     1     -12.106   8.047  70.902  1.00  0.00    -0.263 OA 
ENDBRANCH  33  34
ENDBRANCH  31  33
ENDBRANCH  18  20
ENDBRANCH  14  18
ENDBRANCH   9  11
ENDBRANCH   5   9
BRANCH   7  39
HETATM   39  O   UNL     1      -6.846   9.724  68.901  1.00  0.00    -0.053 OA 
HETATM   40  C   UNL     1      -7.388  10.750  69.715  1.00  0.00    -0.064 C  
ENDBRANCH   7  39
BRANCH   8  41
HETATM   41  O   UNL     1      -7.738   7.029  69.344  1.00  0.00    -0.103 OA 
HETATM   42  C   UNL     1      -8.619   6.916  70.447  1.00  0.00    -0.143 C  
ENDBRANCH   8  41
ENDBRANCH   2   3
TORSDOF 9
ENDMDL
MODEL       34
REMARK 921   NORMALIZED FREE ENERGY PREDICTED BY IDOCK:   -6.73 KCAL/MOL
REMARK 922        TOTAL FREE ENERGY PREDICTED BY IDOCK:  -12.14 KCAL/MOL
REMARK 923 INTER-LIGAND FREE ENERGY PREDICTED BY IDOCK:  -10.77 KCAL/MOL
REMARK 924 INTRA-LIGAND FREE ENERGY PREDICTED BY IDOCK:   -1.37 KCAL/MOL
REMARK 927      BINDING AFFINITY PREDICTED BY RF-SCORE:    0.00 PKD
ROOT
HETATM    1  C   UNL     1     -13.480   9.139  72.078  1.00  0.00    -0.448 C  
HETATM    2  O   UNL     1     -12.226   8.772  72.659  1.00  0.00    -0.333 OA 
ENDROOT
BRANCH   2   3
HETATM    3  C   UNL     1     -11.244   8.469  71.748  1.00  0.00    -0.309 A  
HETATM    4  C   UNL     1     -11.494   8.646  70.374  1.00  0.00    -0.151 A  
HETATM    5  C   UNL     1     -10.589   8.261  69.393  1.00  0.00    -0.196 A  
HETATM    6  C   UNL     1      -9.384   7.714  69.840  1.00  0.00    -0.150 A  
HETATM    7  C   UNL     1      -9.066   7.581  71.202  1.00  0.00    -0.147 A  
HETATM    8  C   UNL     1      -9.991   7.994  72.184  1.00  0.00    -0.225 A  
BRANCH   5   9
HETATM    9  N   UNL     1     -10.843   8.373  68.022  1.00  0.00    -0.470 NA 
HETATM   10  H   UNL     1     -11.254   7.531  67.620  1.00  0.00     0.000 HD 
BRANCH   9  11
HETATM   11  C   UNL     1     -10.652   9.391  67.088  1.00  0.00    -0.224 A  
HETATM   12  N   UNL     1      -9.822   9.066  66.087  1.00  0.00    -0.286 NA 
HETATM   13  N   UNL     1     -11.251  10.597  67.184  1.00  0.00    -0.319 NA 
HETATM   14  C   UNL     1     -11.006  11.535  66.233  1.00  0.00    -0.275 A  
HETATM   15  F   UNL     1     -10.005  12.091  64.132  1.00  0.00    -0.282 F  
HETATM   16  C   UNL     1      -9.621  10.000  65.134  1.00  0.00    -0.291 A  
HETATM   17  C   UNL     1     -10.218  11.238  65.142  1.00  0.00    -0.289 A  
BRANCH  14  18
HETATM   18  N   UNL     1     -11.671  12.761  66.410  1.00  0.00    -0.384 NA 
HETATM   19  H   UNL     1     -12.641  12.668  66.709  1.00  0.00     0.000 HD 
BRANCH  18  20
HETATM   20  C   UNL     1     -11.242  14.098  66.250  1.00  0.00    -0.329 A  
HETATM   21  N   UNL     1     -10.493  14.737  67.175  1.00  0.00    -0.263 NA 
HETATM   22  C   UNL     1     -10.046  16.005  66.921  1.00  0.00    -0.265 A  
HETATM   23  C   UNL     1     -10.414  16.706  65.775  1.00  0.00    -0.311 A  
HETATM   24  O   UNL     1     -10.085  18.014  65.530  1.00  0.00    -0.508 OA 
HETATM   25  C   UNL     1     -11.187  16.055  64.828  1.00  0.00    -0.348 A  
HETATM   26  C   UNL     1      -9.709  18.732  66.702  1.00  0.00    -0.344 C  
HETATM   27  C   UNL     1     -11.605  14.748  65.069  1.00  0.00    -0.378 A  
HETATM   28  C   UNL     1      -8.733  17.952  67.595  1.00  0.00    -0.242 C  
HETATM   29  C   UNL     1      -9.079  20.062  66.276  1.00  0.00    -0.402 C  
HETATM   30  C   UNL     1     -10.946  19.038  67.585  1.00  0.00    -0.330 C  
HETATM   31  N   UNL     1      -9.140  16.646  67.809  1.00  0.00    -0.211 N  
HETATM   32  O   UNL     1      -7.802  18.476  68.205  1.00  0.00    -0.272 OA 
BRANCH  31  33
HETATM   33  C   UNL     1      -8.756  16.061  69.051  1.00  0.00    -0.245 C  
BRANCH  33  34
HETATM   34  O   UNL     1      -7.397  15.764  69.025  1.00  0.00    -0.150 OA 
HETATM   35  P   UNL     1      -7.164  14.117  68.545  1.00  0.00    -0.129 P  
HETATM   36  O   UNL     1      -6.042  14.135  69.734  1.00  0.00    -0.115 OA 
HETATM   37  O   UNL     1      -6.233  14.761  67.369  1.00  0.00    -0.333 OA 
HETATM   38  O   UNL     1      -6.955  12.645  68.117  1.00  0.00    -0.078 OA 
ENDBRANCH  33  34
ENDBRANCH  31  33
ENDBRANCH  18  20
ENDBRANCH  14  18
ENDBRANCH   9  11
ENDBRANCH   5   9
BRANCH   7  39
HETATM   39  O   UNL     1      -7.843   6.979  71.376  1.00  0.00    -0.094 OA 
HETATM   40  C   UNL     1      -6.659   7.759  71.389  1.00  0.00    -0.041 C  
ENDBRANCH   7  39
BRANCH   8  41
HETATM   41  O   UNL     1      -9.558   7.925  73.477  1.00  0.00    -0.284 OA 
HETATM   42  C   UNL     1      -9.803   6.815  74.323  1.00  0.00    -0.317 C  
ENDBRANCH   8  41
ENDBRANCH   2   3
TORSDOF 9
ENDMDL
MODEL       35
REMARK 921   NORMALIZED FREE ENERGY PREDICTED BY IDOCK:   -6.73 KCAL/MOL
REMARK 922        TOTAL FREE ENERGY PREDICTED BY IDOCK:  -12.14 KCAL/MOL
REMARK 923 INTER-LIGAND FREE ENERGY PREDICTED BY IDOCK:  -10.44 KCAL/MOL
REMARK 924 INTRA-LIGAND FREE ENERGY PREDICTED BY IDOCK:   -1.70 KCAL/MOL
REMARK 927      BINDING AFFINITY PREDICTED BY RF-SCORE:    0.00 PKD
ROOT
HETATM    1  C   UNL     1      -8.239   3.862  65.821  1.00  0.00    -0.105 C  
HETATM    2  O   UNL     1      -9.101   4.917  65.386  1.00  0.00    -0.150 OA 
ENDROOT
BRANCH   2   3
HETATM    3  C   UNL     1      -8.667   6.178  65.712  1.00  0.00    -0.145 A  
HETATM    4  C   UNL     1      -8.815   6.643  67.031  1.00  0.00    -0.114 A  
HETATM    5  C   UNL     1      -8.498   7.942  67.407  1.00  0.00    -0.122 A  
HETATM    6  C   UNL     1      -7.982   8.770  66.407  1.00  0.00    -0.103 A  
HETATM    7  C   UNL     1      -7.755   8.327  65.094  1.00  0.00    -0.102 A  
HETATM    8  C   UNL     1      -8.067   6.998  64.735  1.00  0.00    -0.096 A  
BRANCH   5   9
HETATM    9  N   UNL     1      -8.694   8.442  68.699  1.00  0.00    -0.132 NA 
HETATM   10  H   UNL     1      -7.861   8.380  69.284  1.00  0.00     0.000 HD 
BRANCH   9  11
HETATM   11  C   UNL     1      -9.787   9.008  69.356  1.00  0.00    -0.183 A  
HETATM   12  N   UNL     1     -10.045   8.464  70.554  1.00  0.00    -0.188 NA 
HETATM   13  N   UNL     1     -10.518  10.015  68.833  1.00  0.00    -0.200 NA 
HETATM   14  C   UNL     1     -11.570  10.505  69.539  1.00  0.00    -0.260 A  
HETATM   15  F   UNL     1     -12.814  10.532  71.581  1.00  0.00    -0.436 F  
HETATM   16  C   UNL     1     -11.073   8.990  71.253  1.00  0.00    -0.312 A  
HETATM   17  C   UNL     1     -11.844  10.035  70.805  1.00  0.00    -0.346 A  
BRANCH  14  18
HETATM   18  N   UNL     1     -12.275  11.551  68.921  1.00  0.00    -0.419 NA 
HETATM   19  H   UNL     1     -13.239  11.318  68.682  1.00  0.00     0.000 HD 
BRANCH  18  20
HETATM   20  C   UNL     1     -11.895  12.867  68.569  1.00  0.00    -0.313 A  
HETATM   21  N   UNL     1     -11.726  13.257  67.287  1.00  0.00    -0.358 NA 
HETATM   22  C   UNL     1     -11.434  14.565  67.014  1.00  0.00    -0.370 A  
HETATM   23  C   UNL     1     -11.211  15.502  68.020  1.00  0.00    -0.332 A  
HETATM   24  O   UNL     1     -10.807  16.793  67.799  1.00  0.00    -0.341 OA 
HETATM   25  C   UNL     1     -11.377  15.103  69.336  1.00  0.00    -0.307 A  
HETATM   26  C   UNL     1     -10.226  16.992  66.513  1.00  0.00    -0.320 C  
HETATM   27  C   UNL     1     -11.717  13.779  69.610  1.00  0.00    -0.379 A  
HETATM   28  C   UNL     1     -11.036  16.340  65.382  1.00  0.00    -0.197 C  
HETATM   29  C   UNL     1     -10.100  18.498  66.264  1.00  0.00    -0.422 C  
HETATM   30  C   UNL     1      -8.810  16.364  66.442  1.00  0.00    -0.346 C  
HETATM   31  N   UNL     1     -11.393  15.034  65.672  1.00  0.00    -0.330 N  
HETATM   32  O   UNL     1     -11.186  16.849  64.273  1.00  0.00    -1.204 OA 
BRANCH  31  33
HETATM   33  C   UNL     1     -11.527  14.155  64.559  1.00  0.00    -0.372 C  
BRANCH  33  34
HETATM   34  O   UNL     1     -10.329  13.478  64.353  1.00  0.00    -0.433 OA 
HETATM   35  P   UNL     1     -10.516  11.810  64.776  1.00  0.00    -0.326 P  
HETATM   36  O   UNL     1      -9.040  12.017  65.447  1.00  0.00     0.010 OA 
HETATM   37  O   UNL     1     -10.014  11.533  63.247  1.00  0.00    -0.356 OA 
HETATM   38  O   UNL     1     -10.683  10.318  65.154  1.00  0.00    -0.019 OA 
ENDBRANCH  33  34
ENDBRANCH  31  33
ENDBRANCH  18  20
ENDBRANCH  14  18
ENDBRANCH   9  11
ENDBRANCH   5   9
BRANCH   7  39
HETATM   39  O   UNL     1      -7.282   9.341  64.296  1.00  0.00    -0.097 OA 
HETATM   40  C   UNL     1      -5.899   9.654  64.283  1.00  0.00    -0.085 C  
ENDBRANCH   7  39
BRANCH   8  41
HETATM   41  O   UNL     1      -7.718   6.625  63.469  1.00  0.00    -0.100 OA 
HETATM   42  C   UNL     1      -6.486   6.002  63.151  1.00  0.00    -0.032 C  
ENDBRANCH   8  41
ENDBRANCH   2   3
TORSDOF 9
ENDMDL
MODEL       36
REMARK 921   NORMALIZED FREE ENERGY PREDICTED BY IDOCK:   -6.72 KCAL/MOL
REMARK 922        TOTAL FREE ENERGY PREDICTED BY IDOCK:  -12.12 KCAL/MOL
REMARK 923 INTER-LIGAND FREE ENERGY PREDICTED BY IDOCK:  -10.43 KCAL/MOL
REMARK 924 INTRA-LIGAND FREE ENERGY PREDICTED BY IDOCK:   -1.70 KCAL/MOL
REMARK 927      BINDING AFFINITY PREDICTED BY RF-SCORE:    0.00 PKD
ROOT
HETATM    1  C   UNL     1     -12.131  12.349  69.459  1.00  0.00    -0.189 C  
HETATM    2  O   UNL     1     -12.579  11.060  69.887  1.00  0.00    -0.261 OA 
ENDROOT
BRANCH   2   3
HETATM    3  C   UNL     1     -11.604  10.280  70.458  1.00  0.00    -0.338 A  
HETATM    4  C   UNL     1     -10.314  10.262  69.897  1.00  0.00    -0.281 A  
HETATM    5  C   UNL     1      -9.310   9.417  70.355  1.00  0.00    -0.268 A  
HETATM    6  C   UNL     1      -9.634   8.599  71.440  1.00  0.00    -0.313 A  
HETATM    7  C   UNL     1     -10.888   8.633  72.072  1.00  0.00    -0.360 A  
HETATM    8  C   UNL     1     -11.890   9.511  71.604  1.00  0.00    -0.397 A  
BRANCH   5   9
HETATM    9  N   UNL     1      -8.040   9.340  69.774  1.00  0.00    -0.107 NA 
HETATM   10  H   UNL     1      -7.362   8.847  70.354  1.00  0.00     0.000 HD 
BRANCH   9  11
HETATM   11  C   UNL     1      -7.504   9.795  68.569  1.00  0.00    -0.079 A  
HETATM   12  N   UNL     1      -7.443   8.858  67.611  1.00  0.00    -0.092 NA 
HETATM   13  N   UNL     1      -7.087  11.065  68.383  1.00  0.00    -0.071 NA 
HETATM   14  C   UNL     1      -6.573  11.423  67.178  1.00  0.00    -0.118 A  
HETATM   15  F   UNL     1      -6.129  10.841  64.901  1.00  0.00    -0.124 F  
HETATM   16  C   UNL     1      -6.962   9.245  66.411  1.00  0.00    -0.084 A  
HETATM   17  C   UNL     1      -6.547  10.526  66.133  1.00  0.00    -0.123 A  
BRANCH  14  18
HETATM   18  N   UNL     1      -6.163  12.763  67.072  1.00  0.00    -0.492 NA 
HETATM   19  H   UNL     1      -5.282  12.890  66.575  1.00  0.00     0.000 HD 
BRANCH  18  20
HETATM   20  C   UNL     1      -6.747  13.967  67.527  1.00  0.00    -0.114 A  
HETATM   21  N   UNL     1      -7.787  14.554  66.898  1.00  0.00     0.030 NA 
HETATM   22  C   UNL     1      -8.355  15.677  67.437  1.00  0.00    -0.177 A  
HETATM   23  C   UNL     1      -7.838  16.297  68.571  1.00  0.00    -0.192 A  
HETATM   24  O   UNL     1      -8.301  17.482  69.083  1.00  0.00    -0.103 OA 
HETATM   25  C   UNL     1      -6.767  15.701  69.216  1.00  0.00    -0.158 A  
HETATM   26  C   UNL     1      -9.057  18.246  68.146  1.00  0.00    -0.298 C  
HETATM   27  C   UNL     1      -6.218  14.533  68.689  1.00  0.00    -0.083 A  
HETATM   28  C   UNL     1     -10.082  17.403  67.374  1.00  0.00    -0.321 C  
HETATM   29  C   UNL     1      -9.768  19.374  68.901  1.00  0.00    -0.502 C  
HETATM   30  C   UNL     1      -8.132  18.881  67.076  1.00  0.00    -0.272 C  
HETATM   31  N   UNL     1      -9.537  16.232  66.876  1.00  0.00    -0.226 N  
HETATM   32  O   UNL     1     -11.203  17.808  67.070  1.00  0.00     0.119 OA 
BRANCH  31  33
HETATM   33  C   UNL     1     -10.111  15.732  65.671  1.00  0.00    -0.371 C  
BRANCH  33  34
HETATM   34  O   UNL     1     -10.983  14.689  65.968  1.00  0.00    -0.312 OA 
HETATM   35  P   UNL     1     -11.822  14.199  64.535  1.00  0.00    -0.414 P  
HETATM   36  O   UNL     1     -13.104  14.131  65.546  1.00  0.00    -0.691 OA 
HETATM   37  O   UNL     1     -11.208  12.724  64.875  1.00  0.00    -0.284 OA 
HETATM   38  O   UNL     1     -12.572  13.760  63.254  1.00  0.00    -0.830 OA 
ENDBRANCH  33  34
ENDBRANCH  31  33
ENDBRANCH  18  20
ENDBRANCH  14  18
ENDBRANCH   9  11
ENDBRANCH   5   9
BRANCH   7  39
HETATM   39  O   UNL     1     -10.967   7.706  73.083  1.00  0.00    -0.392 OA 
HETATM   40  C   UNL     1      -9.795   7.294  73.767  1.00  0.00    -0.311 C  
ENDBRANCH   7  39
BRANCH   8  41
HETATM   41  O   UNL     1     -13.038   9.552  72.340  1.00  0.00    -0.413 OA 
HETATM   42  C   UNL     1     -14.169   8.744  72.067  1.00  0.00    -0.414 C  
ENDBRANCH   8  41
ENDBRANCH   2   3
TORSDOF 9
ENDMDL
MODEL       37
REMARK 921   NORMALIZED FREE ENERGY PREDICTED BY IDOCK:   -6.70 KCAL/MOL
REMARK 922        TOTAL FREE ENERGY PREDICTED BY IDOCK:  -12.09 KCAL/MOL
REMARK 923 INTER-LIGAND FREE ENERGY PREDICTED BY IDOCK:  -10.71 KCAL/MOL
REMARK 924 INTRA-LIGAND FREE ENERGY PREDICTED BY IDOCK:   -1.39 KCAL/MOL
REMARK 927      BINDING AFFINITY PREDICTED BY RF-SCORE:    0.00 PKD
ROOT
HETATM    1  C   UNL     1     -14.391   8.018  71.618  1.00  0.00    -0.473 C  
HETATM    2  O   UNL     1     -13.024   7.689  71.876  1.00  0.00    -0.312 OA 
ENDROOT
BRANCH   2   3
HETATM    3  C   UNL     1     -12.115   8.502  71.245  1.00  0.00    -0.286 A  
HETATM    4  C   UNL     1     -12.382   9.878  71.124  1.00  0.00    -0.466 A  
HETATM    5  C   UNL     1     -11.562  10.740  70.407  1.00  0.00    -0.339 A  
HETATM    6  C   UNL     1     -10.419  10.177  69.833  1.00  0.00    -0.322 A  
HETATM    7  C   UNL     1     -10.079   8.822  69.986  1.00  0.00    -0.190 A  
HETATM    8  C   UNL     1     -10.917   7.965  70.733  1.00  0.00    -0.252 A  
BRANCH   5   9
HETATM    9  N   UNL     1     -11.840  12.099  70.224  1.00  0.00    -0.515 NA 
HETATM   10  H   UNL     1     -12.157  12.562  71.075  1.00  0.00     0.000 HD 
BRANCH   9  11
HETATM   11  C   UNL     1     -11.778  12.954  69.124  1.00  0.00    -0.324 A  
HETATM   12  N   UNL     1     -11.862  12.328  67.941  1.00  0.00    -0.457 NA 
HETATM   13  N   UNL     1     -11.646  14.292  69.240  1.00  0.00    -0.286 NA 
HETATM   14  C   UNL     1     -11.588  15.051  68.115  1.00  0.00    -0.340 A  
HETATM   15  F   UNL     1     -11.772  15.178  65.733  1.00  0.00    -0.304 F  
HETATM   16  C   UNL     1     -11.838  13.105  66.838  1.00  0.00    -0.386 A  
HETATM   17  C   UNL     1     -11.739  14.475  66.872  1.00  0.00    -0.382 A  
BRANCH  14  18
HETATM   18  N   UNL     1     -11.451  16.433  68.328  1.00  0.00    -0.245 NA 
HETATM   19  H   UNL     1     -12.168  16.834  68.932  1.00  0.00     0.000 HD 
BRANCH  18  20
HETATM   20  C   UNL     1     -10.502  17.370  67.859  1.00  0.00    -0.383 A  
HETATM   21  N   UNL     1      -9.234  17.027  67.546  1.00  0.00    -0.230 NA 
HETATM   22  C   UNL     1      -8.390  17.968  67.023  1.00  0.00    -0.236 A  
HETATM   23  C   UNL     1      -8.762  19.304  66.887  1.00  0.00    -0.299 A  
HETATM   24  O   UNL     1      -7.918  20.303  66.475  1.00  0.00    -0.287 OA 
HETATM   25  C   UNL     1     -10.059  19.661  67.213  1.00  0.00    -0.534 A  
HETATM   26  C   UNL     1      -6.538  19.966  66.602  1.00  0.00    -0.196 C  
HETATM   27  C   UNL     1     -10.931  18.690  67.705  1.00  0.00    -0.213 A  
HETATM   28  C   UNL     1      -6.214  18.558  66.081  1.00  0.00    -0.192 C  
HETATM   29  C   UNL     1      -5.712  21.009  65.841  1.00  0.00    -0.280 C  
HETATM   30  C   UNL     1      -6.099  19.984  68.088  1.00  0.00    -0.281 C  
HETATM   31  N   UNL     1      -7.100  17.603  66.552  1.00  0.00    -0.221 N  
HETATM   32  O   UNL     1      -5.182  18.279  65.473  1.00  0.00    -0.153 OA 
BRANCH  31  33
HETATM   33  C   UNL     1      -6.580  16.286  66.711  1.00  0.00     0.025 C  
BRANCH  33  34
HETATM   34  O   UNL     1      -6.250  16.073  68.046  1.00  0.00    -0.108 OA 
HETATM   35  P   UNL     1      -6.749  14.488  68.529  1.00  0.00    -0.120 P  
HETATM   36  O   UNL     1      -7.225  15.264  69.886  1.00  0.00    -0.172 OA 
HETATM   37  O   UNL     1      -5.180  14.294  68.937  1.00  0.00    -0.084 OA 
HETATM   38  O   UNL     1      -7.195  13.070  68.961  1.00  0.00    -0.077 OA 
ENDBRANCH  33  34
ENDBRANCH  31  33
ENDBRANCH  18  20
ENDBRANCH  14  18
ENDBRANCH   9  11
ENDBRANCH   5   9
BRANCH   7  39
HETATM   39  O   UNL     1      -8.935   8.510  69.292  1.00  0.00    -0.144 OA 
HETATM   40  C   UNL     1      -8.313   9.481  68.467  1.00  0.00    -0.118 C  
ENDBRANCH   7  39
BRANCH   8  41
HETATM   41  O   UNL     1     -10.457   6.693  70.915  1.00  0.00    -0.210 OA 
HETATM   42  C   UNL     1     -10.695   5.639  69.999  1.00  0.00    -0.320 C  
ENDBRANCH   8  41
ENDBRANCH   2   3
TORSDOF 9
ENDMDL
MODEL       38
REMARK 921   NORMALIZED FREE ENERGY PREDICTED BY IDOCK:   -6.68 KCAL/MOL
REMARK 922        TOTAL FREE ENERGY PREDICTED BY IDOCK:  -12.07 KCAL/MOL
REMARK 923 INTER-LIGAND FREE ENERGY PREDICTED BY IDOCK:  -10.98 KCAL/MOL
REMARK 924 INTRA-LIGAND FREE ENERGY PREDICTED BY IDOCK:   -1.09 KCAL/MOL
REMARK 927      BINDING AFFINITY PREDICTED BY RF-SCORE:    0.00 PKD
ROOT
HETATM    1  C   UNL     1     -14.323   7.484  71.509  1.00  0.00    -0.458 C  
HETATM    2  O   UNL     1     -13.180   6.718  71.898  1.00  0.00    -0.291 OA 
ENDROOT
BRANCH   2   3
HETATM    3  C   UNL     1     -12.004   7.426  71.931  1.00  0.00    -0.302 A  
HETATM    4  C   UNL     1     -11.880   8.599  71.165  1.00  0.00    -0.331 A  
HETATM    5  C   UNL     1     -10.688   9.306  71.067  1.00  0.00    -0.316 A  
HETATM    6  C   UNL     1      -9.609   8.811  71.805  1.00  0.00    -0.371 A  
HETATM    7  C   UNL     1      -9.709   7.682  72.634  1.00  0.00    -0.196 A  
HETATM    8  C   UNL     1     -10.933   6.987  72.735  1.00  0.00    -0.294 A  
BRANCH   5   9
HETATM    9  N   UNL     1     -10.526  10.440  70.264  1.00  0.00    -0.442 NA 
HETATM   10  H   UNL     1     -10.731  11.311  70.753  1.00  0.00     0.000 HD 
BRANCH   9  11
HETATM   11  C   UNL     1     -10.144  10.632  68.936  1.00  0.00    -0.202 A  
HETATM   12  N   UNL     1     -10.874   9.937  68.053  1.00  0.00    -0.254 NA 
HETATM   13  N   UNL     1      -9.131  11.448  68.574  1.00  0.00    -0.178 NA 
HETATM   14  C   UNL     1      -8.823  11.574  67.257  1.00  0.00    -0.160 A  
HETATM   15  F   UNL     1      -9.376  11.089  64.981  1.00  0.00    -0.212 F  
HETATM   16  C   UNL     1     -10.573  10.105  66.748  1.00  0.00    -0.169 A  
HETATM   17  C   UNL     1      -9.579  10.940  66.296  1.00  0.00    -0.200 A  
BRANCH  14  18
HETATM   18  N   UNL     1      -7.756  12.442  66.969  1.00  0.00    -0.342 NA 
HETATM   19  H   UNL     1      -7.016  12.020  66.408  1.00  0.00     0.000 HD 
BRANCH  18  20
HETATM   20  C   UNL     1      -7.519  13.793  67.313  1.00  0.00    -0.027 A  
HETATM   21  N   UNL     1      -8.442  14.762  67.135  1.00  0.00    -0.212 NA 
HETATM   22  C   UNL     1      -8.176  16.034  67.562  1.00  0.00    -0.152 A  
HETATM   23  C   UNL     1      -6.941  16.393  68.097  1.00  0.00    -0.132 A  
HETATM   24  O   UNL     1      -6.589  17.675  68.435  1.00  0.00    -0.184 OA 
HETATM   25  C   UNL     1      -5.990  15.403  68.276  1.00  0.00    -0.122 A  
HETATM   26  C   UNL     1      -7.403  18.667  67.815  1.00  0.00    -0.229 C  
HETATM   27  C   UNL     1      -6.280  14.099  67.879  1.00  0.00    -0.164 A  
HETATM   28  C   UNL     1      -8.902  18.343  67.888  1.00  0.00    -0.280 C  
HETATM   29  C   UNL     1      -7.125  20.014  68.491  1.00  0.00    -0.309 C  
HETATM   30  C   UNL     1      -7.066  18.798  66.308  1.00  0.00    -0.274 C  
HETATM   31  N   UNL     1      -9.181  17.038  67.518  1.00  0.00    -0.230 N  
HETATM   32  O   UNL     1      -9.774  19.193  68.068  1.00  0.00    -0.312 OA 
BRANCH  31  33
HETATM   33  C   UNL     1     -10.454  16.810  66.921  1.00  0.00    -0.269 C  
BRANCH  33  34
HETATM   34  O   UNL     1     -10.283  16.374  65.611  1.00  0.00    -0.432 OA 
HETATM   35  P   UNL     1     -11.646  15.422  65.126  1.00  0.00     0.030 P  
HETATM   36  O   UNL     1     -10.496  14.474  64.456  1.00  0.00    -0.317 OA 
HETATM   37  O   UNL     1     -11.762  16.503  63.908  1.00  0.00    -1.148 OA 
HETATM   38  O   UNL     1     -12.863  14.571  64.692  1.00  0.00    -0.614 OA 
ENDBRANCH  33  34
ENDBRANCH  31  33
ENDBRANCH  18  20
ENDBRANCH  14  18
ENDBRANCH   9  11
ENDBRANCH   5   9
BRANCH   7  39
HETATM   39  O   UNL     1      -8.501   7.378  73.216  1.00  0.00    -0.121 OA 
HETATM   40  C   UNL     1      -8.207   7.830  74.528  1.00  0.00    -0.213 C  
ENDBRANCH   7  39
BRANCH   8  41
HETATM   41  O   UNL     1     -10.966   5.967  73.641  1.00  0.00    -0.225 OA 
HETATM   42  C   UNL     1     -11.041   4.600  73.275  1.00  0.00    -0.321 C  
ENDBRANCH   8  41
ENDBRANCH   2   3
TORSDOF 9
ENDMDL
MODEL       39
REMARK 921   NORMALIZED FREE ENERGY PREDICTED BY IDOCK:   -6.68 KCAL/MOL
REMARK 922        TOTAL FREE ENERGY PREDICTED BY IDOCK:  -12.06 KCAL/MOL
REMARK 923 INTER-LIGAND FREE ENERGY PREDICTED BY IDOCK:  -10.53 KCAL/MOL
REMARK 924 INTRA-LIGAND FREE ENERGY PREDICTED BY IDOCK:   -1.53 KCAL/MOL
REMARK 927      BINDING AFFINITY PREDICTED BY RF-SCORE:    0.00 PKD
ROOT
HETATM    1  C   UNL     1     -10.528  19.503  66.099  1.00  0.00    -0.518 C  
HETATM    2  O   UNL     1      -9.266  19.831  66.685  1.00  0.00    -0.339 OA 
ENDROOT
BRANCH   2   3
HETATM    3  C   UNL     1      -8.666  18.797  67.362  1.00  0.00    -0.273 A  
HETATM    4  C   UNL     1      -9.431  17.676  67.733  1.00  0.00    -0.260 A  
HETATM    5  C   UNL     1      -8.919  16.645  68.511  1.00  0.00    -0.235 A  
HETATM    6  C   UNL     1      -7.577  16.755  68.884  1.00  0.00    -0.239 A  
HETATM    7  C   UNL     1      -6.760  17.824  68.479  1.00  0.00    -0.218 A  
HETATM    8  C   UNL     1      -7.293  18.853  67.674  1.00  0.00    -0.221 A  
BRANCH   5   9
HETATM    9  N   UNL     1      -9.679  15.552  68.941  1.00  0.00    -0.210 NA 
HETATM   10  H   UNL     1      -9.932  15.602  69.927  1.00  0.00     0.000 HD 
BRANCH   9  11
HETATM   11  C   UNL     1     -10.162  14.407  68.307  1.00  0.00    -0.241 A  
HETATM   12  N   UNL     1      -9.740  14.265  67.043  1.00  0.00    -0.246 NA 
HETATM   13  N   UNL     1     -10.980  13.521  68.914  1.00  0.00    -0.256 NA 
HETATM   14  C   UNL     1     -11.408  12.434  68.221  1.00  0.00    -0.284 A  
HETATM   15  F   UNL     1     -11.277  11.102  66.239  1.00  0.00    -0.319 F  
HETATM   16  C   UNL     1     -10.150  13.159  66.385  1.00  0.00    -0.281 A  
HETATM   17  C   UNL     1     -10.956  12.195  66.942  1.00  0.00    -0.270 A  
BRANCH  14  18
HETATM   18  N   UNL     1     -12.256  11.565  68.929  1.00  0.00    -0.419 NA 
HETATM   19  H   UNL     1     -13.229  11.596  68.625  1.00  0.00     0.000 HD 
BRANCH  18  20
HETATM   20  C   UNL     1     -12.009  10.656  69.982  1.00  0.00    -0.329 A  
HETATM   21  N   UNL     1     -10.832  10.008  70.123  1.00  0.00    -0.290 NA 
HETATM   22  C   UNL     1     -10.632   9.202  71.210  1.00  0.00    -0.329 A  
HETATM   23  C   UNL     1     -11.638   8.947  72.139  1.00  0.00    -0.330 A  
HETATM   24  O   UNL     1     -11.522   8.061  73.180  1.00  0.00    -0.299 OA 
HETATM   25  C   UNL     1     -12.848   9.605  71.995  1.00  0.00    -0.497 A  
HETATM   26  C   UNL     1     -10.472   7.114  73.002  1.00  0.00    -0.292 C  
HETATM   27  C   UNL     1     -13.034  10.460  70.909  1.00  0.00    -0.475 A  
HETATM   28  C   UNL     1      -9.163   7.754  72.519  1.00  0.00    -0.171 C  
HETATM   29  C   UNL     1     -10.241   6.391  74.333  1.00  0.00    -0.343 C  
HETATM   30  C   UNL     1     -10.853   6.059  71.933  1.00  0.00    -0.304 C  
HETATM   31  N   UNL     1      -9.358   8.622  71.458  1.00  0.00    -0.224 N  
HETATM   32  O   UNL     1      -8.049   7.396  72.900  1.00  0.00    -0.102 OA 
BRANCH  31  33
HETATM   33  C   UNL     1      -8.277   8.747  70.538  1.00  0.00    -0.131 C  
BRANCH  33  34
HETATM   34  O   UNL     1      -7.613   9.949  70.759  1.00  0.00    -0.305 OA 
HETATM   35  P   UNL     1      -6.386  10.172  69.558  1.00  0.00    -0.068 P  
HETATM   36  O   UNL     1      -5.507  10.690  70.835  1.00  0.00    -0.094 OA 
HETATM   37  O   UNL     1      -7.163  11.575  69.255  1.00  0.00    -0.110 OA 
HETATM   38  O   UNL     1      -5.288  10.371  68.485  1.00  0.00    -0.038 OA 
ENDBRANCH  33  34
ENDBRANCH  31  33
ENDBRANCH  18  20
ENDBRANCH  14  18
ENDBRANCH   9  11
ENDBRANCH   5   9
BRANCH   7  39
HETATM   39  O   UNL     1      -5.497  17.719  69.010  1.00  0.00    -0.175 OA 
HETATM   40  C   UNL     1      -5.282  17.953  70.393  1.00  0.00    -0.260 C  
ENDBRANCH   7  39
BRANCH   8  41
HETATM   41  O   UNL     1      -6.403  19.795  67.243  1.00  0.00    -0.189 OA 
HETATM   42  C   UNL     1      -6.109  20.978  67.965  1.00  0.00    -0.347 C  
ENDBRANCH   8  41
ENDBRANCH   2   3
TORSDOF 9
ENDMDL
MODEL       40
REMARK 921   NORMALIZED FREE ENERGY PREDICTED BY IDOCK:   -6.67 KCAL/MOL
REMARK 922        TOTAL FREE ENERGY PREDICTED BY IDOCK:  -12.05 KCAL/MOL
REMARK 923 INTER-LIGAND FREE ENERGY PREDICTED BY IDOCK:  -10.35 KCAL/MOL
REMARK 924 INTRA-LIGAND FREE ENERGY PREDICTED BY IDOCK:   -1.70 KCAL/MOL
REMARK 927      BINDING AFFINITY PREDICTED BY RF-SCORE:    0.00 PKD
ROOT
HETATM    1  C   UNL     1     -12.107  14.382  64.832  1.00  0.00    -0.436 C  
HETATM    2  O   UNL     1     -11.217  14.906  65.821  1.00  0.00    -0.335 OA 
ENDROOT
BRANCH   2   3
HETATM    3  C   UNL     1     -11.454  14.454  67.096  1.00  0.00    -0.362 A  
HETATM    4  C   UNL     1     -11.626  13.077  67.323  1.00  0.00    -0.409 A  
HETATM    5  C   UNL     1     -11.974  12.560  68.565  1.00  0.00    -0.219 A  
HETATM    6  C   UNL     1     -12.110  13.482  69.605  1.00  0.00    -0.365 A  
HETATM    7  C   UNL     1     -11.881  14.858  69.438  1.00  0.00    -0.324 A  
HETATM    8  C   UNL     1     -11.512  15.362  68.173  1.00  0.00    -0.343 A  
BRANCH   5   9
HETATM    9  N   UNL     1     -12.209  11.201  68.797  1.00  0.00    -0.676 NA 
HETATM   10  H   UNL     1     -12.622  10.722  67.998  1.00  0.00     0.000 HD 
BRANCH   9  11
HETATM   11  C   UNL     1     -11.999  10.362  69.892  1.00  0.00    -0.215 A  
HETATM   12  N   UNL     1     -12.796  10.620  70.939  1.00  0.00    -0.381 NA 
HETATM   13  N   UNL     1     -11.077   9.376  69.896  1.00  0.00    -0.228 NA 
HETATM   14  C   UNL     1     -10.934   8.608  71.007  1.00  0.00    -0.260 A  
HETATM   15  F   UNL     1     -11.733   8.001  73.178  1.00  0.00    -0.433 F  
HETATM   16  C   UNL     1     -12.662   9.822  72.018  1.00  0.00    -0.376 A  
HETATM   17  C   UNL     1     -11.770   8.778  72.089  1.00  0.00    -0.363 A  
BRANCH  14  18
HETATM   18  N   UNL     1      -9.952   7.606  70.924  1.00  0.00    -0.181 NA 
HETATM   19  H   UNL     1      -9.285   7.614  71.696  1.00  0.00     0.000 HD 
BRANCH  18  20
HETATM   20  C   UNL     1      -9.718   6.590  69.970  1.00  0.00    -0.165 A  
HETATM   21  N   UNL     1      -9.213   6.846  68.744  1.00  0.00    -0.132 NA 
HETATM   22  C   UNL     1      -8.938   5.806  67.898  1.00  0.00    -0.111 A  
HETATM   23  C   UNL     1      -9.249   4.487  68.218  1.00  0.00    -0.132 A  
HETATM   24  O   UNL     1      -9.097   3.427  67.362  1.00  0.00    -0.141 OA 
HETATM   25  C   UNL     1      -9.773   4.222  69.473  1.00  0.00    -0.272 A  
HETATM   26  C   UNL     1      -9.002   3.814  65.994  1.00  0.00    -0.136 C  
HETATM   27  C   UNL     1     -10.012   5.279  70.349  1.00  0.00    -0.303 A  
HETATM   28  C   UNL     1      -8.049   4.998  65.770  1.00  0.00    -0.113 C  
HETATM   29  C   UNL     1      -8.534   2.605  65.178  1.00  0.00    -0.098 C  
HETATM   30  C   UNL     1     -10.381   4.266  65.450  1.00  0.00    -0.217 C  
HETATM   31  N   UNL     1      -8.274   6.034  66.662  1.00  0.00    -0.106 N  
HETATM   32  O   UNL     1      -7.304   5.097  64.797  1.00  0.00    -0.064 OA 
BRANCH  31  33
HETATM   33  C   UNL     1      -7.979   7.346  66.191  1.00  0.00    -0.112 C  
BRANCH  33  34
HETATM   34  O   UNL     1      -9.151   7.963  65.765  1.00  0.00    -0.134 OA 
HETATM   35  P   UNL     1      -8.992   9.682  65.901  1.00  0.00    -0.195 P  
HETATM   36  O   UNL     1     -10.522   9.581  66.467  1.00  0.00    -0.211 OA 
HETATM   37  O   UNL     1      -9.357   9.679  64.309  1.00  0.00    -0.244 OA 
HETATM   38  O   UNL     1      -8.851  11.218  66.022  1.00  0.00    -0.191 OA 
ENDBRANCH  33  34
ENDBRANCH  31  33
ENDBRANCH  18  20
ENDBRANCH  14  18
ENDBRANCH   9  11
ENDBRANCH   5   9
BRANCH   7  39
HETATM   39  O   UNL     1     -12.121  15.552  70.600  1.00  0.00    -0.328 OA 
HETATM   40  C   UNL     1     -11.434  15.208  71.792  1.00  0.00    -0.380 C  
ENDBRANCH   7  39
BRANCH   8  41
HETATM   41  O   UNL     1     -11.209  16.693  68.127  1.00  0.00    -0.339 OA 
HETATM   42  C   UNL     1      -9.944  17.218  68.489  1.00  0.00    -0.320 C  
ENDBRANCH   8  41
ENDBRANCH   2   3
TORSDOF 9
ENDMDL
MODEL       41
REMARK 921   NORMALIZED FREE ENERGY PREDICTED BY IDOCK:   -6.66 KCAL/MOL
REMARK 922        TOTAL FREE ENERGY PREDICTED BY IDOCK:  -12.03 KCAL/MOL
REMARK 923 INTER-LIGAND FREE ENERGY PREDICTED BY IDOCK:  -10.32 KCAL/MOL
REMARK 924 INTRA-LIGAND FREE ENERGY PREDICTED BY IDOCK:   -1.71 KCAL/MOL
REMARK 927      BINDING AFFINITY PREDICTED BY RF-SCORE:    0.00 PKD
ROOT
HETATM    1  C   UNL     1      -6.822  18.031  65.717  1.00  0.00    -0.246 C  
HETATM    2  O   UNL     1      -8.188  18.447  65.789  1.00  0.00    -0.494 OA 
ENDROOT
BRANCH   2   3
HETATM    3  C   UNL     1      -8.996  17.624  66.534  1.00  0.00    -0.262 A  
HETATM    4  C   UNL     1      -9.528  16.460  65.949  1.00  0.00    -0.289 A  
HETATM    5  C   UNL     1     -10.435  15.640  66.607  1.00  0.00    -0.301 A  
HETATM    6  C   UNL     1     -10.774  16.007  67.911  1.00  0.00    -0.316 A  
HETATM    7  C   UNL     1     -10.215  17.123  68.557  1.00  0.00    -0.346 A  
HETATM    8  C   UNL     1      -9.281  17.935  67.879  1.00  0.00    -0.263 A  
BRANCH   5   9
HETATM    9  N   UNL     1     -11.022  14.512  66.022  1.00  0.00    -0.317 NA 
HETATM   10  H   UNL     1     -11.607  14.736  65.217  1.00  0.00     0.000 HD 
BRANCH   9  11
HETATM   11  C   UNL     1     -10.977  13.147  66.307  1.00  0.00    -0.280 A  
HETATM   12  N   UNL     1     -10.283  12.427  65.415  1.00  0.00    -0.276 NA 
HETATM   13  N   UNL     1     -11.578  12.602  67.386  1.00  0.00    -0.340 NA 
HETATM   14  C   UNL     1     -11.488  11.262  67.586  1.00  0.00    -0.264 A  
HETATM   15  F   UNL     1     -10.539   9.165  66.933  1.00  0.00    -0.318 F  
HETATM   16  C   UNL     1     -10.178  11.102  65.652  1.00  0.00    -0.256 A  
HETATM   17  C   UNL     1     -10.732  10.476  66.743  1.00  0.00    -0.188 A  
BRANCH  14  18
HETATM   18  N   UNL     1     -12.142  10.778  68.732  1.00  0.00    -0.785 NA 
HETATM   19  H   UNL     1     -13.140  10.990  68.761  1.00  0.00     0.000 HD 
BRANCH  18  20
HETATM   20  C   UNL     1     -11.673  10.054  69.851  1.00  0.00    -0.125 A  
HETATM   21  N   UNL     1     -10.381   9.684  69.988  1.00  0.00    -0.238 NA 
HETATM   22  C   UNL     1      -9.979   9.053  71.134  1.00  0.00    -0.295 A  
HETATM   23  C   UNL     1     -10.876   8.690  72.135  1.00  0.00    -0.354 A  
HETATM   24  O   UNL     1     -10.541   7.960  73.246  1.00  0.00    -0.341 OA 
HETATM   25  C   UNL     1     -12.203   9.063  71.995  1.00  0.00    -0.446 A  
HETATM   26  C   UNL     1      -9.319   7.240  73.102  1.00  0.00    -0.173 C  
HETATM   27  C   UNL     1     -12.602   9.744  70.846  1.00  0.00    -0.350 A  
HETATM   28  C   UNL     1      -8.193   8.087  72.492  1.00  0.00    -0.146 C  
HETATM   29  C   UNL     1      -8.896   6.721  74.481  1.00  0.00    -0.212 C  
HETATM   30  C   UNL     1      -9.501   6.025  72.157  1.00  0.00    -0.158 C  
HETATM   31  N   UNL     1      -8.603   8.782  71.367  1.00  0.00    -0.187 N  
HETATM   32  O   UNL     1      -7.017   8.010  72.845  1.00  0.00    -0.082 OA 
BRANCH  31  33
HETATM   33  C   UNL     1      -7.604   9.034  70.383  1.00  0.00    -0.100 C  
BRANCH  33  34
HETATM   34  O   UNL     1      -7.354  10.401  70.312  1.00  0.00    -0.215 OA 
HETATM   35  P   UNL     1      -6.902  10.834  68.699  1.00  0.00    -0.070 P  
HETATM   36  O   UNL     1      -5.796  11.760  69.467  1.00  0.00    -0.065 OA 
HETATM   37  O   UNL     1      -8.155  11.875  68.799  1.00  0.00    -0.117 OA 
HETATM   38  O   UNL     1      -6.497  11.220  67.256  1.00  0.00    -0.068 OA 
ENDBRANCH  33  34
ENDBRANCH  31  33
ENDBRANCH  18  20
ENDBRANCH  14  18
ENDBRANCH   9  11
ENDBRANCH   5   9
BRANCH   7  39
HETATM   39  O   UNL     1     -10.742  17.291  69.815  1.00  0.00    -0.102 OA 
HETATM   40  C   UNL     1     -11.223  16.173  70.543  1.00  0.00    -0.363 C  
ENDBRANCH   7  39
BRANCH   8  41
HETATM   41  O   UNL     1      -8.713  18.934  68.616  1.00  0.00    -0.341 OA 
HETATM   42  C   UNL     1      -7.406  18.858  69.156  1.00  0.00    -0.229 C  
ENDBRANCH   8  41
ENDBRANCH   2   3
TORSDOF 9
ENDMDL
MODEL       42
REMARK 921   NORMALIZED FREE ENERGY PREDICTED BY IDOCK:   -6.65 KCAL/MOL
REMARK 922        TOTAL FREE ENERGY PREDICTED BY IDOCK:  -12.02 KCAL/MOL
REMARK 923 INTER-LIGAND FREE ENERGY PREDICTED BY IDOCK:  -10.95 KCAL/MOL
REMARK 924 INTRA-LIGAND FREE ENERGY PREDICTED BY IDOCK:   -1.07 KCAL/MOL
REMARK 927      BINDING AFFINITY PREDICTED BY RF-SCORE:    0.00 PKD
ROOT
HETATM    1  C   UNL     1      -6.655   7.179  68.518  1.00  0.00    -0.048 C  
HETATM    2  O   UNL     1      -6.382   7.165  67.114  1.00  0.00    -0.048 OA 
ENDROOT
BRANCH   2   3
HETATM    3  C   UNL     1      -7.236   7.931  66.360  1.00  0.00    -0.082 A  
HETATM    4  C   UNL     1      -8.334   8.557  66.978  1.00  0.00    -0.110 A  
HETATM    5  C   UNL     1      -9.298   9.256  66.262  1.00  0.00    -0.200 A  
HETATM    6  C   UNL     1      -9.103   9.344  64.881  1.00  0.00    -0.258 A  
HETATM    7  C   UNL     1      -7.986   8.792  64.233  1.00  0.00    -0.146 A  
HETATM    8  C   UNL     1      -7.009   8.100  64.979  1.00  0.00    -0.070 A  
BRANCH   5   9
HETATM    9  N   UNL     1     -10.429   9.834  66.849  1.00  0.00    -0.230 NA 
HETATM   10  H   UNL     1     -11.066  10.249  66.170  1.00  0.00     0.000 HD 
BRANCH   9  11
HETATM   11  C   UNL     1     -10.869   9.962  68.166  1.00  0.00    -0.234 A  
HETATM   12  N   UNL     1     -10.880   8.811  68.853  1.00  0.00    -0.083 NA 
HETATM   13  N   UNL     1     -11.250  11.142  68.701  1.00  0.00    -0.230 NA 
HETATM   14  C   UNL     1     -11.671  11.177  69.992  1.00  0.00    -0.356 A  
HETATM   15  F   UNL     1     -11.963  10.029  72.070  1.00  0.00    -0.425 F  
HETATM   16  C   UNL     1     -11.268   8.876  70.144  1.00  0.00    -0.160 A  
HETATM   17  C   UNL     1     -11.639  10.041  70.771  1.00  0.00    -0.360 A  
BRANCH  14  18
HETATM   18  N   UNL     1     -12.048  12.444  70.468  1.00  0.00    -0.484 NA 
HETATM   19  H   UNL     1     -12.691  12.417  71.260  1.00  0.00     0.000 HD 
BRANCH  18  20
HETATM   20  C   UNL     1     -11.700  13.750  70.053  1.00  0.00    -0.257 A  
HETATM   21  N   UNL     1     -11.259  14.024  68.807  1.00  0.00    -0.256 NA 
HETATM   22  C   UNL     1     -11.014  15.321  68.447  1.00  0.00    -0.271 A  
HETATM   23  C   UNL     1     -11.115  16.373  69.355  1.00  0.00    -0.300 A  
HETATM   24  O   UNL     1     -10.774  17.671  69.074  1.00  0.00    -0.186 OA 
HETATM   25  C   UNL     1     -11.561  16.095  70.636  1.00  0.00    -0.347 A  
HETATM   26  C   UNL     1      -9.918  17.798  67.941  1.00  0.00    -0.322 C  
HETATM   27  C   UNL     1     -11.851  14.777  70.986  1.00  0.00    -0.383 A  
HETATM   28  C   UNL     1     -10.377  16.953  66.744  1.00  0.00    -0.298 C  
HETATM   29  C   UNL     1      -9.855  19.277  67.544  1.00  0.00    -0.429 C  
HETATM   30  C   UNL     1      -8.481  17.321  68.276  1.00  0.00    -0.243 C  
HETATM   31  N   UNL     1     -10.688  15.652  67.104  1.00  0.00    -0.313 N  
HETATM   32  O   UNL     1     -10.296  17.328  65.576  1.00  0.00    -0.614 OA 
BRANCH  31  33
HETATM   33  C   UNL     1     -10.480  14.656  66.107  1.00  0.00    -0.302 C  
BRANCH  33  34
HETATM   34  O   UNL     1     -11.682  14.381  65.464  1.00  0.00    -0.341 OA 
HETATM   35  P   UNL     1     -11.505  12.984  64.457  1.00  0.00    -0.398 P  
HETATM   36  O   UNL     1     -12.382  13.873  63.404  1.00  0.00    -0.760 OA 
HETATM   37  O   UNL     1     -12.755  12.397  65.328  1.00  0.00    -0.617 OA 
HETATM   38  O   UNL     1     -11.346  11.735  63.557  1.00  0.00    -0.418 OA 
ENDBRANCH  33  34
ENDBRANCH  31  33
ENDBRANCH  18  20
ENDBRANCH  14  18
ENDBRANCH   9  11
ENDBRANCH   5   9
BRANCH   7  39
HETATM   39  O   UNL     1      -8.051   8.980  62.873  1.00  0.00    -0.147 OA 
HETATM   40  C   UNL     1      -8.093  10.291  62.334  1.00  0.00    -0.156 C  
ENDBRANCH   7  39
BRANCH   8  41
HETATM   41  O   UNL     1      -5.908   7.688  64.284  1.00  0.00    -0.040 OA 
HETATM   42  C   UNL     1      -5.667   6.336  63.936  1.00  0.00    -0.022 C  
ENDBRANCH   8  41
ENDBRANCH   2   3
TORSDOF 9
ENDMDL
MODEL       43
REMARK 921   NORMALIZED FREE ENERGY PREDICTED BY IDOCK:   -6.65 KCAL/MOL
REMARK 922        TOTAL FREE ENERGY PREDICTED BY IDOCK:  -12.02 KCAL/MOL
REMARK 923 INTER-LIGAND FREE ENERGY PREDICTED BY IDOCK:  -10.26 KCAL/MOL
REMARK 924 INTRA-LIGAND FREE ENERGY PREDICTED BY IDOCK:   -1.76 KCAL/MOL
REMARK 927      BINDING AFFINITY PREDICTED BY RF-SCORE:    0.00 PKD
ROOT
HETATM    1  C   UNL     1     -12.660  12.601  65.007  1.00  0.00    -0.430 C  
HETATM    2  O   UNL     1     -11.687  12.136  65.946  1.00  0.00    -0.411 OA 
ENDROOT
BRANCH   2   3
HETATM    3  C   UNL     1     -11.706  12.786  67.155  1.00  0.00    -0.380 A  
HETATM    4  C   UNL     1     -11.799  12.037  68.343  1.00  0.00    -0.360 A  
HETATM    5  C   UNL     1     -11.932  12.629  69.592  1.00  0.00    -0.286 A  
HETATM    6  C   UNL     1     -11.930  14.026  69.621  1.00  0.00    -0.393 A  
HETATM    7  C   UNL     1     -11.772  14.811  68.467  1.00  0.00    -0.317 A  
HETATM    8  C   UNL     1     -11.622  14.191  67.208  1.00  0.00    -0.373 A  
BRANCH   5   9
HETATM    9  N   UNL     1     -12.086  11.904  70.779  1.00  0.00    -0.437 NA 
HETATM   10  H   UNL     1     -12.067  12.490  71.613  1.00  0.00     0.000 HD 
BRANCH   9  11
HETATM   11  C   UNL     1     -12.261  10.549  71.062  1.00  0.00    -0.400 A  
HETATM   12  N   UNL     1     -13.494  10.235  71.485  1.00  0.00    -0.295 NA 
HETATM   13  N   UNL     1     -11.276   9.637  70.922  1.00  0.00    -0.322 NA 
HETATM   14  C   UNL     1     -11.531   8.337  71.225  1.00  0.00    -0.274 A  
HETATM   15  F   UNL     1     -13.129   6.664  71.831  1.00  0.00    -0.383 F  
HETATM   16  C   UNL     1     -13.734   8.933  71.747  1.00  0.00    -0.422 A  
HETATM   17  C   UNL     1     -12.796   7.939  71.598  1.00  0.00    -0.334 A  
BRANCH  14  18
HETATM   18  N   UNL     1     -10.451   7.455  71.050  1.00  0.00    -0.214 NA 
HETATM   19  H   UNL     1      -9.807   7.424  71.840  1.00  0.00     0.000 HD 
BRANCH  18  20
HETATM   20  C   UNL     1     -10.092   6.604  69.980  1.00  0.00    -0.177 A  
HETATM   21  N   UNL     1      -9.811   7.068  68.743  1.00  0.00    -0.150 NA 
HETATM   22  C   UNL     1      -9.394   6.196  67.775  1.00  0.00    -0.109 A  
HETATM   23  C   UNL     1      -9.337   4.821  67.989  1.00  0.00    -0.133 A  
HETATM   24  O   UNL     1      -9.034   3.900  67.020  1.00  0.00    -0.119 OA 
HETATM   25  C   UNL     1      -9.630   4.341  69.255  1.00  0.00    -0.261 A  
HETATM   26  C   UNL     1      -9.197   4.399  65.695  1.00  0.00    -0.148 C  
HETATM   27  C   UNL     1     -10.013   5.237  70.252  1.00  0.00    -0.310 A  
HETATM   28  C   UNL     1      -8.592   5.797  65.502  1.00  0.00    -0.151 C  
HETATM   29  C   UNL     1      -8.549   3.409  64.720  1.00  0.00    -0.101 C  
HETATM   30  C   UNL     1     -10.699   4.528  65.333  1.00  0.00    -0.162 C  
HETATM   31  N   UNL     1      -8.955   6.674  66.510  1.00  0.00    -0.140 N  
HETATM   32  O   UNL     1      -8.012   6.151  64.476  1.00  0.00    -0.115 OA 
BRANCH  31  33
HETATM   33  C   UNL     1      -9.042   8.049  66.148  1.00  0.00    -0.176 C  
BRANCH  33  34
HETATM   34  O   UNL     1      -7.847   8.690  66.458  1.00  0.00    -0.097 OA 
HETATM   35  P   UNL     1      -8.109  10.397  66.578  1.00  0.00    -0.131 P  
HETATM   36  O   UNL     1      -6.694  10.473  65.764  1.00  0.00    -0.122 OA 
HETATM   37  O   UNL     1      -7.482  10.225  68.075  1.00  0.00    -0.086 OA 
HETATM   38  O   UNL     1      -8.343  11.923  66.685  1.00  0.00    -0.176 OA 
ENDBRANCH  33  34
ENDBRANCH  31  33
ENDBRANCH  18  20
ENDBRANCH  14  18
ENDBRANCH   9  11
ENDBRANCH   5   9
BRANCH   7  39
HETATM   39  O   UNL     1     -11.847  16.152  68.758  1.00  0.00    -0.339 OA 
HETATM   40  C   UNL     1     -10.714  16.837  69.266  1.00  0.00    -0.324 C  
ENDBRANCH   7  39
BRANCH   8  41
HETATM   41  O   UNL     1     -11.370  15.027  66.158  1.00  0.00    -0.339 OA 
HETATM   42  C   UNL     1     -10.065  15.339  65.706  1.00  0.00    -0.356 C  
ENDBRANCH   8  41
ENDBRANCH   2   3
TORSDOF 9
ENDMDL
MODEL       44
REMARK 921   NORMALIZED FREE ENERGY PREDICTED BY IDOCK:   -6.61 KCAL/MOL
REMARK 922        TOTAL FREE ENERGY PREDICTED BY IDOCK:  -11.96 KCAL/MOL
REMARK 923 INTER-LIGAND FREE ENERGY PREDICTED BY IDOCK:  -10.43 KCAL/MOL
REMARK 924 INTRA-LIGAND FREE ENERGY PREDICTED BY IDOCK:   -1.53 KCAL/MOL
REMARK 927      BINDING AFFINITY PREDICTED BY RF-SCORE:    0.00 PKD
ROOT
HETATM    1  C   UNL     1     -12.180  14.716  69.957  1.00  0.00    -0.333 C  
HETATM    2  O   UNL     1     -11.632  15.966  69.530  1.00  0.00    -0.325 OA 
ENDROOT
BRANCH   2   3
HETATM    3  C   UNL     1     -11.176  15.974  68.235  1.00  0.00    -0.350 A  
HETATM    4  C   UNL     1     -11.561  14.944  67.358  1.00  0.00    -0.347 A  
HETATM    5  C   UNL     1     -11.055  14.829  66.069  1.00  0.00    -0.330 A  
HETATM    6  C   UNL     1     -10.159  15.822  65.663  1.00  0.00    -0.401 A  
HETATM    7  C   UNL     1      -9.800  16.904  66.483  1.00  0.00    -0.296 A  
HETATM    8  C   UNL     1     -10.338  17.013  67.783  1.00  0.00    -0.335 A  
BRANCH   5   9
HETATM    9  N   UNL     1     -11.378  13.780  65.202  1.00  0.00    -0.303 NA 
HETATM   10  H   UNL     1     -12.277  13.905  64.737  1.00  0.00     0.000 HD 
BRANCH   9  11
HETATM   11  C   UNL     1     -10.731  12.598  64.839  1.00  0.00    -0.299 A  
HETATM   12  N   UNL     1     -10.909  12.251  63.557  1.00  0.00    -0.454 NA 
HETATM   13  N   UNL     1      -9.992  11.871  65.703  1.00  0.00    -0.236 NA 
HETATM   14  C   UNL     1      -9.399  10.729  65.267  1.00  0.00    -0.210 A  
HETATM   15  F   UNL     1      -8.859   9.286  63.437  1.00  0.00    -0.211 F  
HETATM   16  C   UNL     1     -10.282  11.132  63.137  1.00  0.00    -0.294 A  
HETATM   17  C   UNL     1      -9.487  10.354  63.944  1.00  0.00    -0.304 A  
BRANCH  14  18
HETATM   18  N   UNL     1      -8.648  10.034  66.231  1.00  0.00    -0.128 NA 
HETATM   19  H   UNL     1      -7.726   9.742  65.908  1.00  0.00     0.000 HD 
BRANCH  18  20
HETATM   20  C   UNL     1      -8.936   9.665  67.565  1.00  0.00    -0.128 A  
HETATM   21  N   UNL     1      -9.603   8.534  67.879  1.00  0.00    -0.149 NA 
HETATM   22  C   UNL     1      -9.778   8.198  69.194  1.00  0.00    -0.163 A  
HETATM   23  C   UNL     1      -9.374   9.033  70.233  1.00  0.00    -0.198 A  
HETATM   24  O   UNL     1      -9.627   8.794  71.559  1.00  0.00    -0.231 OA 
HETATM   25  C   UNL     1      -8.696  10.197  69.914  1.00  0.00    -0.091 A  
HETATM   26  C   UNL     1     -10.688   7.866  71.775  1.00  0.00    -0.232 C  
HETATM   27  C   UNL     1      -8.480  10.515  68.574  1.00  0.00    -0.131 A  
HETATM   28  C   UNL     1     -10.589   6.624  70.878  1.00  0.00    -0.224 C  
HETATM   29  C   UNL     1     -10.676   7.449  73.249  1.00  0.00    -0.441 C  
HETATM   30  C   UNL     1     -12.061   8.513  71.461  1.00  0.00    -0.351 C  
HETATM   31  N   UNL     1     -10.348   6.946  69.553  1.00  0.00    -0.199 N  
HETATM   32  O   UNL     1     -10.878   5.489  71.253  1.00  0.00    -0.242 OA 
BRANCH  31  33
HETATM   33  C   UNL     1     -10.870   6.045  68.580  1.00  0.00    -0.286 C  
BRANCH  33  34
HETATM   34  O   UNL     1      -9.910   5.087  68.268  1.00  0.00    -0.149 OA 
HETATM   35  P   UNL     1      -9.640   5.061  66.558  1.00  0.00    -0.200 P  
HETATM   36  O   UNL     1      -9.632   3.442  66.783  1.00  0.00    -0.173 OA 
HETATM   37  O   UNL     1      -8.083   5.337  66.963  1.00  0.00    -0.104 OA 
HETATM   38  O   UNL     1      -9.398   5.037  65.030  1.00  0.00    -0.122 OA 
ENDBRANCH  33  34
ENDBRANCH  31  33
ENDBRANCH  18  20
ENDBRANCH  14  18
ENDBRANCH   9  11
ENDBRANCH   5   9
BRANCH   7  39
HETATM   39  O   UNL     1      -8.876  17.715  65.868  1.00  0.00    -0.521 OA 
HETATM   40  C   UNL     1      -7.493  17.557  66.141  1.00  0.00    -0.299 C  
ENDBRANCH   7  39
BRANCH   8  41
HETATM   41  O   UNL     1     -10.015  18.149  68.469  1.00  0.00    -0.357 OA 
HETATM   42  C   UNL     1     -10.584  19.416  68.190  1.00  0.00    -0.278 C  
ENDBRANCH   8  41
ENDBRANCH   2   3
TORSDOF 9
ENDMDL
MODEL       45
REMARK 921   NORMALIZED FREE ENERGY PREDICTED BY IDOCK:   -6.60 KCAL/MOL
REMARK 922        TOTAL FREE ENERGY PREDICTED BY IDOCK:  -11.94 KCAL/MOL
REMARK 923 INTER-LIGAND FREE ENERGY PREDICTED BY IDOCK:  -10.14 KCAL/MOL
REMARK 924 INTRA-LIGAND FREE ENERGY PREDICTED BY IDOCK:   -1.80 KCAL/MOL
REMARK 927      BINDING AFFINITY PREDICTED BY RF-SCORE:    0.00 PKD
ROOT
HETATM    1  C   UNL     1      -7.086   6.574  65.651  1.00  0.00    -0.061 C  
HETATM    2  O   UNL     1      -8.346   5.898  65.665  1.00  0.00    -0.130 OA 
ENDROOT
BRANCH   2   3
HETATM    3  C   UNL     1      -8.753   5.482  66.909  1.00  0.00    -0.112 A  
HETATM    4  C   UNL     1      -8.916   6.427  67.938  1.00  0.00    -0.114 A  
HETATM    5  C   UNL     1      -9.221   6.066  69.244  1.00  0.00    -0.127 A  
HETATM    6  C   UNL     1      -9.399   4.702  69.487  1.00  0.00    -0.208 A  
HETATM    7  C   UNL     1      -9.311   3.731  68.475  1.00  0.00    -0.166 A  
HETATM    8  C   UNL     1      -9.018   4.119  67.150  1.00  0.00    -0.128 A  
BRANCH   5   9
HETATM    9  N   UNL     1      -9.328   6.984  70.294  1.00  0.00    -0.159 NA 
HETATM   10  H   UNL     1      -8.466   7.086  70.829  1.00  0.00     0.000 HD 
BRANCH   9  11
HETATM   11  C   UNL     1     -10.365   7.790  70.766  1.00  0.00    -0.203 A  
HETATM   12  N   UNL     1     -10.678   7.579  72.052  1.00  0.00    -0.219 NA 
HETATM   13  N   UNL     1     -10.994   8.703  69.995  1.00  0.00    -0.234 NA 
HETATM   14  C   UNL     1     -11.998   9.444  70.533  1.00  0.00    -0.097 A  
HETATM   15  F   UNL     1     -13.242  10.080  72.474  1.00  0.00    -0.464 F  
HETATM   16  C   UNL     1     -11.654   8.351  72.575  1.00  0.00    -0.356 A  
HETATM   17  C   UNL     1     -12.321   9.322  71.867  1.00  0.00    -0.382 A  
BRANCH  14  18
HETATM   18  N   UNL     1     -12.598  10.369  69.662  1.00  0.00    -0.620 NA 
HETATM   19  H   UNL     1     -13.502  10.069  69.297  1.00  0.00     0.000 HD 
BRANCH  18  20
HETATM   20  C   UNL     1     -12.179  11.636  69.198  1.00  0.00    -0.137 A  
HETATM   21  N   UNL     1     -11.908  11.882  67.898  1.00  0.00    -0.552 NA 
HETATM   22  C   UNL     1     -11.583  13.152  67.506  1.00  0.00    -0.352 A  
HETATM   23  C   UNL     1     -11.429  14.194  68.418  1.00  0.00    -0.302 A  
HETATM   24  O   UNL     1     -10.998  15.453  68.088  1.00  0.00    -0.273 OA 
HETATM   25  C   UNL     1     -11.701  13.943  69.753  1.00  0.00    -0.372 A  
HETATM   26  C   UNL     1     -10.317  15.507  66.837  1.00  0.00    -0.290 C  
HETATM   27  C   UNL     1     -12.073  12.658  70.144  1.00  0.00    -0.368 A  
HETATM   28  C   UNL     1     -11.043  14.735  65.725  1.00  0.00    -0.338 C  
HETATM   29  C   UNL     1     -10.157  16.977  66.434  1.00  0.00    -0.325 C  
HETATM   30  C   UNL     1      -8.906  14.874  66.946  1.00  0.00    -0.284 C  
HETATM   31  N   UNL     1     -11.434  13.470  66.129  1.00  0.00    -0.317 N  
HETATM   32  O   UNL     1     -11.102  15.119  64.558  1.00  0.00    -0.333 OA 
BRANCH  31  33
HETATM   33  C   UNL     1     -11.489  12.473  65.111  1.00  0.00    -0.328 C  
BRANCH  33  34
HETATM   34  O   UNL     1     -10.197  12.100  64.753  1.00  0.00    -0.272 OA 
HETATM   35  P   UNL     1      -9.909  10.458  65.218  1.00  0.00    -0.314 P  
HETATM   36  O   UNL     1      -8.458  11.049  65.681  1.00  0.00    -0.170 OA 
HETATM   37  O   UNL     1      -9.555  10.243  63.639  1.00  0.00    -0.292 OA 
HETATM   38  O   UNL     1      -9.651   8.989  65.634  1.00  0.00    -0.247 OA 
ENDBRANCH  33  34
ENDBRANCH  31  33
ENDBRANCH  18  20
ENDBRANCH  14  18
ENDBRANCH   9  11
ENDBRANCH   5   9
BRANCH   7  39
HETATM   39  O   UNL     1      -9.485   2.464  68.979  1.00  0.00    -0.148 OA 
HETATM   40  C   UNL     1      -9.376   2.229  70.373  1.00  0.00    -0.119 C  
ENDBRANCH   7  39
BRANCH   8  41
HETATM   41  O   UNL     1      -9.055   3.124  66.216  1.00  0.00    -0.144 OA 
HETATM   42  C   UNL     1      -7.902   2.436  65.763  1.00  0.00    -0.081 C  
ENDBRANCH   8  41
ENDBRANCH   2   3
TORSDOF 9
ENDMDL
MODEL       46
REMARK 921   NORMALIZED FREE ENERGY PREDICTED BY IDOCK:   -6.60 KCAL/MOL
REMARK 922        TOTAL FREE ENERGY PREDICTED BY IDOCK:  -11.93 KCAL/MOL
REMARK 923 INTER-LIGAND FREE ENERGY PREDICTED BY IDOCK:  -10.19 KCAL/MOL
REMARK 924 INTRA-LIGAND FREE ENERGY PREDICTED BY IDOCK:   -1.75 KCAL/MOL
REMARK 927      BINDING AFFINITY PREDICTED BY RF-SCORE:    0.00 PKD
ROOT
HETATM    1  C   UNL     1      -9.833  17.786  68.827  1.00  0.00    -0.343 C  
HETATM    2  O   UNL     1     -10.761  17.298  69.798  1.00  0.00    -0.102 OA 
ENDROOT
BRANCH   2   3
HETATM    3  C   UNL     1     -11.251  16.042  69.536  1.00  0.00    -0.348 A  
HETATM    4  C   UNL     1     -11.524  15.668  68.208  1.00  0.00    -0.353 A  
HETATM    5  C   UNL     1     -12.120  14.457  67.879  1.00  0.00    -0.245 A  
HETATM    6  C   UNL     1     -12.407  13.596  68.941  1.00  0.00    -0.047 A  
HETATM    7  C   UNL     1     -12.090  13.902  70.275  1.00  0.00    -0.353 A  
HETATM    8  C   UNL     1     -11.469  15.130  70.588  1.00  0.00    -0.305 A  
BRANCH   5   9
HETATM    9  N   UNL     1     -12.455  14.091  66.571  1.00  0.00    -0.512 NA 
HETATM   10  H   UNL     1     -13.369  14.436  66.278  1.00  0.00     0.000 HD 
BRANCH   9  11
HETATM   11  C   UNL     1     -11.805  13.353  65.581  1.00  0.00    -0.370 A  
HETATM   12  N   UNL     1     -12.418  13.378  64.390  1.00  0.00    -0.620 NA 
HETATM   13  N   UNL     1     -10.658  12.677  65.804  1.00  0.00    -0.266 NA 
HETATM   14  C   UNL     1     -10.092  11.980  64.785  1.00  0.00    -0.257 A  
HETATM   15  F   UNL     1     -10.083  11.423  62.458  1.00  0.00    -0.183 F  
HETATM   16  C   UNL     1     -11.820  12.708  63.383  1.00  0.00    -0.514 A  
HETATM   17  C   UNL     1     -10.637  12.022  63.520  1.00  0.00    -0.465 A  
BRANCH  14  18
HETATM   18  N   UNL     1      -8.902  11.305  65.104  1.00  0.00    -0.383 NA 
HETATM   19  H   UNL     1      -8.121  11.923  65.326  1.00  0.00     0.000 HD 
BRANCH  18  20
HETATM   20  C   UNL     1      -8.586   9.929  65.174  1.00  0.00    -0.153 A  
HETATM   21  N   UNL     1      -9.281   9.062  65.941  1.00  0.00    -0.214 NA 
HETATM   22  C   UNL     1      -8.971   7.730  65.902  1.00  0.00    -0.113 A  
HETATM   23  C   UNL     1      -7.897   7.239  65.164  1.00  0.00    -0.123 A  
HETATM   24  O   UNL     1      -7.479   5.933  65.180  1.00  0.00    -0.073 OA 
HETATM   25  C   UNL     1      -7.179   8.127  64.380  1.00  0.00    -0.084 A  
HETATM   26  C   UNL     1      -7.944   5.206  66.314  1.00  0.00    -0.104 C  
HETATM   27  C   UNL     1      -7.523   9.478  64.389  1.00  0.00    -0.118 A  
HETATM   28  C   UNL     1      -9.434   5.436  66.605  1.00  0.00    -0.144 C  
HETATM   29  C   UNL     1      -7.683   3.715  66.075  1.00  0.00    -0.089 C  
HETATM   30  C   UNL     1      -7.186   5.635  67.596  1.00  0.00    -0.076 C  
HETATM   31  N   UNL     1      -9.775   6.778  66.586  1.00  0.00    -0.173 N  
HETATM   32  O   UNL     1     -10.195   4.553  66.997  1.00  0.00    -0.180 OA 
BRANCH  31  33
HETATM   33  C   UNL     1     -10.851   7.167  67.436  1.00  0.00    -0.276 C  
BRANCH  33  34
HETATM   34  O   UNL     1     -10.551   6.830  68.752  1.00  0.00    -0.198 OA 
HETATM   35  P   UNL     1      -9.978   8.225  69.601  1.00  0.00    -0.202 P  
HETATM   36  O   UNL     1      -8.895   7.166  70.214  1.00  0.00    -0.146 OA 
HETATM   37  O   UNL     1     -11.199   7.898  70.635  1.00  0.00    -0.262 OA 
HETATM   38  O   UNL     1      -9.467   9.473  70.360  1.00  0.00    -0.242 OA 
ENDBRANCH  33  34
ENDBRANCH  31  33
ENDBRANCH  18  20
ENDBRANCH  14  18
ENDBRANCH   9  11
ENDBRANCH   5   9
BRANCH   7  39
HETATM   39  O   UNL     1     -12.511  12.912  71.131  1.00  0.00    -0.353 OA 
HETATM   40  C   UNL     1     -12.295  11.549  70.808  1.00  0.00    -0.375 C  
ENDBRANCH   7  39
BRANCH   8  41
HETATM   41  O   UNL     1     -11.104  15.298  71.893  1.00  0.00    -0.371 OA 
HETATM   42  C   UNL     1     -11.893  15.995  72.840  1.00  0.00    -0.449 C  
ENDBRANCH   8  41
ENDBRANCH   2   3
TORSDOF 9
ENDMDL
MODEL       47
REMARK 921   NORMALIZED FREE ENERGY PREDICTED BY IDOCK:   -6.59 KCAL/MOL
REMARK 922        TOTAL FREE ENERGY PREDICTED BY IDOCK:  -11.93 KCAL/MOL
REMARK 923 INTER-LIGAND FREE ENERGY PREDICTED BY IDOCK:  -10.42 KCAL/MOL
REMARK 924 INTRA-LIGAND FREE ENERGY PREDICTED BY IDOCK:   -1.51 KCAL/MOL
REMARK 927      BINDING AFFINITY PREDICTED BY RF-SCORE:    0.00 PKD
ROOT
HETATM    1  C   UNL     1     -13.024   9.102  72.550  1.00  0.00    -0.346 C  
HETATM    2  O   UNL     1     -12.108   8.111  73.022  1.00  0.00    -0.242 OA 
ENDROOT
BRANCH   2   3
HETATM    3  C   UNL     1     -11.473   7.405  72.030  1.00  0.00    -0.273 A  
HETATM    4  C   UNL     1     -11.395   7.947  70.734  1.00  0.00    -0.283 A  
HETATM    5  C   UNL     1     -10.864   7.246  69.660  1.00  0.00    -0.222 A  
HETATM    6  C   UNL     1     -10.367   5.969  69.936  1.00  0.00    -0.288 A  
HETATM    7  C   UNL     1     -10.364   5.416  71.227  1.00  0.00    -0.228 A  
HETATM    8  C   UNL     1     -10.893   6.151  72.310  1.00  0.00    -0.244 A  
BRANCH   5   9
HETATM    9  N   UNL     1     -10.831   7.742  68.353  1.00  0.00    -0.422 NA 
HETATM   10  H   UNL     1     -11.556   7.346  67.754  1.00  0.00     0.000 HD 
BRANCH   9  11
HETATM   11  C   UNL     1     -10.018   8.665  67.694  1.00  0.00    -0.194 A  
HETATM   12  N   UNL     1     -10.024   8.541  66.359  1.00  0.00    -0.270 NA 
HETATM   13  N   UNL     1      -9.293   9.600  68.343  1.00  0.00    -0.133 NA 
HETATM   14  C   UNL     1      -8.523  10.457  67.623  1.00  0.00    -0.114 A  
HETATM   15  F   UNL     1      -7.867  11.295  65.481  1.00  0.00    -0.031 F  
HETATM   16  C   UNL     1      -9.280   9.426  65.662  1.00  0.00    -0.226 A  
HETATM   17  C   UNL     1      -8.539  10.426  66.246  1.00  0.00    -0.142 A  
BRANCH  14  18
HETATM   18  N   UNL     1      -7.801  11.397  68.378  1.00  0.00    -0.127 NA 
HETATM   19  H   UNL     1      -7.137  10.983  69.032  1.00  0.00     0.000 HD 
BRANCH  18  20
HETATM   20  C   UNL     1      -7.826  12.810  68.399  1.00  0.00    -0.132 A  
HETATM   21  N   UNL     1      -8.877  13.526  67.944  1.00  0.00    -0.179 NA 
HETATM   22  C   UNL     1      -8.869  14.889  68.066  1.00  0.00    -0.167 A  
HETATM   23  C   UNL     1      -7.766  15.582  68.560  1.00  0.00    -0.132 A  
HETATM   24  O   UNL     1      -7.666  16.949  68.598  1.00  0.00    -0.212 OA 
HETATM   25  C   UNL     1      -6.684  14.851  69.022  1.00  0.00    -0.117 A  
HETATM   26  C   UNL     1      -8.573  17.606  67.716  1.00  0.00    -0.228 C  
HETATM   27  C   UNL     1      -6.714  13.460  68.936  1.00  0.00    -0.110 A  
HETATM   28  C   UNL     1      -9.997  17.037  67.787  1.00  0.00    -0.280 C  
HETATM   29  C   UNL     1      -8.588  19.099  68.060  1.00  0.00    -0.345 C  
HETATM   30  C   UNL     1      -8.123  17.450  66.241  1.00  0.00    -0.298 C  
HETATM   31  N   UNL     1     -10.018  15.654  67.729  1.00  0.00    -0.222 N  
HETATM   32  O   UNL     1     -11.011  17.730  67.712  1.00  0.00    -0.308 OA 
BRANCH  31  33
HETATM   33  C   UNL     1     -11.174  15.065  67.140  1.00  0.00    -0.336 C  
BRANCH  33  34
HETATM   34  O   UNL     1     -10.942  14.834  65.787  1.00  0.00    -0.315 OA 
HETATM   35  P   UNL     1     -12.033  13.625  65.201  1.00  0.00    -0.427 P  
HETATM   36  O   UNL     1     -10.703  13.082  64.422  1.00  0.00    -0.350 OA 
HETATM   37  O   UNL     1     -12.461  14.768  64.116  1.00  0.00    -0.758 OA 
HETATM   38  O   UNL     1     -13.009  12.544  64.678  1.00  0.00    -0.803 OA 
ENDBRANCH  33  34
ENDBRANCH  31  33
ENDBRANCH  18  20
ENDBRANCH  14  18
ENDBRANCH   9  11
ENDBRANCH   5   9
BRANCH   7  39
HETATM   39  O   UNL     1      -9.861   4.137  71.225  1.00  0.00    -0.178 OA 
HETATM   40  C   UNL     1      -9.218   3.625  70.069  1.00  0.00    -0.153 C  
ENDBRANCH   7  39
BRANCH   8  41
HETATM   41  O   UNL     1     -10.754   5.580  73.542  1.00  0.00    -0.248 OA 
HETATM   42  C   UNL     1      -9.936   6.121  74.564  1.00  0.00    -0.330 C  
ENDBRANCH   8  41
ENDBRANCH   2   3
TORSDOF 9
ENDMDL
MODEL       48
REMARK 921   NORMALIZED FREE ENERGY PREDICTED BY IDOCK:   -6.59 KCAL/MOL
REMARK 922        TOTAL FREE ENERGY PREDICTED BY IDOCK:  -11.92 KCAL/MOL
REMARK 923 INTER-LIGAND FREE ENERGY PREDICTED BY IDOCK:  -10.71 KCAL/MOL
REMARK 924 INTRA-LIGAND FREE ENERGY PREDICTED BY IDOCK:   -1.21 KCAL/MOL
REMARK 927      BINDING AFFINITY PREDICTED BY RF-SCORE:    0.00 PKD
ROOT
HETATM    1  C   UNL     1     -12.215  11.281  70.659  1.00  0.00    -0.393 C  
HETATM    2  O   UNL     1     -12.317  12.612  71.172  1.00  0.00    -0.314 OA 
ENDROOT
BRANCH   2   3
HETATM    3  C   UNL     1     -12.057  13.598  70.252  1.00  0.00    -0.357 A  
HETATM    4  C   UNL     1     -12.339  13.369  68.892  1.00  0.00     0.013 A  
HETATM    5  C   UNL     1     -12.003  14.277  67.896  1.00  0.00    -0.329 A  
HETATM    6  C   UNL     1     -11.397  15.464  68.315  1.00  0.00    -0.354 A  
HETATM    7  C   UNL     1     -11.159  15.761  69.667  1.00  0.00    -0.307 A  
HETATM    8  C   UNL     1     -11.522  14.834  70.667  1.00  0.00    -0.234 A  
BRANCH   5   9
HETATM    9  N   UNL     1     -12.220  14.044  66.534  1.00  0.00    -0.459 NA 
HETATM   10  H   UNL     1     -12.888  14.691  66.116  1.00  0.00     0.000 HD 
BRANCH   9  11
HETATM   11  C   UNL     1     -11.715  13.113  65.625  1.00  0.00    -0.364 A  
HETATM   12  N   UNL     1     -11.975  13.406  64.343  1.00  0.00    -0.392 NA 
HETATM   13  N   UNL     1     -11.026  12.016  66.004  1.00  0.00    -0.293 NA 
HETATM   14  C   UNL     1     -10.573  11.158  65.053  1.00  0.00    -0.273 A  
HETATM   15  F   UNL     1     -10.256  10.675  62.732  1.00  0.00    -0.312 F  
HETATM   16  C   UNL     1     -11.486  12.558  63.414  1.00  0.00    -0.452 A  
HETATM   17  C   UNL     1     -10.748  11.439  63.715  1.00  0.00    -0.403 A  
BRANCH  14  18
HETATM   18  N   UNL     1      -9.866  10.043  65.535  1.00  0.00    -0.288 NA 
HETATM   19  H   UNL     1      -9.242   9.619  64.848  1.00  0.00     0.000 HD 
BRANCH  18  20
HETATM   20  C   UNL     1      -9.860   9.402  66.794  1.00  0.00    -0.218 A  
HETATM   21  N   UNL     1     -10.163   8.095  66.947  1.00  0.00    -0.294 NA 
HETATM   22  C   UNL     1     -10.061   7.519  68.184  1.00  0.00    -0.183 A  
HETATM   23  C   UNL     1      -9.743   8.257  69.322  1.00  0.00    -0.177 A  
HETATM   24  O   UNL     1      -9.738   7.750  70.596  1.00  0.00    -0.177 OA 
HETATM   25  C   UNL     1      -9.437   9.599  69.170  1.00  0.00    -0.172 A  
HETATM   26  C   UNL     1     -10.484   6.543  70.726  1.00  0.00    -0.220 C  
HETATM   27  C   UNL     1      -9.500  10.174  67.901  1.00  0.00    -0.154 A  
HETATM   28  C   UNL     1     -10.197   5.536  69.603  1.00  0.00    -0.266 C  
HETATM   29  C   UNL     1     -10.160   5.916  72.087  1.00  0.00    -0.210 C  
HETATM   30  C   UNL     1     -12.008   6.824  70.669  1.00  0.00    -0.418 C  
HETATM   31  N   UNL     1     -10.234   6.118  68.348  1.00  0.00    -0.158 N  
HETATM   32  O   UNL     1     -10.130   4.320  69.781  1.00  0.00    -0.182 OA 
BRANCH  31  33
HETATM   33  C   UNL     1     -10.639   5.274  67.273  1.00  0.00    -0.127 C  
BRANCH  33  34
HETATM   34  O   UNL     1      -9.515   4.755  66.639  1.00  0.00    -0.134 OA 
HETATM   35  P   UNL     1      -9.947   4.158  65.072  1.00  0.00    -0.138 P  
HETATM   36  O   UNL     1      -8.959   2.924  65.486  1.00  0.00    -0.136 OA 
HETATM   37  O   UNL     1      -8.792   5.183  64.541  1.00  0.00    -0.140 OA 
HETATM   38  O   UNL     1     -10.333   3.624  63.672  1.00  0.00    -0.200 OA 
ENDBRANCH  33  34
ENDBRANCH  31  33
ENDBRANCH  18  20
ENDBRANCH  14  18
ENDBRANCH   9  11
ENDBRANCH   5   9
BRANCH   7  39
HETATM   39  O   UNL     1     -10.517  16.968  69.811  1.00  0.00    -0.203 OA 
HETATM   40  C   UNL     1      -9.817  17.539  68.717  1.00  0.00    -0.326 C  
ENDBRANCH   7  39
BRANCH   8  41
HETATM   41  O   UNL     1     -11.349  15.249  71.956  1.00  0.00    -0.433 OA 
HETATM   42  C   UNL     1     -12.262  16.097  72.631  1.00  0.00    -0.532 C  
ENDBRANCH   8  41
ENDBRANCH   2   3
TORSDOF 9
ENDMDL
MODEL       49
REMARK 921   NORMALIZED FREE ENERGY PREDICTED BY IDOCK:   -6.53 KCAL/MOL
REMARK 922        TOTAL FREE ENERGY PREDICTED BY IDOCK:  -11.82 KCAL/MOL
REMARK 923 INTER-LIGAND FREE ENERGY PREDICTED BY IDOCK:   -9.87 KCAL/MOL
REMARK 924 INTRA-LIGAND FREE ENERGY PREDICTED BY IDOCK:   -1.95 KCAL/MOL
REMARK 927      BINDING AFFINITY PREDICTED BY RF-SCORE:    0.00 PKD
ROOT
HETATM    1  C   UNL     1     -10.378  16.553  68.745  1.00  0.00    -0.286 C  
HETATM    2  O   UNL     1     -11.625  16.079  68.231  1.00  0.00    -0.338 OA 
ENDROOT
BRANCH   2   3
HETATM    3  C   UNL     1     -11.739  14.712  68.184  1.00  0.00    -0.330 A  
HETATM    4  C   UNL     1     -11.715  13.972  69.380  1.00  0.00    -0.365 A  
HETATM    5  C   UNL     1     -11.718  12.583  69.402  1.00  0.00    -0.322 A  
HETATM    6  C   UNL     1     -11.783  11.942  68.162  1.00  0.00    -0.388 A  
HETATM    7  C   UNL     1     -11.876  12.642  66.947  1.00  0.00    -0.355 A  
HETATM    8  C   UNL     1     -11.890  14.053  66.946  1.00  0.00    -0.430 A  
BRANCH   5   9
HETATM    9  N   UNL     1     -11.634  11.828  70.576  1.00  0.00    -0.446 NA 
HETATM   10  H   UNL     1     -11.174  12.323  71.340  1.00  0.00     0.000 HD 
BRANCH   9  11
HETATM   11  C   UNL     1     -12.046  10.542  70.925  1.00  0.00    -0.383 A  
HETATM   12  N   UNL     1     -13.352  10.446  71.210  1.00  0.00    -0.310 NA 
HETATM   13  N   UNL     1     -11.203   9.488  70.969  1.00  0.00    -0.330 NA 
HETATM   14  C   UNL     1     -11.688   8.269  71.323  1.00  0.00    -0.283 A  
HETATM   15  F   UNL     1     -13.582   6.901  71.834  1.00  0.00    -0.394 F  
HETATM   16  C   UNL     1     -13.818   9.219  71.525  1.00  0.00    -0.265 A  
HETATM   17  C   UNL     1     -13.033   8.091  71.561  1.00  0.00    -0.303 A  
BRANCH  14  18
HETATM   18  N   UNL     1     -10.743   7.228  71.344  1.00  0.00    -0.227 NA 
HETATM   19  H   UNL     1     -10.339   7.052  72.264  1.00  0.00     0.000 HD 
BRANCH  18  20
HETATM   20  C   UNL     1     -10.250   6.382  70.325  1.00  0.00    -0.195 A  
HETATM   21  N   UNL     1      -9.800   6.853  69.142  1.00  0.00    -0.154 NA 
HETATM   22  C   UNL     1      -9.264   5.985  68.231  1.00  0.00    -0.117 A  
HETATM   23  C   UNL     1      -9.247   4.608  68.439  1.00  0.00    -0.128 A  
HETATM   24  O   UNL     1      -8.823   3.691  67.512  1.00  0.00    -0.107 OA 
HETATM   25  C   UNL     1      -9.713   4.121  69.649  1.00  0.00    -0.269 A  
HETATM   26  C   UNL     1      -8.802   4.201  66.181  1.00  0.00    -0.118 C  
HETATM   27  C   UNL     1     -10.220   5.012  70.593  1.00  0.00    -0.306 A  
HETATM   28  C   UNL     1      -8.165   5.595  66.083  1.00  0.00    -0.110 C  
HETATM   29  C   UNL     1      -8.037   3.213  65.294  1.00  0.00    -0.086 C  
HETATM   30  C   UNL     1     -10.240   4.347  65.621  1.00  0.00    -0.259 C  
HETATM   31  N   UNL     1      -8.654   6.468  67.041  1.00  0.00    -0.112 N  
HETATM   32  O   UNL     1      -7.450   5.952  65.149  1.00  0.00    -0.073 OA 
BRANCH  31  33
HETATM   33  C   UNL     1      -8.681   7.847  66.682  1.00  0.00    -0.142 C  
BRANCH  33  34
HETATM   34  O   UNL     1      -7.674   8.525  67.362  1.00  0.00    -0.096 OA 
HETATM   35  P   UNL     1      -8.190  10.138  67.721  1.00  0.00    -0.109 P  
HETATM   36  O   UNL     1      -6.664  10.516  67.273  1.00  0.00    -0.073 OA 
HETATM   37  O   UNL     1      -7.859   9.727  69.266  1.00  0.00    -0.088 OA 
HETATM   38  O   UNL     1      -8.651  11.580  68.042  1.00  0.00    -0.137 OA 
ENDBRANCH  33  34
ENDBRANCH  31  33
ENDBRANCH  18  20
ENDBRANCH  14  18
ENDBRANCH   9  11
ENDBRANCH   5   9
BRANCH   7  39
HETATM   39  O   UNL     1     -11.885  11.785  65.873  1.00  0.00    -0.414 OA 
HETATM   40  C   UNL     1     -10.730  11.643  65.063  1.00  0.00    -0.296 C  
ENDBRANCH   7  39
BRANCH   8  41
HETATM   41  O   UNL     1     -12.086  14.647  65.733  1.00  0.00    -0.304 OA 
HETATM   42  C   UNL     1     -11.046  15.247  64.981  1.00  0.00    -0.426 C  
ENDBRANCH   8  41
ENDBRANCH   2   3
TORSDOF 9
ENDMDL
MODEL       50
REMARK 921   NORMALIZED FREE ENERGY PREDICTED BY IDOCK:   -6.52 KCAL/MOL
REMARK 922        TOTAL FREE ENERGY PREDICTED BY IDOCK:  -11.82 KCAL/MOL
REMARK 923 INTER-LIGAND FREE ENERGY PREDICTED BY IDOCK:  -10.36 KCAL/MOL
REMARK 924 INTRA-LIGAND FREE ENERGY PREDICTED BY IDOCK:   -1.46 KCAL/MOL
REMARK 927      BINDING AFFINITY PREDICTED BY RF-SCORE:    0.00 PKD
ROOT
HETATM    1  C   UNL     1     -10.422  13.501  68.447  1.00  0.00    -0.246 C  
HETATM    2  O   UNL     1     -11.798  13.832  68.649  1.00  0.00    -0.337 OA 
ENDROOT
BRANCH   2   3
HETATM    3  C   UNL     1     -12.247  13.642  69.933  1.00  0.00    -0.304 A  
HETATM    4  C   UNL     1     -12.479  12.335  70.399  1.00  0.00    -0.221 A  
HETATM    5  C   UNL     1     -13.033  12.073  71.646  1.00  0.00    -0.334 A  
HETATM    6  C   UNL     1     -13.320  13.182  72.445  1.00  0.00    -0.591 A  
HETATM    7  C   UNL     1     -13.042  14.500  72.045  1.00  0.00    -0.344 A  
HETATM    8  C   UNL     1     -12.462  14.746  70.782  1.00  0.00    -0.337 A  
BRANCH   5   9
HETATM    9  N   UNL     1     -13.327  10.784  72.105  1.00  0.00    -0.579 NA 
HETATM   10  H   UNL     1     -14.130  10.755  72.733  1.00  0.00     0.000 HD 
BRANCH   9  11
HETATM   11  C   UNL     1     -12.756   9.531  71.885  1.00  0.00    -0.411 A  
HETATM   12  N   UNL     1     -13.631   8.517  71.929  1.00  0.00    -0.377 NA 
HETATM   13  N   UNL     1     -11.438   9.356  71.648  1.00  0.00    -0.389 NA 
HETATM   14  C   UNL     1     -10.964   8.098  71.449  1.00  0.00    -0.237 A  
HETATM   15  F   UNL     1     -11.428   5.772  71.142  1.00  0.00    -0.327 F  
HETATM   16  C   UNL     1     -13.144   7.280  71.694  1.00  0.00    -0.369 A  
HETATM   17  C   UNL     1     -11.823   7.022  71.414  1.00  0.00    -0.320 A  
BRANCH  14  18
HETATM   18  N   UNL     1      -9.582   8.007  71.210  1.00  0.00    -0.154 NA 
HETATM   19  H   UNL     1      -9.011   8.034  72.055  1.00  0.00     0.000 HD 
BRANCH  18  20
HETATM   20  C   UNL     1      -8.838   7.886  70.014  1.00  0.00    -0.141 A  
HETATM   21  N   UNL     1      -8.879   8.815  69.035  1.00  0.00    -0.136 NA 
HETATM   22  C   UNL     1      -8.073   8.674  67.938  1.00  0.00    -0.108 A  
HETATM   23  C   UNL     1      -7.272   7.551  67.746  1.00  0.00    -0.094 A  
HETATM   24  O   UNL     1      -6.534   7.312  66.615  1.00  0.00    -0.048 OA 
HETATM   25  C   UNL     1      -7.232   6.594  68.746  1.00  0.00    -0.085 A  
HETATM   26  C   UNL     1      -6.969   8.067  65.487  1.00  0.00    -0.059 C  
HETATM   27  C   UNL     1      -8.022   6.762  69.882  1.00  0.00    -0.120 A  
HETATM   28  C   UNL     1      -7.227   9.544  65.818  1.00  0.00    -0.097 C  
HETATM   29  C   UNL     1      -5.905   7.956  64.389  1.00  0.00    -0.052 C  
HETATM   30  C   UNL     1      -8.305   7.513  64.930  1.00  0.00    -0.045 C  
HETATM   31  N   UNL     1      -7.989   9.704  66.962  1.00  0.00    -0.108 N  
HETATM   32  O   UNL     1      -6.954  10.470  65.055  1.00  0.00    -0.099 OA 
BRANCH  31  33
HETATM   33  C   UNL     1      -8.819  10.862  67.010  1.00  0.00    -0.140 C  
BRANCH  33  34
HETATM   34  O   UNL     1      -9.966  10.645  66.252  1.00  0.00    -0.206 OA 
HETATM   35  P   UNL     1     -10.296  12.035  65.275  1.00  0.00    -0.291 P  
HETATM   36  O   UNL     1     -11.839  11.744  65.729  1.00  0.00    -0.379 OA 
HETATM   37  O   UNL     1     -10.239  10.976  64.034  1.00  0.00    -0.305 OA 
HETATM   38  O   UNL     1     -10.592  13.278  64.401  1.00  0.00    -0.397 OA 
ENDBRANCH  33  34
ENDBRANCH  31  33
ENDBRANCH  18  20
ENDBRANCH  14  18
ENDBRANCH   9  11
ENDBRANCH   5   9
BRANCH   7  39
HETATM   39  O   UNL     1     -13.454  15.409  72.989  1.00  0.00    -0.488 OA 
HETATM   40  C   UNL     1     -12.500  16.122  73.760  1.00  0.00    -0.587 C  
ENDBRANCH   7  39
BRANCH   8  41
HETATM   41  O   UNL     1     -12.132  16.045  70.520  1.00  0.00    -0.349 OA 
HETATM   42  C   UNL     1     -10.805  16.479  70.281  1.00  0.00    -0.147 C  
ENDBRANCH   8  41
ENDBRANCH   2   3
TORSDOF 9
ENDMDL
MODEL       51
REMARK 921   NORMALIZED FREE ENERGY PREDICTED BY IDOCK:   -6.52 KCAL/MOL
REMARK 922        TOTAL FREE ENERGY PREDICTED BY IDOCK:  -11.81 KCAL/MOL
REMARK 923 INTER-LIGAND FREE ENERGY PREDICTED BY IDOCK:  -10.98 KCAL/MOL
REMARK 924 INTRA-LIGAND FREE ENERGY PREDICTED BY IDOCK:   -0.84 KCAL/MOL
REMARK 927      BINDING AFFINITY PREDICTED BY RF-SCORE:    0.00 PKD
ROOT
HETATM    1  C   UNL     1      -7.537  18.890  66.049  1.00  0.00    -0.231 C  
HETATM    2  O   UNL     1      -8.960  18.799  65.936  1.00  0.00    -0.462 OA 
ENDROOT
BRANCH   2   3
HETATM    3  C   UNL     1      -9.519  17.747  66.618  1.00  0.00    -0.292 A  
HETATM    4  C   UNL     1      -9.811  16.553  65.933  1.00  0.00    -0.324 A  
HETATM    5  C   UNL     1     -10.473  15.489  66.532  1.00  0.00    -0.300 A  
HETATM    6  C   UNL     1     -10.809  15.645  67.879  1.00  0.00    -0.306 A  
HETATM    7  C   UNL     1     -10.477  16.792  68.619  1.00  0.00    -0.333 A  
HETATM    8  C   UNL     1      -9.788  17.856  67.997  1.00  0.00    -0.320 A  
BRANCH   5   9
HETATM    9  N   UNL     1     -10.826  14.318  65.852  1.00  0.00    -0.294 NA 
HETATM   10  H   UNL     1     -11.163  14.489  64.905  1.00  0.00     0.000 HD 
BRANCH   9  11
HETATM   11  C   UNL     1     -10.816  12.966  66.196  1.00  0.00    -0.279 A  
HETATM   12  N   UNL     1     -10.040  12.209  65.408  1.00  0.00    -0.253 NA 
HETATM   13  N   UNL     1     -11.524  12.466  67.231  1.00  0.00    -0.332 NA 
HETATM   14  C   UNL     1     -11.461  11.135  67.494  1.00  0.00    -0.216 A  
HETATM   15  F   UNL     1     -10.460   9.013  67.027  1.00  0.00    -0.294 F  
HETATM   16  C   UNL     1      -9.964  10.895  65.710  1.00  0.00    -0.247 A  
HETATM   17  C   UNL     1     -10.628  10.315  66.765  1.00  0.00    -0.185 A  
BRANCH  14  18
HETATM   18  N   UNL     1     -12.228  10.700  68.589  1.00  0.00    -0.814 NA 
HETATM   19  H   UNL     1     -13.213  10.960  68.535  1.00  0.00     0.000 HD 
BRANCH  18  20
HETATM   20  C   UNL     1     -11.886   9.970  69.749  1.00  0.00    -0.021 A  
HETATM   21  N   UNL     1     -10.830   9.129  69.795  1.00  0.00    -0.227 NA 
HETATM   22  C   UNL     1     -10.509   8.513  70.974  1.00  0.00    -0.212 A  
HETATM   23  C   UNL     1     -11.292   8.648  72.118  1.00  0.00    -0.364 A  
HETATM   24  O   UNL     1     -11.076   7.966  73.288  1.00  0.00    -0.328 OA 
HETATM   25  C   UNL     1     -12.379   9.505  72.073  1.00  0.00    -0.404 A  
HETATM   26  C   UNL     1     -10.265   6.805  73.123  1.00  0.00    -0.230 C  
HETATM   27  C   UNL     1     -12.678  10.165  70.882  1.00  0.00    -0.448 A  
HETATM   28  C   UNL     1      -9.023   7.059  72.257  1.00  0.00    -0.133 C  
HETATM   29  C   UNL     1      -9.843   6.307  74.510  1.00  0.00    -0.338 C  
HETATM   30  C   UNL     1     -11.056   5.673  72.418  1.00  0.00    -0.324 C  
HETATM   31  N   UNL     1      -9.324   7.738  71.088  1.00  0.00    -0.150 N  
HETATM   32  O   UNL     1      -7.924   6.553  72.479  1.00  0.00    -0.103 OA 
BRANCH  31  33
HETATM   33  C   UNL     1      -8.488   7.463  69.967  1.00  0.00    -0.138 C  
BRANCH  33  34
HETATM   34  O   UNL     1      -8.581   6.115  69.635  1.00  0.00    -0.125 OA 
HETATM   35  P   UNL     1      -9.734   5.902  68.361  1.00  0.00    -0.144 P  
HETATM   36  O   UNL     1     -10.187   4.610  69.252  1.00  0.00    -0.161 OA 
HETATM   37  O   UNL     1      -8.492   5.191  67.575  1.00  0.00    -0.106 OA 
HETATM   38  O   UNL     1     -10.764   5.712  67.222  1.00  0.00    -0.256 OA 
ENDBRANCH  33  34
ENDBRANCH  31  33
ENDBRANCH  18  20
ENDBRANCH  14  18
ENDBRANCH   9  11
ENDBRANCH   5   9
BRANCH   7  39
HETATM   39  O   UNL     1     -10.954  16.716  69.905  1.00  0.00    -0.347 OA 
HETATM   40  C   UNL     1     -11.797  15.643  70.292  1.00  0.00    -0.365 C  
ENDBRANCH   7  39
BRANCH   8  41
HETATM   41  O   UNL     1      -9.416  18.884  68.815  1.00  0.00    -0.354 OA 
HETATM   42  C   UNL     1     -10.061  20.145  68.825  1.00  0.00    -0.215 C  
ENDBRANCH   8  41
ENDBRANCH   2   3
TORSDOF 9
ENDMDL
MODEL       52
REMARK 921   NORMALIZED FREE ENERGY PREDICTED BY IDOCK:   -6.51 KCAL/MOL
REMARK 922        TOTAL FREE ENERGY PREDICTED BY IDOCK:  -11.79 KCAL/MOL
REMARK 923 INTER-LIGAND FREE ENERGY PREDICTED BY IDOCK:  -10.15 KCAL/MOL
REMARK 924 INTRA-LIGAND FREE ENERGY PREDICTED BY IDOCK:   -1.65 KCAL/MOL
REMARK 927      BINDING AFFINITY PREDICTED BY RF-SCORE:    0.00 PKD
ROOT
HETATM    1  C   UNL     1     -10.548   4.983  68.613  1.00  0.00     0.159 C  
HETATM    2  O   UNL     1     -10.941   5.506  69.885  1.00  0.00    -0.309 OA 
ENDROOT
BRANCH   2   3
HETATM    3  C   UNL     1     -11.028   6.876  69.935  1.00  0.00    -0.277 A  
HETATM    4  C   UNL     1     -10.383   7.647  68.951  1.00  0.00    -0.222 A  
HETATM    5  C   UNL     1     -10.337   9.035  68.999  1.00  0.00    -0.219 A  
HETATM    6  C   UNL     1     -11.004   9.642  70.066  1.00  0.00    -0.297 A  
HETATM    7  C   UNL     1     -11.717   8.913  71.032  1.00  0.00    -0.289 A  
HETATM    8  C   UNL     1     -11.766   7.504  70.957  1.00  0.00    -0.292 A  
BRANCH   5   9
HETATM    9  N   UNL     1      -9.651   9.818  68.065  1.00  0.00    -0.142 NA 
HETATM   10  H   UNL     1      -8.683  10.001  68.328  1.00  0.00     0.000 HD 
BRANCH   9  11
HETATM   11  C   UNL     1     -10.010  10.402  66.850  1.00  0.00    -0.206 A  
HETATM   12  N   UNL     1      -9.615   9.708  65.773  1.00  0.00    -0.244 NA 
HETATM   13  N   UNL     1     -10.695  11.562  66.767  1.00  0.00    -0.257 NA 
HETATM   14  C   UNL     1     -11.000  12.064  65.542  1.00  0.00    -0.298 A  
HETATM   15  F   UNL     1     -11.028  11.764  63.169  1.00  0.00    -0.392 F  
HETATM   16  C   UNL     1      -9.960  10.207  64.567  1.00  0.00    -0.205 A  
HETATM   17  C   UNL     1     -10.683  11.363  64.399  1.00  0.00    -0.342 A  
BRANCH  14  18
HETATM   18  N   UNL     1     -11.715  13.274  65.548  1.00  0.00    -0.331 NA 
HETATM   19  H   UNL     1     -12.722  13.162  65.433  1.00  0.00     0.000 HD 
BRANCH  18  20
HETATM   20  C   UNL     1     -11.295  14.617  65.683  1.00  0.00    -0.338 A  
HETATM   21  N   UNL     1     -10.753  15.098  66.822  1.00  0.00    -0.307 NA 
HETATM   22  C   UNL     1     -10.296  16.387  66.859  1.00  0.00    -0.300 A  
HETATM   23  C   UNL     1     -10.453  17.261  65.785  1.00  0.00    -0.229 A  
HETATM   24  O   UNL     1     -10.114  18.589  65.814  1.00  0.00    -0.537 OA 
HETATM   25  C   UNL     1     -11.014  16.772  64.618  1.00  0.00     0.095 A  
HETATM   26  C   UNL     1      -9.987  19.112  67.134  1.00  0.00    -0.356 C  
HETATM   27  C   UNL     1     -11.440  15.445  64.569  1.00  0.00    -0.314 A  
HETATM   28  C   UNL     1      -9.183  18.196  68.067  1.00  0.00    -0.279 C  
HETATM   29  C   UNL     1      -9.319  20.489  67.048  1.00  0.00    -0.482 C  
HETATM   30  C   UNL     1     -11.378  19.285  67.797  1.00  0.00     0.409 C  
HETATM   31  N   UNL     1      -9.593  16.875  67.994  1.00  0.00    -0.242 N  
HETATM   32  O   UNL     1      -8.399  18.612  68.919  1.00  0.00    -0.285 OA 
BRANCH  31  33
HETATM   33  C   UNL     1      -9.440  16.101  69.181  1.00  0.00    -0.251 C  
BRANCH  33  34
HETATM   34  O   UNL     1     -10.470  16.400  70.068  1.00  0.00    -0.244 OA 
HETATM   35  P   UNL     1     -11.403  14.977  70.386  1.00  0.00    -0.242 P  
HETATM   36  O   UNL     1     -12.662  16.010  70.254  1.00  0.00    -0.287 OA 
HETATM   37  O   UNL     1     -11.040  15.284  71.948  1.00  0.00    -0.371 OA 
HETATM   38  O   UNL     1     -12.237  13.704  70.670  1.00  0.00    -0.341 OA 
ENDBRANCH  33  34
ENDBRANCH  31  33
ENDBRANCH  18  20
ENDBRANCH  14  18
ENDBRANCH   9  11
ENDBRANCH   5   9
BRANCH   7  39
HETATM   39  O   UNL     1     -12.246   9.738  71.995  1.00  0.00    -0.343 OA 
HETATM   40  C   UNL     1     -13.305  10.624  71.673  1.00  0.00    -0.307 C  
ENDBRANCH   7  39
BRANCH   8  41
HETATM   41  O   UNL     1     -12.565   6.886  71.876  1.00  0.00    -0.339 OA 
HETATM   42  C   UNL     1     -13.981   6.931  71.834  1.00  0.00    -0.094 C  
ENDBRANCH   8  41
ENDBRANCH   2   3
TORSDOF 9
ENDMDL
MODEL       53
REMARK 921   NORMALIZED FREE ENERGY PREDICTED BY IDOCK:   -6.50 KCAL/MOL
REMARK 922        TOTAL FREE ENERGY PREDICTED BY IDOCK:  -11.79 KCAL/MOL
REMARK 923 INTER-LIGAND FREE ENERGY PREDICTED BY IDOCK:  -10.31 KCAL/MOL
REMARK 924 INTRA-LIGAND FREE ENERGY PREDICTED BY IDOCK:   -1.48 KCAL/MOL
REMARK 927      BINDING AFFINITY PREDICTED BY RF-SCORE:    0.00 PKD
ROOT
HETATM    1  C   UNL     1      -7.778  17.193  66.152  1.00  0.00    -0.267 C  
HETATM    2  O   UNL     1      -9.067  16.944  65.585  1.00  0.00    -0.499 OA 
ENDROOT
BRANCH   2   3
HETATM    3  C   UNL     1      -9.866  16.111  66.330  1.00  0.00    -0.284 A  
HETATM    4  C   UNL     1     -10.080  14.788  65.900  1.00  0.00    -0.343 A  
HETATM    5  C   UNL     1     -10.958  13.925  66.543  1.00  0.00    -0.300 A  
HETATM    6  C   UNL     1     -11.602  14.426  67.677  1.00  0.00    -0.396 A  
HETATM    7  C   UNL     1     -11.367  15.717  68.179  1.00  0.00    -0.340 A  
HETATM    8  C   UNL     1     -10.458  16.573  67.522  1.00  0.00    -0.310 A  
BRANCH   5   9
HETATM    9  N   UNL     1     -11.231  12.628  66.098  1.00  0.00    -0.295 NA 
HETATM   10  H   UNL     1     -12.173  12.521  65.723  1.00  0.00     0.000 HD 
BRANCH   9  11
HETATM   11  C   UNL     1     -10.487  11.448  66.058  1.00  0.00    -0.255 A  
HETATM   12  N   UNL     1      -9.242  11.604  65.586  1.00  0.00    -0.184 NA 
HETATM   13  N   UNL     1     -10.978  10.256  66.459  1.00  0.00     0.006 NA 
HETATM   14  C   UNL     1     -10.186   9.155  66.383  1.00  0.00    -0.230 A  
HETATM   15  F   UNL     1      -8.023   8.229  65.952  1.00  0.00    -0.084 F  
HETATM   16  C   UNL     1      -8.462  10.503  65.552  1.00  0.00    -0.173 A  
HETATM   17  C   UNL     1      -8.876   9.262  65.972  1.00  0.00    -0.160 A  
BRANCH  14  18
HETATM   18  N   UNL     1     -10.777   7.958  66.821  1.00  0.00    -0.435 NA 
HETATM   19  H   UNL     1     -11.433   7.550  66.156  1.00  0.00     0.000 HD 
BRANCH  18  20
HETATM   20  C   UNL     1     -10.628   7.214  68.014  1.00  0.00    -0.196 A  
HETATM   21  N   UNL     1     -10.635   7.790  69.236  1.00  0.00    -0.216 NA 
HETATM   22  C   UNL     1     -10.565   7.002  70.352  1.00  0.00    -0.223 A  
HETATM   23  C   UNL     1     -10.391   5.622  70.277  1.00  0.00    -0.266 A  
HETATM   24  O   UNL     1     -10.203   4.806  71.363  1.00  0.00    -0.199 OA 
HETATM   25  C   UNL     1     -10.377   5.029  69.025  1.00  0.00    -0.155 A  
HETATM   26  C   UNL     1      -9.777   5.506  72.529  1.00  0.00    -0.152 C  
HETATM   27  C   UNL     1     -10.492   5.830  67.890  1.00  0.00    -0.290 A  
HETATM   28  C   UNL     1     -10.581   6.789  72.786  1.00  0.00    -0.235 C  
HETATM   29  C   UNL     1      -9.896   4.564  73.732  1.00  0.00    -0.172 C  
HETATM   30  C   UNL     1      -8.296   5.948  72.400  1.00  0.00    -0.117 C  
HETATM   31  N   UNL     1     -10.714   7.567  71.648  1.00  0.00    -0.213 N  
HETATM   32  O   UNL     1     -10.905   7.175  73.908  1.00  0.00    -0.258 OA 
BRANCH  31  33
HETATM   33  C   UNL     1     -10.818   8.973  71.854  1.00  0.00    -0.343 C  
BRANCH  33  34
HETATM   34  O   UNL     1     -12.148   9.364  71.740  1.00  0.00    -0.354 OA 
HETATM   35  P   UNL     1     -12.234  10.983  71.133  1.00  0.00    -0.168 P  
HETATM   36  O   UNL     1     -13.406  11.135  72.262  1.00  0.00    -0.394 OA 
HETATM   37  O   UNL     1     -13.157  10.323  69.960  1.00  0.00    -0.028 OA 
HETATM   38  O   UNL     1     -12.311  12.431  70.591  1.00  0.00    -0.351 OA 
ENDBRANCH  33  34
ENDBRANCH  31  33
ENDBRANCH  18  20
ENDBRANCH  14  18
ENDBRANCH   9  11
ENDBRANCH   5   9
BRANCH   7  39
HETATM   39  O   UNL     1     -12.152  15.980  69.276  1.00  0.00    -0.290 OA 
HETATM   40  C   UNL     1     -11.636  15.798  70.584  1.00  0.00    -0.390 C  
ENDBRANCH   7  39
BRANCH   8  41
HETATM   41  O   UNL     1     -10.214  17.767  68.137  1.00  0.00    -0.340 OA 
HETATM   42  C   UNL     1     -10.747  19.000  67.686  1.00  0.00    -0.409 C  
ENDBRANCH   8  41
ENDBRANCH   2   3
TORSDOF 9
ENDMDL
MODEL       54
REMARK 921   NORMALIZED FREE ENERGY PREDICTED BY IDOCK:   -6.47 KCAL/MOL
REMARK 922        TOTAL FREE ENERGY PREDICTED BY IDOCK:  -11.74 KCAL/MOL
REMARK 923 INTER-LIGAND FREE ENERGY PREDICTED BY IDOCK:   -9.86 KCAL/MOL
REMARK 924 INTRA-LIGAND FREE ENERGY PREDICTED BY IDOCK:   -1.88 KCAL/MOL
REMARK 927      BINDING AFFINITY PREDICTED BY RF-SCORE:    0.00 PKD
ROOT
HETATM    1  C   UNL     1     -13.422  11.728  72.070  1.00  0.00    -0.214 C  
HETATM    2  O   UNL     1     -13.368  13.152  72.190  1.00  0.00    -0.482 OA 
ENDROOT
BRANCH   2   3
HETATM    3  C   UNL     1     -12.656  13.781  71.198  1.00  0.00    -0.373 A  
HETATM    4  C   UNL     1     -12.230  13.044  70.077  1.00  0.00    -0.306 A  
HETATM    5  C   UNL     1     -11.417  13.586  69.090  1.00  0.00    -0.295 A  
HETATM    6  C   UNL     1     -11.065  14.930  69.243  1.00  0.00    -0.284 A  
HETATM    7  C   UNL     1     -11.523  15.720  70.311  1.00  0.00    -0.359 A  
HETATM    8  C   UNL     1     -12.363  15.156  71.295  1.00  0.00    -0.336 A  
BRANCH   5   9
HETATM    9  N   UNL     1     -10.933  12.855  68.000  1.00  0.00    -0.237 NA 
HETATM   10  H   UNL     1     -10.241  12.154  68.262  1.00  0.00     0.000 HD 
BRANCH   9  11
HETATM   11  C   UNL     1     -11.197  12.882  66.630  1.00  0.00    -0.304 A  
HETATM   12  N   UNL     1     -12.360  13.466  66.310  1.00  0.00    -0.383 NA 
HETATM   13  N   UNL     1     -10.354  12.368  65.710  1.00  0.00    -0.257 NA 
HETATM   14  C   UNL     1     -10.691  12.432  64.396  1.00  0.00    -0.339 A  
HETATM   15  F   UNL     1     -12.184  13.248  62.715  1.00  0.00    -0.509 F  
HETATM   16  C   UNL     1     -12.658  13.551  64.996  1.00  0.00    -0.391 A  
HETATM   17  C   UNL     1     -11.839  13.081  63.997  1.00  0.00    -0.445 A  
BRANCH  14  18
HETATM   18  N   UNL     1      -9.757  11.873  63.506  1.00  0.00    -0.560 NA 
HETATM   19  H   UNL     1      -9.562  12.453  62.690  1.00  0.00     0.000 HD 
BRANCH  18  20
HETATM   20  C   UNL     1      -9.039  10.656  63.535  1.00  0.00    -0.238 A  
HETATM   21  N   UNL     1      -9.110   9.794  64.571  1.00  0.00    -0.239 NA 
HETATM   22  C   UNL     1      -8.450   8.597  64.499  1.00  0.00    -0.110 A  
HETATM   23  C   UNL     1      -7.624   8.269  63.427  1.00  0.00    -0.131 A  
HETATM   24  O   UNL     1      -6.857   7.135  63.361  1.00  0.00    -0.050 OA 
HETATM   25  C   UNL     1      -7.544   9.154  62.365  1.00  0.00    -0.106 A  
HETATM   26  C   UNL     1      -6.634   6.528  64.631  1.00  0.00    -0.038 C  
HETATM   27  C   UNL     1      -8.252  10.354  62.422  1.00  0.00    -0.207 A  
HETATM   28  C   UNL     1      -7.911   6.425  65.479  1.00  0.00    -0.103 C  
HETATM   29  C   UNL     1      -6.041   5.133  64.406  1.00  0.00    -0.022 C  
HETATM   30  C   UNL     1      -5.628   7.357  65.472  1.00  0.00    -0.033 C  
HETATM   31  N   UNL     1      -8.623   7.612  65.509  1.00  0.00    -0.127 N  
HETATM   32  O   UNL     1      -8.172   5.463  66.200  1.00  0.00    -0.108 OA 
BRANCH  31  33
HETATM   33  C   UNL     1      -9.378   7.863  66.691  1.00  0.00    -0.193 C  
BRANCH  33  34
HETATM   34  O   UNL     1      -8.628   8.641  67.568  1.00  0.00    -0.132 OA 
HETATM   35  P   UNL     1      -9.680   9.486  68.652  1.00  0.00    -0.164 P  
HETATM   36  O   UNL     1      -8.652  10.725  68.371  1.00  0.00    -0.128 OA 
HETATM   37  O   UNL     1      -8.807   8.748  69.818  1.00  0.00    -0.135 OA 
HETATM   38  O   UNL     1     -10.620  10.242  69.621  1.00  0.00    -0.224 OA 
ENDBRANCH  33  34
ENDBRANCH  31  33
ENDBRANCH  18  20
ENDBRANCH  14  18
ENDBRANCH   9  11
ENDBRANCH   5   9
BRANCH   7  39
HETATM   39  O   UNL     1     -11.003  16.990  70.255  1.00  0.00    -0.010 OA 
HETATM   40  C   UNL     1     -10.397  17.462  69.063  1.00  0.00    -0.319 C  
ENDBRANCH   7  39
BRANCH   8  41
HETATM   41  O   UNL     1     -12.843  16.020  72.236  1.00  0.00    -0.452 OA 
HETATM   42  C   UNL     1     -12.174  16.297  73.454  1.00  0.00    -0.516 C  
ENDBRANCH   8  41
ENDBRANCH   2   3
TORSDOF 9
ENDMDL
MODEL       55
REMARK 921   NORMALIZED FREE ENERGY PREDICTED BY IDOCK:   -6.46 KCAL/MOL
REMARK 922        TOTAL FREE ENERGY PREDICTED BY IDOCK:  -11.72 KCAL/MOL
REMARK 923 INTER-LIGAND FREE ENERGY PREDICTED BY IDOCK:  -10.03 KCAL/MOL
REMARK 924 INTRA-LIGAND FREE ENERGY PREDICTED BY IDOCK:   -1.70 KCAL/MOL
REMARK 927      BINDING AFFINITY PREDICTED BY RF-SCORE:    0.00 PKD
ROOT
HETATM    1  C   UNL     1     -10.640  17.420  67.855  1.00  0.00    -0.383 C  
HETATM    2  O   UNL     1     -10.678  16.860  69.170  1.00  0.00    -0.330 OA 
ENDROOT
BRANCH   2   3
HETATM    3  C   UNL     1     -11.195  15.589  69.233  1.00  0.00    -0.310 A  
HETATM    4  C   UNL     1     -11.461  14.889  68.042  1.00  0.00    -0.355 A  
HETATM    5  C   UNL     1     -12.082  13.647  68.027  1.00  0.00    -0.274 A  
HETATM    6  C   UNL     1     -12.402  13.097  69.270  1.00  0.00    -0.013 A  
HETATM    7  C   UNL     1     -12.094  13.731  70.485  1.00  0.00    -0.345 A  
HETATM    8  C   UNL     1     -11.447  14.985  70.481  1.00  0.00    -0.290 A  
BRANCH   5   9
HETATM    9  N   UNL     1     -12.410  12.962  66.852  1.00  0.00    -0.341 NA 
HETATM   10  H   UNL     1     -13.411  12.800  66.748  1.00  0.00     0.000 HD 
BRANCH   9  11
HETATM   11  C   UNL     1     -11.658  12.452  65.793  1.00  0.00    -0.398 A  
HETATM   12  N   UNL     1     -12.269  12.531  64.603  1.00  0.00    -0.440 NA 
HETATM   13  N   UNL     1     -10.424  11.929  65.953  1.00  0.00    -0.249 NA 
HETATM   14  C   UNL     1      -9.762  11.451  64.868  1.00  0.00    -0.247 A  
HETATM   15  F   UNL     1      -9.671  11.188  62.492  1.00  0.00    -0.282 F  
HETATM   16  C   UNL     1     -11.579  12.082  63.533  1.00  0.00    -0.461 A  
HETATM   17  C   UNL     1     -10.307  11.566  63.608  1.00  0.00    -0.417 A  
BRANCH  14  18
HETATM   18  N   UNL     1      -8.484  10.925  65.125  1.00  0.00    -0.349 NA 
HETATM   19  H   UNL     1      -7.724  11.450  64.694  1.00  0.00     0.000 HD 
BRANCH  18  20
HETATM   20  C   UNL     1      -8.059   9.802  65.871  1.00  0.00    -0.114 A  
HETATM   21  N   UNL     1      -8.794   9.274  66.874  1.00  0.00    -0.126 NA 
HETATM   22  C   UNL     1      -8.360   8.140  67.503  1.00  0.00    -0.123 A  
HETATM   23  C   UNL     1      -7.131   7.553  67.210  1.00  0.00    -0.085 A  
HETATM   24  O   UNL     1      -6.603   6.485  67.887  1.00  0.00    -0.059 OA 
HETATM   25  C   UNL     1      -6.372   8.096  66.186  1.00  0.00    -0.046 A  
HETATM   26  C   UNL     1      -7.190   6.283  69.171  1.00  0.00    -0.087 C  
HETATM   27  C   UNL     1      -6.838   9.227  65.517  1.00  0.00    -0.074 A  
HETATM   28  C   UNL     1      -8.723   6.371  69.149  1.00  0.00    -0.127 C  
HETATM   29  C   UNL     1      -6.752   4.911  69.695  1.00  0.00    -0.051 C  
HETATM   30  C   UNL     1      -6.713   7.364  70.174  1.00  0.00    -0.050 C  
HETATM   31  N   UNL     1      -9.179   7.483  68.461  1.00  0.00    -0.143 N  
HETATM   32  O   UNL     1      -9.455   5.649  69.823  1.00  0.00    -0.141 OA 
BRANCH  31  33
HETATM   33  C   UNL     1     -10.419   8.031  68.900  1.00  0.00    -0.191 C  
BRANCH  33  34
HETATM   34  O   UNL     1     -10.180   9.046  69.820  1.00  0.00    -0.192 OA 
HETATM   35  P   UNL     1     -10.930   8.658  71.332  1.00  0.00    -0.327 P  
HETATM   36  O   UNL     1     -11.341  10.239  71.310  1.00  0.00    -0.277 OA 
HETATM   37  O   UNL     1      -9.425   8.840  71.940  1.00  0.00    -0.274 OA 
HETATM   38  O   UNL     1     -11.599   8.311  72.683  1.00  0.00    -0.399 OA 
ENDBRANCH  33  34
ENDBRANCH  31  33
ENDBRANCH  18  20
ENDBRANCH  14  18
ENDBRANCH   9  11
ENDBRANCH   5   9
BRANCH   7  39
HETATM   39  O   UNL     1     -12.549  13.006  71.560  1.00  0.00    -0.288 OA 
HETATM   40  C   UNL     1     -13.844  13.245  72.086  1.00  0.00    -0.461 C  
ENDBRANCH   7  39
BRANCH   8  41
HETATM   41  O   UNL     1     -11.094  15.478  71.705  1.00  0.00    -0.354 OA 
HETATM   42  C   UNL     1     -11.934  16.314  72.481  1.00  0.00    -0.554 C  
ENDBRANCH   8  41
ENDBRANCH   2   3
TORSDOF 9
ENDMDL
MODEL       56
REMARK 921   NORMALIZED FREE ENERGY PREDICTED BY IDOCK:   -6.43 KCAL/MOL
REMARK 922        TOTAL FREE ENERGY PREDICTED BY IDOCK:  -11.69 KCAL/MOL
REMARK 923 INTER-LIGAND FREE ENERGY PREDICTED BY IDOCK:  -10.42 KCAL/MOL
REMARK 924 INTRA-LIGAND FREE ENERGY PREDICTED BY IDOCK:   -1.27 KCAL/MOL
REMARK 927      BINDING AFFINITY PREDICTED BY RF-SCORE:    0.00 PKD
ROOT
HETATM    1  C   UNL     1     -11.593  12.044  64.124  1.00  0.00    -0.379 C  
HETATM    2  O   UNL     1     -12.506  12.625  65.058  1.00  0.00    -0.494 OA 
ENDROOT
BRANCH   2   3
HETATM    3  C   UNL     1     -11.926  13.063  66.224  1.00  0.00    -0.414 A  
HETATM    4  C   UNL     1     -11.600  12.132  67.228  1.00  0.00    -0.404 A  
HETATM    5  C   UNL     1     -11.112  12.513  68.471  1.00  0.00    -0.262 A  
HETATM    6  C   UNL     1     -10.920  13.882  68.671  1.00  0.00    -0.281 A  
HETATM    7  C   UNL     1     -11.168  14.839  67.673  1.00  0.00    -0.323 A  
HETATM    8  C   UNL     1     -11.648  14.432  66.409  1.00  0.00    -0.375 A  
BRANCH   5   9
HETATM    9  N   UNL     1     -10.839  11.610  69.504  1.00  0.00    -0.454 NA 
HETATM   10  H   UNL     1      -9.842  11.496  69.685  1.00  0.00     0.000 HD 
BRANCH   9  11
HETATM   11  C   UNL     1     -11.641  10.830  70.337  1.00  0.00    -0.339 A  
HETATM   12  N   UNL     1     -12.318  11.534  71.256  1.00  0.00    -0.267 NA 
HETATM   13  N   UNL     1     -11.729   9.488  70.227  1.00  0.00    -0.177 NA 
HETATM   14  C   UNL     1     -12.531   8.805  71.084  1.00  0.00    -0.193 A  
HETATM   15  F   UNL     1     -14.175   8.868  72.821  1.00  0.00    -0.488 F  
HETATM   16  C   UNL     1     -13.136  10.839  72.074  1.00  0.00    -0.371 A  
HETATM   17  C   UNL     1     -13.305   9.477  72.005  1.00  0.00    -0.452 A  
BRANCH  14  18
HETATM   18  N   UNL     1     -12.563   7.412  70.899  1.00  0.00    -0.564 NA 
HETATM   19  H   UNL     1     -13.498   7.035  70.742  1.00  0.00     0.000 HD 
BRANCH  18  20
HETATM   20  C   UNL     1     -11.539   6.438  70.891  1.00  0.00    -0.331 A  
HETATM   21  N   UNL     1     -10.908   6.056  69.760  1.00  0.00    -0.329 NA 
HETATM   22  C   UNL     1      -9.872   5.165  69.834  1.00  0.00    -0.219 A  
HETATM   23  C   UNL     1      -9.500   4.559  71.031  1.00  0.00    -0.161 A  
HETATM   24  O   UNL     1      -8.546   3.580  71.138  1.00  0.00    -0.070 OA 
HETATM   25  C   UNL     1     -10.149   4.944  72.192  1.00  0.00    -0.250 A  
HETATM   26  C   UNL     1      -8.264   2.928  69.901  1.00  0.00    -0.044 C  
HETATM   27  C   UNL     1     -11.176   5.884  72.119  1.00  0.00    -0.342 A  
HETATM   28  C   UNL     1      -8.090   3.909  68.733  1.00  0.00    -0.070 C  
HETATM   29  C   UNL     1      -6.994   2.088  70.074  1.00  0.00    -0.033 C  
HETATM   30  C   UNL     1      -9.424   1.982  69.497  1.00  0.00    -0.113 C  
HETATM   31  N   UNL     1      -9.098   4.856  68.682  1.00  0.00    -0.108 N  
HETATM   32  O   UNL     1      -7.262   3.757  67.835  1.00  0.00    -0.057 OA 
BRANCH  31  33
HETATM   33  C   UNL     1      -9.433   5.353  67.389  1.00  0.00    -0.120 C  
BRANCH  33  34
HETATM   34  O   UNL     1     -10.176   4.399  66.702  1.00  0.00    -0.219 OA 
HETATM   35  P   UNL     1      -9.634   4.301  65.061  1.00  0.00    -0.159 P  
HETATM   36  O   UNL     1     -11.235   4.218  64.743  1.00  0.00    -0.310 OA 
HETATM   37  O   UNL     1      -9.405   2.721  65.400  1.00  0.00    -0.147 OA 
HETATM   38  O   UNL     1      -9.150   4.214  63.593  1.00  0.00    -0.127 OA 
ENDBRANCH  33  34
ENDBRANCH  31  33
ENDBRANCH  18  20
ENDBRANCH  14  18
ENDBRANCH   9  11
ENDBRANCH   5   9
BRANCH   7  39
HETATM   39  O   UNL     1     -10.941  16.115  68.131  1.00  0.00    -0.320 OA 
HETATM   40  C   UNL     1      -9.911  16.361  69.075  1.00  0.00    -0.267 C  
ENDBRANCH   7  39
BRANCH   8  41
HETATM   41  O   UNL     1     -11.762  15.415  65.469  1.00  0.00    -0.085 OA 
HETATM   42  C   UNL     1     -10.676  16.220  65.046  1.00  0.00    -0.298 C  
ENDBRANCH   8  41
ENDBRANCH   2   3
TORSDOF 9
ENDMDL
MODEL       57
REMARK 921   NORMALIZED FREE ENERGY PREDICTED BY IDOCK:   -6.43 KCAL/MOL
REMARK 922        TOTAL FREE ENERGY PREDICTED BY IDOCK:  -11.68 KCAL/MOL
REMARK 923 INTER-LIGAND FREE ENERGY PREDICTED BY IDOCK:  -10.07 KCAL/MOL
REMARK 924 INTRA-LIGAND FREE ENERGY PREDICTED BY IDOCK:   -1.60 KCAL/MOL
REMARK 927      BINDING AFFINITY PREDICTED BY RF-SCORE:    0.00 PKD
ROOT
HETATM    1  C   UNL     1      -9.858  20.324  67.612  1.00  0.00    -0.423 C  
HETATM    2  O   UNL     1      -9.382  19.806  66.367  1.00  0.00    -0.363 OA 
ENDROOT
BRANCH   2   3
HETATM    3  C   UNL     1      -9.116  18.458  66.376  1.00  0.00    -0.261 A  
HETATM    4  C   UNL     1     -10.175  17.542  66.241  1.00  0.00    -0.356 A  
HETATM    5  C   UNL     1      -9.995  16.169  66.348  1.00  0.00    -0.299 A  
HETATM    6  C   UNL     1      -8.686  15.729  66.562  1.00  0.00    -0.354 A  
HETATM    7  C   UNL     1      -7.591  16.605  66.636  1.00  0.00    -0.279 A  
HETATM    8  C   UNL     1      -7.791  17.996  66.507  1.00  0.00    -0.260 A  
BRANCH   5   9
HETATM    9  N   UNL     1     -11.042  15.244  66.277  1.00  0.00    -0.311 NA 
HETATM   10  H   UNL     1     -11.717  15.343  67.035  1.00  0.00     0.000 HD 
BRANCH   9  11
HETATM   11  C   UNL     1     -11.359  14.215  65.390  1.00  0.00    -0.322 A  
HETATM   12  N   UNL     1     -12.668  14.113  65.118  1.00  0.00    -0.672 NA 
HETATM   13  N   UNL     1     -10.430  13.398  64.851  1.00  0.00    -0.372 NA 
HETATM   14  C   UNL     1     -10.826  12.417  63.999  1.00  0.00    -0.397 A  
HETATM   15  F   UNL     1     -12.586  11.412  62.729  1.00  0.00    -0.404 F  
HETATM   16  C   UNL     1     -13.034  13.154  64.241  1.00  0.00     0.179 A  
HETATM   17  C   UNL     1     -12.147  12.304  63.626  1.00  0.00    -0.554 A  
BRANCH  14  18
HETATM   18  N   UNL     1      -9.794  11.613  63.485  1.00  0.00    -0.405 NA 
HETATM   19  H   UNL     1      -9.425  11.932  62.589  1.00  0.00     0.000 HD 
BRANCH  18  20
HETATM   20  C   UNL     1      -9.174  10.443  63.981  1.00  0.00    -0.263 A  
HETATM   21  N   UNL     1      -9.587   9.823  65.107  1.00  0.00    -0.290 NA 
HETATM   22  C   UNL     1      -8.992   8.651  65.488  1.00  0.00    -0.158 A  
HETATM   23  C   UNL     1      -7.904   8.115  64.803  1.00  0.00    -0.137 A  
HETATM   24  O   UNL     1      -7.205   7.007  65.208  1.00  0.00    -0.068 OA 
HETATM   25  C   UNL     1      -7.474   8.752  63.651  1.00  0.00    -0.108 A  
HETATM   26  C   UNL     1      -7.394   6.692  66.586  1.00  0.00    -0.078 C  
HETATM   27  C   UNL     1      -8.110   9.923  63.242  1.00  0.00    -0.154 A  
HETATM   28  C   UNL     1      -8.867   6.750  67.017  1.00  0.00    -0.115 C  
HETATM   29  C   UNL     1      -6.828   5.292  66.846  1.00  0.00    -0.063 C  
HETATM   30  C   UNL     1      -6.642   7.699  67.493  1.00  0.00    -0.063 C  
HETATM   31  N   UNL     1      -9.500   7.903  66.585  1.00  0.00    -0.197 N  
HETATM   32  O   UNL     1      -9.374   5.961  67.814  1.00  0.00    -0.109 OA 
BRANCH  31  33
HETATM   33  C   UNL     1     -10.557   8.389  67.408  1.00  0.00    -0.243 C  
BRANCH  33  34
HETATM   34  O   UNL     1     -10.058   9.336  68.297  1.00  0.00    -0.170 OA 
HETATM   35  P   UNL     1     -11.121  10.701  68.359  1.00  0.00    -0.282 P  
HETATM   36  O   UNL     1      -9.721  11.544  68.349  1.00  0.00    -0.191 OA 
HETATM   37  O   UNL     1     -11.167  10.388  69.961  1.00  0.00    -0.272 OA 
HETATM   38  O   UNL     1     -12.071  11.921  68.415  1.00  0.00    -0.448 OA 
ENDBRANCH  33  34
ENDBRANCH  31  33
ENDBRANCH  18  20
ENDBRANCH  14  18
ENDBRANCH   9  11
ENDBRANCH   5   9
BRANCH   7  39
HETATM   39  O   UNL     1      -6.423  15.928  66.892  1.00  0.00    -0.294 OA 
HETATM   40  C   UNL     1      -6.089  15.557  68.220  1.00  0.00    -0.118 C  
ENDBRANCH   7  39
BRANCH   8  41
HETATM   41  O   UNL     1      -6.661  18.762  66.488  1.00  0.00    -0.189 OA 
HETATM   42  C   UNL     1      -5.753  18.784  65.401  1.00  0.00    -0.209 C  
ENDBRANCH   8  41
ENDBRANCH   2   3
TORSDOF 9
ENDMDL
MODEL       58
REMARK 921   NORMALIZED FREE ENERGY PREDICTED BY IDOCK:   -6.41 KCAL/MOL
REMARK 922        TOTAL FREE ENERGY PREDICTED BY IDOCK:  -11.64 KCAL/MOL
REMARK 923 INTER-LIGAND FREE ENERGY PREDICTED BY IDOCK:  -10.40 KCAL/MOL
REMARK 924 INTRA-LIGAND FREE ENERGY PREDICTED BY IDOCK:   -1.24 KCAL/MOL
REMARK 927      BINDING AFFINITY PREDICTED BY RF-SCORE:    0.00 PKD
ROOT
HETATM    1  C   UNL     1     -10.270   6.128  70.861  1.00  0.00    -0.201 C  
HETATM    2  O   UNL     1     -10.876   5.709  69.636  1.00  0.00    -0.337 OA 
ENDROOT
BRANCH   2   3
HETATM    3  C   UNL     1     -10.297   6.232  68.506  1.00  0.00    -0.203 A  
HETATM    4  C   UNL     1     -10.520   7.581  68.175  1.00  0.00    -0.233 A  
HETATM    5  C   UNL     1     -10.056   8.148  66.994  1.00  0.00    -0.280 A  
HETATM    6  C   UNL     1      -9.314   7.314  66.154  1.00  0.00    -0.101 A  
HETATM    7  C   UNL     1      -9.012   5.980  66.478  1.00  0.00    -0.133 A  
HETATM    8  C   UNL     1      -9.477   5.427  67.690  1.00  0.00    -0.122 A  
BRANCH   5   9
HETATM    9  N   UNL     1     -10.316   9.469  66.617  1.00  0.00    -0.233 NA 
HETATM   10  H   UNL     1     -10.408   9.589  65.609  1.00  0.00     0.000 HD 
BRANCH   9  11
HETATM   11  C   UNL     1     -10.477  10.659  67.328  1.00  0.00    -0.246 A  
HETATM   12  N   UNL     1     -11.756  11.003  67.534  1.00  0.00    -0.547 NA 
HETATM   13  N   UNL     1      -9.436  11.396  67.771  1.00  0.00    -0.162 NA 
HETATM   14  C   UNL     1      -9.683  12.545  68.452  1.00  0.00    -0.189 A  
HETATM   15  F   UNL     1     -11.277  13.993  69.492  1.00  0.00    -0.260 F  
HETATM   16  C   UNL     1     -11.977  12.130  68.244  1.00  0.00    -0.187 A  
HETATM   17  C   UNL     1     -10.974  12.917  68.756  1.00  0.00    -0.254 A  
BRANCH  14  18
HETATM   18  N   UNL     1      -8.543  13.250  68.876  1.00  0.00    -0.360 NA 
HETATM   19  H   UNL     1      -7.866  12.679  69.382  1.00  0.00     0.000 HD 
BRANCH  18  20
HETATM   20  C   UNL     1      -8.163  14.604  68.730  1.00  0.00    -0.156 A  
HETATM   21  N   UNL     1      -8.900  15.496  68.034  1.00  0.00    -0.164 NA 
HETATM   22  C   UNL     1      -8.514  16.808  67.999  1.00  0.00    -0.205 A  
HETATM   23  C   UNL     1      -7.328  17.248  68.581  1.00  0.00    -0.238 A  
HETATM   24  O   UNL     1      -6.843  18.526  68.478  1.00  0.00    -0.245 OA 
HETATM   25  C   UNL     1      -6.566  16.334  69.290  1.00  0.00    -0.197 A  
HETATM   26  C   UNL     1      -7.408  19.259  67.393  1.00  0.00    -0.228 C  
HETATM   27  C   UNL     1      -6.984  15.006  69.361  1.00  0.00    -0.172 A  
HETATM   28  C   UNL     1      -8.934  19.111  67.300  1.00  0.00    -0.295 C  
HETATM   29  C   UNL     1      -7.035  20.736  67.557  1.00  0.00    -0.406 C  
HETATM   30  C   UNL     1      -6.847  18.761  66.037  1.00  0.00    -0.289 C  
HETATM   31  N   UNL     1      -9.345  17.792  67.397  1.00  0.00    -0.250 N  
HETATM   32  O   UNL     1      -9.688  20.030  66.985  1.00  0.00    -0.366 OA 
BRANCH  31  33
HETATM   33  C   UNL     1     -10.541  17.451  66.702  1.00  0.00    -0.182 C  
BRANCH  33  34
HETATM   34  O   UNL     1     -10.220  16.811  65.509  1.00  0.00    -0.567 OA 
HETATM   35  P   UNL     1     -11.377  15.567  65.179  1.00  0.00    -0.116 P  
HETATM   36  O   UNL     1     -10.050  14.720  64.743  1.00  0.00    -0.308 OA 
HETATM   37  O   UNL     1     -11.591  16.363  63.770  1.00  0.00    -1.055 OA 
HETATM   38  O   UNL     1     -12.412  14.455  64.884  1.00  0.00    -0.487 OA 
ENDBRANCH  33  34
ENDBRANCH  31  33
ENDBRANCH  18  20
ENDBRANCH  14  18
ENDBRANCH   9  11
ENDBRANCH   5   9
BRANCH   7  39
HETATM   39  O   UNL     1      -8.308   5.366  65.471  1.00  0.00    -0.121 OA 
HETATM   40  C   UNL     1      -8.991   4.795  64.367  1.00  0.00    -0.117 C  
ENDBRANCH   7  39
BRANCH   8  41
HETATM   41  O   UNL     1      -9.050   4.161  67.970  1.00  0.00    -0.118 OA 
HETATM   42  C   UNL     1      -7.687   3.819  68.145  1.00  0.00    -0.065 C  
ENDBRANCH   8  41
ENDBRANCH   2   3
TORSDOF 9
ENDMDL
MODEL       59
REMARK 921   NORMALIZED FREE ENERGY PREDICTED BY IDOCK:   -6.40 KCAL/MOL
REMARK 922        TOTAL FREE ENERGY PREDICTED BY IDOCK:  -11.63 KCAL/MOL
REMARK 923 INTER-LIGAND FREE ENERGY PREDICTED BY IDOCK:  -10.53 KCAL/MOL
REMARK 924 INTRA-LIGAND FREE ENERGY PREDICTED BY IDOCK:   -1.10 KCAL/MOL
REMARK 927      BINDING AFFINITY PREDICTED BY RF-SCORE:    0.00 PKD
ROOT
HETATM    1  C   UNL     1      -6.379  14.360  67.624  1.00  0.00    -0.106 C  
HETATM    2  O   UNL     1      -6.308  15.722  67.194  1.00  0.00    -0.305 OA 
ENDROOT
BRANCH   2   3
HETATM    3  C   UNL     1      -7.519  16.367  67.146  1.00  0.00    -0.192 A  
HETATM    4  C   UNL     1      -8.546  15.854  66.332  1.00  0.00    -0.364 A  
HETATM    5  C   UNL     1      -9.756  16.512  66.151  1.00  0.00    -0.317 A  
HETATM    6  C   UNL     1      -9.926  17.706  66.855  1.00  0.00    -0.323 A  
HETATM    7  C   UNL     1      -8.954  18.219  67.730  1.00  0.00    -0.267 A  
HETATM    8  C   UNL     1      -7.737  17.528  67.914  1.00  0.00    -0.213 A  
BRANCH   5   9
HETATM    9  N   UNL     1     -10.766  16.050  65.300  1.00  0.00    -0.451 NA 
HETATM   10  H   UNL     1     -11.302  16.802  64.868  1.00  0.00     0.000 HD 
BRANCH   9  11
HETATM   11  C   UNL     1     -11.195  14.779  64.917  1.00  0.00    -0.406 A  
HETATM   12  N   UNL     1     -12.096  14.784  63.924  1.00  0.00    -0.460 NA 
HETATM   13  N   UNL     1     -10.743  13.646  65.494  1.00  0.00    -0.288 NA 
HETATM   14  C   UNL     1     -11.218  12.449  65.062  1.00  0.00    -0.312 A  
HETATM   15  F   UNL     1     -12.532  11.232  63.477  1.00  0.00    -0.343 F  
HETATM   16  C   UNL     1     -12.528  13.582  63.487  1.00  0.00    -0.161 A  
HETATM   17  C   UNL     1     -12.092  12.383  64.000  1.00  0.00    -0.475 A  
BRANCH  14  18
HETATM   18  N   UNL     1     -10.693  11.322  65.717  1.00  0.00    -0.250 NA 
HETATM   19  H   UNL     1     -10.100  10.737  65.128  1.00  0.00     0.000 HD 
BRANCH  18  20
HETATM   20  C   UNL     1     -10.836  10.849  67.042  1.00  0.00    -0.266 A  
HETATM   21  N   UNL     1     -10.305   9.678  67.457  1.00  0.00    -0.225 NA 
HETATM   22  C   UNL     1     -10.414   9.318  68.773  1.00  0.00    -0.210 A  
HETATM   23  C   UNL     1     -11.138  10.074  69.691  1.00  0.00    -0.259 A  
HETATM   24  O   UNL     1     -11.369   9.700  70.990  1.00  0.00    -0.312 OA 
HETATM   25  C   UNL     1     -11.689  11.272  69.267  1.00  0.00    -0.403 A  
HETATM   26  C   UNL     1     -11.186   8.304  71.217  1.00  0.00    -0.259 C  
HETATM   27  C   UNL     1     -11.539  11.658  67.936  1.00  0.00    -0.369 A  
HETATM   28  C   UNL     1      -9.899   7.758  70.581  1.00  0.00    -0.182 C  
HETATM   29  C   UNL     1     -11.168   8.056  72.729  1.00  0.00    -0.448 C  
HETATM   30  C   UNL     1     -12.349   7.486  70.601  1.00  0.00    -0.018 C  
HETATM   31  N   UNL     1      -9.744   8.166  69.267  1.00  0.00    -0.168 N  
HETATM   32  O   UNL     1      -9.189   6.904  71.110  1.00  0.00    -0.154 OA 
BRANCH  31  33
HETATM   33  C   UNL     1      -9.040   7.273  68.408  1.00  0.00    -0.135 C  
BRANCH  33  34
HETATM   34  O   UNL     1      -9.880   6.230  68.031  1.00  0.00    -0.120 OA 
HETATM   35  P   UNL     1      -8.945   4.809  67.710  1.00  0.00    -0.120 P  
HETATM   36  O   UNL     1      -9.966   4.662  66.442  1.00  0.00    -0.200 OA 
HETATM   37  O   UNL     1      -9.906   4.118  68.834  1.00  0.00    -0.139 OA 
HETATM   38  O   UNL     1      -8.109   3.538  67.423  1.00  0.00    -0.081 OA 
ENDBRANCH  33  34
ENDBRANCH  31  33
ENDBRANCH  18  20
ENDBRANCH  14  18
ENDBRANCH   9  11
ENDBRANCH   5   9
BRANCH   7  39
HETATM   39  O   UNL     1      -9.345  19.423  68.266  1.00  0.00    -0.323 OA 
HETATM   40  C   UNL     1      -9.843  20.451  67.424  1.00  0.00    -0.446 C  
ENDBRANCH   7  39
BRANCH   8  41
HETATM   41  O   UNL     1      -6.897  18.043  68.859  1.00  0.00    -0.239 OA 
HETATM   42  C   UNL     1      -5.867  18.971  68.564  1.00  0.00    -0.216 C  
ENDBRANCH   8  41
ENDBRANCH   2   3
TORSDOF 9
ENDMDL
MODEL       60
REMARK 921   NORMALIZED FREE ENERGY PREDICTED BY IDOCK:   -6.40 KCAL/MOL
REMARK 922        TOTAL FREE ENERGY PREDICTED BY IDOCK:  -11.63 KCAL/MOL
REMARK 923 INTER-LIGAND FREE ENERGY PREDICTED BY IDOCK:   -9.55 KCAL/MOL
REMARK 924 INTRA-LIGAND FREE ENERGY PREDICTED BY IDOCK:   -2.08 KCAL/MOL
REMARK 927      BINDING AFFINITY PREDICTED BY RF-SCORE:    0.00 PKD
ROOT
HETATM    1  C   UNL     1      -6.438   6.138  72.707  1.00  0.00    -0.064 C  
HETATM    2  O   UNL     1      -6.649   5.176  71.670  1.00  0.00    -0.034 OA 
ENDROOT
BRANCH   2   3
HETATM    3  C   UNL     1      -7.542   5.568  70.704  1.00  0.00    -0.089 A  
HETATM    4  C   UNL     1      -8.132   6.843  70.780  1.00  0.00    -0.114 A  
HETATM    5  C   UNL     1      -9.122   7.264  69.901  1.00  0.00    -0.141 A  
HETATM    6  C   UNL     1      -9.485   6.363  68.897  1.00  0.00    -0.128 A  
HETATM    7  C   UNL     1      -8.875   5.107  68.743  1.00  0.00    -0.093 A  
HETATM    8  C   UNL     1      -7.859   4.704  69.636  1.00  0.00    -0.065 A  
BRANCH   5   9
HETATM    9  N   UNL     1      -9.763   8.503  69.996  1.00  0.00    -0.168 NA 
HETATM   10  H   UNL     1      -9.260   9.253  69.523  1.00  0.00     0.000 HD 
BRANCH   9  11
HETATM   11  C   UNL     1     -10.946   8.930  70.602  1.00  0.00    -0.241 A  
HETATM   12  N   UNL     1     -11.673   7.940  71.138  1.00  0.00    -0.284 NA 
HETATM   13  N   UNL     1     -11.322  10.226  70.644  1.00  0.00    -0.333 NA 
HETATM   14  C   UNL     1     -12.493  10.555  71.250  1.00  0.00    -0.419 A  
HETATM   15  F   UNL     1     -14.369   9.865  72.563  1.00  0.00    -0.195 F  
HETATM   16  C   UNL     1     -12.814   8.294  71.766  1.00  0.00    -0.338 A  
HETATM   17  C   UNL     1     -13.250   9.592  71.880  1.00  0.00    -0.446 A  
BRANCH  14  18
HETATM   18  N   UNL     1     -12.807  11.925  71.248  1.00  0.00    -0.351 NA 
HETATM   19  H   UNL     1     -13.488  12.195  71.958  1.00  0.00     0.000 HD 
BRANCH  18  20
HETATM   20  C   UNL     1     -12.355  12.996  70.445  1.00  0.00    -0.277 A  
HETATM   21  N   UNL     1     -12.044  12.845  69.140  1.00  0.00    -0.231 NA 
HETATM   22  C   UNL     1     -11.687  13.940  68.401  1.00  0.00    -0.356 A  
HETATM   23  C   UNL     1     -11.540  15.203  68.970  1.00  0.00    -0.330 A  
HETATM   24  O   UNL     1     -11.078  16.305  68.298  1.00  0.00    -0.341 OA 
HETATM   25  C   UNL     1     -11.852  15.360  70.310  1.00  0.00    -0.368 A  
HETATM   26  C   UNL     1     -10.362  15.982  67.108  1.00  0.00    -0.295 C  
HETATM   27  C   UNL     1     -12.257  14.250  71.050  1.00  0.00    -0.428 A  
HETATM   28  C   UNL     1     -11.071  14.923  66.251  1.00  0.00    -0.340 C  
HETATM   29  C   UNL     1     -10.166  17.267  66.295  1.00  0.00    -0.347 C  
HETATM   30  C   UNL     1      -8.966  15.398  67.442  1.00  0.00    -0.202 C  
HETATM   31  N   UNL     1     -11.494  13.836  66.997  1.00  0.00    -0.329 N  
HETATM   32  O   UNL     1     -11.092  14.946  65.021  1.00  0.00    -0.368 OA 
BRANCH  31  33
HETATM   33  C   UNL     1     -11.539  12.584  66.317  1.00  0.00    -0.394 C  
BRANCH  33  34
HETATM   34  O   UNL     1     -10.285  11.984  66.361  1.00  0.00    -0.210 OA 
HETATM   35  P   UNL     1     -10.457  10.276  66.583  1.00  0.00    -0.113 P  
HETATM   36  O   UNL     1      -9.209  10.483  67.617  1.00  0.00    -0.144 OA 
HETATM   37  O   UNL     1      -9.578  10.173  65.210  1.00  0.00    -0.232 OA 
HETATM   38  O   UNL     1     -10.611   8.749  66.781  1.00  0.00    -0.258 OA 
ENDBRANCH  33  34
ENDBRANCH  31  33
ENDBRANCH  18  20
ENDBRANCH  14  18
ENDBRANCH   9  11
ENDBRANCH   5   9
BRANCH   7  39
HETATM   39  O   UNL     1      -9.438   4.398  67.710  1.00  0.00    -0.144 OA 
HETATM   40  C   UNL     1     -10.085   5.077  66.647  1.00  0.00    -0.245 C  
ENDBRANCH   7  39
BRANCH   8  41
HETATM   41  O   UNL     1      -7.251   3.515  69.350  1.00  0.00    -0.048 OA 
HETATM   42  C   UNL     1      -7.654   2.278  69.912  1.00  0.00    -0.043 C  
ENDBRANCH   8  41
ENDBRANCH   2   3
TORSDOF 9
ENDMDL
MODEL       61
REMARK 921   NORMALIZED FREE ENERGY PREDICTED BY IDOCK:   -6.39 KCAL/MOL
REMARK 922        TOTAL FREE ENERGY PREDICTED BY IDOCK:  -11.62 KCAL/MOL
REMARK 923 INTER-LIGAND FREE ENERGY PREDICTED BY IDOCK:  -10.53 KCAL/MOL
REMARK 924 INTRA-LIGAND FREE ENERGY PREDICTED BY IDOCK:   -1.09 KCAL/MOL
REMARK 927      BINDING AFFINITY PREDICTED BY RF-SCORE:    0.00 PKD
ROOT
HETATM    1  C   UNL     1      -9.393   6.070  71.453  1.00  0.00    -0.146 C  
HETATM    2  O   UNL     1      -9.066   5.035  70.521  1.00  0.00    -0.130 OA 
ENDROOT
BRANCH   2   3
HETATM    3  C   UNL     1      -9.336   5.344  69.211  1.00  0.00    -0.120 A  
HETATM    4  C   UNL     1      -9.429   6.692  68.821  1.00  0.00    -0.129 A  
HETATM    5  C   UNL     1      -9.804   7.077  67.540  1.00  0.00    -0.148 A  
HETATM    6  C   UNL     1     -10.054   6.046  66.630  1.00  0.00    -0.226 A  
HETATM    7  C   UNL     1      -9.907   4.688  66.958  1.00  0.00    -0.205 A  
HETATM    8  C   UNL     1      -9.508   4.317  68.260  1.00  0.00    -0.154 A  
BRANCH   5   9
HETATM    9  N   UNL     1      -9.961   8.410  67.148  1.00  0.00    -0.212 NA 
HETATM   10  H   UNL     1      -9.490   8.630  66.272  1.00  0.00     0.000 HD 
BRANCH   9  11
HETATM   11  C   UNL     1     -10.627   9.504  67.703  1.00  0.00    -0.269 A  
HETATM   12  N   UNL     1     -10.880   9.381  69.014  1.00  0.00    -0.181 NA 
HETATM   13  N   UNL     1     -10.981  10.590  66.984  1.00  0.00    -0.227 NA 
HETATM   14  C   UNL     1     -11.631  11.610  67.603  1.00  0.00    -0.279 A  
HETATM   15  F   UNL     1     -12.422  12.580  69.642  1.00  0.00    -0.217 F  
HETATM   16  C   UNL     1     -11.495  10.421  69.615  1.00  0.00    -0.262 A  
HETATM   17  C   UNL     1     -11.860  11.573  68.961  1.00  0.00    -0.343 A  
BRANCH  14  18
HETATM   18  N   UNL     1     -11.963  12.700  66.781  1.00  0.00    -0.519 NA 
HETATM   19  H   UNL     1     -12.811  12.563  66.232  1.00  0.00     0.000 HD 
BRANCH  18  20
HETATM   20  C   UNL     1     -11.337  13.951  66.575  1.00  0.00    -0.331 A  
HETATM   21  N   UNL     1     -10.871  14.707  67.592  1.00  0.00    -0.277 NA 
HETATM   22  C   UNL     1     -10.206  15.871  67.316  1.00  0.00    -0.278 A  
HETATM   23  C   UNL     1     -10.070  16.358  66.019  1.00  0.00    -0.353 A  
HETATM   24  O   UNL     1      -9.512  17.570  65.702  1.00  0.00    -0.498 OA 
HETATM   25  C   UNL     1     -10.552  15.588  64.974  1.00  0.00    -0.435 A  
HETATM   26  C   UNL     1      -9.468  18.476  66.802  1.00  0.00    -0.301 C  
HETATM   27  C   UNL     1     -11.192  14.381  65.255  1.00  0.00    -0.345 A  
HETATM   28  C   UNL     1      -8.961  17.823  68.097  1.00  0.00    -0.271 C  
HETATM   29  C   UNL     1      -8.565  19.655  66.424  1.00  0.00    -0.390 C  
HETATM   30  C   UNL     1     -10.880  19.026  67.125  1.00  0.00    -0.473 C  
HETATM   31  N   UNL     1      -9.581  16.612  68.356  1.00  0.00    -0.226 N  
HETATM   32  O   UNL     1      -8.233  18.394  68.907  1.00  0.00    -0.272 OA 
BRANCH  31  33
HETATM   33  C   UNL     1      -9.719  16.256  69.728  1.00  0.00     0.082 C  
BRANCH  33  34
HETATM   34  O   UNL     1     -10.966  16.662  70.193  1.00  0.00    -0.321 OA 
HETATM   35  P   UNL     1     -11.632  15.446  71.229  1.00  0.00    -0.447 P  
HETATM   36  O   UNL     1     -13.011  15.795  70.425  1.00  0.00    -0.409 OA 
HETATM   37  O   UNL     1     -11.716  16.655  72.324  1.00  0.00    -0.460 OA 
HETATM   38  O   UNL     1     -12.228  14.359  72.156  1.00  0.00    -0.271 OA 
ENDBRANCH  33  34
ENDBRANCH  31  33
ENDBRANCH  18  20
ENDBRANCH  14  18
ENDBRANCH   9  11
ENDBRANCH   5   9
BRANCH   7  39
HETATM   39  O   UNL     1     -10.251   3.876  65.904  1.00  0.00    -0.084 OA 
HETATM   40  C   UNL     1      -9.785   4.168  64.597  1.00  0.00    -0.174 C  
ENDBRANCH   7  39
BRANCH   8  41
HETATM   41  O   UNL     1      -9.292   2.984  68.460  1.00  0.00    -0.171 OA 
HETATM   42  C   UNL     1      -8.152   2.298  67.973  1.00  0.00    -0.058 C  
ENDBRANCH   8  41
ENDBRANCH   2   3
TORSDOF 9
ENDMDL
MODEL       62
REMARK 921   NORMALIZED FREE ENERGY PREDICTED BY IDOCK:   -6.33 KCAL/MOL
REMARK 922        TOTAL FREE ENERGY PREDICTED BY IDOCK:  -11.52 KCAL/MOL
REMARK 923 INTER-LIGAND FREE ENERGY PREDICTED BY IDOCK:   -9.95 KCAL/MOL
REMARK 924 INTRA-LIGAND FREE ENERGY PREDICTED BY IDOCK:   -1.58 KCAL/MOL
REMARK 927      BINDING AFFINITY PREDICTED BY RF-SCORE:    0.00 PKD
ROOT
HETATM    1  C   UNL     1      -9.729  20.281  66.937  1.00  0.00    -0.444 C  
HETATM    2  O   UNL     1      -9.857  19.212  65.997  1.00  0.00    -0.417 OA 
ENDROOT
BRANCH   2   3
HETATM    3  C   UNL     1      -9.730  17.957  66.540  1.00  0.00    -0.329 A  
HETATM    4  C   UNL     1     -10.832  17.366  67.185  1.00  0.00    -0.090 A  
HETATM    5  C   UNL     1     -10.746  16.149  67.849  1.00  0.00    -0.321 A  
HETATM    6  C   UNL     1      -9.504  15.509  67.815  1.00  0.00    -0.204 A  
HETATM    7  C   UNL     1      -8.397  16.031  67.126  1.00  0.00    -0.199 A  
HETATM    8  C   UNL     1      -8.509  17.261  66.442  1.00  0.00    -0.269 A  
BRANCH   5   9
HETATM    9  N   UNL     1     -11.812  15.573  68.548  1.00  0.00    -0.501 NA 
HETATM   10  H   UNL     1     -12.628  16.181  68.608  1.00  0.00     0.000 HD 
BRANCH   9  11
HETATM   11  C   UNL     1     -11.995  14.343  69.181  1.00  0.00    -0.322 A  
HETATM   12  N   UNL     1     -12.264  14.439  70.491  1.00  0.00    -0.318 NA 
HETATM   13  N   UNL     1     -11.910  13.163  68.532  1.00  0.00    -0.340 NA 
HETATM   14  C   UNL     1     -12.098  12.011  69.227  1.00  0.00    -0.190 A  
HETATM   15  F   UNL     1     -12.722  10.949  71.277  1.00  0.00    -0.412 F  
HETATM   16  C   UNL     1     -12.482  13.284  71.154  1.00  0.00    -0.308 A  
HETATM   17  C   UNL     1     -12.445  12.045  70.560  1.00  0.00    -0.207 A  
BRANCH  14  18
HETATM   18  N   UNL     1     -11.991  10.829  68.474  1.00  0.00    -0.793 NA 
HETATM   19  H   UNL     1     -12.878  10.497  68.095  1.00  0.00     0.000 HD 
BRANCH  18  20
HETATM   20  C   UNL     1     -10.883  10.017  68.145  1.00  0.00    -0.255 A  
HETATM   21  N   UNL     1     -10.232   9.268  69.061  1.00  0.00    -0.200 NA 
HETATM   22  C   UNL     1      -9.216   8.444  68.660  1.00  0.00    -0.143 A  
HETATM   23  C   UNL     1      -8.760   8.415  67.344  1.00  0.00    -0.135 A  
HETATM   24  O   UNL     1      -7.676   7.692  66.918  1.00  0.00    -0.099 OA 
HETATM   25  C   UNL     1      -9.421   9.186  66.403  1.00  0.00    -0.288 A  
HETATM   26  C   UNL     1      -6.799   7.312  67.975  1.00  0.00    -0.070 C  
HETATM   27  C   UNL     1     -10.484   9.993  66.807  1.00  0.00    -0.267 A  
HETATM   28  C   UNL     1      -7.540   6.749  69.196  1.00  0.00    -0.100 C  
HETATM   29  C   UNL     1      -5.812   6.270  67.436  1.00  0.00    -0.016 C  
HETATM   30  C   UNL     1      -5.990   8.530  68.489  1.00  0.00    -0.045 C  
HETATM   31  N   UNL     1      -8.611   7.541  69.576  1.00  0.00    -0.133 N  
HETATM   32  O   UNL     1      -7.121   5.812  69.874  1.00  0.00    -0.063 OA 
BRANCH  31  33
HETATM   33  C   UNL     1      -8.938   7.535  70.963  1.00  0.00    -0.147 C  
BRANCH  33  34
HETATM   34  O   UNL     1      -9.912   6.572  71.208  1.00  0.00    -0.181 OA 
HETATM   35  P   UNL     1     -11.278   7.301  71.982  1.00  0.00    -0.273 P  
HETATM   36  O   UNL     1     -11.236   5.946  72.895  1.00  0.00    -0.267 OA 
HETATM   37  O   UNL     1     -12.116   6.682  70.726  1.00  0.00    -0.385 OA 
HETATM   38  O   UNL     1     -12.499   7.952  72.675  1.00  0.00    -0.163 OA 
ENDBRANCH  33  34
ENDBRANCH  31  33
ENDBRANCH  18  20
ENDBRANCH  14  18
ENDBRANCH   9  11
ENDBRANCH   5   9
BRANCH   7  39
HETATM   39  O   UNL     1      -7.288  15.235  67.280  1.00  0.00    -0.199 OA 
HETATM   40  C   UNL     1      -7.072  14.539  68.497  1.00  0.00    -0.114 C  
ENDBRANCH   7  39
BRANCH   8  41
HETATM   41  O   UNL     1      -7.417  17.640  65.716  1.00  0.00    -0.512 OA 
HETATM   42  C   UNL     1      -6.536  18.676  66.114  1.00  0.00    -0.225 C  
ENDBRANCH   8  41
ENDBRANCH   2   3
TORSDOF 9
ENDMDL
MODEL       63
REMARK 921   NORMALIZED FREE ENERGY PREDICTED BY IDOCK:   -6.33 KCAL/MOL
REMARK 922        TOTAL FREE ENERGY PREDICTED BY IDOCK:  -11.52 KCAL/MOL
REMARK 923 INTER-LIGAND FREE ENERGY PREDICTED BY IDOCK:   -9.98 KCAL/MOL
REMARK 924 INTRA-LIGAND FREE ENERGY PREDICTED BY IDOCK:   -1.54 KCAL/MOL
REMARK 927      BINDING AFFINITY PREDICTED BY RF-SCORE:    0.00 PKD
ROOT
HETATM    1  C   UNL     1      -7.753   4.432  71.287  1.00  0.00    -0.079 C  
HETATM    2  O   UNL     1      -9.049   4.351  71.887  1.00  0.00    -0.121 OA 
ENDROOT
BRANCH   2   3
HETATM    3  C   UNL     1     -10.013   5.102  71.262  1.00  0.00    -0.192 A  
HETATM    4  C   UNL     1     -10.114   5.073  69.859  1.00  0.00    -0.344 A  
HETATM    5  C   UNL     1     -10.992   5.887  69.154  1.00  0.00    -0.312 A  
HETATM    6  C   UNL     1     -11.811   6.723  69.916  1.00  0.00    -0.208 A  
HETATM    7  C   UNL     1     -11.791   6.736  71.321  1.00  0.00    -0.348 A  
HETATM    8  C   UNL     1     -10.904   5.889  72.020  1.00  0.00    -0.252 A  
BRANCH   5   9
HETATM    9  N   UNL     1     -11.066   5.916  67.757  1.00  0.00    -0.313 NA 
HETATM   10  H   UNL     1     -12.023   5.936  67.406  1.00  0.00     0.000 HD 
BRANCH   9  11
HETATM   11  C   UNL     1     -10.108   5.925  66.743  1.00  0.00    -0.192 A  
HETATM   12  N   UNL     1      -9.786   4.707  66.286  1.00  0.00    -0.203 NA 
HETATM   13  N   UNL     1      -9.555   7.060  66.265  1.00  0.00    -0.092 NA 
HETATM   14  C   UNL     1      -8.625   6.978  65.278  1.00  0.00     0.014 A  
HETATM   15  F   UNL     1      -7.455   5.624  63.691  1.00  0.00    -0.049 F  
HETATM   16  C   UNL     1      -8.886   4.652  65.282  1.00  0.00    -0.145 A  
HETATM   17  C   UNL     1      -8.303   5.761  64.719  1.00  0.00    -0.116 A  
BRANCH  14  18
HETATM   18  N   UNL     1      -8.102   8.206  64.840  1.00  0.00    -0.148 NA 
HETATM   19  H   UNL     1      -7.104   8.183  64.632  1.00  0.00     0.000 HD 
BRANCH  18  20
HETATM   20  C   UNL     1      -8.705   9.468  64.633  1.00  0.00    -0.205 A  
HETATM   21  N   UNL     1      -8.919  10.345  65.637  1.00  0.00    -0.168 NA 
HETATM   22  C   UNL     1      -9.435  11.581  65.355  1.00  0.00    -0.198 A  
HETATM   23  C   UNL     1      -9.839  11.940  64.071  1.00  0.00    -0.233 A  
HETATM   24  O   UNL     1     -10.462  13.121  63.759  1.00  0.00    -0.281 OA 
HETATM   25  C   UNL     1      -9.625  11.041  63.040  1.00  0.00    -0.386 A  
HETATM   26  C   UNL     1     -11.048  13.766  64.887  1.00  0.00    -0.362 C  
HETATM   27  C   UNL     1      -9.060   9.799  63.324  1.00  0.00    -0.267 A  
HETATM   28  C   UNL     1     -10.117  13.803  66.107  1.00  0.00    -0.307 C  
HETATM   29  C   UNL     1     -11.437  15.192  64.483  1.00  0.00    -0.319 C  
HETATM   30  C   UNL     1     -12.328  13.022  65.347  1.00  0.00    -0.538 C  
HETATM   31  N   UNL     1      -9.537  12.572  66.368  1.00  0.00    -0.245 N  
HETATM   32  O   UNL     1     -10.041  14.760  66.877  1.00  0.00    -0.241 OA 
BRANCH  31  33
HETATM   33  C   UNL     1      -9.231  12.296  67.732  1.00  0.00    -0.191 C  
BRANCH  33  34
HETATM   34  O   UNL     1     -10.013  11.236  68.180  1.00  0.00    -0.170 OA 
HETATM   35  P   UNL     1     -11.202  11.813  69.298  1.00  0.00    -0.211 P  
HETATM   36  O   UNL     1     -10.799  10.461  70.122  1.00  0.00    -0.283 OA 
HETATM   37  O   UNL     1     -12.267  11.124  68.271  1.00  0.00    -0.613 OA 
HETATM   38  O   UNL     1     -12.265  12.329  70.297  1.00  0.00    -0.319 OA 
ENDBRANCH  33  34
ENDBRANCH  31  33
ENDBRANCH  18  20
ENDBRANCH  14  18
ENDBRANCH   9  11
ENDBRANCH   5   9
BRANCH   7  39
HETATM   39  O   UNL     1     -12.659   7.673  71.828  1.00  0.00    -0.314 OA 
HETATM   40  C   UNL     1     -14.058   7.516  71.659  1.00  0.00    -0.440 C  
ENDBRANCH   7  39
BRANCH   8  41
HETATM   41  O   UNL     1     -11.024   5.892  73.380  1.00  0.00    -0.260 OA 
HETATM   42  C   UNL     1     -10.178   6.638  74.236  1.00  0.00    -0.326 C  
ENDBRANCH   8  41
ENDBRANCH   2   3
TORSDOF 9
ENDMDL
MODEL       64
REMARK 921   NORMALIZED FREE ENERGY PREDICTED BY IDOCK:   -6.32 KCAL/MOL
REMARK 922        TOTAL FREE ENERGY PREDICTED BY IDOCK:  -11.51 KCAL/MOL
REMARK 923 INTER-LIGAND FREE ENERGY PREDICTED BY IDOCK:  -10.17 KCAL/MOL
REMARK 924 INTRA-LIGAND FREE ENERGY PREDICTED BY IDOCK:   -1.35 KCAL/MOL
REMARK 927      BINDING AFFINITY PREDICTED BY RF-SCORE:    0.00 PKD
ROOT
HETATM    1  C   UNL     1     -13.194   8.879  72.043  1.00  0.00    -0.409 C  
HETATM    2  O   UNL     1     -12.310   7.993  72.734  1.00  0.00    -0.205 OA 
ENDROOT
BRANCH   2   3
HETATM    3  C   UNL     1     -11.685   7.072  71.930  1.00  0.00    -0.296 A  
HETATM    4  C   UNL     1     -11.761   7.207  70.531  1.00  0.00    -0.314 A  
HETATM    5  C   UNL     1     -11.246   6.257  69.658  1.00  0.00    -0.437 A  
HETATM    6  C   UNL     1     -10.606   5.160  70.241  1.00  0.00    -0.230 A  
HETATM    7  C   UNL     1     -10.449   5.019  71.630  1.00  0.00    -0.162 A  
HETATM    8  C   UNL     1     -10.964   6.004  72.500  1.00  0.00    -0.260 A  
BRANCH   5   9
HETATM    9  N   UNL     1     -11.364   6.342  68.267  1.00  0.00    -0.520 NA 
HETATM   10  H   UNL     1     -12.320   6.509  67.954  1.00  0.00     0.000 HD 
BRANCH   9  11
HETATM   11  C   UNL     1     -10.450   6.247  67.217  1.00  0.00    -0.254 A  
HETATM   12  N   UNL     1     -10.197   4.990  66.826  1.00  0.00    -0.236 NA 
HETATM   13  N   UNL     1      -9.875   7.326  66.644  1.00  0.00    -0.205 NA 
HETATM   14  C   UNL     1      -8.992   7.143  65.629  1.00  0.00     0.055 A  
HETATM   15  F   UNL     1      -7.946   5.644  64.086  1.00  0.00    -0.093 F  
HETATM   16  C   UNL     1      -9.344   4.834  65.792  1.00  0.00    -0.161 A  
HETATM   17  C   UNL     1      -8.742   5.881  65.136  1.00  0.00    -0.036 A  
BRANCH  14  18
HETATM   18  N   UNL     1      -8.440   8.318  65.091  1.00  0.00    -0.250 NA 
HETATM   19  H   UNL     1      -7.465   8.227  64.805  1.00  0.00     0.000 HD 
BRANCH  18  20
HETATM   20  C   UNL     1      -8.987   9.604  64.874  1.00  0.00    -0.217 A  
HETATM   21  N   UNL     1      -9.117  10.515  65.862  1.00  0.00    -0.162 NA 
HETATM   22  C   UNL     1      -9.582  11.768  65.567  1.00  0.00    -0.201 A  
HETATM   23  C   UNL     1     -10.018  12.115  64.291  1.00  0.00    -0.235 A  
HETATM   24  O   UNL     1     -10.595  13.318  63.971  1.00  0.00    -0.373 OA 
HETATM   25  C   UNL     1      -9.892  11.180  63.277  1.00  0.00    -0.415 A  
HETATM   26  C   UNL     1     -11.102  14.020  65.104  1.00  0.00    -0.341 C  
HETATM   27  C   UNL     1      -9.378   9.919  63.572  1.00  0.00    -0.231 A  
HETATM   28  C   UNL     1     -10.121  14.040  66.285  1.00  0.00    -0.300 C  
HETATM   29  C   UNL     1     -11.435  15.453  64.677  1.00  0.00    -0.339 C  
HETATM   30  C   UNL     1     -12.397  13.354  65.634  1.00  0.00    -0.521 C  
HETATM   31  N   UNL     1      -9.593  12.788  66.556  1.00  0.00    -0.254 N  
HETATM   32  O   UNL     1      -9.967  15.010  67.025  1.00  0.00    -0.238 OA 
BRANCH  31  33
HETATM   33  C   UNL     1      -9.246  12.531  67.914  1.00  0.00    -0.200 C  
BRANCH  33  34
HETATM   34  O   UNL     1     -10.011  11.475  68.399  1.00  0.00    -0.194 OA 
HETATM   35  P   UNL     1     -11.363  12.089  69.289  1.00  0.00    -0.228 P  
HETATM   36  O   UNL     1     -10.984  10.879  70.319  1.00  0.00    -0.197 OA 
HETATM   37  O   UNL     1     -12.248  11.204  68.241  1.00  0.00    -0.613 OA 
HETATM   38  O   UNL     1     -12.572  12.638  70.085  1.00  0.00    -0.067 OA 
ENDBRANCH  33  34
ENDBRANCH  31  33
ENDBRANCH  18  20
ENDBRANCH  14  18
ENDBRANCH   9  11
ENDBRANCH   5   9
BRANCH   7  39
HETATM   39  O   UNL     1      -9.823   3.838  71.947  1.00  0.00    -0.164 OA 
HETATM   40  C   UNL     1      -9.011   3.180  70.989  1.00  0.00    -0.097 C  
ENDBRANCH   7  39
BRANCH   8  41
HETATM   41  O   UNL     1     -10.675   5.838  73.824  1.00  0.00    -0.270 OA 
HETATM   42  C   UNL     1      -9.806   6.693  74.546  1.00  0.00    -0.297 C  
ENDBRANCH   8  41
ENDBRANCH   2   3
TORSDOF 9
ENDMDL
MODEL       65
REMARK 921   NORMALIZED FREE ENERGY PREDICTED BY IDOCK:   -6.29 KCAL/MOL
REMARK 922        TOTAL FREE ENERGY PREDICTED BY IDOCK:  -11.46 KCAL/MOL
REMARK 923 INTER-LIGAND FREE ENERGY PREDICTED BY IDOCK:   -9.47 KCAL/MOL
REMARK 924 INTRA-LIGAND FREE ENERGY PREDICTED BY IDOCK:   -1.99 KCAL/MOL
REMARK 927      BINDING AFFINITY PREDICTED BY RF-SCORE:    0.00 PKD
ROOT
HETATM    1  C   UNL     1     -14.383  14.921  71.823  1.00  0.00    -0.578 C  
HETATM    2  O   UNL     1     -12.997  14.573  71.864  1.00  0.00    -0.312 OA 
ENDROOT
BRANCH   2   3
HETATM    3  C   UNL     1     -12.671  13.450  71.142  1.00  0.00    -0.328 A  
HETATM    4  C   UNL     1     -12.989  12.180  71.656  1.00  0.00    -0.427 A  
HETATM    5  C   UNL     1     -12.595  11.001  71.035  1.00  0.00    -0.411 A  
HETATM    6  C   UNL     1     -11.889  11.136  69.837  1.00  0.00    -0.439 A  
HETATM    7  C   UNL     1     -11.608  12.384  69.255  1.00  0.00    -0.319 A  
HETATM    8  C   UNL     1     -12.032  13.570  69.892  1.00  0.00    -0.348 A  
BRANCH   5   9
HETATM    9  N   UNL     1     -12.849   9.730  71.559  1.00  0.00    -0.374 NA 
HETATM   10  H   UNL     1     -13.742   9.666  72.045  1.00  0.00     0.000 HD 
BRANCH   9  11
HETATM   11  C   UNL     1     -12.138   8.529  71.557  1.00  0.00    -0.304 A  
HETATM   12  N   UNL     1     -11.740   8.129  72.773  1.00  0.00    -0.364 NA 
HETATM   13  N   UNL     1     -11.877   7.832  70.431  1.00  0.00    -0.050 NA 
HETATM   14  C   UNL     1     -11.174   6.673  70.519  1.00  0.00    -0.334 A  
HETATM   15  F   UNL     1     -10.173   4.999  71.904  1.00  0.00    -0.227 F  
HETATM   16  C   UNL     1     -11.073   6.957  72.840  1.00  0.00    -0.261 A  
HETATM   17  C   UNL     1     -10.796   6.174  71.746  1.00  0.00    -0.255 A  
BRANCH  14  18
HETATM   18  N   UNL     1     -10.947   6.012  69.299  1.00  0.00    -0.357 NA 
HETATM   19  H   UNL     1     -11.408   5.105  69.227  1.00  0.00     0.000 HD 
BRANCH  18  20
HETATM   20  C   UNL     1     -10.199   6.373  68.156  1.00  0.00    -0.167 A  
HETATM   21  N   UNL     1      -9.526   7.540  68.065  1.00  0.00    -0.142 NA 
HETATM   22  C   UNL     1      -8.757   7.792  66.961  1.00  0.00    -0.129 A  
HETATM   23  C   UNL     1      -8.715   6.922  65.874  1.00  0.00    -0.134 A  
HETATM   24  O   UNL     1      -8.051   7.182  64.702  1.00  0.00    -0.130 OA 
HETATM   25  C   UNL     1      -9.409   5.727  65.961  1.00  0.00    -0.134 A  
HETATM   26  C   UNL     1      -7.765   8.565  64.509  1.00  0.00    -0.126 C  
HETATM   27  C   UNL     1     -10.156   5.454  67.105  1.00  0.00    -0.231 A  
HETATM   28  C   UNL     1      -7.196   9.240  65.765  1.00  0.00    -0.090 C  
HETATM   29  C   UNL     1      -6.773   8.698  63.349  1.00  0.00    -0.089 C  
HETATM   30  C   UNL     1      -9.050   9.351  64.145  1.00  0.00    -0.132 C  
HETATM   31  N   UNL     1      -7.927   8.944  66.903  1.00  0.00    -0.101 N  
HETATM   32  O   UNL     1      -6.312  10.095  65.736  1.00  0.00    -0.086 OA 
BRANCH  31  33
HETATM   33  C   UNL     1      -7.947   9.944  67.918  1.00  0.00    -0.104 C  
BRANCH  33  34
HETATM   34  O   UNL     1      -6.959   9.671  68.860  1.00  0.00    -0.057 OA 
HETATM   35  P   UNL     1      -7.687   9.309  70.388  1.00  0.00    -0.164 P  
HETATM   36  O   UNL     1      -6.473  10.240  70.965  1.00  0.00    -0.329 OA 
HETATM   37  O   UNL     1      -6.846   7.914  70.275  1.00  0.00    -0.038 OA 
HETATM   38  O   UNL     1      -8.337   8.986  71.754  1.00  0.00    -0.353 OA 
ENDBRANCH  33  34
ENDBRANCH  31  33
ENDBRANCH  18  20
ENDBRANCH  14  18
ENDBRANCH   9  11
ENDBRANCH   5   9
BRANCH   7  39
HETATM   39  O   UNL     1     -10.868  12.247  68.105  1.00  0.00    -0.208 OA 
HETATM   40  C   UNL     1     -11.362  11.470  67.026  1.00  0.00    -0.269 C  
ENDBRANCH   7  39
BRANCH   8  41
HETATM   41  O   UNL     1     -11.807  14.728  69.205  1.00  0.00    -0.296 OA 
HETATM   42  C   UNL     1     -10.752  15.623  69.509  1.00  0.00    -0.271 C  
ENDBRANCH   8  41
ENDBRANCH   2   3
TORSDOF 9
ENDMDL
MODEL       66
REMARK 921   NORMALIZED FREE ENERGY PREDICTED BY IDOCK:   -6.28 KCAL/MOL
REMARK 922        TOTAL FREE ENERGY PREDICTED BY IDOCK:  -11.45 KCAL/MOL
REMARK 923 INTER-LIGAND FREE ENERGY PREDICTED BY IDOCK:  -10.20 KCAL/MOL
REMARK 924 INTRA-LIGAND FREE ENERGY PREDICTED BY IDOCK:   -1.25 KCAL/MOL
REMARK 927      BINDING AFFINITY PREDICTED BY RF-SCORE:    0.00 PKD
ROOT
HETATM    1  C   UNL     1     -11.389  16.322  70.702  1.00  0.00    -0.297 C  
HETATM    2  O   UNL     1     -12.599  15.572  70.569  1.00  0.00    -0.418 OA 
ENDROOT
BRANCH   2   3
HETATM    3  C   UNL     1     -12.419  14.213  70.485  1.00  0.00    -0.361 A  
HETATM    4  C   UNL     1     -11.763  13.668  69.366  1.00  0.00    -0.379 A  
HETATM    5  C   UNL     1     -11.641  12.300  69.163  1.00  0.00    -0.318 A  
HETATM    6  C   UNL     1     -12.176  11.474  70.155  1.00  0.00    -0.387 A  
HETATM    7  C   UNL     1     -12.780  11.976  71.320  1.00  0.00    -0.279 A  
HETATM    8  C   UNL     1     -12.879  13.370  71.517  1.00  0.00    -0.337 A  
BRANCH   5   9
HETATM    9  N   UNL     1     -11.046  11.737  68.029  1.00  0.00    -0.225 NA 
HETATM   10  H   UNL     1     -10.364  11.012  68.251  1.00  0.00     0.000 HD 
BRANCH   9  11
HETATM   11  C   UNL     1     -11.188  11.957  66.659  1.00  0.00    -0.328 A  
HETATM   12  N   UNL     1     -12.318  12.595  66.323  1.00  0.00    -0.501 NA 
HETATM   13  N   UNL     1     -10.268  11.563  65.752  1.00  0.00    -0.239 NA 
HETATM   14  C   UNL     1     -10.488  11.814  64.436  1.00  0.00    -0.311 A  
HETATM   15  F   UNL     1     -11.826  12.875  62.761  1.00  0.00    -0.429 F  
HETATM   16  C   UNL     1     -12.498  12.865  65.013  1.00  0.00    -0.492 A  
HETATM   17  C   UNL     1     -11.596  12.527  64.033  1.00  0.00    -0.413 A  
BRANCH  14  18
HETATM   18  N   UNL     1      -9.480  11.371  63.562  1.00  0.00    -0.419 NA 
HETATM   19  H   UNL     1      -9.340  11.972  62.750  1.00  0.00     0.000 HD 
BRANCH  18  20
HETATM   20  C   UNL     1      -8.625  10.245  63.601  1.00  0.00    -0.195 A  
HETATM   21  N   UNL     1      -8.764   9.258  64.512  1.00  0.00    -0.196 NA 
HETATM   22  C   UNL     1      -7.951   8.159  64.444  1.00  0.00    -0.145 A  
HETATM   23  C   UNL     1      -6.914   8.060  63.520  1.00  0.00    -0.077 A  
HETATM   24  O   UNL     1      -6.005   7.034  63.485  1.00  0.00    -0.041 OA 
HETATM   25  C   UNL     1      -6.765   9.074  62.588  1.00  0.00    -0.093 A  
HETATM   26  C   UNL     1      -5.932   6.302  64.706  1.00  0.00    -0.026 C  
HETATM   27  C   UNL     1      -7.622  10.172  62.633  1.00  0.00    -0.146 A  
HETATM   28  C   UNL     1      -7.313   5.954  65.280  1.00  0.00    -0.076 C  
HETATM   29  C   UNL     1      -5.132   5.019  64.455  1.00  0.00    -0.009 C  
HETATM   30  C   UNL     1      -5.207   7.124  65.802  1.00  0.00    -0.024 C  
HETATM   31  N   UNL     1      -8.168   7.043  65.297  1.00  0.00    -0.137 N  
HETATM   32  O   UNL     1      -7.570   4.887  65.836  1.00  0.00    -0.087 OA 
BRANCH  31  33
HETATM   33  C   UNL     1      -9.146   7.061  66.333  1.00  0.00    -0.160 C  
BRANCH  33  34
HETATM   34  O   UNL     1      -8.624   7.694  67.457  1.00  0.00    -0.118 OA 
HETATM   35  P   UNL     1      -9.885   7.990  68.605  1.00  0.00    -0.184 P  
HETATM   36  O   UNL     1      -9.131   9.430  68.767  1.00  0.00    -0.131 OA 
HETATM   37  O   UNL     1      -8.936   7.139  69.625  1.00  0.00    -0.141 OA 
HETATM   38  O   UNL     1     -11.013   8.254  69.631  1.00  0.00    -0.199 OA 
ENDBRANCH  33  34
ENDBRANCH  31  33
ENDBRANCH  18  20
ENDBRANCH  14  18
ENDBRANCH   9  11
ENDBRANCH   5   9
BRANCH   7  39
HETATM   39  O   UNL     1     -13.260  10.963  72.114  1.00  0.00    -0.474 OA 
HETATM   40  C   UNL     1     -13.113   9.610  71.713  1.00  0.00    -0.421 C  
ENDBRANCH   7  39
BRANCH   8  41
HETATM   41  O   UNL     1     -13.385  13.767  72.721  1.00  0.00    -0.551 OA 
HETATM   42  C   UNL     1     -12.759  14.730  73.551  1.00  0.00    -0.437 C  
ENDBRANCH   8  41
ENDBRANCH   2   3
TORSDOF 9
ENDMDL
MODEL       67
REMARK 921   NORMALIZED FREE ENERGY PREDICTED BY IDOCK:   -6.28 KCAL/MOL
REMARK 922        TOTAL FREE ENERGY PREDICTED BY IDOCK:  -11.45 KCAL/MOL
REMARK 923 INTER-LIGAND FREE ENERGY PREDICTED BY IDOCK:   -9.74 KCAL/MOL
REMARK 924 INTRA-LIGAND FREE ENERGY PREDICTED BY IDOCK:   -1.71 KCAL/MOL
REMARK 927      BINDING AFFINITY PREDICTED BY RF-SCORE:    0.00 PKD
ROOT
HETATM    1  C   UNL     1      -9.800  20.467  67.174  1.00  0.00    -0.426 C  
HETATM    2  O   UNL     1      -9.016  19.537  66.423  1.00  0.00    -0.342 OA 
ENDROOT
BRANCH   2   3
HETATM    3  C   UNL     1      -8.897  18.297  67.000  1.00  0.00    -0.266 A  
HETATM    4  C   UNL     1      -9.893  17.329  66.775  1.00  0.00    -0.296 A  
HETATM    5  C   UNL     1      -9.894  16.093  67.410  1.00  0.00    -0.238 A  
HETATM    6  C   UNL     1      -8.822  15.836  68.269  1.00  0.00    -0.180 A  
HETATM    7  C   UNL     1      -7.772  16.747  68.471  1.00  0.00    -0.223 A  
HETATM    8  C   UNL     1      -7.780  17.990  67.803  1.00  0.00    -0.222 A  
BRANCH   5   9
HETATM    9  N   UNL     1     -10.905  15.141  67.246  1.00  0.00    -0.309 NA 
HETATM   10  H   UNL     1     -11.565  15.119  68.023  1.00  0.00     0.000 HD 
BRANCH   9  11
HETATM   11  C   UNL     1     -11.202  14.215  66.246  1.00  0.00    -0.329 A  
HETATM   12  N   UNL     1     -12.503  14.155  65.927  1.00  0.00    -0.478 NA 
HETATM   13  N   UNL     1     -10.263  13.450  65.651  1.00  0.00    -0.290 NA 
HETATM   14  C   UNL     1     -10.640  12.570  64.687  1.00  0.00    -0.316 A  
HETATM   15  F   UNL     1     -12.369  11.722  63.268  1.00  0.00    -0.607 F  
HETATM   16  C   UNL     1     -12.850  13.299  64.943  1.00  0.00    -0.253 A  
HETATM   17  C   UNL     1     -11.951  12.509  64.267  1.00  0.00    -0.408 A  
BRANCH  14  18
HETATM   18  N   UNL     1      -9.599  11.814  64.122  1.00  0.00    -0.449 NA 
HETATM   19  H   UNL     1      -9.093  12.295  63.378  1.00  0.00     0.000 HD 
BRANCH  18  20
HETATM   20  C   UNL     1      -9.124  10.511  64.393  1.00  0.00    -0.225 A  
HETATM   21  N   UNL     1      -9.568   9.777  65.436  1.00  0.00    -0.275 NA 
HETATM   22  C   UNL     1      -9.124   8.493  65.595  1.00  0.00    -0.132 A  
HETATM   23  C   UNL     1      -8.150   7.938  64.769  1.00  0.00    -0.141 A  
HETATM   24  O   UNL     1      -7.592   6.699  64.956  1.00  0.00    -0.086 OA 
HETATM   25  C   UNL     1      -7.687   8.690  63.702  1.00  0.00    -0.136 A  
HETATM   26  C   UNL     1      -7.762   6.196  66.279  1.00  0.00    -0.099 C  
HETATM   27  C   UNL     1      -8.174   9.983  63.517  1.00  0.00    -0.163 A  
HETATM   28  C   UNL     1      -9.193   6.373  66.808  1.00  0.00    -0.142 C  
HETATM   29  C   UNL     1      -7.382   4.711  66.286  1.00  0.00    -0.081 C  
HETATM   30  C   UNL     1      -6.841   6.941  67.278  1.00  0.00    -0.072 C  
HETATM   31  N   UNL     1      -9.681   7.652  66.597  1.00  0.00    -0.214 N  
HETATM   32  O   UNL     1      -9.768   5.539  67.506  1.00  0.00    -0.118 OA 
BRANCH  31  33
HETATM   33  C   UNL     1     -10.624   8.132  67.550  1.00  0.00    -0.221 C  
BRANCH  33  34
HETATM   34  O   UNL     1      -9.951   8.678  68.639  1.00  0.00    -0.172 OA 
HETATM   35  P   UNL     1     -10.710   8.177  70.111  1.00  0.00    -0.219 P  
HETATM   36  O   UNL     1     -10.456   9.733  70.542  1.00  0.00    -0.278 OA 
HETATM   37  O   UNL     1      -9.228   7.609  70.493  1.00  0.00    -0.158 OA 
HETATM   38  O   UNL     1     -11.389   7.729  71.428  1.00  0.00    -0.244 OA 
ENDBRANCH  33  34
ENDBRANCH  31  33
ENDBRANCH  18  20
ENDBRANCH  14  18
ENDBRANCH   9  11
ENDBRANCH   5   9
BRANCH   7  39
HETATM   39  O   UNL     1      -6.867  16.274  69.390  1.00  0.00    -0.202 OA 
HETATM   40  C   UNL     1      -6.821  14.891  69.702  1.00  0.00    -0.181 C  
ENDBRANCH   7  39
BRANCH   8  41
HETATM   41  O   UNL     1      -6.671  18.767  67.978  1.00  0.00    -0.218 OA 
HETATM   42  C   UNL     1      -6.554  19.739  69.002  1.00  0.00    -0.333 C  
ENDBRANCH   8  41
ENDBRANCH   2   3
TORSDOF 9
ENDMDL
MODEL       68
REMARK 921   NORMALIZED FREE ENERGY PREDICTED BY IDOCK:   -6.27 KCAL/MOL
REMARK 922        TOTAL FREE ENERGY PREDICTED BY IDOCK:  -11.44 KCAL/MOL
REMARK 923 INTER-LIGAND FREE ENERGY PREDICTED BY IDOCK:  -10.08 KCAL/MOL
REMARK 924 INTRA-LIGAND FREE ENERGY PREDICTED BY IDOCK:   -1.36 KCAL/MOL
REMARK 927      BINDING AFFINITY PREDICTED BY RF-SCORE:    0.00 PKD
ROOT
HETATM    1  C   UNL     1     -11.910  15.478  64.351  1.00  0.00    -0.219 C  
HETATM    2  O   UNL     1     -11.108  16.621  64.659  1.00  0.00    -0.763 OA 
ENDROOT
BRANCH   2   3
HETATM    3  C   UNL     1     -10.436  16.539  65.854  1.00  0.00    -0.323 A  
HETATM    4  C   UNL     1     -10.420  15.322  66.559  1.00  0.00    -0.299 A  
HETATM    5  C   UNL     1      -9.853  15.195  67.821  1.00  0.00    -0.223 A  
HETATM    6  C   UNL     1      -9.255  16.341  68.352  1.00  0.00    -0.203 A  
HETATM    7  C   UNL     1      -9.189  17.558  67.654  1.00  0.00    -0.243 A  
HETATM    8  C   UNL     1      -9.756  17.663  66.365  1.00  0.00    -0.294 A  
BRANCH   5   9
HETATM    9  N   UNL     1      -9.880  14.010  68.564  1.00  0.00    -0.231 NA 
HETATM   10  H   UNL     1      -9.023  13.463  68.479  1.00  0.00     0.000 HD 
BRANCH   9  11
HETATM   11  C   UNL     1     -10.830  13.418  69.397  1.00  0.00     0.043 A  
HETATM   12  N   UNL     1     -11.473  14.284  70.192  1.00  0.00    -0.230 NA 
HETATM   13  N   UNL     1     -11.079  12.091  69.399  1.00  0.00    -0.180 NA 
HETATM   14  C   UNL     1     -12.019  11.597  70.246  1.00  0.00    -0.358 A  
HETATM   15  F   UNL     1     -13.756  12.026  71.834  1.00  0.00    -0.403 F  
HETATM   16  C   UNL     1     -12.427  13.775  71.000  1.00  0.00    -0.380 A  
HETATM   17  C   UNL     1     -12.763  12.443  71.039  1.00  0.00    -0.223 A  
BRANCH  14  18
HETATM   18  N   UNL     1     -12.215  10.207  70.183  1.00  0.00    -0.484 NA 
HETATM   19  H   UNL     1     -12.948   9.919  69.536  1.00  0.00     0.000 HD 
BRANCH  18  20
HETATM   20  C   UNL     1     -11.582   9.134  70.851  1.00  0.00    -0.291 A  
HETATM   21  N   UNL     1     -10.500   8.500  70.349  1.00  0.00    -0.202 NA 
HETATM   22  C   UNL     1      -9.890   7.521  71.085  1.00  0.00    -0.173 A  
HETATM   23  C   UNL     1     -10.401   7.083  72.304  1.00  0.00    -0.193 A  
HETATM   24  O   UNL     1      -9.892   6.032  73.023  1.00  0.00    -0.165 OA 
HETATM   25  C   UNL     1     -11.514   7.726  72.819  1.00  0.00    -0.415 A  
HETATM   26  C   UNL     1      -9.079   5.157  72.246  1.00  0.00    -0.131 C  
HETATM   27  C   UNL     1     -12.109   8.753  72.087  1.00  0.00    -0.441 A  
HETATM   28  C   UNL     1      -8.079   5.904  71.351  1.00  0.00    -0.115 C  
HETATM   29  C   UNL     1      -8.330   4.217  73.197  1.00  0.00    -0.091 C  
HETATM   30  C   UNL     1      -9.946   4.296  71.292  1.00  0.00    -0.230 C  
HETATM   31  N   UNL     1      -8.670   6.939  70.647  1.00  0.00    -0.148 N  
HETATM   32  O   UNL     1      -6.933   5.512  71.138  1.00  0.00    -0.060 OA 
BRANCH  31  33
HETATM   33  C   UNL     1      -8.094   7.249  69.381  1.00  0.00    -0.130 C  
BRANCH  33  34
HETATM   34  O   UNL     1      -8.716   6.497  68.389  1.00  0.00    -0.122 OA 
HETATM   35  P   UNL     1      -8.982   7.476  66.987  1.00  0.00    -0.140 P  
HETATM   36  O   UNL     1     -10.427   6.715  66.970  1.00  0.00    -0.231 OA 
HETATM   37  O   UNL     1      -8.126   6.320  66.215  1.00  0.00    -0.107 OA 
HETATM   38  O   UNL     1      -9.220   8.353  65.734  1.00  0.00    -0.182 OA 
ENDBRANCH  33  34
ENDBRANCH  31  33
ENDBRANCH  18  20
ENDBRANCH  14  18
ENDBRANCH   9  11
ENDBRANCH   5   9
BRANCH   7  39
HETATM   39  O   UNL     1      -8.589  18.538  68.408  1.00  0.00    -0.315 OA 
HETATM   40  C   UNL     1      -7.199  18.478  68.680  1.00  0.00    -0.287 C  
ENDBRANCH   7  39
BRANCH   8  41
HETATM   41  O   UNL     1      -9.555  18.850  65.721  1.00  0.00    -0.419 OA 
HETATM   42  C   UNL     1     -10.171  20.064  66.112  1.00  0.00    -0.475 C  
ENDBRANCH   8  41
ENDBRANCH   2   3
TORSDOF 9
ENDMDL
MODEL       69
REMARK 921   NORMALIZED FREE ENERGY PREDICTED BY IDOCK:   -6.25 KCAL/MOL
REMARK 922        TOTAL FREE ENERGY PREDICTED BY IDOCK:  -11.40 KCAL/MOL
REMARK 923 INTER-LIGAND FREE ENERGY PREDICTED BY IDOCK:   -9.45 KCAL/MOL
REMARK 924 INTRA-LIGAND FREE ENERGY PREDICTED BY IDOCK:   -1.96 KCAL/MOL
REMARK 927      BINDING AFFINITY PREDICTED BY RF-SCORE:    0.00 PKD
ROOT
HETATM    1  C   UNL     1     -11.005  16.156  69.789  1.00  0.00    -0.349 C  
HETATM    2  O   UNL     1     -12.250  15.475  69.612  1.00  0.00    -0.343 OA 
ENDROOT
BRANCH   2   3
HETATM    3  C   UNL     1     -12.154  14.105  69.604  1.00  0.00    -0.349 A  
HETATM    4  C   UNL     1     -11.809  13.442  68.412  1.00  0.00    -0.401 A  
HETATM    5  C   UNL     1     -11.798  12.057  68.303  1.00  0.00    -0.287 A  
HETATM    6  C   UNL     1     -12.114  11.340  69.459  1.00  0.00    -0.386 A  
HETATM    7  C   UNL     1     -12.398  11.961  70.687  1.00  0.00    -0.313 A  
HETATM    8  C   UNL     1     -12.388  13.369  70.783  1.00  0.00    -0.354 A  
BRANCH   5   9
HETATM    9  N   UNL     1     -11.518  11.378  67.112  1.00  0.00    -0.499 NA 
HETATM   10  H   UNL     1     -12.291  11.396  66.448  1.00  0.00     0.000 HD 
BRANCH   9  11
HETATM   11  C   UNL     1     -10.404  10.682  66.641  1.00  0.00    -0.241 A  
HETATM   12  N   UNL     1      -9.320  11.448  66.457  1.00  0.00    -0.184 NA 
HETATM   13  N   UNL     1     -10.418   9.355  66.395  1.00  0.00    -0.159 NA 
HETATM   14  C   UNL     1      -9.290   8.756  65.933  1.00  0.00    -0.218 A  
HETATM   15  F   UNL     1      -6.960   8.927  65.416  1.00  0.00    -0.075 F  
HETATM   16  C   UNL     1      -8.200  10.826  66.031  1.00  0.00    -0.164 A  
HETATM   17  C   UNL     1      -8.123   9.475  65.789  1.00  0.00    -0.111 A  
BRANCH  14  18
HETATM   18  N   UNL     1      -9.392   7.373  65.704  1.00  0.00    -0.369 NA 
HETATM   19  H   UNL     1      -9.468   7.120  64.719  1.00  0.00     0.000 HD 
BRANCH  18  20
HETATM   20  C   UNL     1      -9.409   6.269  66.587  1.00  0.00    -0.148 A  
HETATM   21  N   UNL     1      -9.605   6.404  67.916  1.00  0.00    -0.122 NA 
HETATM   22  C   UNL     1      -9.688   5.287  68.702  1.00  0.00    -0.145 A  
HETATM   23  C   UNL     1      -9.483   4.006  68.195  1.00  0.00    -0.158 A  
HETATM   24  O   UNL     1      -9.444   2.868  68.959  1.00  0.00    -0.164 OA 
HETATM   25  C   UNL     1      -9.275   3.865  66.833  1.00  0.00    -0.190 A  
HETATM   26  C   UNL     1      -9.206   3.124  70.341  1.00  0.00    -0.145 C  
HETATM   27  C   UNL     1      -9.234   5.003  66.027  1.00  0.00    -0.154 A  
HETATM   28  C   UNL     1     -10.060   4.274  70.894  1.00  0.00    -0.091 C  
HETATM   29  C   UNL     1      -9.486   1.839  71.128  1.00  0.00    -0.203 C  
HETATM   30  C   UNL     1      -7.730   3.532  70.582  1.00  0.00    -0.040 C  
HETATM   31  N   UNL     1     -10.036   5.391  70.076  1.00  0.00    -0.231 N  
HETATM   32  O   UNL     1     -10.551   4.275  72.022  1.00  0.00    -0.091 OA 
BRANCH  31  33
HETATM   33  C   UNL     1     -10.191   6.651  70.725  1.00  0.00    -0.196 C  
BRANCH  33  34
HETATM   34  O   UNL     1      -9.024   6.968  71.413  1.00  0.00    -0.139 OA 
HETATM   35  P   UNL     1      -8.459   8.529  70.924  1.00  0.00    -0.186 P  
HETATM   36  O   UNL     1      -7.000   7.792  70.952  1.00  0.00    -0.048 OA 
HETATM   37  O   UNL     1      -8.547   8.881  72.515  1.00  0.00    -0.396 OA 
HETATM   38  O   UNL     1      -7.952   9.924  70.486  1.00  0.00    -0.246 OA 
ENDBRANCH  33  34
ENDBRANCH  31  33
ENDBRANCH  18  20
ENDBRANCH  14  18
ENDBRANCH   9  11
ENDBRANCH   5   9
BRANCH   7  39
HETATM   39  O   UNL     1     -12.717  11.040  71.655  1.00  0.00    -0.402 OA 
HETATM   40  C   UNL     1     -12.122   9.752  71.638  1.00  0.00    -0.394 C  
ENDBRANCH   7  39
BRANCH   8  41
HETATM   41  O   UNL     1     -12.572  13.883  72.034  1.00  0.00    -0.273 OA 
HETATM   42  C   UNL     1     -13.846  14.208  72.563  1.00  0.00    -0.485 C  
ENDBRANCH   8  41
ENDBRANCH   2   3
TORSDOF 9
ENDMDL
MODEL       70
REMARK 921   NORMALIZED FREE ENERGY PREDICTED BY IDOCK:   -6.24 KCAL/MOL
REMARK 922        TOTAL FREE ENERGY PREDICTED BY IDOCK:  -11.39 KCAL/MOL
REMARK 923 INTER-LIGAND FREE ENERGY PREDICTED BY IDOCK:   -9.81 KCAL/MOL
REMARK 924 INTRA-LIGAND FREE ENERGY PREDICTED BY IDOCK:   -1.58 KCAL/MOL
REMARK 927      BINDING AFFINITY PREDICTED BY RF-SCORE:    0.00 PKD
ROOT
HETATM    1  C   UNL     1      -9.389  13.773  68.117  1.00  0.00    -0.211 C  
HETATM    2  O   UNL     1     -10.806  13.958  68.147  1.00  0.00    -0.239 OA 
ENDROOT
BRANCH   2   3
HETATM    3  C   UNL     1     -11.347  14.010  69.408  1.00  0.00    -0.268 A  
HETATM    4  C   UNL     1     -11.940  12.857  69.955  1.00  0.00    -0.380 A  
HETATM    5  C   UNL     1     -12.600  12.864  71.177  1.00  0.00    -0.281 A  
HETATM    6  C   UNL     1     -12.617  14.078  71.868  1.00  0.00    -0.347 A  
HETATM    7  C   UNL     1     -11.980  15.235  71.389  1.00  0.00    -0.368 A  
HETATM    8  C   UNL     1     -11.300  15.205  70.153  1.00  0.00    -0.271 A  
BRANCH   5   9
HETATM    9  N   UNL     1     -13.248  11.745  71.712  1.00  0.00    -0.420 NA 
HETATM   10  H   UNL     1     -14.125  11.973  72.179  1.00  0.00     0.000 HD 
BRANCH   9  11
HETATM   11  C   UNL     1     -12.949  10.382  71.740  1.00  0.00    -0.475 A  
HETATM   12  N   UNL     1     -14.014   9.594  71.940  1.00  0.00    -0.186 NA 
HETATM   13  N   UNL     1     -11.697   9.902  71.580  1.00  0.00    -0.372 NA 
HETATM   14  C   UNL     1     -11.494   8.559  71.626  1.00  0.00    -0.298 A  
HETATM   15  F   UNL     1     -12.430   6.361  71.731  1.00  0.00    -0.381 F  
HETATM   16  C   UNL     1     -13.794   8.262  71.947  1.00  0.00    -0.384 A  
HETATM   17  C   UNL     1     -12.557   7.693  71.759  1.00  0.00    -0.331 A  
BRANCH  14  18
HETATM   18  N   UNL     1     -10.162   8.146  71.450  1.00  0.00    -0.192 NA 
HETATM   19  H   UNL     1      -9.506   8.566  72.108  1.00  0.00     0.000 HD 
BRANCH  18  20
HETATM   20  C   UNL     1      -9.565   7.256  70.528  1.00  0.00    -0.168 A  
HETATM   21  N   UNL     1      -9.701   7.393  69.192  1.00  0.00    -0.163 NA 
HETATM   22  C   UNL     1      -9.032   6.542  68.355  1.00  0.00    -0.125 A  
HETATM   23  C   UNL     1      -8.281   5.471  68.833  1.00  0.00    -0.099 A  
HETATM   24  O   UNL     1      -7.685   4.528  68.035  1.00  0.00    -0.079 OA 
HETATM   25  C   UNL     1      -8.144   5.324  70.203  1.00  0.00    -0.087 A  
HETATM   26  C   UNL     1      -8.233   4.472  66.720  1.00  0.00    -0.102 C  
HETATM   27  C   UNL     1      -8.792   6.219  71.053  1.00  0.00    -0.136 A  
HETATM   28  C   UNL     1      -8.421   5.860  66.090  1.00  0.00    -0.132 C  
HETATM   29  C   UNL     1      -7.307   3.621  65.844  1.00  0.00    -0.076 C  
HETATM   30  C   UNL     1      -9.636   3.813  66.732  1.00  0.00    -0.205 C  
HETATM   31  N   UNL     1      -9.042   6.751  66.949  1.00  0.00    -0.132 N  
HETATM   32  O   UNL     1      -8.221   6.099  64.900  1.00  0.00    -0.136 OA 
BRANCH  31  33
HETATM   33  C   UNL     1      -9.837   7.764  66.340  1.00  0.00    -0.128 C  
BRANCH  33  34
HETATM   34  O   UNL     1      -9.293   9.014  66.616  1.00  0.00    -0.154 OA 
HETATM   35  P   UNL     1     -10.553  10.197  66.708  1.00  0.00    -0.067 P  
HETATM   36  O   UNL     1      -9.489  11.110  65.868  1.00  0.00    -0.199 OA 
HETATM   37  O   UNL     1      -9.951  10.488  68.197  1.00  0.00    -0.148 OA 
HETATM   38  O   UNL     1     -11.680  11.255  66.789  1.00  0.00    -0.418 OA 
ENDBRANCH  33  34
ENDBRANCH  31  33
ENDBRANCH  18  20
ENDBRANCH  14  18
ENDBRANCH   9  11
ENDBRANCH   5   9
BRANCH   7  39
HETATM   39  O   UNL     1     -12.179  16.303  72.232  1.00  0.00    -0.482 OA 
HETATM   40  C   UNL     1     -12.615  16.090  73.564  1.00  0.00    -0.575 C  
ENDBRANCH   7  39
BRANCH   8  41
HETATM   41  O   UNL     1     -10.624  16.342  69.817  1.00  0.00    -0.309 OA 
HETATM   42  C   UNL     1     -10.892  17.090  68.643  1.00  0.00    -0.284 C  
ENDBRANCH   8  41
ENDBRANCH   2   3
TORSDOF 9
ENDMDL
MODEL       71
REMARK 921   NORMALIZED FREE ENERGY PREDICTED BY IDOCK:   -6.23 KCAL/MOL
REMARK 922        TOTAL FREE ENERGY PREDICTED BY IDOCK:  -11.37 KCAL/MOL
REMARK 923 INTER-LIGAND FREE ENERGY PREDICTED BY IDOCK:   -9.70 KCAL/MOL
REMARK 924 INTRA-LIGAND FREE ENERGY PREDICTED BY IDOCK:   -1.67 KCAL/MOL
REMARK 927      BINDING AFFINITY PREDICTED BY RF-SCORE:    0.00 PKD
ROOT
HETATM    1  C   UNL     1     -10.785  12.912  67.958  1.00  0.00    -0.228 C  
HETATM    2  O   UNL     1     -11.895  13.737  68.319  1.00  0.00    -0.344 OA 
ENDROOT
BRANCH   2   3
HETATM    3  C   UNL     1     -12.257  13.658  69.642  1.00  0.00    -0.270 A  
HETATM    4  C   UNL     1     -12.515  12.399  70.215  1.00  0.00    -0.152 A  
HETATM    5  C   UNL     1     -12.988  12.251  71.513  1.00  0.00    -0.289 A  
HETATM    6  C   UNL     1     -13.164  13.426  72.248  1.00  0.00    -0.570 A  
HETATM    7  C   UNL     1     -12.854  14.697  71.738  1.00  0.00    -0.332 A  
HETATM    8  C   UNL     1     -12.358  14.827  70.423  1.00  0.00    -0.344 A  
BRANCH   5   9
HETATM    9  N   UNL     1     -13.309  11.014  72.081  1.00  0.00    -0.585 NA 
HETATM   10  H   UNL     1     -13.972  11.086  72.853  1.00  0.00     0.000 HD 
BRANCH   9  11
HETATM   11  C   UNL     1     -12.913   9.702  71.818  1.00  0.00    -0.420 A  
HETATM   12  N   UNL     1     -13.749   8.772  72.302  1.00  0.00    -0.434 NA 
HETATM   13  N   UNL     1     -11.790   9.397  71.134  1.00  0.00    -0.315 NA 
HETATM   14  C   UNL     1     -11.477   8.092  70.925  1.00  0.00    -0.276 A  
HETATM   15  F   UNL     1     -12.117   5.793  71.090  1.00  0.00    -0.042 F  
HETATM   16  C   UNL     1     -13.436   7.483  72.052  1.00  0.00    -0.139 A  
HETATM   17  C   UNL     1     -12.330   7.092  71.337  1.00  0.00    -0.377 A  
BRANCH  14  18
HETATM   18  N   UNL     1     -10.291   7.865  70.205  1.00  0.00    -0.208 NA 
HETATM   19  H   UNL     1      -9.563   7.394  70.742  1.00  0.00     0.000 HD 
BRANCH  18  20
HETATM   20  C   UNL     1      -9.922   8.169  68.875  1.00  0.00    -0.192 A  
HETATM   21  N   UNL     1      -8.954   9.061  68.574  1.00  0.00    -0.133 NA 
HETATM   22  C   UNL     1      -8.593   9.249  67.268  1.00  0.00    -0.125 A  
HETATM   23  C   UNL     1      -9.255   8.620  66.217  1.00  0.00    -0.202 A  
HETATM   24  O   UNL     1      -9.006   8.861  64.891  1.00  0.00    -0.176 OA 
HETATM   25  C   UNL     1     -10.253   7.709  66.522  1.00  0.00    -0.178 A  
HETATM   26  C   UNL     1      -8.330  10.094  64.658  1.00  0.00    -0.166 C  
HETATM   27  C   UNL     1     -10.590   7.486  67.856  1.00  0.00    -0.250 A  
HETATM   28  C   UNL     1      -7.149  10.320  65.614  1.00  0.00    -0.137 C  
HETATM   29  C   UNL     1      -7.839  10.112  63.207  1.00  0.00    -0.155 C  
HETATM   30  C   UNL     1      -9.285  11.297  64.865  1.00  0.00    -0.130 C  
HETATM   31  N   UNL     1      -7.483  10.072  66.934  1.00  0.00    -0.094 N  
HETATM   32  O   UNL     1      -6.089  10.844  65.273  1.00  0.00    -0.060 OA 
BRANCH  31  33
HETATM   33  C   UNL     1      -6.779  10.829  67.915  1.00  0.00    -0.064 C  
BRANCH  33  34
HETATM   34  O   UNL     1      -7.487  11.991  68.204  1.00  0.00    -0.096 OA 
HETATM   35  P   UNL     1      -6.532  13.377  67.799  1.00  0.00    -0.135 P  
HETATM   36  O   UNL     1      -7.118  13.950  69.213  1.00  0.00    -0.101 OA 
HETATM   37  O   UNL     1      -7.807  13.782  66.864  1.00  0.00     0.033 OA 
HETATM   38  O   UNL     1      -5.678  14.616  67.438  1.00  0.00    -0.341 OA 
ENDBRANCH  33  34
ENDBRANCH  31  33
ENDBRANCH  18  20
ENDBRANCH  14  18
ENDBRANCH   9  11
ENDBRANCH   5   9
BRANCH   7  39
HETATM   39  O   UNL     1     -13.154  15.688  72.641  1.00  0.00    -0.403 OA 
HETATM   40  C   UNL     1     -12.429  15.791  73.855  1.00  0.00    -0.628 C  
ENDBRANCH   7  39
BRANCH   8  41
HETATM   41  O   UNL     1     -11.987  16.086  70.047  1.00  0.00    -0.308 OA 
HETATM   42  C   UNL     1     -10.682  16.415  69.604  1.00  0.00    -0.337 C  
ENDBRANCH   8  41
ENDBRANCH   2   3
TORSDOF 9
ENDMDL
MODEL       72
REMARK 921   NORMALIZED FREE ENERGY PREDICTED BY IDOCK:   -6.20 KCAL/MOL
REMARK 922        TOTAL FREE ENERGY PREDICTED BY IDOCK:  -11.33 KCAL/MOL
REMARK 923 INTER-LIGAND FREE ENERGY PREDICTED BY IDOCK:   -9.80 KCAL/MOL
REMARK 924 INTRA-LIGAND FREE ENERGY PREDICTED BY IDOCK:   -1.53 KCAL/MOL
REMARK 927      BINDING AFFINITY PREDICTED BY RF-SCORE:    0.00 PKD
ROOT
HETATM    1  C   UNL     1     -10.203   9.835  69.899  1.00  0.00    -0.254 C  
HETATM    2  O   UNL     1     -11.592   9.950  70.217  1.00  0.00    -0.254 OA 
ENDROOT
BRANCH   2   3
HETATM    3  C   UNL     1     -12.039  11.242  70.355  1.00  0.00    -0.384 A  
HETATM    4  C   UNL     1     -11.703  12.199  69.380  1.00  0.00    -0.391 A  
HETATM    5  C   UNL     1     -12.028  13.544  69.509  1.00  0.00    -0.334 A  
HETATM    6  C   UNL     1     -12.748  13.903  70.652  1.00  0.00    -0.351 A  
HETATM    7  C   UNL     1     -13.161  12.968  71.616  1.00  0.00    -0.336 A  
HETATM    8  C   UNL     1     -12.836  11.604  71.459  1.00  0.00    -0.364 A  
BRANCH   5   9
HETATM    9  N   UNL     1     -11.653  14.522  68.582  1.00  0.00    -0.298 NA 
HETATM   10  H   UNL     1     -12.442  15.056  68.219  1.00  0.00     0.000 HD 
BRANCH   9  11
HETATM   11  C   UNL     1     -10.427  14.921  68.048  1.00  0.00    -0.246 A  
HETATM   12  N   UNL     1     -10.393  16.204  67.662  1.00  0.00    -0.281 NA 
HETATM   13  N   UNL     1      -9.370  14.089  67.933  1.00  0.00    -0.199 NA 
HETATM   14  C   UNL     1      -8.214  14.559  67.397  1.00  0.00    -0.202 A  
HETATM   15  F   UNL     1      -6.957  16.427  66.588  1.00  0.00    -0.229 F  
HETATM   16  C   UNL     1      -9.223  16.659  67.165  1.00  0.00    -0.222 A  
HETATM   17  C   UNL     1      -8.093  15.886  67.045  1.00  0.00    -0.230 A  
BRANCH  14  18
HETATM   18  N   UNL     1      -7.166  13.627  67.314  1.00  0.00    -0.340 NA 
HETATM   19  H   UNL     1      -6.242  14.025  67.481  1.00  0.00     0.000 HD 
BRANCH  18  20
HETATM   20  C   UNL     1      -7.156  12.240  67.042  1.00  0.00    -0.037 A  
HETATM   21  N   UNL     1      -7.841  11.696  66.013  1.00  0.00     0.203 NA 
HETATM   22  C   UNL     1      -7.724  10.357  65.759  1.00  0.00    -0.146 A  
HETATM   23  C   UNL     1      -6.993   9.506  66.585  1.00  0.00    -0.085 A  
HETATM   24  O   UNL     1      -6.938   8.144  66.437  1.00  0.00    -0.065 OA 
HETATM   25  C   UNL     1      -6.294  10.060  67.645  1.00  0.00    -0.059 A  
HETATM   26  C   UNL     1      -8.006   7.617  65.653  1.00  0.00    -0.116 C  
HETATM   27  C   UNL     1      -6.380  11.432  67.875  1.00  0.00    -0.055 A  
HETATM   28  C   UNL     1      -8.260   8.420  64.369  1.00  0.00    -0.138 C  
HETATM   29  C   UNL     1      -7.678   6.161  65.303  1.00  0.00    -0.095 C  
HETATM   30  C   UNL     1      -9.338   7.641  66.445  1.00  0.00    -0.228 C  
HETATM   31  N   UNL     1      -8.317   9.784  64.601  1.00  0.00    -0.150 N  
HETATM   32  O   UNL     1      -8.567   7.906  63.295  1.00  0.00     0.095 OA 
BRANCH  31  33
HETATM   33  C   UNL     1      -9.154  10.537  63.727  1.00  0.00    -0.236 C  
BRANCH  33  34
HETATM   34  O   UNL     1     -10.410  10.695  64.305  1.00  0.00    -0.360 OA 
HETATM   35  P   UNL     1     -10.900  12.352  64.202  1.00  0.00    -0.451 P  
HETATM   36  O   UNL     1     -11.415  12.091  65.730  1.00  0.00    -0.343 OA 
HETATM   37  O   UNL     1     -12.208  11.749  63.433  1.00  0.00    -0.511 OA 
HETATM   38  O   UNL     1     -11.338  13.834  64.109  1.00  0.00    -0.353 OA 
ENDBRANCH  33  34
ENDBRANCH  31  33
ENDBRANCH  18  20
ENDBRANCH  14  18
ENDBRANCH   9  11
ENDBRANCH   5   9
BRANCH   7  39
HETATM   39  O   UNL     1     -13.815  13.578  72.659  1.00  0.00    -0.724 OA 
HETATM   40  C   UNL     1     -13.656  14.969  72.886  1.00  0.00    -0.426 C  
ENDBRANCH   7  39
BRANCH   8  41
HETATM   41  O   UNL     1     -13.366  10.754  72.388  1.00  0.00    -0.269 OA 
HETATM   42  C   UNL     1     -13.843   9.457  72.076  1.00  0.00    -0.340 C  
ENDBRANCH   8  41
ENDBRANCH   2   3
TORSDOF 9
ENDMDL
MODEL       73
REMARK 921   NORMALIZED FREE ENERGY PREDICTED BY IDOCK:   -6.20 KCAL/MOL
REMARK 922        TOTAL FREE ENERGY PREDICTED BY IDOCK:  -11.33 KCAL/MOL
REMARK 923 INTER-LIGAND FREE ENERGY PREDICTED BY IDOCK:   -9.88 KCAL/MOL
REMARK 924 INTRA-LIGAND FREE ENERGY PREDICTED BY IDOCK:   -1.45 KCAL/MOL
REMARK 927      BINDING AFFINITY PREDICTED BY RF-SCORE:    0.00 PKD
ROOT
HETATM    1  C   UNL     1      -6.662   9.138  71.348  1.00  0.00    -0.045 C  
HETATM    2  O   UNL     1      -7.211   8.643  72.572  1.00  0.00    -0.268 OA 
ENDROOT
BRANCH   2   3
HETATM    3  C   UNL     1      -8.490   8.154  72.465  1.00  0.00    -0.185 A  
HETATM    4  C   UNL     1      -9.401   8.780  71.594  1.00  0.00    -0.345 A  
HETATM    5  C   UNL     1     -10.737   8.408  71.515  1.00  0.00    -0.247 A  
HETATM    6  C   UNL     1     -11.135   7.342  72.326  1.00  0.00    -0.308 A  
HETATM    7  C   UNL     1     -10.243   6.646  73.160  1.00  0.00    -0.219 A  
HETATM    8  C   UNL     1      -8.886   7.027  73.214  1.00  0.00    -0.130 A  
BRANCH   5   9
HETATM    9  N   UNL     1     -11.672   9.056  70.701  1.00  0.00    -0.414 NA 
HETATM   10  H   UNL     1     -12.313   8.414  70.236  1.00  0.00     0.000 HD 
BRANCH   9  11
HETATM   11  C   UNL     1     -11.914  10.395  70.391  1.00  0.00    -0.320 A  
HETATM   12  N   UNL     1     -12.514  11.082  71.373  1.00  0.00    -0.354 NA 
HETATM   13  N   UNL     1     -11.572  10.948  69.208  1.00  0.00    -0.292 NA 
HETATM   14  C   UNL     1     -11.849  12.259  68.987  1.00  0.00    -0.305 A  
HETATM   15  F   UNL     1     -12.623  14.351  69.852  1.00  0.00    -0.357 F  
HETATM   16  C   UNL     1     -12.748  12.392  71.144  1.00  0.00    -0.240 A  
HETATM   17  C   UNL     1     -12.402  13.037  69.981  1.00  0.00    -0.152 A  
BRANCH  14  18
HETATM   18  N   UNL     1     -11.459  12.753  67.730  1.00  0.00    -0.304 NA 
HETATM   19  H   UNL     1     -11.486  12.058  66.984  1.00  0.00     0.000 HD 
BRANCH  18  20
HETATM   20  C   UNL     1     -11.037  14.035  67.310  1.00  0.00    -0.302 A  
HETATM   21  N   UNL     1     -10.064  14.724  67.943  1.00  0.00    -0.220 NA 
HETATM   22  C   UNL     1      -9.650  15.926  67.436  1.00  0.00    -0.221 A  
HETATM   23  C   UNL     1     -10.262  16.516  66.334  1.00  0.00    -0.316 A  
HETATM   24  O   UNL     1      -9.959  17.766  65.858  1.00  0.00    -0.527 OA 
HETATM   25  C   UNL     1     -11.265  15.814  65.685  1.00  0.00    -0.055 A  
HETATM   26  C   UNL     1      -9.284  18.585  66.810  1.00  0.00    -0.297 C  
HETATM   27  C   UNL     1     -11.655  14.571  66.178  1.00  0.00    -0.366 A  
HETATM   28  C   UNL     1      -8.147  17.849  67.534  1.00  0.00    -0.225 C  
HETATM   29  C   UNL     1      -8.732  19.817  66.085  1.00  0.00    -0.368 C  
HETATM   30  C   UNL     1     -10.257  19.064  67.917  1.00  0.00    -0.479 C  
HETATM   31  N   UNL     1      -8.534  16.603  67.998  1.00  0.00    -0.188 N  
HETATM   32  O   UNL     1      -7.078  18.378  67.834  1.00  0.00    -0.217 OA 
BRANCH  31  33
HETATM   33  C   UNL     1      -7.878  16.137  69.174  1.00  0.00    -0.232 C  
BRANCH  33  34
HETATM   34  O   UNL     1      -6.655  15.568  68.832  1.00  0.00    -0.106 OA 
HETATM   35  P   UNL     1      -6.716  13.855  69.071  1.00  0.00    -0.104 P  
HETATM   36  O   UNL     1      -5.220  14.085  69.686  1.00  0.00    -0.090 OA 
HETATM   37  O   UNL     1      -6.287  13.783  67.497  1.00  0.00    -0.264 OA 
HETATM   38  O   UNL     1      -6.771  12.323  69.284  1.00  0.00    -0.105 OA 
ENDBRANCH  33  34
ENDBRANCH  31  33
ENDBRANCH  18  20
ENDBRANCH  14  18
ENDBRANCH   9  11
ENDBRANCH   5   9
BRANCH   7  39
HETATM   39  O   UNL     1     -10.888   5.671  73.881  1.00  0.00    -0.247 OA 
HETATM   40  C   UNL     1     -11.391   4.515  73.230  1.00  0.00    -0.270 C  
ENDBRANCH   7  39
BRANCH   8  41
HETATM   41  O   UNL     1      -8.073   6.232  73.969  1.00  0.00    -0.105 OA 
HETATM   42  C   UNL     1      -7.498   5.028  73.492  1.00  0.00    -0.091 C  
ENDBRANCH   8  41
ENDBRANCH   2   3
TORSDOF 9
ENDMDL
MODEL       74
REMARK 921   NORMALIZED FREE ENERGY PREDICTED BY IDOCK:   -6.18 KCAL/MOL
REMARK 922        TOTAL FREE ENERGY PREDICTED BY IDOCK:  -11.30 KCAL/MOL
REMARK 923 INTER-LIGAND FREE ENERGY PREDICTED BY IDOCK:  -10.34 KCAL/MOL
REMARK 924 INTRA-LIGAND FREE ENERGY PREDICTED BY IDOCK:   -0.96 KCAL/MOL
REMARK 927      BINDING AFFINITY PREDICTED BY RF-SCORE:    0.00 PKD
ROOT
HETATM    1  C   UNL     1      -6.053  14.947  67.889  1.00  0.00    -0.154 C  
HETATM    2  O   UNL     1      -6.131  16.016  66.943  1.00  0.00    -0.318 OA 
ENDROOT
BRANCH   2   3
HETATM    3  C   UNL     1      -7.376  16.585  66.828  1.00  0.00    -0.239 A  
HETATM    4  C   UNL     1      -8.521  15.778  66.963  1.00  0.00    -0.251 A  
HETATM    5  C   UNL     1      -9.806  16.262  66.753  1.00  0.00    -0.245 A  
HETATM    6  C   UNL     1      -9.915  17.618  66.431  1.00  0.00    -0.337 A  
HETATM    7  C   UNL     1      -8.803  18.473  66.352  1.00  0.00    -0.256 A  
HETATM    8  C   UNL     1      -7.507  17.967  66.586  1.00  0.00    -0.227 A  
BRANCH   5   9
HETATM    9  N   UNL     1     -10.953  15.465  66.824  1.00  0.00    -0.308 NA 
HETATM   10  H   UNL     1     -11.807  15.967  66.582  1.00  0.00     0.000 HD 
BRANCH   9  11
HETATM   11  C   UNL     1     -11.176  14.128  67.155  1.00  0.00    -0.317 A  
HETATM   12  N   UNL     1     -11.140  13.293  66.107  1.00  0.00    -0.283 NA 
HETATM   13  N   UNL     1     -11.408  13.713  68.419  1.00  0.00    -0.275 NA 
HETATM   14  C   UNL     1     -11.620  12.392  68.653  1.00  0.00    -0.319 A  
HETATM   15  F   UNL     1     -11.645  10.154  67.810  1.00  0.00    -0.330 F  
HETATM   16  C   UNL     1     -11.318  11.980  66.368  1.00  0.00    -0.354 A  
HETATM   17  C   UNL     1     -11.526  11.475  67.629  1.00  0.00    -0.285 A  
BRANCH  14  18
HETATM   18  N   UNL     1     -11.852  12.048  69.995  1.00  0.00    -0.420 NA 
HETATM   19  H   UNL     1     -12.079  12.842  70.594  1.00  0.00     0.000 HD 
BRANCH  18  20
HETATM   20  C   UNL     1     -11.830  10.805  70.668  1.00  0.00    -0.360 A  
HETATM   21  N   UNL     1     -10.705  10.070  70.800  1.00  0.00    -0.277 NA 
HETATM   22  C   UNL     1     -10.737   8.914  71.531  1.00  0.00    -0.328 A  
HETATM   23  C   UNL     1     -11.917   8.412  72.074  1.00  0.00    -0.357 A  
HETATM   24  O   UNL     1     -12.021   7.205  72.717  1.00  0.00    -0.077 OA 
HETATM   25  C   UNL     1     -13.074   9.161  71.936  1.00  0.00    -0.478 A  
HETATM   26  C   UNL     1     -10.947   6.314  72.424  1.00  0.00    -0.254 C  
HETATM   27  C   UNL     1     -13.029  10.360  71.227  1.00  0.00    -0.517 A  
HETATM   28  C   UNL     1      -9.571   6.992  72.489  1.00  0.00    -0.145 C  
HETATM   29  C   UNL     1     -11.002   5.145  73.413  1.00  0.00    -0.381 C  
HETATM   30  C   UNL     1     -11.076   5.745  70.987  1.00  0.00    -0.264 C  
HETATM   31  N   UNL     1      -9.541   8.196  71.805  1.00  0.00    -0.172 N  
HETATM   32  O   UNL     1      -8.563   6.444  72.932  1.00  0.00    -0.124 OA 
BRANCH  31  33
HETATM   33  C   UNL     1      -8.287   8.568  71.238  1.00  0.00    -0.156 C  
BRANCH  33  34
HETATM   34  O   UNL     1      -8.467   8.928  69.906  1.00  0.00    -0.121 OA 
HETATM   35  P   UNL     1      -7.081   9.798  69.341  1.00  0.00    -0.086 P  
HETATM   36  O   UNL     1      -8.209  10.744  68.631  1.00  0.00    -0.123 OA 
HETATM   37  O   UNL     1      -7.024   8.640  68.191  1.00  0.00    -0.071 OA 
HETATM   38  O   UNL     1      -5.843  10.577  68.835  1.00  0.00    -0.041 OA 
ENDBRANCH  33  34
ENDBRANCH  31  33
ENDBRANCH  18  20
ENDBRANCH  14  18
ENDBRANCH   9  11
ENDBRANCH   5   9
BRANCH   7  39
HETATM   39  O   UNL     1      -9.173  19.743  65.980  1.00  0.00    -0.369 OA 
HETATM   40  C   UNL     1     -10.153  20.448  66.724  1.00  0.00    -0.339 C  
ENDBRANCH   7  39
BRANCH   8  41
HETATM   41  O   UNL     1      -6.499  18.888  66.589  1.00  0.00    -0.185 OA 
HETATM   42  C   UNL     1      -6.238  19.754  67.680  1.00  0.00    -0.196 C  
ENDBRANCH   8  41
ENDBRANCH   2   3
TORSDOF 9
ENDMDL
MODEL       75
REMARK 921   NORMALIZED FREE ENERGY PREDICTED BY IDOCK:   -6.17 KCAL/MOL
REMARK 922        TOTAL FREE ENERGY PREDICTED BY IDOCK:  -11.29 KCAL/MOL
REMARK 923 INTER-LIGAND FREE ENERGY PREDICTED BY IDOCK:   -9.38 KCAL/MOL
REMARK 924 INTRA-LIGAND FREE ENERGY PREDICTED BY IDOCK:   -1.90 KCAL/MOL
REMARK 927      BINDING AFFINITY PREDICTED BY RF-SCORE:    0.00 PKD
ROOT
HETATM    1  C   UNL     1     -10.049  16.301  67.908  1.00  0.00    -0.247 C  
HETATM    2  O   UNL     1     -11.370  15.764  68.019  1.00  0.00    -0.348 OA 
ENDROOT
BRANCH   2   3
HETATM    3  C   UNL     1     -11.457  14.414  67.786  1.00  0.00    -0.336 A  
HETATM    4  C   UNL     1     -11.246  13.512  68.845  1.00  0.00    -0.316 A  
HETATM    5  C   UNL     1     -11.212  12.136  68.661  1.00  0.00    -0.269 A  
HETATM    6  C   UNL     1     -11.438  11.677  67.361  1.00  0.00    -0.357 A  
HETATM    7  C   UNL     1     -11.719  12.539  66.287  1.00  0.00    -0.404 A  
HETATM    8  C   UNL     1     -11.766  13.934  66.497  1.00  0.00    -0.393 A  
BRANCH   5   9
HETATM    9  N   UNL     1     -10.944  11.225  69.689  1.00  0.00    -0.423 NA 
HETATM   10  H   UNL     1      -9.949  11.048  69.820  1.00  0.00     0.000 HD 
BRANCH   9  11
HETATM   11  C   UNL     1     -11.751  10.508  70.572  1.00  0.00    -0.350 A  
HETATM   12  N   UNL     1     -13.022  10.930  70.616  1.00  0.00    -0.250 NA 
HETATM   13  N   UNL     1     -11.291   9.478  71.315  1.00  0.00    -0.348 NA 
HETATM   14  C   UNL     1     -12.144   8.836  72.155  1.00  0.00    -0.371 A  
HETATM   15  F   UNL     1     -14.383   8.530  72.939  1.00  0.00    -0.368 F  
HETATM   16  C   UNL     1     -13.860  10.254  71.431  1.00  0.00     0.226 A  
HETATM   17  C   UNL     1     -13.479   9.178  72.194  1.00  0.00    -0.469 A  
BRANCH  14  18
HETATM   18  N   UNL     1     -11.583   7.778  72.890  1.00  0.00    -0.603 NA 
HETATM   19  H   UNL     1     -11.725   7.851  73.897  1.00  0.00     0.000 HD 
BRANCH  18  20
HETATM   20  C   UNL     1     -10.859   6.632  72.491  1.00  0.00    -0.238 A  
HETATM   21  N   UNL     1      -9.933   6.662  71.509  1.00  0.00    -0.176 NA 
HETATM   22  C   UNL     1      -9.213   5.533  71.226  1.00  0.00    -0.146 A  
HETATM   23  C   UNL     1      -9.465   4.316  71.854  1.00  0.00    -0.142 A  
HETATM   24  O   UNL     1      -8.849   3.135  71.527  1.00  0.00    -0.075 OA 
HETATM   25  C   UNL     1     -10.419   4.280  72.857  1.00  0.00    -0.246 A  
HETATM   26  C   UNL     1      -8.252   3.148  70.233  1.00  0.00    -0.044 C  
HETATM   27  C   UNL     1     -11.121   5.442  73.173  1.00  0.00    -0.363 A  
HETATM   28  C   UNL     1      -7.442   4.424  69.960  1.00  0.00    -0.050 C  
HETATM   29  C   UNL     1      -7.349   1.917  70.102  1.00  0.00    -0.036 C  
HETATM   30  C   UNL     1      -9.333   3.081  69.124  1.00  0.00    -0.220 C  
HETATM   31  N   UNL     1      -8.135   5.574  70.300  1.00  0.00    -0.100 N  
HETATM   32  O   UNL     1      -6.382   4.436  69.335  1.00  0.00    -0.027 OA 
BRANCH  31  33
HETATM   33  C   UNL     1      -7.834   6.740  69.539  1.00  0.00    -0.113 C  
BRANCH  33  34
HETATM   34  O   UNL     1      -7.062   7.609  70.303  1.00  0.00    -0.056 OA 
HETATM   35  P   UNL     1      -7.634   9.231  70.108  1.00  0.00    -0.147 P  
HETATM   36  O   UNL     1      -6.039   9.579  70.047  1.00  0.00    -0.041 OA 
HETATM   37  O   UNL     1      -7.782   9.203  71.733  1.00  0.00    -0.344 OA 
HETATM   38  O   UNL     1      -8.147  10.681  69.933  1.00  0.00     0.008 OA 
ENDBRANCH  33  34
ENDBRANCH  31  33
ENDBRANCH  18  20
ENDBRANCH  14  18
ENDBRANCH   9  11
ENDBRANCH   5   9
BRANCH   7  39
HETATM   39  O   UNL     1     -11.860  11.845  65.110  1.00  0.00    -0.266 OA 
HETATM   40  C   UNL     1     -10.730  11.255  64.488  1.00  0.00    -0.323 C  
ENDBRANCH   7  39
BRANCH   8  41
HETATM   41  O   UNL     1     -12.147  14.685  65.423  1.00  0.00    -0.333 OA 
HETATM   42  C   UNL     1     -11.229  15.332  64.559  1.00  0.00    -0.280 C  
ENDBRANCH   8  41
ENDBRANCH   2   3
TORSDOF 9
ENDMDL
MODEL       76
REMARK 921   NORMALIZED FREE ENERGY PREDICTED BY IDOCK:   -6.17 KCAL/MOL
REMARK 922        TOTAL FREE ENERGY PREDICTED BY IDOCK:  -11.28 KCAL/MOL
REMARK 923 INTER-LIGAND FREE ENERGY PREDICTED BY IDOCK:  -10.75 KCAL/MOL
REMARK 924 INTRA-LIGAND FREE ENERGY PREDICTED BY IDOCK:   -0.54 KCAL/MOL
REMARK 927      BINDING AFFINITY PREDICTED BY RF-SCORE:    0.00 PKD
ROOT
HETATM    1  C   UNL     1     -12.224  10.890  69.241  1.00  0.00    -0.169 C  
HETATM    2  O   UNL     1     -11.566  11.705  70.214  1.00  0.00    -0.280 OA 
ENDROOT
BRANCH   2   3
HETATM    3  C   UNL     1     -11.999  13.008  70.253  1.00  0.00    -0.285 A  
HETATM    4  C   UNL     1     -11.620  13.895  69.229  1.00  0.00    -0.358 A  
HETATM    5  C   UNL     1     -11.931  15.249  69.259  1.00  0.00    -0.299 A  
HETATM    6  C   UNL     1     -12.681  15.690  70.352  1.00  0.00    -0.325 A  
HETATM    7  C   UNL     1     -13.137  14.826  71.361  1.00  0.00    -0.354 A  
HETATM    8  C   UNL     1     -12.826  13.450  71.305  1.00  0.00    -0.323 A  
BRANCH   5   9
HETATM    9  N   UNL     1     -11.513  16.159  68.283  1.00  0.00    -0.317 NA 
HETATM   10  H   UNL     1     -12.255  16.785  67.973  1.00  0.00     0.000 HD 
BRANCH   9  11
HETATM   11  C   UNL     1     -10.295  16.393  67.644  1.00  0.00    -0.284 A  
HETATM   12  N   UNL     1     -10.205  17.598  67.064  1.00  0.00    -0.320 NA 
HETATM   13  N   UNL     1      -9.295  15.486  67.614  1.00  0.00    -0.202 NA 
HETATM   14  C   UNL     1      -8.142  15.794  66.965  1.00  0.00    -0.236 A  
HETATM   15  F   UNL     1      -6.821  17.432  65.828  1.00  0.00    -0.273 F  
HETATM   16  C   UNL     1      -9.038  17.896  66.455  1.00  0.00    -0.261 A  
HETATM   17  C   UNL     1      -7.963  17.042  66.409  1.00  0.00    -0.307 A  
BRANCH  14  18
HETATM   18  N   UNL     1      -7.155  14.794  66.984  1.00  0.00    -0.338 NA 
HETATM   19  H   UNL     1      -6.205  15.146  66.867  1.00  0.00     0.000 HD 
BRANCH  18  20
HETATM   20  C   UNL     1      -7.236  13.391  67.134  1.00  0.00     0.155 A  
HETATM   21  N   UNL     1      -8.395  12.711  67.001  1.00  0.00    -0.163 NA 
HETATM   22  C   UNL     1      -8.389  11.345  67.082  1.00  0.00    -0.155 A  
HETATM   23  C   UNL     1      -7.237  10.626  67.392  1.00  0.00    -0.092 A  
HETATM   24  O   UNL     1      -7.203   9.270  67.594  1.00  0.00    -0.082 OA 
HETATM   25  C   UNL     1      -6.048  11.321  67.536  1.00  0.00    -0.059 A  
HETATM   26  C   UNL     1      -8.482   8.710  67.883  1.00  0.00    -0.129 C  
HETATM   27  C   UNL     1      -6.050  12.709  67.410  1.00  0.00    -0.142 A  
HETATM   28  C   UNL     1      -9.585   9.220  66.945  1.00  0.00    -0.174 C  
HETATM   29  C   UNL     1      -8.376   7.184  67.785  1.00  0.00    -0.118 C  
HETATM   30  C   UNL     1      -8.936   9.077  69.318  1.00  0.00    -0.144 C  
HETATM   31  N   UNL     1      -9.565  10.597  66.803  1.00  0.00    -0.166 N  
HETATM   32  O   UNL     1     -10.498   8.512  66.521  1.00  0.00    -0.256 OA 
BRANCH  31  33
HETATM   33  C   UNL     1     -10.820  11.224  66.553  1.00  0.00    -0.265 C  
BRANCH  33  34
HETATM   34  O   UNL     1     -10.875  11.644  65.227  1.00  0.00    -0.287 OA 
HETATM   35  P   UNL     1     -11.893  13.038  65.095  1.00  0.00    -0.425 P  
HETATM   36  O   UNL     1     -12.429  12.275  63.752  1.00  0.00    -0.532 OA 
HETATM   37  O   UNL     1     -10.577  13.737  64.429  1.00  0.00    -0.418 OA 
HETATM   38  O   UNL     1     -12.804  14.283  64.976  1.00  0.00    -0.674 OA 
ENDBRANCH  33  34
ENDBRANCH  31  33
ENDBRANCH  18  20
ENDBRANCH  14  18
ENDBRANCH   9  11
ENDBRANCH   5   9
BRANCH   7  39
HETATM   39  O   UNL     1     -13.816  15.510  72.340  1.00  0.00    -0.499 OA 
HETATM   40  C   UNL     1     -13.137  15.952  73.504  1.00  0.00    -0.565 C  
ENDBRANCH   7  39
BRANCH   8  41
HETATM   41  O   UNL     1     -13.396  12.670  72.269  1.00  0.00    -0.533 OA 
HETATM   42  C   UNL     1     -13.491  11.259  72.175  1.00  0.00    -0.092 C  
ENDBRANCH   8  41
ENDBRANCH   2   3
TORSDOF 9
ENDMDL
MODEL       77
REMARK 921   NORMALIZED FREE ENERGY PREDICTED BY IDOCK:   -6.15 KCAL/MOL
REMARK 922        TOTAL FREE ENERGY PREDICTED BY IDOCK:  -11.25 KCAL/MOL
REMARK 923 INTER-LIGAND FREE ENERGY PREDICTED BY IDOCK:  -10.31 KCAL/MOL
REMARK 924 INTRA-LIGAND FREE ENERGY PREDICTED BY IDOCK:   -0.93 KCAL/MOL
REMARK 927      BINDING AFFINITY PREDICTED BY RF-SCORE:    0.00 PKD
ROOT
HETATM    1  C   UNL     1      -8.434   8.678  65.091  1.00  0.00    -0.179 C  
HETATM    2  O   UNL     1      -7.704   7.629  65.732  1.00  0.00    -0.091 OA 
ENDROOT
BRANCH   2   3
HETATM    3  C   UNL     1      -8.430   6.485  65.958  1.00  0.00    -0.145 A  
HETATM    4  C   UNL     1      -9.036   6.286  67.212  1.00  0.00    -0.116 A  
HETATM    5  C   UNL     1      -9.693   5.109  67.547  1.00  0.00    -0.151 A  
HETATM    6  C   UNL     1      -9.758   4.129  66.553  1.00  0.00    -0.228 A  
HETATM    7  C   UNL     1      -9.225   4.313  65.266  1.00  0.00    -0.153 A  
HETATM    8  C   UNL     1      -8.576   5.523  64.939  1.00  0.00    -0.111 A  
BRANCH   5   9
HETATM    9  N   UNL     1     -10.251   4.866  68.807  1.00  0.00    -0.103 NA 
HETATM   10  H   UNL     1     -10.448   3.880  68.976  1.00  0.00     0.000 HD 
BRANCH   9  11
HETATM   11  C   UNL     1     -10.594   5.687  69.881  1.00  0.00    -0.328 A  
HETATM   12  N   UNL     1     -10.354   5.143  71.082  1.00  0.00    -0.221 NA 
HETATM   13  N   UNL     1     -11.120   6.921  69.724  1.00  0.00    -0.274 NA 
HETATM   14  C   UNL     1     -11.430   7.652  70.826  1.00  0.00    -0.277 A  
HETATM   15  F   UNL     1     -11.350   7.883  73.205  1.00  0.00    -0.456 F  
HETATM   16  C   UNL     1     -10.636   5.902  72.162  1.00  0.00    -0.219 A  
HETATM   17  C   UNL     1     -11.143   7.177  72.087  1.00  0.00    -0.248 A  
BRANCH  14  18
HETATM   18  N   UNL     1     -11.972   8.924  70.571  1.00  0.00    -0.476 NA 
HETATM   19  H   UNL     1     -12.842   9.111  71.069  1.00  0.00     0.000 HD 
BRANCH  18  20
HETATM   20  C   UNL     1     -11.534   9.990  69.753  1.00  0.00    -0.184 A  
HETATM   21  N   UNL     1     -11.959  11.260  69.923  1.00  0.00    -0.336 NA 
HETATM   22  C   UNL     1     -11.435  12.256  69.146  1.00  0.00    -0.296 A  
HETATM   23  C   UNL     1     -10.538  11.997  68.112  1.00  0.00    -0.210 A  
HETATM   24  O   UNL     1     -10.073  12.944  67.237  1.00  0.00    -0.227 OA 
HETATM   25  C   UNL     1     -10.105  10.694  67.931  1.00  0.00    -0.194 A  
HETATM   26  C   UNL     1     -10.884  14.115  67.187  1.00  0.00    -0.290 C  
HETATM   27  C   UNL     1     -10.608   9.687  68.753  1.00  0.00    -0.242 A  
HETATM   28  C   UNL     1     -11.282  14.628  68.578  1.00  0.00    -0.271 C  
HETATM   29  C   UNL     1     -10.118  15.204  66.428  1.00  0.00    -0.286 C  
HETATM   30  C   UNL     1     -12.211  13.838  66.436  1.00  0.00    -0.480 C  
HETATM   31  N   UNL     1     -11.757  13.618  69.398  1.00  0.00    -0.304 N  
HETATM   32  O   UNL     1     -11.354  15.821  68.869  1.00  0.00    -0.309 OA 
BRANCH  31  33
HETATM   33  C   UNL     1     -12.721  14.000  70.375  1.00  0.00    -0.253 C  
BRANCH  33  34
HETATM   34  O   UNL     1     -12.072  14.437  71.526  1.00  0.00    -0.349 OA 
HETATM   35  P   UNL     1     -13.105  15.506  72.413  1.00  0.00    -0.511 P  
HETATM   36  O   UNL     1     -11.727  16.363  72.603  1.00  0.00    -0.501 OA 
HETATM   37  O   UNL     1     -12.869  14.454  73.640  1.00  0.00    -0.471 OA 
HETATM   38  O   UNL     1     -14.028  16.461  73.207  1.00  0.00    -0.417 OA 
ENDBRANCH  33  34
ENDBRANCH  31  33
ENDBRANCH  18  20
ENDBRANCH  14  18
ENDBRANCH   9  11
ENDBRANCH   5   9
BRANCH   7  39
HETATM   39  O   UNL     1      -9.382   3.189  64.491  1.00  0.00    -0.133 OA 
HETATM   40  C   UNL     1      -8.852   1.946  64.920  1.00  0.00    -0.118 C  
ENDBRANCH   7  39
BRANCH   8  41
HETATM   41  O   UNL     1      -8.181   5.655  63.639  1.00  0.00    -0.119 OA 
HETATM   42  C   UNL     1      -6.916   5.234  63.162  1.00  0.00    -0.038 C  
ENDBRANCH   8  41
ENDBRANCH   2   3
TORSDOF 9
ENDMDL
MODEL       78
REMARK 921   NORMALIZED FREE ENERGY PREDICTED BY IDOCK:   -6.14 KCAL/MOL
REMARK 922        TOTAL FREE ENERGY PREDICTED BY IDOCK:  -11.23 KCAL/MOL
REMARK 923 INTER-LIGAND FREE ENERGY PREDICTED BY IDOCK:   -9.97 KCAL/MOL
REMARK 924 INTRA-LIGAND FREE ENERGY PREDICTED BY IDOCK:   -1.26 KCAL/MOL
REMARK 927      BINDING AFFINITY PREDICTED BY RF-SCORE:    0.00 PKD
ROOT
HETATM    1  C   UNL     1     -12.157  15.292  71.208  1.00  0.00    -0.349 C  
HETATM    2  O   UNL     1     -11.448  16.368  70.587  1.00  0.00    -0.347 OA 
ENDROOT
BRANCH   2   3
HETATM    3  C   UNL     1     -11.213  16.194  69.245  1.00  0.00    -0.337 A  
HETATM    4  C   UNL     1     -11.831  15.129  68.564  1.00  0.00    -0.307 A  
HETATM    5  C   UNL     1     -11.557  14.830  67.236  1.00  0.00    -0.369 A  
HETATM    6  C   UNL     1     -10.651  15.671  66.584  1.00  0.00    -0.307 A  
HETATM    7  C   UNL     1     -10.063  16.784  67.205  1.00  0.00    -0.281 A  
HETATM    8  C   UNL     1     -10.367  17.083  68.551  1.00  0.00    -0.359 A  
BRANCH   5   9
HETATM    9  N   UNL     1     -12.114  13.740  66.559  1.00  0.00    -0.436 NA 
HETATM   10  H   UNL     1     -13.080  13.552  66.826  1.00  0.00     0.000 HD 
BRANCH   9  11
HETATM   11  C   UNL     1     -11.629  12.856  65.594  1.00  0.00    -0.361 A  
HETATM   12  N   UNL     1     -11.837  13.258  64.332  1.00  0.00    -0.379 NA 
HETATM   13  N   UNL     1     -11.004  11.701  65.905  1.00  0.00    -0.294 NA 
HETATM   14  C   UNL     1     -10.567  10.895  64.903  1.00  0.00    -0.234 A  
HETATM   15  F   UNL     1     -10.206  10.573  62.561  1.00  0.00    -0.201 F  
HETATM   16  C   UNL     1     -11.363  12.459  63.353  1.00  0.00    -0.433 A  
HETATM   17  C   UNL     1     -10.689  11.284  63.587  1.00  0.00    -0.367 A  
BRANCH  14  18
HETATM   18  N   UNL     1      -9.928   9.713  65.316  1.00  0.00    -0.405 NA 
HETATM   19  H   UNL     1      -9.591   9.133  64.548  1.00  0.00     0.000 HD 
BRANCH  18  20
HETATM   20  C   UNL     1      -9.666   9.181  66.599  1.00  0.00    -0.223 A  
HETATM   21  N   UNL     1      -8.670   9.639  67.387  1.00  0.00    -0.128 NA 
HETATM   22  C   UNL     1      -8.521   9.132  68.649  1.00  0.00    -0.127 A  
HETATM   23  C   UNL     1      -9.307   8.086  69.125  1.00  0.00    -0.151 A  
HETATM   24  O   UNL     1      -9.124   7.470  70.337  1.00  0.00    -0.152 OA 
HETATM   25  C   UNL     1     -10.327   7.610  68.317  1.00  0.00    -0.238 A  
HETATM   26  C   UNL     1      -7.827   7.683  70.888  1.00  0.00    -0.090 C  
HETATM   27  C   UNL     1     -10.503   8.158  67.048  1.00  0.00    -0.396 A  
HETATM   28  C   UNL     1      -7.373   9.147  70.805  1.00  0.00    -0.114 C  
HETATM   29  C   UNL     1      -7.839   7.221  72.349  1.00  0.00    -0.102 C  
HETATM   30  C   UNL     1      -6.759   6.859  70.124  1.00  0.00    -0.055 C  
HETATM   31  N   UNL     1      -7.575   9.694  69.549  1.00  0.00    -0.093 N  
HETATM   32  O   UNL     1      -6.730   9.711  71.690  1.00  0.00    -0.307 OA 
BRANCH  31  33
HETATM   33  C   UNL     1      -6.662  10.712  69.150  1.00  0.00    -0.073 C  
BRANCH  33  34
HETATM   34  O   UNL     1      -7.315  11.630  68.333  1.00  0.00    -0.083 OA 
HETATM   35  P   UNL     1      -6.801  13.236  68.724  1.00  0.00    -0.093 P  
HETATM   36  O   UNL     1      -8.391  13.575  68.554  1.00  0.00    -0.155 OA 
HETATM   37  O   UNL     1      -6.398  13.318  67.144  1.00  0.00    -0.250 OA 
HETATM   38  O   UNL     1      -6.342  14.672  69.074  1.00  0.00    -0.088 OA 
ENDBRANCH  33  34
ENDBRANCH  31  33
ENDBRANCH  18  20
ENDBRANCH  14  18
ENDBRANCH   9  11
ENDBRANCH   5   9
BRANCH   7  39
HETATM   39  O   UNL     1      -9.181  17.421  66.365  1.00  0.00    -0.260 OA 
HETATM   40  C   UNL     1      -7.854  16.941  66.226  1.00  0.00    -0.311 C  
ENDBRANCH   7  39
BRANCH   8  41
HETATM   41  O   UNL     1      -9.832  18.239  69.041  1.00  0.00    -0.335 OA 
HETATM   42  C   UNL     1     -10.272  19.529  68.652  1.00  0.00    -0.384 C  
ENDBRANCH   8  41
ENDBRANCH   2   3
TORSDOF 9
ENDMDL
MODEL       79
REMARK 921   NORMALIZED FREE ENERGY PREDICTED BY IDOCK:   -6.08 KCAL/MOL
REMARK 922        TOTAL FREE ENERGY PREDICTED BY IDOCK:  -11.14 KCAL/MOL
REMARK 923 INTER-LIGAND FREE ENERGY PREDICTED BY IDOCK:  -10.05 KCAL/MOL
REMARK 924 INTRA-LIGAND FREE ENERGY PREDICTED BY IDOCK:   -1.09 KCAL/MOL
REMARK 927      BINDING AFFINITY PREDICTED BY RF-SCORE:    0.00 PKD
ROOT
HETATM    1  C   UNL     1      -6.245   6.412  72.157  1.00  0.00    -0.042 C  
HETATM    2  O   UNL     1      -6.678   5.081  72.447  1.00  0.00    -0.052 OA 
ENDROOT
BRANCH   2   3
HETATM    3  C   UNL     1      -8.041   4.925  72.501  1.00  0.00    -0.115 A  
HETATM    4  C   UNL     1      -8.860   6.050  72.710  1.00  0.00    -0.123 A  
HETATM    5  C   UNL     1     -10.235   5.953  72.882  1.00  0.00    -0.191 A  
HETATM    6  C   UNL     1     -10.783   4.671  72.800  1.00  0.00    -0.273 A  
HETATM    7  C   UNL     1     -10.011   3.529  72.525  1.00  0.00    -0.162 A  
HETATM    8  C   UNL     1      -8.618   3.650  72.336  1.00  0.00    -0.086 A  
BRANCH   5   9
HETATM    9  N   UNL     1     -11.059   7.051  73.152  1.00  0.00    -0.490 NA 
HETATM   10  H   UNL     1     -11.300   7.140  74.138  1.00  0.00     0.000 HD 
BRANCH   9  11
HETATM   11  C   UNL     1     -11.622   8.050  72.356  1.00  0.00    -0.390 A  
HETATM   12  N   UNL     1     -12.688   8.648  72.905  1.00  0.00    -0.212 NA 
HETATM   13  N   UNL     1     -11.134   8.384  71.143  1.00  0.00    -0.247 NA 
HETATM   14  C   UNL     1     -11.745   9.367  70.432  1.00  0.00    -0.144 A  
HETATM   15  F   UNL     1     -13.395  11.097  70.354  1.00  0.00    -0.105 F  
HETATM   16  C   UNL     1     -13.259   9.645  72.197  1.00  0.00    -0.444 A  
HETATM   17  C   UNL     1     -12.803  10.067  70.970  1.00  0.00    -0.365 A  
BRANCH  14  18
HETATM   18  N   UNL     1     -11.172   9.651  69.181  1.00  0.00    -0.443 NA 
HETATM   19  H   UNL     1     -11.132   8.850  68.551  1.00  0.00     0.000 HD 
BRANCH  18  20
HETATM   20  C   UNL     1     -10.642  10.842  68.634  1.00  0.00    -0.199 A  
HETATM   21  N   UNL     1     -11.181  12.056  68.877  1.00  0.00    -0.243 NA 
HETATM   22  C   UNL     1     -10.571  13.176  68.380  1.00  0.00    -0.251 A  
HETATM   23  C   UNL     1      -9.457  13.106  67.547  1.00  0.00    -0.212 A  
HETATM   24  O   UNL     1      -8.879  14.188  66.936  1.00  0.00    -0.227 OA 
HETATM   25  C   UNL     1      -8.905  11.861  67.292  1.00  0.00    -0.179 A  
HETATM   26  C   UNL     1      -9.739  15.324  66.866  1.00  0.00    -0.233 C  
HETATM   27  C   UNL     1      -9.504  10.725  67.835  1.00  0.00    -0.165 A  
HETATM   28  C   UNL     1     -10.463  15.609  68.190  1.00  0.00    -0.259 C  
HETATM   29  C   UNL     1      -8.904  16.540  66.454  1.00  0.00    -0.345 C  
HETATM   30  C   UNL     1     -10.850  15.112  65.807  1.00  0.00    -0.358 C  
HETATM   31  N   UNL     1     -11.032  14.472  68.738  1.00  0.00    -0.241 N  
HETATM   32  O   UNL     1     -10.677  16.742  68.617  1.00  0.00    -0.322 OA 
BRANCH  31  33
HETATM   33  C   UNL     1     -12.209  14.669  69.517  1.00  0.00    -0.258 C  
BRANCH  33  34
HETATM   34  O   UNL     1     -11.957  14.316  70.839  1.00  0.00    -0.328 OA 
HETATM   35  P   UNL     1     -13.084  15.111  71.885  1.00  0.00    -0.456 P  
HETATM   36  O   UNL     1     -11.761  15.334  72.818  1.00  0.00    -0.430 OA 
HETATM   37  O   UNL     1     -13.441  13.598  72.384  1.00  0.00    -0.496 OA 
HETATM   38  O   UNL     1     -14.092  15.822  72.820  1.00  0.00    -0.576 OA 
ENDBRANCH  33  34
ENDBRANCH  31  33
ENDBRANCH  18  20
ENDBRANCH  14  18
ENDBRANCH   9  11
ENDBRANCH   5   9
BRANCH   7  39
HETATM   39  O   UNL     1     -10.779   2.389  72.538  1.00  0.00    -0.104 OA 
HETATM   40  C   UNL     1     -11.285   1.882  73.762  1.00  0.00    -0.192 C  
ENDBRANCH   7  39
BRANCH   8  41
HETATM   41  O   UNL     1      -7.965   2.507  71.972  1.00  0.00    -0.052 OA 
HETATM   42  C   UNL     1      -7.617   2.201  70.634  1.00  0.00    -0.035 C  
ENDBRANCH   8  41
ENDBRANCH   2   3
TORSDOF 9
ENDMDL
MODEL       80
REMARK 921   NORMALIZED FREE ENERGY PREDICTED BY IDOCK:   -6.07 KCAL/MOL
REMARK 922        TOTAL FREE ENERGY PREDICTED BY IDOCK:  -11.13 KCAL/MOL
REMARK 923 INTER-LIGAND FREE ENERGY PREDICTED BY IDOCK:   -9.73 KCAL/MOL
REMARK 924 INTRA-LIGAND FREE ENERGY PREDICTED BY IDOCK:   -1.40 KCAL/MOL
REMARK 927      BINDING AFFINITY PREDICTED BY RF-SCORE:    0.00 PKD
ROOT
HETATM    1  C   UNL     1     -12.013  15.677  64.175  1.00  0.00    -0.039 C  
HETATM    2  O   UNL     1     -11.121  16.772  64.400  1.00  0.00    -1.072 OA 
ENDROOT
BRANCH   2   3
HETATM    3  C   UNL     1     -10.446  16.719  65.595  1.00  0.00    -0.269 A  
HETATM    4  C   UNL     1     -10.227  15.474  66.213  1.00  0.00    -0.308 A  
HETATM    5  C   UNL     1      -9.648  15.354  67.470  1.00  0.00    -0.206 A  
HETATM    6  C   UNL     1      -9.253  16.543  68.088  1.00  0.00    -0.217 A  
HETATM    7  C   UNL     1      -9.393  17.801  67.479  1.00  0.00    -0.245 A  
HETATM    8  C   UNL     1      -9.967  17.902  66.194  1.00  0.00    -0.283 A  
BRANCH   5   9
HETATM    9  N   UNL     1      -9.475  14.132  68.127  1.00  0.00    -0.207 NA 
HETATM   10  H   UNL     1      -8.504  13.941  68.372  1.00  0.00     0.000 HD 
BRANCH   9  11
HETATM   11  C   UNL     1     -10.350  13.118  68.519  1.00  0.00    -0.238 A  
HETATM   12  N   UNL     1     -11.061  13.406  69.618  1.00  0.00    -0.042 NA 
HETATM   13  N   UNL     1     -10.470  11.952  67.850  1.00  0.00    -0.199 NA 
HETATM   14  C   UNL     1     -11.343  11.016  68.303  1.00  0.00    -0.299 A  
HETATM   15  F   UNL     1     -13.089  10.431  69.831  1.00  0.00    -0.259 F  
HETATM   16  C   UNL     1     -11.949  12.476  70.030  1.00  0.00    -0.299 A  
HETATM   17  C   UNL     1     -12.153  11.279  69.386  1.00  0.00    -0.315 A  
BRANCH  14  18
HETATM   18  N   UNL     1     -11.405   9.833  67.547  1.00  0.00    -0.395 NA 
HETATM   19  H   UNL     1     -12.112   9.845  66.813  1.00  0.00     0.000 HD 
BRANCH  18  20
HETATM   20  C   UNL     1     -10.667   8.629  67.617  1.00  0.00    -0.124 A  
HETATM   21  N   UNL     1     -10.741   7.791  68.673  1.00  0.00    -0.110 NA 
HETATM   22  C   UNL     1     -10.060   6.604  68.640  1.00  0.00    -0.161 A  
HETATM   23  C   UNL     1      -9.210   6.265  67.591  1.00  0.00    -0.111 A  
HETATM   24  O   UNL     1      -8.422   5.143  67.565  1.00  0.00    -0.106 OA 
HETATM   25  C   UNL     1      -9.126   7.126  66.509  1.00  0.00    -0.182 A  
HETATM   26  C   UNL     1      -8.212   4.571  68.854  1.00  0.00    -0.080 C  
HETATM   27  C   UNL     1      -9.855   8.315  66.525  1.00  0.00    -0.323 A  
HETATM   28  C   UNL     1      -9.501   4.466  69.681  1.00  0.00    -0.182 C  
HETATM   29  C   UNL     1      -7.591   3.182  68.672  1.00  0.00    -0.048 C  
HETATM   30  C   UNL     1      -7.235   5.436  69.691  1.00  0.00    -0.064 C  
HETATM   31  N   UNL     1     -10.233   5.641  69.671  1.00  0.00    -0.226 N  
HETATM   32  O   UNL     1      -9.759   3.517  70.420  1.00  0.00    -0.185 OA 
BRANCH  31  33
HETATM   33  C   UNL     1     -11.014   5.907  70.833  1.00  0.00    -0.265 C  
BRANCH  33  34
HETATM   34  O   UNL     1     -10.405   6.906  71.585  1.00  0.00    -0.200 OA 
HETATM   35  P   UNL     1     -11.595   8.036  72.136  1.00  0.00    -0.393 P  
HETATM   36  O   UNL     1     -10.455   9.135  71.732  1.00  0.00    -0.352 OA 
HETATM   37  O   UNL     1     -11.019   7.672  73.620  1.00  0.00    -0.301 OA 
HETATM   38  O   UNL     1     -12.659   9.046  72.629  1.00  0.00    -0.326 OA 
ENDBRANCH  33  34
ENDBRANCH  31  33
ENDBRANCH  18  20
ENDBRANCH  14  18
ENDBRANCH   9  11
ENDBRANCH   5   9
BRANCH   7  39
HETATM   39  O   UNL     1      -8.968  18.811  68.308  1.00  0.00    -0.304 OA 
HETATM   40  C   UNL     1      -9.906  19.542  69.082  1.00  0.00    -0.361 C  
ENDBRANCH   7  39
BRANCH   8  41
HETATM   41  O   UNL     1      -9.969  19.148  65.637  1.00  0.00    -0.418 OA 
HETATM   42  C   UNL     1     -11.014  20.086  65.826  1.00  0.00    -0.015 C  
ENDBRANCH   8  41
ENDBRANCH   2   3
TORSDOF 9
ENDMDL
MODEL       81
REMARK 921   NORMALIZED FREE ENERGY PREDICTED BY IDOCK:   -6.07 KCAL/MOL
REMARK 922        TOTAL FREE ENERGY PREDICTED BY IDOCK:  -11.13 KCAL/MOL
REMARK 923 INTER-LIGAND FREE ENERGY PREDICTED BY IDOCK:   -9.40 KCAL/MOL
REMARK 924 INTRA-LIGAND FREE ENERGY PREDICTED BY IDOCK:   -1.73 KCAL/MOL
REMARK 927      BINDING AFFINITY PREDICTED BY RF-SCORE:    0.00 PKD
ROOT
HETATM    1  C   UNL     1      -6.844   8.283  70.596  1.00  0.00    -0.038 C  
HETATM    2  O   UNL     1      -7.451   8.872  71.748  1.00  0.00    -0.271 OA 
ENDROOT
BRANCH   2   3
HETATM    3  C   UNL     1      -8.735   8.450  71.994  1.00  0.00    -0.202 A  
HETATM    4  C   UNL     1      -9.817   9.200  71.499  1.00  0.00    -0.335 A  
HETATM    5  C   UNL     1     -11.139   8.894  71.799  1.00  0.00    -0.363 A  
HETATM    6  C   UNL     1     -11.350   7.766  72.596  1.00  0.00    -0.449 A  
HETATM    7  C   UNL     1     -10.302   6.951  73.055  1.00  0.00    -0.244 A  
HETATM    8  C   UNL     1      -8.967   7.268  72.726  1.00  0.00    -0.135 A  
BRANCH   5   9
HETATM    9  N   UNL     1     -12.226   9.661  71.368  1.00  0.00    -0.358 NA 
HETATM   10  H   UNL     1     -13.085   9.120  71.267  1.00  0.00     0.000 HD 
BRANCH   9  11
HETATM   11  C   UNL     1     -12.386  11.009  71.047  1.00  0.00    -0.385 A  
HETATM   12  N   UNL     1     -13.012  11.725  71.992  1.00  0.00    -0.362 NA 
HETATM   13  N   UNL     1     -11.947  11.545  69.888  1.00  0.00    -0.336 NA 
HETATM   14  C   UNL     1     -12.148  12.868  69.654  1.00  0.00    -0.226 A  
HETATM   15  F   UNL     1     -12.874  14.994  70.476  1.00  0.00    -0.364 F  
HETATM   16  C   UNL     1     -13.169  13.044  71.753  1.00  0.00    -0.392 A  
HETATM   17  C   UNL     1     -12.723  13.671  70.615  1.00  0.00    -0.233 A  
BRANCH  14  18
HETATM   18  N   UNL     1     -11.660  13.343  68.425  1.00  0.00    -0.310 NA 
HETATM   19  H   UNL     1     -11.814  14.340  68.274  1.00  0.00     0.000 HD 
BRANCH  18  20
HETATM   20  C   UNL     1     -10.995  12.693  67.359  1.00  0.00    -0.254 A  
HETATM   21  N   UNL     1     -10.480  11.450  67.473  1.00  0.00    -0.195 NA 
HETATM   22  C   UNL     1      -9.919  10.850  66.379  1.00  0.00    -0.221 A  
HETATM   23  C   UNL     1      -9.773  11.513  65.163  1.00  0.00    -0.237 A  
HETATM   24  O   UNL     1      -9.119  10.996  64.074  1.00  0.00    -0.179 OA 
HETATM   25  C   UNL     1     -10.295  12.791  65.045  1.00  0.00    -0.323 A  
HETATM   26  C   UNL     1      -8.240   9.923  64.400  1.00  0.00    -0.164 C  
HETATM   27  C   UNL     1     -10.905  13.383  66.149  1.00  0.00    -0.287 A  
HETATM   28  C   UNL     1      -8.873   8.897  65.351  1.00  0.00    -0.193 C  
HETATM   29  C   UNL     1      -7.809   9.236  63.100  1.00  0.00    -0.135 C  
HETATM   30  C   UNL     1      -6.970  10.446  65.119  1.00  0.00    -0.082 C  
HETATM   31  N   UNL     1      -9.500   9.493  66.432  1.00  0.00    -0.180 N  
HETATM   32  O   UNL     1      -8.683   7.684  65.267  1.00  0.00    -0.077 OA 
BRANCH  31  33
HETATM   33  C   UNL     1      -9.526   8.739  67.640  1.00  0.00    -0.141 C  
BRANCH  33  34
HETATM   34  O   UNL     1     -10.588   7.840  67.606  1.00  0.00    -0.239 OA 
HETATM   35  P   UNL     1     -10.271   6.515  68.673  1.00  0.00    -0.208 P  
HETATM   36  O   UNL     1     -10.887   5.632  67.443  1.00  0.00    -0.243 OA 
HETATM   37  O   UNL     1     -11.691   6.938  69.359  1.00  0.00    -0.059 OA 
HETATM   38  O   UNL     1      -9.988   5.329  69.627  1.00  0.00    -0.189 OA 
ENDBRANCH  33  34
ENDBRANCH  31  33
ENDBRANCH  18  20
ENDBRANCH  14  18
ENDBRANCH   9  11
ENDBRANCH   5   9
BRANCH   7  39
HETATM   39  O   UNL     1     -10.769   5.933  73.851  1.00  0.00    -0.256 OA 
HETATM   40  C   UNL     1     -11.258   4.736  73.267  1.00  0.00    -0.340 C  
ENDBRANCH   7  39
BRANCH   8  41
HETATM   41  O   UNL     1      -8.024   6.366  73.126  1.00  0.00    -0.105 OA 
HETATM   42  C   UNL     1      -7.656   5.231  72.361  1.00  0.00    -0.097 C  
ENDBRANCH   8  41
ENDBRANCH   2   3
TORSDOF 9
ENDMDL
MODEL       82
REMARK 921   NORMALIZED FREE ENERGY PREDICTED BY IDOCK:   -6.05 KCAL/MOL
REMARK 922        TOTAL FREE ENERGY PREDICTED BY IDOCK:  -11.09 KCAL/MOL
REMARK 923 INTER-LIGAND FREE ENERGY PREDICTED BY IDOCK:  -11.03 KCAL/MOL
REMARK 924 INTRA-LIGAND FREE ENERGY PREDICTED BY IDOCK:   -0.06 KCAL/MOL
REMARK 927      BINDING AFFINITY PREDICTED BY RF-SCORE:    0.00 PKD
ROOT
HETATM    1  C   UNL     1      -9.532   2.177  69.977  1.00  0.00    -0.057 C  
HETATM    2  O   UNL     1      -9.855   3.551  70.210  1.00  0.00    -0.152 OA 
ENDROOT
BRANCH   2   3
HETATM    3  C   UNL     1      -9.828   4.340  69.086  1.00  0.00    -0.093 A  
HETATM    4  C   UNL     1     -10.284   5.669  69.163  1.00  0.00    -0.305 A  
HETATM    5  C   UNL     1     -10.387   6.490  68.047  1.00  0.00    -0.187 A  
HETATM    6  C   UNL     1      -9.975   5.940  66.830  1.00  0.00    -0.205 A  
HETATM    7  C   UNL     1      -9.451   4.641  66.720  1.00  0.00    -0.162 A  
HETATM    8  C   UNL     1      -9.339   3.828  67.868  1.00  0.00    -0.186 A  
BRANCH   5   9
HETATM    9  N   UNL     1     -10.893   7.793  68.090  1.00  0.00    -0.436 NA 
HETATM   10  H   UNL     1     -11.904   7.836  67.964  1.00  0.00     0.000 HD 
BRANCH   9  11
HETATM   11  C   UNL     1     -10.309   9.047  68.271  1.00  0.00    -0.209 A  
HETATM   12  N   UNL     1      -8.987   9.070  68.048  1.00  0.00    -0.133 NA 
HETATM   13  N   UNL     1     -11.012  10.140  68.636  1.00  0.00    -0.236 NA 
HETATM   14  C   UNL     1     -10.363  11.323  68.793  1.00  0.00    -0.205 A  
HETATM   15  F   UNL     1      -8.340  12.580  68.570  1.00  0.00    -0.156 F  
HETATM   16  C   UNL     1      -8.369  10.263  68.176  1.00  0.00    -0.118 A  
HETATM   17  C   UNL     1      -9.018  11.427  68.512  1.00  0.00    -0.158 A  
BRANCH  14  18
HETATM   18  N   UNL     1     -11.171  12.407  69.174  1.00  0.00    -0.323 NA 
HETATM   19  H   UNL     1     -11.965  12.149  69.760  1.00  0.00     0.000 HD 
BRANCH  18  20
HETATM   20  C   UNL     1     -11.087  13.790  68.895  1.00  0.00    -0.266 A  
HETATM   21  N   UNL     1     -10.891  14.270  67.648  1.00  0.00    -0.265 NA 
HETATM   22  C   UNL     1     -10.898  15.622  67.436  1.00  0.00    -0.315 A  
HETATM   23  C   UNL     1     -11.007  16.535  68.482  1.00  0.00    -0.350 A  
HETATM   24  O   UNL     1     -10.908  17.895  68.334  1.00  0.00    -0.239 OA 
HETATM   25  C   UNL     1     -11.202  16.047  69.763  1.00  0.00    -0.344 A  
HETATM   26  C   UNL     1     -10.267  18.286  67.122  1.00  0.00    -0.373 C  
HETATM   27  C   UNL     1     -11.238  14.669  69.969  1.00  0.00    -0.252 A  
HETATM   28  C   UNL     1     -10.780  17.515  65.897  1.00  0.00    -0.119 C  
HETATM   29  C   UNL     1     -10.484  19.790  66.922  1.00  0.00    -0.596 C  
HETATM   30  C   UNL     1      -8.742  18.017  67.190  1.00  0.00    -0.247 C  
HETATM   31  N   UNL     1     -10.838  16.150  66.118  1.00  0.00    -0.204 N  
HETATM   32  O   UNL     1     -10.938  18.026  64.790  1.00  0.00    -0.706 OA 
BRANCH  31  33
HETATM   33  C   UNL     1     -10.645  15.318  64.977  1.00  0.00    -0.418 C  
BRANCH  33  34
HETATM   34  O   UNL     1     -11.879  14.895  64.494  1.00  0.00    -0.426 OA 
HETATM   35  P   UNL     1     -11.839  13.191  64.190  1.00  0.00    -0.476 P  
HETATM   36  O   UNL     1     -12.661  13.611  62.841  1.00  0.00    -0.577 OA 
HETATM   37  O   UNL     1     -13.115  13.143  65.207  1.00  0.00    -0.678 OA 
HETATM   38  O   UNL     1     -11.803  11.668  63.917  1.00  0.00    -0.362 OA 
ENDBRANCH  33  34
ENDBRANCH  31  33
ENDBRANCH  18  20
ENDBRANCH  14  18
ENDBRANCH   9  11
ENDBRANCH   5   9
BRANCH   7  39
HETATM   39  O   UNL     1      -9.161   4.325  65.415  1.00  0.00    -0.134 OA 
HETATM   40  C   UNL     1     -10.208   4.088  64.488  1.00  0.00    -0.210 C  
ENDBRANCH   7  39
BRANCH   8  41
HETATM   41  O   UNL     1      -8.724   2.622  67.686  1.00  0.00    -0.093 OA 
HETATM   42  C   UNL     1      -7.378   2.488  67.267  1.00  0.00    -0.057 C  
ENDBRANCH   8  41
ENDBRANCH   2   3
TORSDOF 9
ENDMDL
MODEL       83
REMARK 921   NORMALIZED FREE ENERGY PREDICTED BY IDOCK:   -6.04 KCAL/MOL
REMARK 922        TOTAL FREE ENERGY PREDICTED BY IDOCK:  -11.08 KCAL/MOL
REMARK 923 INTER-LIGAND FREE ENERGY PREDICTED BY IDOCK:   -9.00 KCAL/MOL
REMARK 924 INTRA-LIGAND FREE ENERGY PREDICTED BY IDOCK:   -2.08 KCAL/MOL
REMARK 927      BINDING AFFINITY PREDICTED BY RF-SCORE:    0.00 PKD
ROOT
HETATM    1  C   UNL     1      -6.469   8.199  73.743  1.00  0.00    -0.116 C  
HETATM    2  O   UNL     1      -7.563   8.721  72.985  1.00  0.00    -0.368 OA 
ENDROOT
BRANCH   2   3
HETATM    3  C   UNL     1      -8.109   7.835  72.090  1.00  0.00    -0.112 A  
HETATM    4  C   UNL     1      -7.389   7.487  70.932  1.00  0.00    -0.068 A  
HETATM    5  C   UNL     1      -7.922   6.682  69.933  1.00  0.00    -0.117 A  
HETATM    6  C   UNL     1      -9.214   6.196  70.149  1.00  0.00    -0.164 A  
HETATM    7  C   UNL     1      -9.942   6.464  71.320  1.00  0.00    -0.182 A  
HETATM    8  C   UNL     1      -9.377   7.270  72.333  1.00  0.00    -0.138 A  
BRANCH   5   9
HETATM    9  N   UNL     1      -7.247   6.373  68.747  1.00  0.00    -0.082 NA 
HETATM   10  H   UNL     1      -6.667   5.538  68.822  1.00  0.00     0.000 HD 
BRANCH   9  11
HETATM   11  C   UNL     1      -7.199   6.965  67.485  1.00  0.00    -0.090 A  
HETATM   12  N   UNL     1      -6.002   6.880  66.888  1.00  0.00    -0.025 NA 
HETATM   13  N   UNL     1      -8.264   7.568  66.915  1.00  0.00    -0.122 NA 
HETATM   14  C   UNL     1      -8.128   8.124  65.683  1.00  0.00    -0.119 A  
HETATM   15  F   UNL     1      -6.774   8.465  63.742  1.00  0.00    -0.074 F  
HETATM   16  C   UNL     1      -5.900   7.408  65.650  1.00  0.00    -0.037 A  
HETATM   17  C   UNL     1      -6.944   8.010  64.989  1.00  0.00    -0.062 A  
BRANCH  14  18
HETATM   18  N   UNL     1      -9.286   8.730  65.166  1.00  0.00    -0.438 NA 
HETATM   19  H   UNL     1     -10.011   8.070  64.887  1.00  0.00     0.000 HD 
BRANCH  18  20
HETATM   20  C   UNL     1      -9.629  10.086  64.960  1.00  0.00    -0.297 A  
HETATM   21  N   UNL     1      -9.823  10.950  65.980  1.00  0.00    -0.223 NA 
HETATM   22  C   UNL     1     -10.076  12.267  65.709  1.00  0.00    -0.252 A  
HETATM   23  C   UNL     1     -10.237  12.739  64.409  1.00  0.00    -0.319 A  
HETATM   24  O   UNL     1     -10.601  14.022  64.092  1.00  0.00    -0.146 OA 
HETATM   25  C   UNL     1     -10.045  11.854  63.361  1.00  0.00    -0.464 A  
HETATM   26  C   UNL     1     -11.213  14.720  65.174  1.00  0.00    -0.382 C  
HETATM   27  C   UNL     1      -9.744  10.522  63.639  1.00  0.00    -0.375 A  
HETATM   28  C   UNL     1     -10.461  14.546  66.501  1.00  0.00    -0.285 C  
HETATM   29  C   UNL     1     -11.294  16.206  64.810  1.00  0.00    -0.253 C  
HETATM   30  C   UNL     1     -12.651  14.200  65.425  1.00  0.00    -0.485 C  
HETATM   31  N   UNL     1     -10.141  13.223  66.759  1.00  0.00    -0.253 N  
HETATM   32  O   UNL     1     -10.326  15.445  67.330  1.00  0.00    -0.261 OA 
BRANCH  31  33
HETATM   33  C   UNL     1     -10.072  12.847  68.132  1.00  0.00    -0.240 C  
BRANCH  33  34
HETATM   34  O   UNL     1     -11.335  12.466  68.575  1.00  0.00    -0.247 OA 
HETATM   35  P   UNL     1     -11.195  11.146  69.685  1.00  0.00    -0.215 P  
HETATM   36  O   UNL     1     -12.489  10.576  68.866  1.00  0.00    -0.194 OA 
HETATM   37  O   UNL     1     -12.007  12.127  70.705  1.00  0.00    -0.276 OA 
HETATM   38  O   UNL     1     -11.070   9.964  70.677  1.00  0.00    -0.292 OA 
ENDBRANCH  33  34
ENDBRANCH  31  33
ENDBRANCH  18  20
ENDBRANCH  14  18
ENDBRANCH   9  11
ENDBRANCH   5   9
BRANCH   7  39
HETATM   39  O   UNL     1     -11.197   5.907  71.271  1.00  0.00    -0.273 OA 
HETATM   40  C   UNL     1     -12.328   6.717  70.995  1.00  0.00    -0.315 C  
ENDBRANCH   7  39
BRANCH   8  41
HETATM   41  O   UNL     1     -10.112   7.392  73.477  1.00  0.00    -0.297 OA 
HETATM   42  C   UNL     1     -10.068   6.452  74.536  1.00  0.00    -0.339 C  
ENDBRANCH   8  41
ENDBRANCH   2   3
TORSDOF 9
ENDMDL
MODEL       84
REMARK 921   NORMALIZED FREE ENERGY PREDICTED BY IDOCK:   -6.02 KCAL/MOL
REMARK 922        TOTAL FREE ENERGY PREDICTED BY IDOCK:  -11.06 KCAL/MOL
REMARK 923 INTER-LIGAND FREE ENERGY PREDICTED BY IDOCK:   -9.81 KCAL/MOL
REMARK 924 INTRA-LIGAND FREE ENERGY PREDICTED BY IDOCK:   -1.24 KCAL/MOL
REMARK 927      BINDING AFFINITY PREDICTED BY RF-SCORE:    0.00 PKD
ROOT
HETATM    1  C   UNL     1     -13.914   8.142  71.611  1.00  0.00    -0.395 C  
HETATM    2  O   UNL     1     -12.684   7.923  72.307  1.00  0.00    -0.256 OA 
ENDROOT
BRANCH   2   3
HETATM    3  C   UNL     1     -11.721   7.277  71.571  1.00  0.00    -0.289 A  
HETATM    4  C   UNL     1     -11.331   7.804  70.326  1.00  0.00    -0.174 A  
HETATM    5  C   UNL     1     -10.443   7.150  69.481  1.00  0.00    -0.225 A  
HETATM    6  C   UNL     1      -9.917   5.942  69.948  1.00  0.00    -0.238 A  
HETATM    7  C   UNL     1     -10.228   5.414  71.212  1.00  0.00    -0.223 A  
HETATM    8  C   UNL     1     -11.119   6.102  72.063  1.00  0.00    -0.274 A  
BRANCH   5   9
HETATM    9  N   UNL     1     -10.088   7.626  68.215  1.00  0.00    -0.180 NA 
HETATM   10  H   UNL     1      -9.953   6.883  67.530  1.00  0.00     0.000 HD 
BRANCH   9  11
HETATM   11  C   UNL     1      -9.881   8.901  67.690  1.00  0.00    -0.182 A  
HETATM   12  N   UNL     1     -10.291   9.043  66.422  1.00  0.00    -0.223 NA 
HETATM   13  N   UNL     1      -9.319   9.904  68.398  1.00  0.00    -0.132 NA 
HETATM   14  C   UNL     1      -9.149  11.116  67.807  1.00  0.00    -0.149 A  
HETATM   15  F   UNL     1      -9.548  12.537  65.925  1.00  0.00    -0.244 F  
HETATM   16  C   UNL     1     -10.145  10.265  65.867  1.00  0.00    -0.251 A  
HETATM   17  C   UNL     1      -9.612  11.344  66.530  1.00  0.00    -0.198 A  
BRANCH  14  18
HETATM   18  N   UNL     1      -8.557  12.102  68.615  1.00  0.00    -0.348 NA 
HETATM   19  H   UNL     1      -8.251  11.763  69.528  1.00  0.00     0.000 HD 
BRANCH  18  20
HETATM   20  C   UNL     1      -8.307  13.476  68.397  1.00  0.00    -0.140 A  
HETATM   21  N   UNL     1      -9.229  14.431  68.640  1.00  0.00    -0.197 NA 
HETATM   22  C   UNL     1      -8.895  15.748  68.481  1.00  0.00    -0.193 A  
HETATM   23  C   UNL     1      -7.655  16.143  67.984  1.00  0.00    -0.133 A  
HETATM   24  O   UNL     1      -7.314  17.441  67.702  1.00  0.00    -0.171 OA 
HETATM   25  C   UNL     1      -6.709  15.166  67.727  1.00  0.00    -0.185 A  
HETATM   26  C   UNL     1      -8.440  18.302  67.550  1.00  0.00    -0.249 C  
HETATM   27  C   UNL     1      -7.038  13.826  67.931  1.00  0.00    -0.161 A  
HETATM   28  C   UNL     1      -9.493  18.110  68.651  1.00  0.00    -0.316 C  
HETATM   29  C   UNL     1      -7.945  19.752  67.546  1.00  0.00    -0.324 C  
HETATM   30  C   UNL     1      -9.168  18.030  66.209  1.00  0.00    -0.203 C  
HETATM   31  N   UNL     1      -9.796  16.777  68.867  1.00  0.00    -0.255 N  
HETATM   32  O   UNL     1     -10.132  19.036  69.148  1.00  0.00    -0.374 OA 
BRANCH  31  33
HETATM   33  C   UNL     1     -11.120  16.496  69.313  1.00  0.00    -0.260 C  
BRANCH  33  34
HETATM   34  O   UNL     1     -11.085  16.075  70.639  1.00  0.00    -0.348 OA 
HETATM   35  P   UNL     1     -12.635  15.457  71.101  1.00  0.00    -0.482 P  
HETATM   36  O   UNL     1     -12.336  16.284  72.478  1.00  0.00    -0.465 OA 
HETATM   37  O   UNL     1     -11.803  14.105  71.482  1.00  0.00    -0.197 OA 
HETATM   38  O   UNL     1     -14.021  14.905  71.514  1.00  0.00    -0.412 OA 
ENDBRANCH  33  34
ENDBRANCH  31  33
ENDBRANCH  18  20
ENDBRANCH  14  18
ENDBRANCH   9  11
ENDBRANCH   5   9
BRANCH   7  39
HETATM   39  O   UNL     1      -9.616   4.200  71.413  1.00  0.00    -0.146 OA 
HETATM   40  C   UNL     1      -8.872   3.593  70.370  1.00  0.00    -0.084 C  
ENDBRANCH   7  39
BRANCH   8  41
HETATM   41  O   UNL     1     -11.282   5.570  73.310  1.00  0.00    -0.286 OA 
HETATM   42  C   UNL     1     -10.395   5.820  74.387  1.00  0.00    -0.254 C  
ENDBRANCH   8  41
ENDBRANCH   2   3
TORSDOF 9
ENDMDL
MODEL       85
REMARK 921   NORMALIZED FREE ENERGY PREDICTED BY IDOCK:   -6.02 KCAL/MOL
REMARK 922        TOTAL FREE ENERGY PREDICTED BY IDOCK:  -11.05 KCAL/MOL
REMARK 923 INTER-LIGAND FREE ENERGY PREDICTED BY IDOCK:   -9.39 KCAL/MOL
REMARK 924 INTRA-LIGAND FREE ENERGY PREDICTED BY IDOCK:   -1.67 KCAL/MOL
REMARK 927      BINDING AFFINITY PREDICTED BY RF-SCORE:    0.00 PKD
ROOT
HETATM    1  C   UNL     1     -12.444   9.493  72.022  1.00  0.00    -0.349 C  
HETATM    2  O   UNL     1     -12.283   8.188  72.583  1.00  0.00    -0.334 OA 
ENDROOT
BRANCH   2   3
HETATM    3  C   UNL     1     -11.655   7.287  71.759  1.00  0.00    -0.275 A  
HETATM    4  C   UNL     1     -11.606   7.531  70.374  1.00  0.00    -0.172 A  
HETATM    5  C   UNL     1     -11.083   6.615  69.470  1.00  0.00    -0.322 A  
HETATM    6  C   UNL     1     -10.565   5.435  70.011  1.00  0.00    -0.354 A  
HETATM    7  C   UNL     1     -10.532   5.181  71.392  1.00  0.00    -0.179 A  
HETATM    8  C   UNL     1     -11.053   6.131  72.296  1.00  0.00    -0.277 A  
BRANCH   5   9
HETATM    9  N   UNL     1     -11.080   6.812  68.085  1.00  0.00    -0.518 NA 
HETATM   10  H   UNL     1     -11.800   6.277  67.602  1.00  0.00     0.000 HD 
BRANCH   9  11
HETATM   11  C   UNL     1     -10.300   7.585  67.225  1.00  0.00    -0.296 A  
HETATM   12  N   UNL     1      -9.082   7.078  66.989  1.00  0.00    -0.132 NA 
HETATM   13  N   UNL     1     -10.734   8.741  66.679  1.00  0.00    -0.082 NA 
HETATM   14  C   UNL     1      -9.907   9.435  65.855  1.00  0.00    -0.291 A  
HETATM   15  F   UNL     1      -7.843   9.527  64.649  1.00  0.00    -0.107 F  
HETATM   16  C   UNL     1      -8.290   7.766  66.139  1.00  0.00    -0.129 A  
HETATM   17  C   UNL     1      -8.669   8.931  65.518  1.00  0.00    -0.183 A  
BRANCH  14  18
HETATM   18  N   UNL     1     -10.438  10.625  65.330  1.00  0.00    -0.228 NA 
HETATM   19  H   UNL     1     -10.797  10.537  64.380  1.00  0.00     0.000 HD 
BRANCH  18  20
HETATM   20  C   UNL     1     -10.568  11.922  65.878  1.00  0.00    -0.266 A  
HETATM   21  N   UNL     1      -9.528  12.587  66.425  1.00  0.00    -0.240 NA 
HETATM   22  C   UNL     1      -9.706  13.871  66.866  1.00  0.00    -0.268 A  
HETATM   23  C   UNL     1     -10.953  14.492  66.856  1.00  0.00    -0.316 A  
HETATM   24  O   UNL     1     -11.203  15.731  67.388  1.00  0.00    -0.286 OA 
HETATM   25  C   UNL     1     -12.022  13.810  66.301  1.00  0.00    -0.462 A  
HETATM   26  C   UNL     1     -10.212  16.157  68.319  1.00  0.00    -0.248 C  
HETATM   27  C   UNL     1     -11.828  12.518  65.813  1.00  0.00    -0.494 A  
HETATM   28  C   UNL     1      -8.779  15.919  67.821  1.00  0.00    -0.170 C  
HETATM   29  C   UNL     1     -10.425  17.647  68.607  1.00  0.00    -0.317 C  
HETATM   30  C   UNL     1     -10.335  15.379  69.654  1.00  0.00    -0.283 C  
HETATM   31  N   UNL     1      -8.600  14.643  67.313  1.00  0.00    -0.201 N  
HETATM   32  O   UNL     1      -7.850  16.700  68.022  1.00  0.00    -0.163 OA 
BRANCH  31  33
HETATM   33  C   UNL     1      -7.293  14.091  67.443  1.00  0.00    -0.114 C  
BRANCH  33  34
HETATM   34  O   UNL     1      -7.194  13.404  68.649  1.00  0.00    -0.101 OA 
HETATM   35  P   UNL     1      -6.147  12.039  68.465  1.00  0.00    -0.057 P  
HETATM   36  O   UNL     1      -7.287  11.291  69.367  1.00  0.00    -0.105 OA 
HETATM   37  O   UNL     1      -5.315  12.714  69.696  1.00  0.00    -0.073 OA 
HETATM   38  O   UNL     1      -5.211  10.817  68.300  1.00  0.00    -0.037 OA 
ENDBRANCH  33  34
ENDBRANCH  31  33
ENDBRANCH  18  20
ENDBRANCH  14  18
ENDBRANCH   9  11
ENDBRANCH   5   9
BRANCH   7  39
HETATM   39  O   UNL     1     -10.012   3.938  71.661  1.00  0.00    -0.185 OA 
HETATM   40  C   UNL     1      -9.488   3.140  70.612  1.00  0.00    -0.163 C  
ENDBRANCH   7  39
BRANCH   8  41
HETATM   41  O   UNL     1     -10.886   5.847  73.621  1.00  0.00    -0.262 OA 
HETATM   42  C   UNL     1      -9.964   6.527  74.454  1.00  0.00    -0.351 C  
ENDBRANCH   8  41
ENDBRANCH   2   3
TORSDOF 9
ENDMDL
MODEL       86
REMARK 921   NORMALIZED FREE ENERGY PREDICTED BY IDOCK:   -6.01 KCAL/MOL
REMARK 922        TOTAL FREE ENERGY PREDICTED BY IDOCK:  -11.04 KCAL/MOL
REMARK 923 INTER-LIGAND FREE ENERGY PREDICTED BY IDOCK:   -9.47 KCAL/MOL
REMARK 924 INTRA-LIGAND FREE ENERGY PREDICTED BY IDOCK:   -1.57 KCAL/MOL
REMARK 927      BINDING AFFINITY PREDICTED BY RF-SCORE:    0.00 PKD
ROOT
HETATM    1  C   UNL     1     -10.969  13.416  64.360  1.00  0.00    -0.395 C  
HETATM    2  O   UNL     1     -10.724  14.479  65.284  1.00  0.00    -0.326 OA 
ENDROOT
BRANCH   2   3
HETATM    3  C   UNL     1     -11.093  14.205  66.578  1.00  0.00    -0.318 A  
HETATM    4  C   UNL     1     -11.383  12.879  66.950  1.00  0.00    -0.358 A  
HETATM    5  C   UNL     1     -11.866  12.543  68.209  1.00  0.00    -0.309 A  
HETATM    6  C   UNL     1     -12.017  13.594  69.117  1.00  0.00    -0.394 A  
HETATM    7  C   UNL     1     -11.676  14.922  68.809  1.00  0.00    -0.325 A  
HETATM    8  C   UNL     1     -11.171  15.241  67.530  1.00  0.00    -0.317 A  
BRANCH   5   9
HETATM    9  N   UNL     1     -12.217  11.241  68.579  1.00  0.00    -0.630 NA 
HETATM   10  H   UNL     1     -12.677  10.721  67.833  1.00  0.00     0.000 HD 
BRANCH   9  11
HETATM   11  C   UNL     1     -12.072  10.503  69.754  1.00  0.00    -0.214 A  
HETATM   12  N   UNL     1     -13.230  10.220  70.368  1.00  0.00    -0.107 NA 
HETATM   13  N   UNL     1     -10.872  10.107  70.230  1.00  0.00    -0.300 NA 
HETATM   14  C   UNL     1     -10.821   9.394  71.385  1.00  0.00    -0.360 A  
HETATM   15  F   UNL     1     -11.998   8.243  73.121  1.00  0.00    -0.380 F  
HETATM   16  C   UNL     1     -13.158   9.481  71.495  1.00  0.00    -0.389 A  
HETATM   17  C   UNL     1     -11.980   9.013  72.025  1.00  0.00    -0.363 A  
BRANCH  14  18
HETATM   18  N   UNL     1      -9.533   9.023  71.807  1.00  0.00    -0.327 NA 
HETATM   19  H   UNL     1      -8.909   9.811  71.978  1.00  0.00     0.000 HD 
BRANCH  18  20
HETATM   20  C   UNL     1      -8.944   7.759  72.039  1.00  0.00    -0.134 A  
HETATM   21  N   UNL     1      -8.696   6.879  71.045  1.00  0.00    -0.136 NA 
HETATM   22  C   UNL     1      -8.051   5.706  71.328  1.00  0.00    -0.114 A  
HETATM   23  C   UNL     1      -7.720   5.338  72.630  1.00  0.00    -0.098 A  
HETATM   24  O   UNL     1      -7.176   4.127  72.977  1.00  0.00    -0.064 OA 
HETATM   25  C   UNL     1      -7.978   6.235  73.652  1.00  0.00    -0.100 A  
HETATM   26  C   UNL     1      -7.364   3.119  71.986  1.00  0.00    -0.051 C  
HETATM   27  C   UNL     1      -8.596   7.449  73.355  1.00  0.00    -0.193 A  
HETATM   28  C   UNL     1      -7.055   3.610  70.565  1.00  0.00    -0.034 C  
HETATM   29  C   UNL     1      -6.469   1.925  72.334  1.00  0.00    -0.014 C  
HETATM   30  C   UNL     1      -8.837   2.635  71.962  1.00  0.00    -0.112 C  
HETATM   31  N   UNL     1      -7.650   4.829  70.285  1.00  0.00    -0.057 N  
HETATM   32  O   UNL     1      -6.505   2.917  69.711  1.00  0.00    -0.028 OA 
BRANCH  31  33
HETATM   33  C   UNL     1      -8.002   5.060  68.923  1.00  0.00    -0.081 C  
BRANCH  33  34
HETATM   34  O   UNL     1      -9.355   4.792  68.740  1.00  0.00    -0.117 OA 
HETATM   35  P   UNL     1     -10.073   6.029  67.766  1.00  0.00    -0.199 P  
HETATM   36  O   UNL     1     -11.294   5.897  68.845  1.00  0.00    -0.213 OA 
HETATM   37  O   UNL     1     -10.513   4.789  66.799  1.00  0.00    -0.224 OA 
HETATM   38  O   UNL     1     -10.716   7.136  66.895  1.00  0.00    -0.330 OA 
ENDBRANCH  33  34
ENDBRANCH  31  33
ENDBRANCH  18  20
ENDBRANCH  14  18
ENDBRANCH   9  11
ENDBRANCH   5   9
BRANCH   7  39
HETATM   39  O   UNL     1     -11.956  15.768  69.855  1.00  0.00    -0.355 OA 
HETATM   40  C   UNL     1     -12.951  15.424  70.805  1.00  0.00    -0.453 C  
ENDBRANCH   7  39
BRANCH   8  41
HETATM   41  O   UNL     1     -10.770  16.534  67.354  1.00  0.00    -0.315 OA 
HETATM   42  C   UNL     1      -9.426  16.960  67.498  1.00  0.00    -0.241 C  
ENDBRANCH   8  41
ENDBRANCH   2   3
TORSDOF 9
ENDMDL
MODEL       87
REMARK 921   NORMALIZED FREE ENERGY PREDICTED BY IDOCK:   -6.01 KCAL/MOL
REMARK 922        TOTAL FREE ENERGY PREDICTED BY IDOCK:  -11.04 KCAL/MOL
REMARK 923 INTER-LIGAND FREE ENERGY PREDICTED BY IDOCK:  -10.00 KCAL/MOL
REMARK 924 INTRA-LIGAND FREE ENERGY PREDICTED BY IDOCK:   -1.04 KCAL/MOL
REMARK 927      BINDING AFFINITY PREDICTED BY RF-SCORE:    0.00 PKD
ROOT
HETATM    1  C   UNL     1      -9.210   6.504  71.116  1.00  0.00    -0.156 C  
HETATM    2  O   UNL     1      -9.086   5.441  70.169  1.00  0.00    -0.130 OA 
ENDROOT
BRANCH   2   3
HETATM    3  C   UNL     1      -9.436   5.779  68.885  1.00  0.00    -0.124 A  
HETATM    4  C   UNL     1      -9.475   7.134  68.511  1.00  0.00    -0.139 A  
HETATM    5  C   UNL     1      -9.923   7.555  67.265  1.00  0.00    -0.210 A  
HETATM    6  C   UNL     1     -10.304   6.551  66.370  1.00  0.00    -0.022 A  
HETATM    7  C   UNL     1     -10.218   5.183  66.679  1.00  0.00    -0.261 A  
HETATM    8  C   UNL     1      -9.744   4.775  67.944  1.00  0.00    -0.149 A  
BRANCH   5   9
HETATM    9  N   UNL     1     -10.026   8.899  66.894  1.00  0.00    -0.222 NA 
HETATM   10  H   UNL     1      -9.824   9.061  65.908  1.00  0.00     0.000 HD 
BRANCH   9  11
HETATM   11  C   UNL     1     -10.347  10.067  67.588  1.00  0.00    -0.224 A  
HETATM   12  N   UNL     1     -11.617  10.116  68.015  1.00  0.00    -0.172 NA 
HETATM   13  N   UNL     1      -9.457  11.057  67.810  1.00  0.00    -0.160 NA 
HETATM   14  C   UNL     1      -9.855  12.163  68.492  1.00  0.00    -0.162 A  
HETATM   15  F   UNL     1     -11.551  13.269  69.765  1.00  0.00    -0.320 F  
HETATM   16  C   UNL     1     -11.980  11.208  68.720  1.00  0.00    -0.268 A  
HETATM   17  C   UNL     1     -11.126  12.243  69.016  1.00  0.00    -0.236 A  
BRANCH  14  18
HETATM   18  N   UNL     1      -8.866  13.143  68.678  1.00  0.00    -0.373 NA 
HETATM   19  H   UNL     1      -7.972  12.775  69.006  1.00  0.00     0.000 HD 
BRANCH  18  20
HETATM   20  C   UNL     1      -8.880  14.545  68.496  1.00  0.00    -0.182 A  
HETATM   21  N   UNL     1      -9.434  15.132  67.414  1.00  0.00    -0.202 NA 
HETATM   22  C   UNL     1      -9.484  16.497  67.338  1.00  0.00    -0.228 A  
HETATM   23  C   UNL     1      -8.896  17.315  68.301  1.00  0.00    -0.258 A  
HETATM   24  O   UNL     1      -8.821  18.681  68.213  1.00  0.00    -0.307 OA 
HETATM   25  C   UNL     1      -8.322  16.716  69.409  1.00  0.00     0.137 A  
HETATM   26  C   UNL     1      -9.003  19.174  66.888  1.00  0.00    -0.305 C  
HETATM   27  C   UNL     1      -8.311  15.325  69.504  1.00  0.00    -0.190 A  
HETATM   28  C   UNL     1     -10.188  18.520  66.162  1.00  0.00    -0.398 C  
HETATM   29  C   UNL     1      -9.205  20.691  66.957  1.00  0.00    -0.390 C  
HETATM   30  C   UNL     1      -7.755  18.886  66.014  1.00  0.00    -0.239 C  
HETATM   31  N   UNL     1     -10.186  17.140  66.283  1.00  0.00    -0.329 N  
HETATM   32  O   UNL     1     -10.942  19.129  65.405  1.00  0.00    -0.477 OA 
BRANCH  31  33
HETATM   33  C   UNL     1     -10.759  16.412  65.200  1.00  0.00    -0.291 C  
BRANCH  33  34
HETATM   34  O   UNL     1     -11.421  15.290  65.690  1.00  0.00    -0.260 OA 
HETATM   35  P   UNL     1     -11.963  14.305  64.374  1.00  0.00    -0.361 P  
HETATM   36  O   UNL     1     -13.312  14.173  65.286  1.00  0.00    -0.715 OA 
HETATM   37  O   UNL     1     -11.098  13.131  65.108  1.00  0.00    -0.280 OA 
HETATM   38  O   UNL     1     -12.447  13.425  63.198  1.00  0.00    -0.710 OA 
ENDBRANCH  33  34
ENDBRANCH  31  33
ENDBRANCH  18  20
ENDBRANCH  14  18
ENDBRANCH   9  11
ENDBRANCH   5   9
BRANCH   7  39
HETATM   39  O   UNL     1     -10.691   4.405  65.650  1.00  0.00    -0.240 OA 
HETATM   40  C   UNL     1      -9.846   4.073  64.560  1.00  0.00    -0.186 C  
ENDBRANCH   7  39
BRANCH   8  41
HETATM   41  O   UNL     1      -9.596   3.429  68.119  1.00  0.00    -0.177 OA 
HETATM   42  C   UNL     1      -8.371   2.747  67.916  1.00  0.00    -0.080 C  
ENDBRANCH   8  41
ENDBRANCH   2   3
TORSDOF 9
ENDMDL
MODEL       88
REMARK 921   NORMALIZED FREE ENERGY PREDICTED BY IDOCK:   -5.98 KCAL/MOL
REMARK 922        TOTAL FREE ENERGY PREDICTED BY IDOCK:  -10.99 KCAL/MOL
REMARK 923 INTER-LIGAND FREE ENERGY PREDICTED BY IDOCK:   -8.87 KCAL/MOL
REMARK 924 INTRA-LIGAND FREE ENERGY PREDICTED BY IDOCK:   -2.11 KCAL/MOL
REMARK 927      BINDING AFFINITY PREDICTED BY RF-SCORE:    0.00 PKD
ROOT
HETATM    1  C   UNL     1     -12.178  10.075  71.673  1.00  0.00    -0.367 C  
HETATM    2  O   UNL     1     -11.655   8.745  71.719  1.00  0.00    -0.299 OA 
ENDROOT
BRANCH   2   3
HETATM    3  C   UNL     1     -10.558   8.537  70.920  1.00  0.00    -0.208 A  
HETATM    4  C   UNL     1     -10.728   8.396  69.531  1.00  0.00    -0.181 A  
HETATM    5  C   UNL     1      -9.680   8.077  68.677  1.00  0.00    -0.159 A  
HETATM    6  C   UNL     1      -8.420   7.938  69.264  1.00  0.00    -0.137 A  
HETATM    7  C   UNL     1      -8.193   8.136  70.636  1.00  0.00    -0.114 A  
HETATM    8  C   UNL     1      -9.268   8.476  71.486  1.00  0.00    -0.221 A  
BRANCH   5   9
HETATM    9  N   UNL     1      -9.839   7.873  67.302  1.00  0.00    -0.177 NA 
HETATM   10  H   UNL     1     -10.276   6.980  67.076  1.00  0.00     0.000 HD 
BRANCH   9  11
HETATM   11  C   UNL     1      -9.525   8.632  66.174  1.00  0.00    -0.240 A  
HETATM   12  N   UNL     1      -8.433   8.211  65.520  1.00  0.00    -0.156 NA 
HETATM   13  N   UNL     1     -10.257   9.694  65.776  1.00  0.00    -0.207 NA 
HETATM   14  C   UNL     1      -9.878  10.381  64.668  1.00  0.00    -0.338 A  
HETATM   15  F   UNL     1      -8.432  10.542  62.768  1.00  0.00    -0.151 F  
HETATM   16  C   UNL     1      -8.095   8.887  64.402  1.00  0.00    -0.153 A  
HETATM   17  C   UNL     1      -8.805   9.957  63.913  1.00  0.00    -0.227 A  
BRANCH  14  18
HETATM   18  N   UNL     1     -10.695  11.471  64.325  1.00  0.00    -0.332 NA 
HETATM   19  H   UNL     1     -11.396  11.258  63.616  1.00  0.00     0.000 HD 
BRANCH  18  20
HETATM   20  C   UNL     1     -10.726  12.808  64.783  1.00  0.00    -0.316 A  
HETATM   21  N   UNL     1      -9.796  13.310  65.625  1.00  0.00    -0.212 NA 
HETATM   22  C   UNL     1      -9.841  14.634  65.966  1.00  0.00    -0.322 A  
HETATM   23  C   UNL     1     -10.872  15.473  65.549  1.00  0.00    -0.361 A  
HETATM   24  O   UNL     1     -11.021  16.775  65.955  1.00  0.00    -0.101 OA 
HETATM   25  C   UNL     1     -11.830  14.960  64.691  1.00  0.00    -0.412 A  
HETATM   26  C   UNL     1     -10.304  17.081  67.148  1.00  0.00    -0.305 C  
HETATM   27  C   UNL     1     -11.758  13.621  64.311  1.00  0.00    -0.438 A  
HETATM   28  C   UNL     1      -8.865  16.543  67.137  1.00  0.00    -0.195 C  
HETATM   29  C   UNL     1     -10.292  18.602  67.330  1.00  0.00    -0.447 C  
HETATM   30  C   UNL     1     -10.989  16.445  68.385  1.00  0.00    -0.353 C  
HETATM   31  N   UNL     1      -8.797  15.221  66.732  1.00  0.00    -0.251 N  
HETATM   32  O   UNL     1      -7.908  17.152  67.613  1.00  0.00    -0.173 OA 
BRANCH  31  33
HETATM   33  C   UNL     1      -7.734  14.448  67.281  1.00  0.00    -0.137 C  
BRANCH  33  34
HETATM   34  O   UNL     1      -8.227  13.624  68.288  1.00  0.00    -0.145 OA 
HETATM   35  P   UNL     1      -7.645  12.009  68.065  1.00  0.00    -0.144 P  
HETATM   36  O   UNL     1      -9.178  11.611  68.466  1.00  0.00    -0.193 OA 
HETATM   37  O   UNL     1      -7.069  12.180  69.583  1.00  0.00     0.091 OA 
HETATM   38  O   UNL     1      -7.125  10.565  67.866  1.00  0.00    -0.081 OA 
ENDBRANCH  33  34
ENDBRANCH  31  33
ENDBRANCH  18  20
ENDBRANCH  14  18
ENDBRANCH   9  11
ENDBRANCH   5   9
BRANCH   7  39
HETATM   39  O   UNL     1      -6.881   7.899  70.968  1.00  0.00    -0.041 OA 
HETATM   40  C   UNL     1      -5.884   8.862  70.669  1.00  0.00    -0.033 C  
ENDBRANCH   7  39
BRANCH   8  41
HETATM   41  O   UNL     1      -8.939   8.751  72.782  1.00  0.00    -0.361 OA 
HETATM   42  C   UNL     1      -8.940   7.776  73.810  1.00  0.00    -0.277 C  
ENDBRANCH   8  41
ENDBRANCH   2   3
TORSDOF 9
ENDMDL
MODEL       89
REMARK 921   NORMALIZED FREE ENERGY PREDICTED BY IDOCK:   -5.97 KCAL/MOL
REMARK 922        TOTAL FREE ENERGY PREDICTED BY IDOCK:  -10.98 KCAL/MOL
REMARK 923 INTER-LIGAND FREE ENERGY PREDICTED BY IDOCK:   -9.36 KCAL/MOL
REMARK 924 INTRA-LIGAND FREE ENERGY PREDICTED BY IDOCK:   -1.63 KCAL/MOL
REMARK 927      BINDING AFFINITY PREDICTED BY RF-SCORE:    0.00 PKD
ROOT
HETATM    1  C   UNL     1      -6.508   5.848  66.982  1.00  0.00    -0.050 C  
HETATM    2  O   UNL     1      -7.791   5.218  66.963  1.00  0.00    -0.099 OA 
ENDROOT
BRANCH   2   3
HETATM    3  C   UNL     1      -8.456   5.245  68.164  1.00  0.00    -0.096 A  
HETATM    4  C   UNL     1      -8.726   6.481  68.779  1.00  0.00    -0.123 A  
HETATM    5  C   UNL     1      -9.298   6.580  70.041  1.00  0.00    -0.157 A  
HETATM    6  C   UNL     1      -9.632   5.377  70.668  1.00  0.00    -0.228 A  
HETATM    7  C   UNL     1      -9.441   4.124  70.062  1.00  0.00    -0.190 A  
HETATM    8  C   UNL     1      -8.875   4.045  68.772  1.00  0.00    -0.106 A  
BRANCH   5   9
HETATM    9  N   UNL     1      -9.520   7.796  70.696  1.00  0.00    -0.162 NA 
HETATM   10  H   UNL     1      -8.772   8.048  71.341  1.00  0.00     0.000 HD 
BRANCH   9  11
HETATM   11  C   UNL     1     -10.548   8.739  70.653  1.00  0.00    -0.215 A  
HETATM   12  N   UNL     1     -11.235   8.848  71.798  1.00  0.00    -0.340 NA 
HETATM   13  N   UNL     1     -10.824   9.475  69.556  1.00  0.00    -0.233 NA 
HETATM   14  C   UNL     1     -11.846  10.368  69.599  1.00  0.00    -0.180 A  
HETATM   15  F   UNL     1     -13.509  11.498  70.895  1.00  0.00    -0.093 F  
HETATM   16  C   UNL     1     -12.224   9.766  71.829  1.00  0.00    -0.367 A  
HETATM   17  C   UNL     1     -12.546  10.577  70.767  1.00  0.00    -0.382 A  
BRANCH  14  18
HETATM   18  N   UNL     1     -12.064  11.092  68.414  1.00  0.00    -0.786 NA 
HETATM   19  H   UNL     1     -12.837  10.741  67.849  1.00  0.00     0.000 HD 
BRANCH  18  20
HETATM   20  C   UNL     1     -11.409  12.216  67.861  1.00  0.00    -0.300 A  
HETATM   21  N   UNL     1     -10.957  13.239  68.618  1.00  0.00    -0.256 NA 
HETATM   22  C   UNL     1     -10.262  14.259  68.027  1.00  0.00    -0.226 A  
HETATM   23  C   UNL     1     -10.082  14.332  66.648  1.00  0.00    -0.273 A  
HETATM   24  O   UNL     1      -9.493  15.387  66.000  1.00  0.00    -0.306 OA 
HETATM   25  C   UNL     1     -10.551  13.287  65.868  1.00  0.00    -0.288 A  
HETATM   26  C   UNL     1      -9.461  16.581  66.777  1.00  0.00    -0.249 C  
HETATM   27  C   UNL     1     -11.220  12.228  66.478  1.00  0.00    -0.373 A  
HETATM   28  C   UNL     1      -9.002  16.343  68.224  1.00  0.00    -0.206 C  
HETATM   29  C   UNL     1      -8.526  17.583  66.091  1.00  0.00    -0.177 C  
HETATM   30  C   UNL     1     -10.871  17.217  66.875  1.00  0.00    -0.005 C  
HETATM   31  N   UNL     1      -9.652  15.272  68.815  1.00  0.00    -0.205 N  
HETATM   32  O   UNL     1      -8.285  17.124  68.847  1.00  0.00    -0.255 OA 
BRANCH  31  33
HETATM   33  C   UNL     1      -9.834  15.347  70.226  1.00  0.00     0.168 C  
BRANCH  33  34
HETATM   34  O   UNL     1     -10.986  16.073  70.510  1.00  0.00    -0.335 OA 
HETATM   35  P   UNL     1     -11.980  15.189  71.617  1.00  0.00    -0.434 P  
HETATM   36  O   UNL     1     -13.186  15.708  70.643  1.00  0.00    -0.487 OA 
HETATM   37  O   UNL     1     -11.865  16.531  72.540  1.00  0.00    -0.534 OA 
HETATM   38  O   UNL     1     -12.870  14.399  72.607  1.00  0.00    -0.388 OA 
ENDBRANCH  33  34
ENDBRANCH  31  33
ENDBRANCH  18  20
ENDBRANCH  14  18
ENDBRANCH   9  11
ENDBRANCH   5   9
BRANCH   7  39
HETATM   39  O   UNL     1      -9.811   3.099  70.899  1.00  0.00    -0.148 OA 
HETATM   40  C   UNL     1      -9.450   3.131  72.270  1.00  0.00    -0.123 C  
ENDBRANCH   7  39
BRANCH   8  41
HETATM   41  O   UNL     1      -8.822   2.797  68.220  1.00  0.00    -0.094 OA 
HETATM   42  C   UNL     1      -7.688   1.952  68.308  1.00  0.00    -0.053 C  
ENDBRANCH   8  41
ENDBRANCH   2   3
TORSDOF 9
ENDMDL
MODEL       90
REMARK 921   NORMALIZED FREE ENERGY PREDICTED BY IDOCK:   -5.95 KCAL/MOL
REMARK 922        TOTAL FREE ENERGY PREDICTED BY IDOCK:  -10.95 KCAL/MOL
REMARK 923 INTER-LIGAND FREE ENERGY PREDICTED BY IDOCK:   -9.39 KCAL/MOL
REMARK 924 INTRA-LIGAND FREE ENERGY PREDICTED BY IDOCK:   -1.56 KCAL/MOL
REMARK 927      BINDING AFFINITY PREDICTED BY RF-SCORE:    0.00 PKD
ROOT
HETATM    1  C   UNL     1     -11.522  10.807  68.335  1.00  0.00    -0.288 C  
HETATM    2  O   UNL     1     -11.688  11.014  69.740  1.00  0.00    -0.273 OA 
ENDROOT
BRANCH   2   3
HETATM    3  C   UNL     1     -12.058  12.291  70.087  1.00  0.00    -0.287 A  
HETATM    4  C   UNL     1     -11.734  13.362  69.234  1.00  0.00    -0.383 A  
HETATM    5  C   UNL     1     -11.981  14.687  69.571  1.00  0.00    -0.319 A  
HETATM    6  C   UNL     1     -12.610  14.910  70.799  1.00  0.00    -0.414 A  
HETATM    7  C   UNL     1     -13.011  13.866  71.649  1.00  0.00    -0.352 A  
HETATM    8  C   UNL     1     -12.767  12.525  71.282  1.00  0.00    -0.252 A  
BRANCH   5   9
HETATM    9  N   UNL     1     -11.612  15.770  68.766  1.00  0.00    -0.382 NA 
HETATM   10  H   UNL     1     -12.374  16.114  68.182  1.00  0.00     0.000 HD 
BRANCH   9  11
HETATM   11  C   UNL     1     -10.423  16.480  68.593  1.00  0.00    -0.304 A  
HETATM   12  N   UNL     1     -10.595  17.725  68.127  1.00  0.00    -0.371 NA 
HETATM   13  N   UNL     1      -9.210  15.959  68.873  1.00  0.00    -0.217 NA 
HETATM   14  C   UNL     1      -8.102  16.719  68.671  1.00  0.00    -0.251 A  
HETATM   15  F   UNL     1      -7.168  18.851  68.120  1.00  0.00    -0.242 F  
HETATM   16  C   UNL     1      -9.483  18.473  67.967  1.00  0.00    -0.303 A  
HETATM   17  C   UNL     1      -8.216  18.028  68.259  1.00  0.00    -0.292 A  
BRANCH  14  18
HETATM   18  N   UNL     1      -6.881  16.099  68.987  1.00  0.00    -0.163 NA 
HETATM   19  H   UNL     1      -6.074  16.721  68.936  1.00  0.00     0.000 HD 
BRANCH  18  20
HETATM   20  C   UNL     1      -6.565  14.774  69.364  1.00  0.00    -0.142 A  
HETATM   21  N   UNL     1      -6.720  13.724  68.528  1.00  0.00    -0.085 NA 
HETATM   22  C   UNL     1      -6.321  12.478  68.930  1.00  0.00    -0.086 A  
HETATM   23  C   UNL     1      -5.843  12.231  70.214  1.00  0.00    -0.166 A  
HETATM   24  O   UNL     1      -5.537  10.985  70.699  1.00  0.00    -0.113 OA 
HETATM   25  C   UNL     1      -5.689  13.304  71.076  1.00  0.00    -0.140 A  
HETATM   26  C   UNL     1      -6.136   9.927  69.956  1.00  0.00    -0.053 C  
HETATM   27  C   UNL     1      -6.056  14.580  70.649  1.00  0.00    -0.174 A  
HETATM   28  C   UNL     1      -5.997  10.107  68.437  1.00  0.00    -0.041 C  
HETATM   29  C   UNL     1      -5.491   8.605  70.387  1.00  0.00    -0.020 C  
HETATM   30  C   UNL     1      -7.658   9.843  70.240  1.00  0.00    -0.172 C  
HETATM   31  N   UNL     1      -6.338  11.384  68.023  1.00  0.00    -0.052 N  
HETATM   32  O   UNL     1      -5.794   9.178  67.658  1.00  0.00    -0.045 OA 
BRANCH  31  33
HETATM   33  C   UNL     1      -6.879  11.497  66.710  1.00  0.00    -0.114 C  
BRANCH  33  34
HETATM   34  O   UNL     1      -8.213  11.102  66.720  1.00  0.00    -0.142 OA 
HETATM   35  P   UNL     1      -8.508   9.995  65.422  1.00  0.00    -0.169 P  
HETATM   36  O   UNL     1      -9.883  10.864  65.254  1.00  0.00    -0.230 OA 
HETATM   37  O   UNL     1      -9.032   8.999  66.604  1.00  0.00    -0.127 OA 
HETATM   38  O   UNL     1      -8.773   9.006  64.261  1.00  0.00    -0.185 OA 
ENDBRANCH  33  34
ENDBRANCH  31  33
ENDBRANCH  18  20
ENDBRANCH  14  18
ENDBRANCH   9  11
ENDBRANCH   5   9
BRANCH   7  39
HETATM   39  O   UNL     1     -13.568  14.349  72.809  1.00  0.00    -0.519 OA 
HETATM   40  C   UNL     1     -13.447  15.722  73.141  1.00  0.00    -0.561 C  
ENDBRANCH   7  39
BRANCH   8  41
HETATM   41  O   UNL     1     -13.282  11.575  72.117  1.00  0.00    -0.505 OA 
HETATM   42  C   UNL     1     -13.181  10.184  71.872  1.00  0.00    -0.452 C  
ENDBRANCH   8  41
ENDBRANCH   2   3
TORSDOF 9
ENDMDL
MODEL       91
REMARK 921   NORMALIZED FREE ENERGY PREDICTED BY IDOCK:   -5.95 KCAL/MOL
REMARK 922        TOTAL FREE ENERGY PREDICTED BY IDOCK:  -10.94 KCAL/MOL
REMARK 923 INTER-LIGAND FREE ENERGY PREDICTED BY IDOCK:   -9.26 KCAL/MOL
REMARK 924 INTRA-LIGAND FREE ENERGY PREDICTED BY IDOCK:   -1.68 KCAL/MOL
REMARK 927      BINDING AFFINITY PREDICTED BY RF-SCORE:    0.00 PKD
ROOT
HETATM    1  C   UNL     1     -14.294  14.389  72.023  1.00  0.00    -0.553 C  
HETATM    2  O   UNL     1     -12.919  14.002  71.985  1.00  0.00    -0.338 OA 
ENDROOT
BRANCH   2   3
HETATM    3  C   UNL     1     -12.609  13.095  71.001  1.00  0.00    -0.312 A  
HETATM    4  C   UNL     1     -12.784  11.720  71.246  1.00  0.00    -0.420 A  
HETATM    5  C   UNL     1     -12.392  10.743  70.340  1.00  0.00    -0.353 A  
HETATM    6  C   UNL     1     -11.842  11.195  69.137  1.00  0.00    -0.419 A  
HETATM    7  C   UNL     1     -11.712  12.559  68.825  1.00  0.00    -0.327 A  
HETATM    8  C   UNL     1     -12.131  13.537  69.751  1.00  0.00    -0.318 A  
BRANCH   5   9
HETATM    9  N   UNL     1     -12.501   9.371  70.588  1.00  0.00    -0.492 NA 
HETATM   10  H   UNL     1     -13.419   8.992  70.357  1.00  0.00     0.000 HD 
BRANCH   9  11
HETATM   11  C   UNL     1     -11.620   8.411  71.086  1.00  0.00    -0.279 A  
HETATM   12  N   UNL     1     -10.960   8.794  72.188  1.00  0.00    -0.364 NA 
HETATM   13  N   UNL     1     -11.449   7.202  70.510  1.00  0.00    -0.296 NA 
HETATM   14  C   UNL     1     -10.566   6.327  71.058  1.00  0.00    -0.238 A  
HETATM   15  F   UNL     1      -9.090   5.785  72.861  1.00  0.00    -0.125 F  
HETATM   16  C   UNL     1     -10.115   7.896  72.736  1.00  0.00    -0.300 A  
HETATM   17  C   UNL     1      -9.909   6.635  72.229  1.00  0.00    -0.152 A  
BRANCH  14  18
HETATM   18  N   UNL     1     -10.451   5.093  70.395  1.00  0.00    -0.252 NA 
HETATM   19  H   UNL     1     -10.971   4.334  70.835  1.00  0.00     0.000 HD 
BRANCH  18  20
HETATM   20  C   UNL     1      -9.747   4.710  69.230  1.00  0.00    -0.196 A  
HETATM   21  N   UNL     1      -9.193   5.608  68.387  1.00  0.00    -0.117 NA 
HETATM   22  C   UNL     1      -8.458   5.167  67.321  1.00  0.00    -0.106 A  
HETATM   23  C   UNL     1      -8.336   3.814  67.013  1.00  0.00    -0.099 A  
HETATM   24  O   UNL     1      -7.706   3.329  65.896  1.00  0.00    -0.080 OA 
HETATM   25  C   UNL     1      -8.908   2.891  67.872  1.00  0.00    -0.165 A  
HETATM   26  C   UNL     1      -7.558   4.301  64.864  1.00  0.00    -0.077 C  
HETATM   27  C   UNL     1      -9.620   3.342  68.983  1.00  0.00    -0.122 A  
HETATM   28  C   UNL     1      -7.052   5.655  65.383  1.00  0.00    -0.066 C  
HETATM   29  C   UNL     1      -6.590   3.749  63.812  1.00  0.00    -0.042 C  
HETATM   30  C   UNL     1      -8.917   4.587  64.174  1.00  0.00    -0.144 C  
HETATM   31  N   UNL     1      -7.746   6.085  66.502  1.00  0.00    -0.101 N  
HETATM   32  O   UNL     1      -6.257   6.364  64.769  1.00  0.00    -0.029 OA 
BRANCH  31  33
HETATM   33  C   UNL     1      -7.859   7.495  66.670  1.00  0.00    -0.106 C  
BRANCH  33  34
HETATM   34  O   UNL     1      -8.996   7.954  66.013  1.00  0.00    -0.169 OA 
HETATM   35  P   UNL     1      -8.913   9.672  65.823  1.00  0.00    -0.200 P  
HETATM   36  O   UNL     1     -10.492   9.598  66.239  1.00  0.00    -0.191 OA 
HETATM   37  O   UNL     1      -9.099   9.343  64.234  1.00  0.00    -0.214 OA 
HETATM   38  O   UNL     1      -8.839  11.209  65.653  1.00  0.00    -0.196 OA 
ENDBRANCH  33  34
ENDBRANCH  31  33
ENDBRANCH  18  20
ENDBRANCH  14  18
ENDBRANCH   9  11
ENDBRANCH   5   9
BRANCH   7  39
HETATM   39  O   UNL     1     -11.106  12.739  67.604  1.00  0.00    -0.238 OA 
HETATM   40  C   UNL     1     -11.884  12.775  66.419  1.00  0.00    -0.408 C  
ENDBRANCH   7  39
BRANCH   8  41
HETATM   41  O   UNL     1     -12.064  14.832  69.323  1.00  0.00    -0.305 OA 
HETATM   42  C   UNL     1     -11.341  15.842  70.004  1.00  0.00    -0.351 C  
ENDBRANCH   8  41
ENDBRANCH   2   3
TORSDOF 9
ENDMDL
MODEL       92
REMARK 921   NORMALIZED FREE ENERGY PREDICTED BY IDOCK:   -5.95 KCAL/MOL
REMARK 922        TOTAL FREE ENERGY PREDICTED BY IDOCK:  -10.94 KCAL/MOL
REMARK 923 INTER-LIGAND FREE ENERGY PREDICTED BY IDOCK:   -9.81 KCAL/MOL
REMARK 924 INTRA-LIGAND FREE ENERGY PREDICTED BY IDOCK:   -1.13 KCAL/MOL
REMARK 927      BINDING AFFINITY PREDICTED BY RF-SCORE:    0.00 PKD
ROOT
HETATM    1  C   UNL     1     -10.566  20.487  68.444  1.00  0.00     0.255 C  
HETATM    2  O   UNL     1      -9.305  20.612  67.782  1.00  0.00    -0.267 OA 
ENDROOT
BRANCH   2   3
HETATM    3  C   UNL     1      -8.705  19.417  67.470  1.00  0.00    -0.304 A  
HETATM    4  C   UNL     1      -9.312  18.561  66.533  1.00  0.00    -0.313 A  
HETATM    5  C   UNL     1      -8.820  17.293  66.248  1.00  0.00    -0.215 A  
HETATM    6  C   UNL     1      -7.655  16.914  66.919  1.00  0.00    -0.250 A  
HETATM    7  C   UNL     1      -6.980  17.763  67.813  1.00  0.00    -0.187 A  
HETATM    8  C   UNL     1      -7.485  19.054  68.075  1.00  0.00    -0.260 A  
BRANCH   5   9
HETATM    9  N   UNL     1      -9.441  16.403  65.365  1.00  0.00    -0.328 NA 
HETATM   10  H   UNL     1      -9.291  16.640  64.385  1.00  0.00     0.000 HD 
BRANCH   9  11
HETATM   11  C   UNL     1     -10.223  15.261  65.542  1.00  0.00    -0.388 A  
HETATM   12  N   UNL     1     -11.267  15.181  64.705  1.00  0.00    -0.371 NA 
HETATM   13  N   UNL     1      -9.950  14.321  66.471  1.00  0.00    -0.272 NA 
HETATM   14  C   UNL     1     -10.767  13.241  66.578  1.00  0.00    -0.285 A  
HETATM   15  F   UNL     1     -12.606  11.985  65.705  1.00  0.00    -0.192 F  
HETATM   16  C   UNL     1     -12.044  14.082  64.806  1.00  0.00    -0.437 A  
HETATM   17  C   UNL     1     -11.816  13.066  65.702  1.00  0.00    -0.399 A  
BRANCH  14  18
HETATM   18  N   UNL     1     -10.410  12.312  67.570  1.00  0.00    -0.202 NA 
HETATM   19  H   UNL     1     -10.209  12.731  68.479  1.00  0.00     0.000 HD 
BRANCH  18  20
HETATM   20  C   UNL     1     -10.278  10.905  67.542  1.00  0.00    -0.190 A  
HETATM   21  N   UNL     1     -10.426  10.138  68.644  1.00  0.00    -0.192 NA 
HETATM   22  C   UNL     1     -10.363   8.776  68.531  1.00  0.00    -0.199 A  
HETATM   23  C   UNL     1     -10.056   8.145  67.327  1.00  0.00    -0.241 A  
HETATM   24  O   UNL     1      -9.871   6.794  67.188  1.00  0.00    -0.143 OA 
HETATM   25  C   UNL     1      -9.897   8.929  66.197  1.00  0.00    -0.326 A  
HETATM   26  C   UNL     1      -9.596   6.131  68.420  1.00  0.00    -0.118 C  
HETATM   27  C   UNL     1     -10.005  10.315  66.307  1.00  0.00    -0.295 A  
HETATM   28  C   UNL     1     -10.533   6.565  69.556  1.00  0.00    -0.222 C  
HETATM   29  C   UNL     1      -9.713   4.620  68.194  1.00  0.00    -0.197 C  
HETATM   30  C   UNL     1      -8.158   6.443  68.907  1.00  0.00    -0.111 C  
HETATM   31  N   UNL     1     -10.656   7.942  69.643  1.00  0.00    -0.237 N  
HETATM   32  O   UNL     1     -10.970   5.794  70.409  1.00  0.00    -0.298 OA 
BRANCH  31  33
HETATM   33  C   UNL     1     -10.905   8.472  70.942  1.00  0.00    -0.232 C  
BRANCH  33  34
HETATM   34  O   UNL     1     -12.275   8.489  71.185  1.00  0.00    -0.292 OA 
HETATM   35  P   UNL     1     -12.770  10.080  71.653  1.00  0.00    -0.450 P  
HETATM   36  O   UNL     1     -13.673   9.266  72.744  1.00  0.00    -0.410 OA 
HETATM   37  O   UNL     1     -13.800   9.956  70.392  1.00  0.00     0.181 OA 
HETATM   38  O   UNL     1     -13.212  11.503  72.071  1.00  0.00    -0.509 OA 
ENDBRANCH  33  34
ENDBRANCH  31  33
ENDBRANCH  18  20
ENDBRANCH  14  18
ENDBRANCH   9  11
ENDBRANCH   5   9
BRANCH   7  39
HETATM   39  O   UNL     1      -5.888  17.141  68.369  1.00  0.00    -0.136 OA 
HETATM   40  C   UNL     1      -5.682  15.751  68.175  1.00  0.00    -0.123 C  
ENDBRANCH   7  39
BRANCH   8  41
HETATM   41  O   UNL     1      -6.711  19.846  68.874  1.00  0.00    -0.306 OA 
HETATM   42  C   UNL     1      -5.847  20.850  68.372  1.00  0.00    -0.352 C  
ENDBRANCH   8  41
ENDBRANCH   2   3
TORSDOF 9
ENDMDL
MODEL       93
REMARK 921   NORMALIZED FREE ENERGY PREDICTED BY IDOCK:   -5.95 KCAL/MOL
REMARK 922        TOTAL FREE ENERGY PREDICTED BY IDOCK:  -10.94 KCAL/MOL
REMARK 923 INTER-LIGAND FREE ENERGY PREDICTED BY IDOCK:   -9.93 KCAL/MOL
REMARK 924 INTRA-LIGAND FREE ENERGY PREDICTED BY IDOCK:   -1.01 KCAL/MOL
REMARK 927      BINDING AFFINITY PREDICTED BY RF-SCORE:    0.00 PKD
ROOT
HETATM    1  C   UNL     1      -8.714   8.747  65.370  1.00  0.00    -0.183 C  
HETATM    2  O   UNL     1      -7.881   7.586  65.318  1.00  0.00    -0.104 OA 
ENDROOT
BRANCH   2   3
HETATM    3  C   UNL     1      -8.444   6.457  65.863  1.00  0.00    -0.147 A  
HETATM    4  C   UNL     1      -9.059   6.530  67.126  1.00  0.00    -0.122 A  
HETATM    5  C   UNL     1      -9.552   5.411  67.784  1.00  0.00    -0.128 A  
HETATM    6  C   UNL     1      -9.441   4.193  67.108  1.00  0.00    -0.215 A  
HETATM    7  C   UNL     1      -8.895   4.086  65.818  1.00  0.00    -0.123 A  
HETATM    8  C   UNL     1      -8.415   5.237  65.158  1.00  0.00    -0.149 A  
BRANCH   5   9
HETATM    9  N   UNL     1     -10.113   5.452  69.065  1.00  0.00    -0.197 NA 
HETATM   10  H   UNL     1     -10.331   4.529  69.438  1.00  0.00     0.000 HD 
BRANCH   9  11
HETATM   11  C   UNL     1     -10.436   6.489  69.940  1.00  0.00    -0.213 A  
HETATM   12  N   UNL     1      -9.861   6.384  71.147  1.00  0.00    -0.179 NA 
HETATM   13  N   UNL     1     -11.255   7.508  69.602  1.00  0.00    -0.083 NA 
HETATM   14  C   UNL     1     -11.521   8.475  70.518  1.00  0.00    -0.182 A  
HETATM   15  F   UNL     1     -11.064   9.426  72.665  1.00  0.00     0.091 F  
HETATM   16  C   UNL     1     -10.111   7.374  72.029  1.00  0.00    -0.182 A  
HETATM   17  C   UNL     1     -10.906   8.461  71.751  1.00  0.00    -0.284 A  
BRANCH  14  18
HETATM   18  N   UNL     1     -12.381   9.497  70.082  1.00  0.00    -0.368 NA 
HETATM   19  H   UNL     1     -13.325   9.179  69.860  1.00  0.00     0.000 HD 
BRANCH  18  20
HETATM   20  C   UNL     1     -12.181  10.883  69.895  1.00  0.00    -0.336 A  
HETATM   21  N   UNL     1     -11.591  11.390  68.791  1.00  0.00    -0.284 NA 
HETATM   22  C   UNL     1     -11.499  12.747  68.639  1.00  0.00    -0.303 A  
HETATM   23  C   UNL     1     -11.911  13.634  69.630  1.00  0.00    -0.335 A  
HETATM   24  O   UNL     1     -11.737  14.993  69.572  1.00  0.00    -0.286 OA 
HETATM   25  C   UNL     1     -12.511  13.117  70.766  1.00  0.00    -0.389 A  
HETATM   26  C   UNL     1     -10.738  15.396  68.638  1.00  0.00    -0.246 C  
HETATM   27  C   UNL     1     -12.642  11.736  70.899  1.00  0.00    -0.384 A  
HETATM   28  C   UNL     1     -10.857  14.677  67.286  1.00  0.00    -0.305 C  
HETATM   29  C   UNL     1     -10.845  16.911  68.436  1.00  0.00    -0.347 C  
HETATM   30  C   UNL     1      -9.319  15.074  69.171  1.00  0.00    -0.189 C  
HETATM   31  N   UNL     1     -11.014  13.309  67.426  1.00  0.00    -0.267 N  
HETATM   32  O   UNL     1     -10.646  15.224  66.204  1.00  0.00    -0.294 OA 
BRANCH  31  33
HETATM   33  C   UNL     1     -10.490  12.503  66.374  1.00  0.00    -0.247 C  
BRANCH  33  34
HETATM   34  O   UNL     1     -11.537  11.902  65.682  1.00  0.00    -0.317 OA 
HETATM   35  P   UNL     1     -12.006  12.896  64.345  1.00  0.00    -0.457 P  
HETATM   36  O   UNL     1     -13.515  12.493  64.827  1.00  0.00    -0.645 OA 
HETATM   37  O   UNL     1     -11.706  11.561  63.455  1.00  0.00    -0.379 OA 
HETATM   38  O   UNL     1     -12.425  13.785  63.149  1.00  0.00    -0.786 OA 
ENDBRANCH  33  34
ENDBRANCH  31  33
ENDBRANCH  18  20
ENDBRANCH  14  18
ENDBRANCH   9  11
ENDBRANCH   5   9
BRANCH   7  39
HETATM   39  O   UNL     1      -8.863   2.779  65.393  1.00  0.00    -0.120 OA 
HETATM   40  C   UNL     1      -8.668   1.730  66.327  1.00  0.00    -0.116 C  
ENDBRANCH   7  39
BRANCH   8  41
HETATM   41  O   UNL     1      -7.998   5.056  63.871  1.00  0.00    -0.089 OA 
HETATM   42  C   UNL     1      -6.882   4.258  63.518  1.00  0.00    -0.044 C  
ENDBRANCH   8  41
ENDBRANCH   2   3
TORSDOF 9
ENDMDL
MODEL       94
REMARK 921   NORMALIZED FREE ENERGY PREDICTED BY IDOCK:   -5.94 KCAL/MOL
REMARK 922        TOTAL FREE ENERGY PREDICTED BY IDOCK:  -10.94 KCAL/MOL
REMARK 923 INTER-LIGAND FREE ENERGY PREDICTED BY IDOCK:   -9.61 KCAL/MOL
REMARK 924 INTRA-LIGAND FREE ENERGY PREDICTED BY IDOCK:   -1.33 KCAL/MOL
REMARK 927      BINDING AFFINITY PREDICTED BY RF-SCORE:    0.00 PKD
ROOT
HETATM    1  C   UNL     1     -10.400  20.283  69.398  1.00  0.00     0.219 C  
HETATM    2  O   UNL     1      -9.679  20.437  68.174  1.00  0.00    -0.278 OA 
ENDROOT
BRANCH   2   3
HETATM    3  C   UNL     1      -8.945  19.337  67.803  1.00  0.00    -0.307 A  
HETATM    4  C   UNL     1      -9.396  18.527  66.745  1.00  0.00    -0.297 A  
HETATM    5  C   UNL     1      -8.764  17.343  66.387  1.00  0.00    -0.242 A  
HETATM    6  C   UNL     1      -7.619  17.005  67.114  1.00  0.00    -0.205 A  
HETATM    7  C   UNL     1      -7.097  17.818  68.133  1.00  0.00    -0.219 A  
HETATM    8  C   UNL     1      -7.743  19.027  68.470  1.00  0.00    -0.333 A  
BRANCH   5   9
HETATM    9  N   UNL     1      -9.230  16.492  65.379  1.00  0.00    -0.162 NA 
HETATM   10  H   UNL     1      -8.886  16.742  64.452  1.00  0.00     0.000 HD 
BRANCH   9  11
HETATM   11  C   UNL     1     -10.067  15.376  65.372  1.00  0.00    -0.359 A  
HETATM   12  N   UNL     1     -11.255  15.588  64.789  1.00  0.00    -0.423 NA 
HETATM   13  N   UNL     1      -9.710  14.188  65.904  1.00  0.00    -0.275 NA 
HETATM   14  C   UNL     1     -10.588  13.152  65.859  1.00  0.00    -0.280 A  
HETATM   15  F   UNL     1     -12.669  12.281  65.063  1.00  0.00    -0.504 F  
HETATM   16  C   UNL     1     -12.098  14.535  64.724  1.00  0.00    -0.445 A  
HETATM   17  C   UNL     1     -11.797  13.286  65.212  1.00  0.00    -0.357 A  
BRANCH  14  18
HETATM   18  N   UNL     1     -10.135  11.953  66.435  1.00  0.00    -0.209 NA 
HETATM   19  H   UNL     1      -9.423  11.471  65.886  1.00  0.00     0.000 HD 
BRANCH  18  20
HETATM   20  C   UNL     1     -10.485  11.292  67.634  1.00  0.00    -0.193 A  
HETATM   21  N   UNL     1      -9.644  10.450  68.273  1.00  0.00    -0.141 NA 
HETATM   22  C   UNL     1     -10.017   9.905  69.471  1.00  0.00    -0.222 A  
HETATM   23  C   UNL     1     -11.280  10.112  70.019  1.00  0.00    -0.299 A  
HETATM   24  O   UNL     1     -11.740   9.500  71.157  1.00  0.00    -0.306 OA 
HETATM   25  C   UNL     1     -12.148  10.970  69.364  1.00  0.00    -0.389 A  
HETATM   26  C   UNL     1     -11.007   8.327  71.503  1.00  0.00    -0.254 C  
HETATM   27  C   UNL     1     -11.749  11.559  68.165  1.00  0.00    -0.357 A  
HETATM   28  C   UNL     1      -9.486   8.523  71.415  1.00  0.00    -0.213 C  
HETATM   29  C   UNL     1     -11.399   7.912  72.925  1.00  0.00    -0.399 C  
HETATM   30  C   UNL     1     -11.345   7.159  70.542  1.00  0.00    -0.333 C  
HETATM   31  N   UNL     1      -9.099   9.132  70.233  1.00  0.00    -0.198 N  
HETATM   32  O   UNL     1      -8.689   8.027  72.210  1.00  0.00    -0.132 OA 
BRANCH  31  33
HETATM   33  C   UNL     1      -7.807   8.787  69.740  1.00  0.00    -0.090 C  
BRANCH  33  34
HETATM   34  O   UNL     1      -7.906   7.668  68.918  1.00  0.00    -0.117 OA 
HETATM   35  P   UNL     1      -6.902   7.873  67.523  1.00  0.00    -0.072 P  
HETATM   36  O   UNL     1      -8.185   7.227  66.746  1.00  0.00    -0.116 OA 
HETATM   37  O   UNL     1      -6.221   6.470  68.007  1.00  0.00    -0.029 OA 
HETATM   38  O   UNL     1      -6.003   8.056  66.276  1.00  0.00    -0.040 OA 
ENDBRANCH  33  34
ENDBRANCH  31  33
ENDBRANCH  18  20
ENDBRANCH  14  18
ENDBRANCH   9  11
ENDBRANCH   5   9
BRANCH   7  39
HETATM   39  O   UNL     1      -5.993  17.245  68.717  1.00  0.00    -0.157 OA 
HETATM   40  C   UNL     1      -6.122  16.523  69.931  1.00  0.00    -0.188 C  
ENDBRANCH   7  39
BRANCH   8  41
HETATM   41  O   UNL     1      -7.109  19.802  69.398  1.00  0.00    -0.351 OA 
HETATM   42  C   UNL     1      -6.030  20.667  69.086  1.00  0.00    -0.336 C  
ENDBRANCH   8  41
ENDBRANCH   2   3
TORSDOF 9
ENDMDL
MODEL       95
REMARK 921   NORMALIZED FREE ENERGY PREDICTED BY IDOCK:   -5.94 KCAL/MOL
REMARK 922        TOTAL FREE ENERGY PREDICTED BY IDOCK:  -10.93 KCAL/MOL
REMARK 923 INTER-LIGAND FREE ENERGY PREDICTED BY IDOCK:   -9.33 KCAL/MOL
REMARK 924 INTRA-LIGAND FREE ENERGY PREDICTED BY IDOCK:   -1.60 KCAL/MOL
REMARK 927      BINDING AFFINITY PREDICTED BY RF-SCORE:    0.00 PKD
ROOT
HETATM    1  C   UNL     1      -6.814   4.792  71.797  1.00  0.00    -0.051 C  
HETATM    2  O   UNL     1      -7.935   4.939  72.673  1.00  0.00    -0.092 OA 
ENDROOT
BRANCH   2   3
HETATM    3  C   UNL     1      -8.879   5.838  72.243  1.00  0.00    -0.135 A  
HETATM    4  C   UNL     1      -8.469   7.089  71.745  1.00  0.00    -0.114 A  
HETATM    5  C   UNL     1      -9.370   8.086  71.394  1.00  0.00    -0.144 A  
HETATM    6  C   UNL     1     -10.725   7.774  71.524  1.00  0.00    -0.255 A  
HETATM    7  C   UNL     1     -11.179   6.515  71.953  1.00  0.00    -0.272 A  
HETATM    8  C   UNL     1     -10.249   5.508  72.289  1.00  0.00    -0.199 A  
BRANCH   5   9
HETATM    9  N   UNL     1      -8.983   9.357  70.955  1.00  0.00    -0.247 NA 
HETATM   10  H   UNL     1      -8.725   9.984  71.716  1.00  0.00     0.000 HD 
BRANCH   9  11
HETATM   11  C   UNL     1      -8.875   9.948  69.695  1.00  0.00    -0.208 A  
HETATM   12  N   UNL     1      -9.615   9.353  68.749  1.00  0.00    -0.152 NA 
HETATM   13  N   UNL     1      -8.095  11.023  69.453  1.00  0.00    -0.005 NA 
HETATM   14  C   UNL     1      -8.045  11.533  68.195  1.00  0.00    -0.146 A  
HETATM   15  F   UNL     1      -8.889  11.519  65.957  1.00  0.00    -0.197 F  
HETATM   16  C   UNL     1      -9.576   9.899  67.514  1.00  0.00    -0.157 A  
HETATM   17  C   UNL     1      -8.834  11.010  67.195  1.00  0.00    -0.140 A  
BRANCH  14  18
HETATM   18  N   UNL     1      -7.210  12.652  68.032  1.00  0.00    -0.099 NA 
HETATM   19  H   UNL     1      -6.232  12.418  67.858  1.00  0.00     0.000 HD 
BRANCH  18  20
HETATM   20  C   UNL     1      -7.474  14.040  68.065  1.00  0.00    -0.141 A  
HETATM   21  N   UNL     1      -8.319  14.640  67.200  1.00  0.00    -0.211 NA 
HETATM   22  C   UNL     1      -8.590  15.974  67.338  1.00  0.00    -0.178 A  
HETATM   23  C   UNL     1      -7.951  16.766  68.288  1.00  0.00    -0.200 A  
HETATM   24  O   UNL     1      -8.105  18.125  68.392  1.00  0.00    -0.287 OA 
HETATM   25  C   UNL     1      -7.079  16.155  69.174  1.00  0.00    -0.209 A  
HETATM   26  C   UNL     1      -8.625  18.727  67.209  1.00  0.00    -0.274 C  
HETATM   27  C   UNL     1      -6.838  14.787  69.058  1.00  0.00    -0.113 A  
HETATM   28  C   UNL     1      -9.819  17.961  66.621  1.00  0.00    -0.342 C  
HETATM   29  C   UNL     1      -9.037  20.166  67.537  1.00  0.00    -0.465 C  
HETATM   30  C   UNL     1      -7.551  18.769  66.092  1.00  0.00    -0.286 C  
HETATM   31  N   UNL     1      -9.582  16.599  66.534  1.00  0.00    -0.258 N  
HETATM   32  O   UNL     1     -10.794  18.509  66.111  1.00  0.00    -0.260 OA 
BRANCH  31  33
HETATM   33  C   UNL     1     -10.245  15.911  65.476  1.00  0.00    -0.365 C  
BRANCH  33  34
HETATM   34  O   UNL     1     -11.385  15.285  65.970  1.00  0.00    -0.286 OA 
HETATM   35  P   UNL     1     -11.543  13.711  65.267  1.00  0.00    -0.354 P  
HETATM   36  O   UNL     1     -13.120  14.129  65.167  1.00  0.00    -0.757 OA 
HETATM   37  O   UNL     1     -11.560  13.198  66.817  1.00  0.00    -0.329 OA 
HETATM   38  O   UNL     1     -11.685  12.304  64.639  1.00  0.00    -0.343 OA 
ENDBRANCH  33  34
ENDBRANCH  31  33
ENDBRANCH  18  20
ENDBRANCH  14  18
ENDBRANCH   9  11
ENDBRANCH   5   9
BRANCH   7  39
HETATM   39  O   UNL     1     -12.550   6.476  72.035  1.00  0.00    -0.319 OA 
HETATM   40  C   UNL     1     -13.321   7.602  71.647  1.00  0.00    -0.350 C  
ENDBRANCH   7  39
BRANCH   8  41
HETATM   41  O   UNL     1     -10.777   4.287  72.595  1.00  0.00    -0.167 OA 
HETATM   42  C   UNL     1     -10.907   3.804  73.920  1.00  0.00    -0.223 C  
ENDBRANCH   8  41
ENDBRANCH   2   3
TORSDOF 9
ENDMDL
MODEL       96
REMARK 921   NORMALIZED FREE ENERGY PREDICTED BY IDOCK:   -5.92 KCAL/MOL
REMARK 922        TOTAL FREE ENERGY PREDICTED BY IDOCK:  -10.89 KCAL/MOL
REMARK 923 INTER-LIGAND FREE ENERGY PREDICTED BY IDOCK:   -9.49 KCAL/MOL
REMARK 924 INTRA-LIGAND FREE ENERGY PREDICTED BY IDOCK:   -1.40 KCAL/MOL
REMARK 927      BINDING AFFINITY PREDICTED BY RF-SCORE:    0.00 PKD
ROOT
HETATM    1  C   UNL     1     -10.524  15.222  65.594  1.00  0.00    -0.358 C  
HETATM    2  O   UNL     1     -11.586  14.405  66.092  1.00  0.00    -0.353 OA 
ENDROOT
BRANCH   2   3
HETATM    3  C   UNL     1     -11.219  13.118  66.400  1.00  0.00    -0.300 A  
HETATM    4  C   UNL     1     -11.139  12.724  67.748  1.00  0.00    -0.289 A  
HETATM    5  C   UNL     1     -10.672  11.474  68.136  1.00  0.00    -0.205 A  
HETATM    6  C   UNL     1     -10.313  10.598  67.109  1.00  0.00    -0.275 A  
HETATM    7  C   UNL     1     -10.440  10.927  65.749  1.00  0.00    -0.210 A  
HETATM    8  C   UNL     1     -10.933  12.195  65.373  1.00  0.00    -0.302 A  
BRANCH   5   9
HETATM    9  N   UNL     1     -10.528  11.084  69.472  1.00  0.00    -0.425 NA 
HETATM   10  H   UNL     1      -9.634  11.358  69.876  1.00  0.00     0.000 HD 
BRANCH   9  11
HETATM   11  C   UNL     1     -11.350  10.399  70.367  1.00  0.00    -0.337 A  
HETATM   12  N   UNL     1     -12.648  10.718  70.271  1.00  0.00    -0.314 NA 
HETATM   13  N   UNL     1     -10.878   9.493  71.251  1.00  0.00    -0.353 NA 
HETATM   14  C   UNL     1     -11.748   8.874  72.091  1.00  0.00    -0.341 A  
HETATM   15  F   UNL     1     -14.015   8.470  72.738  1.00  0.00    -0.338 F  
HETATM   16  C   UNL     1     -13.498  10.065  71.091  1.00  0.00    -0.230 A  
HETATM   17  C   UNL     1     -13.102   9.108  71.994  1.00  0.00    -0.429 A  
BRANCH  14  18
HETATM   18  N   UNL     1     -11.173   7.948  72.977  1.00  0.00    -0.468 NA 
HETATM   19  H   UNL     1     -11.275   8.196  73.961  1.00  0.00     0.000 HD 
BRANCH  18  20
HETATM   20  C   UNL     1     -10.480   6.736  72.756  1.00  0.00    -0.220 A  
HETATM   21  N   UNL     1      -9.664   6.547  71.697  1.00  0.00    -0.164 NA 
HETATM   22  C   UNL     1      -8.962   5.378  71.586  1.00  0.00    -0.136 A  
HETATM   23  C   UNL     1      -9.129   4.325  72.483  1.00  0.00    -0.115 A  
HETATM   24  O   UNL     1      -8.536   3.096  72.351  1.00  0.00    -0.077 OA 
HETATM   25  C   UNL     1      -9.970   4.513  73.567  1.00  0.00    -0.179 A  
HETATM   26  C   UNL     1      -8.080   2.827  71.027  1.00  0.00    -0.053 C  
HETATM   27  C   UNL     1     -10.651   5.722  73.701  1.00  0.00    -0.302 A  
HETATM   28  C   UNL     1      -7.322   4.007  70.403  1.00  0.00    -0.042 C  
HETATM   29  C   UNL     1      -7.179   1.588  71.066  1.00  0.00    -0.032 C  
HETATM   30  C   UNL     1      -9.272   2.534  70.080  1.00  0.00    -0.199 C  
HETATM   31  N   UNL     1      -7.990   5.210  70.563  1.00  0.00    -0.088 N  
HETATM   32  O   UNL     1      -6.335   3.876  69.681  1.00  0.00    -0.027 OA 
BRANCH  31  33
HETATM   33  C   UNL     1      -7.789   6.184  69.542  1.00  0.00    -0.100 C  
BRANCH  33  34
HETATM   34  O   UNL     1      -8.208   5.671  68.319  1.00  0.00    -0.102 OA 
HETATM   35  P   UNL     1      -9.824   6.192  67.986  1.00  0.00    -0.146 P  
HETATM   36  O   UNL     1     -10.009   4.650  67.479  1.00  0.00    -0.168 OA 
HETATM   37  O   UNL     1      -9.176   6.789  66.611  1.00  0.00    -0.149 OA 
HETATM   38  O   UNL     1     -11.270   6.658  67.688  1.00  0.00    -0.296 OA 
ENDBRANCH  33  34
ENDBRANCH  31  33
ENDBRANCH  18  20
ENDBRANCH  14  18
ENDBRANCH   9  11
ENDBRANCH   5   9
BRANCH   7  39
HETATM   39  O   UNL     1      -9.982   9.913  64.942  1.00  0.00    -0.306 OA 
HETATM   40  C   UNL     1      -8.744  10.045  64.262  1.00  0.00    -0.206 C  
ENDBRANCH   7  39
BRANCH   8  41
HETATM   41  O   UNL     1     -11.120  12.390  64.035  1.00  0.00    -0.333 OA 
HETATM   42  C   UNL     1     -12.291  11.991  63.345  1.00  0.00    -0.523 C  
ENDBRANCH   8  41
ENDBRANCH   2   3
TORSDOF 9
ENDMDL
MODEL       97
REMARK 921   NORMALIZED FREE ENERGY PREDICTED BY IDOCK:   -5.91 KCAL/MOL
REMARK 922        TOTAL FREE ENERGY PREDICTED BY IDOCK:  -10.88 KCAL/MOL
REMARK 923 INTER-LIGAND FREE ENERGY PREDICTED BY IDOCK:   -9.24 KCAL/MOL
REMARK 924 INTRA-LIGAND FREE ENERGY PREDICTED BY IDOCK:   -1.64 KCAL/MOL
REMARK 927      BINDING AFFINITY PREDICTED BY RF-SCORE:    0.00 PKD
ROOT
HETATM    1  C   UNL     1      -7.703  17.138  66.276  1.00  0.00    -0.315 C  
HETATM    2  O   UNL     1      -8.979  16.902  65.675  1.00  0.00    -0.486 OA 
ENDROOT
BRANCH   2   3
HETATM    3  C   UNL     1      -9.804  16.075  66.398  1.00  0.00    -0.288 A  
HETATM    4  C   UNL     1     -10.009  14.751  65.968  1.00  0.00    -0.336 A  
HETATM    5  C   UNL     1     -10.910  13.894  66.586  1.00  0.00    -0.289 A  
HETATM    6  C   UNL     1     -11.589  14.402  67.697  1.00  0.00    -0.396 A  
HETATM    7  C   UNL     1     -11.365  15.694  68.201  1.00  0.00    -0.340 A  
HETATM    8  C   UNL     1     -10.432  16.545  67.569  1.00  0.00    -0.310 A  
BRANCH   5   9
HETATM    9  N   UNL     1     -11.173  12.596  66.138  1.00  0.00    -0.295 NA 
HETATM   10  H   UNL     1     -12.043  12.521  65.612  1.00  0.00     0.000 HD 
BRANCH   9  11
HETATM   11  C   UNL     1     -10.498  11.381  66.258  1.00  0.00    -0.255 A  
HETATM   12  N   UNL     1      -9.346  11.327  65.573  1.00  0.00    -0.222 NA 
HETATM   13  N   UNL     1     -10.962  10.352  66.999  1.00  0.00    -0.208 NA 
HETATM   14  C   UNL     1     -10.242   9.202  67.058  1.00  0.00    -0.263 A  
HETATM   15  F   UNL     1      -8.226   8.033  66.521  1.00  0.00    -0.104 F  
HETATM   16  C   UNL     1      -8.631  10.187  65.675  1.00  0.00    -0.155 A  
HETATM   17  C   UNL     1      -9.018   9.108  66.433  1.00  0.00    -0.149 A  
BRANCH  14  18
HETATM   18  N   UNL     1     -10.797   8.184  67.852  1.00  0.00    -0.479 NA 
HETATM   19  H   UNL     1     -11.639   7.762  67.458  1.00  0.00     0.000 HD 
BRANCH  18  20
HETATM   20  C   UNL     1     -10.406   7.637  69.095  1.00  0.00    -0.213 A  
HETATM   21  N   UNL     1      -9.211   7.905  69.663  1.00  0.00    -0.153 NA 
HETATM   22  C   UNL     1      -8.927   7.405  70.905  1.00  0.00    -0.149 A  
HETATM   23  C   UNL     1      -9.794   6.544  71.573  1.00  0.00    -0.168 A  
HETATM   24  O   UNL     1      -9.507   5.930  72.765  1.00  0.00    -0.149 OA 
HETATM   25  C   UNL     1     -11.018   6.262  70.990  1.00  0.00    -0.340 A  
HETATM   26  C   UNL     1      -8.113   5.893  73.061  1.00  0.00    -0.117 C  
HETATM   27  C   UNL     1     -11.322   6.808  69.744  1.00  0.00    -0.350 A  
HETATM   28  C   UNL     1      -7.413   7.238  72.815  1.00  0.00    -0.076 C  
HETATM   29  C   UNL     1      -7.939   5.473  74.524  1.00  0.00    -0.104 C  
HETATM   30  C   UNL     1      -7.384   4.860  72.165  1.00  0.00    -0.082 C  
HETATM   31  N   UNL     1      -7.740   7.787  71.587  1.00  0.00    -0.084 N  
HETATM   32  O   UNL     1      -6.521   7.682  73.536  1.00  0.00    -0.070 OA 
BRANCH  31  33
HETATM   33  C   UNL     1      -6.741   8.598  70.973  1.00  0.00    -0.063 C  
BRANCH  33  34
HETATM   34  O   UNL     1      -7.167   9.922  70.947  1.00  0.00    -0.330 OA 
HETATM   35  P   UNL     1      -6.490  10.731  69.574  1.00  0.00    -0.119 P  
HETATM   36  O   UNL     1      -6.270  11.946  70.645  1.00  0.00    -0.277 OA 
HETATM   37  O   UNL     1      -8.046  11.057  69.202  1.00  0.00    -0.135 OA 
HETATM   38  O   UNL     1      -5.885  11.453  68.347  1.00  0.00    -0.046 OA 
ENDBRANCH  33  34
ENDBRANCH  31  33
ENDBRANCH  18  20
ENDBRANCH  14  18
ENDBRANCH   9  11
ENDBRANCH   5   9
BRANCH   7  39
HETATM   39  O   UNL     1     -12.184  15.965  69.270  1.00  0.00    -0.273 OA 
HETATM   40  C   UNL     1     -11.826  15.530  70.572  1.00  0.00    -0.356 C  
ENDBRANCH   7  39
BRANCH   8  41
HETATM   41  O   UNL     1     -10.203  17.741  68.186  1.00  0.00    -0.340 OA 
HETATM   42  C   UNL     1     -10.719  18.973  67.714  1.00  0.00    -0.356 C  
ENDBRANCH   8  41
ENDBRANCH   2   3
TORSDOF 9
ENDMDL
MODEL       98
REMARK 921   NORMALIZED FREE ENERGY PREDICTED BY IDOCK:   -5.90 KCAL/MOL
REMARK 922        TOTAL FREE ENERGY PREDICTED BY IDOCK:  -10.87 KCAL/MOL
REMARK 923 INTER-LIGAND FREE ENERGY PREDICTED BY IDOCK:   -9.25 KCAL/MOL
REMARK 924 INTRA-LIGAND FREE ENERGY PREDICTED BY IDOCK:   -1.63 KCAL/MOL
REMARK 927      BINDING AFFINITY PREDICTED BY RF-SCORE:    0.00 PKD
ROOT
HETATM    1  C   UNL     1      -6.465  11.060  66.764  1.00  0.00    -0.124 C  
HETATM    2  O   UNL     1      -6.873  10.459  65.533  1.00  0.00    -0.129 OA 
ENDROOT
BRANCH   2   3
HETATM    3  C   UNL     1      -7.161   9.119  65.621  1.00  0.00    -0.082 A  
HETATM    4  C   UNL     1      -7.542   8.572  66.861  1.00  0.00    -0.091 A  
HETATM    5  C   UNL     1      -7.744   7.211  67.048  1.00  0.00    -0.107 A  
HETATM    6  C   UNL     1      -7.585   6.398  65.922  1.00  0.00    -0.084 A  
HETATM    7  C   UNL     1      -7.272   6.910  64.652  1.00  0.00    -0.076 A  
HETATM    8  C   UNL     1      -7.088   8.299  64.478  1.00  0.00    -0.077 A  
BRANCH   5   9
HETATM    9  N   UNL     1      -8.063   6.640  68.285  1.00  0.00    -0.110 NA 
HETATM   10  H   UNL     1      -7.685   5.701  68.403  1.00  0.00     0.000 HD 
BRANCH   9  11
HETATM   11  C   UNL     1      -8.789   7.084  69.390  1.00  0.00    -0.136 A  
HETATM   12  N   UNL     1      -8.237   6.764  70.569  1.00  0.00    -0.116 NA 
HETATM   13  N   UNL     1      -9.944   7.775  69.282  1.00  0.00    -0.178 NA 
HETATM   14  C   UNL     1     -10.590   8.165  70.411  1.00  0.00    -0.224 A  
HETATM   15  F   UNL     1     -10.585   8.358  72.795  1.00  0.00    -0.383 F  
HETATM   16  C   UNL     1      -8.877   7.193  71.677  1.00  0.00    -0.118 A  
HETATM   17  C   UNL     1     -10.039   7.928  71.651  1.00  0.00    -0.181 A  
BRANCH  14  18
HETATM   18  N   UNL     1     -11.783   8.879  70.206  1.00  0.00    -0.465 NA 
HETATM   19  H   UNL     1     -12.406   8.457  69.518  1.00  0.00     0.000 HD 
BRANCH  18  20
HETATM   20  C   UNL     1     -12.278  10.073  70.778  1.00  0.00    -0.315 A  
HETATM   21  N   UNL     1     -11.939  11.296  70.316  1.00  0.00    -0.354 NA 
HETATM   22  C   UNL     1     -12.516  12.408  70.865  1.00  0.00    -0.274 A  
HETATM   23  C   UNL     1     -13.379  12.333  71.956  1.00  0.00    -0.386 A  
HETATM   24  O   UNL     1     -13.893  13.423  72.611  1.00  0.00    -0.726 OA 
HETATM   25  C   UNL     1     -13.724  11.081  72.437  1.00  0.00     0.380 A  
HETATM   26  C   UNL     1     -13.160  14.623  72.374  1.00  0.00    -0.387 C  
HETATM   27  C   UNL     1     -13.167   9.947  71.846  1.00  0.00    -0.558 A  
HETATM   28  C   UNL     1     -12.816  14.832  70.893  1.00  0.00    -0.362 C  
HETATM   29  C   UNL     1     -13.985  15.806  72.892  1.00  0.00    -0.467 C  
HETATM   30  C   UNL     1     -11.807  14.602  73.130  1.00  0.00    -0.032 C  
HETATM   31  N   UNL     1     -12.289  13.694  70.306  1.00  0.00    -0.336 N  
HETATM   32  O   UNL     1     -12.827  15.932  70.341  1.00  0.00    -0.385 OA 
BRANCH  31  33
HETATM   33  C   UNL     1     -11.365  13.905  69.241  1.00  0.00    -0.272 C  
BRANCH  33  34
HETATM   34  O   UNL     1     -12.040  13.865  68.024  1.00  0.00    -0.367 OA 
HETATM   35  P   UNL     1     -11.019  13.174  66.809  1.00  0.00    -0.292 P  
HETATM   36  O   UNL     1     -11.635  14.375  65.887  1.00  0.00    -0.350 OA 
HETATM   37  O   UNL     1     -12.244  12.111  66.615  1.00  0.00    -0.566 OA 
HETATM   38  O   UNL     1     -10.107  12.556  65.722  1.00  0.00    -0.256 OA 
ENDBRANCH  33  34
ENDBRANCH  31  33
ENDBRANCH  18  20
ENDBRANCH  14  18
ENDBRANCH   9  11
ENDBRANCH   5   9
BRANCH   7  39
HETATM   39  O   UNL     1      -7.132   5.905  63.726  1.00  0.00    -0.048 OA 
HETATM   40  C   UNL     1      -6.678   4.623  64.127  1.00  0.00    -0.044 C  
ENDBRANCH   7  39
BRANCH   8  41
HETATM   41  O   UNL     1      -6.889   8.717  63.193  1.00  0.00    -0.090 OA 
HETATM   42  C   UNL     1      -5.606   8.863  62.611  1.00  0.00    -0.078 C  
ENDBRANCH   8  41
ENDBRANCH   2   3
TORSDOF 9
ENDMDL
MODEL       99
REMARK 921   NORMALIZED FREE ENERGY PREDICTED BY IDOCK:   -5.89 KCAL/MOL
REMARK 922        TOTAL FREE ENERGY PREDICTED BY IDOCK:  -10.85 KCAL/MOL
REMARK 923 INTER-LIGAND FREE ENERGY PREDICTED BY IDOCK:   -9.70 KCAL/MOL
REMARK 924 INTRA-LIGAND FREE ENERGY PREDICTED BY IDOCK:   -1.15 KCAL/MOL
REMARK 927      BINDING AFFINITY PREDICTED BY RF-SCORE:    0.00 PKD
ROOT
HETATM    1  C   UNL     1      -9.664   6.268  74.258  1.00  0.00    -0.256 C  
HETATM    2  O   UNL     1      -8.968   6.763  73.111  1.00  0.00    -0.126 OA 
ENDROOT
BRANCH   2   3
HETATM    3  C   UNL     1      -9.766   7.002  72.020  1.00  0.00    -0.155 A  
HETATM    4  C   UNL     1     -10.663   8.086  72.041  1.00  0.00    -0.319 A  
HETATM    5  C   UNL     1     -11.574   8.323  71.020  1.00  0.00    -0.275 A  
HETATM    6  C   UNL     1     -11.535   7.444  69.934  1.00  0.00    -0.026 A  
HETATM    7  C   UNL     1     -10.611   6.390  69.842  1.00  0.00    -0.243 A  
HETATM    8  C   UNL     1      -9.681   6.174  70.882  1.00  0.00    -0.177 A  
BRANCH   5   9
HETATM    9  N   UNL     1     -12.514   9.359  71.049  1.00  0.00    -0.434 NA 
HETATM   10  H   UNL     1     -13.425   9.065  71.399  1.00  0.00     0.000 HD 
BRANCH   9  11
HETATM   11  C   UNL     1     -12.469  10.709  70.700  1.00  0.00    -0.371 A  
HETATM   12  N   UNL     1     -12.914  11.535  71.657  1.00  0.00    -0.437 NA 
HETATM   13  N   UNL     1     -12.017  11.144  69.504  1.00  0.00    -0.337 NA 
HETATM   14  C   UNL     1     -12.012  12.477  69.244  1.00  0.00    -0.250 A  
HETATM   15  F   UNL     1     -12.332  14.708  70.045  1.00  0.00    -0.327 F  
HETATM   16  C   UNL     1     -12.867  12.857  71.390  1.00  0.00    -0.283 A  
HETATM   17  C   UNL     1     -12.391  13.381  70.212  1.00  0.00    -0.284 A  
BRANCH  14  18
HETATM   18  N   UNL     1     -11.525  12.842  67.978  1.00  0.00    -0.296 NA 
HETATM   19  H   UNL     1     -11.628  12.116  67.268  1.00  0.00     0.000 HD 
BRANCH  18  20
HETATM   20  C   UNL     1     -10.919  14.028  67.506  1.00  0.00    -0.277 A  
HETATM   21  N   UNL     1      -9.852  14.591  68.113  1.00  0.00    -0.218 NA 
HETATM   22  C   UNL     1      -9.266  15.696  67.558  1.00  0.00    -0.201 A  
HETATM   23  C   UNL     1      -9.787  16.325  66.430  1.00  0.00    -0.291 A  
HETATM   24  O   UNL     1      -9.304  17.495  65.904  1.00  0.00    -0.516 OA 
HETATM   25  C   UNL     1     -10.885  15.753  65.809  1.00  0.00    -0.286 A  
HETATM   26  C   UNL     1      -8.511  18.243  66.823  1.00  0.00    -0.260 C  
HETATM   27  C   UNL     1     -11.454  14.603  66.352  1.00  0.00    -0.348 A  
HETATM   28  C   UNL     1      -7.493  17.377  67.580  1.00  0.00    -0.182 C  
HETATM   29  C   UNL     1      -7.785  19.349  66.050  1.00  0.00    -0.310 C  
HETATM   30  C   UNL     1      -9.399  18.907  67.907  1.00  0.00    -0.338 C  
HETATM   31  N   UNL     1      -8.059  16.223  68.094  1.00  0.00    -0.155 N  
HETATM   32  O   UNL     1      -6.357  17.754  67.862  1.00  0.00    -0.171 OA 
BRANCH  31  33
HETATM   33  C   UNL     1      -7.476  15.714  69.290  1.00  0.00    -0.216 C  
BRANCH  33  34
HETATM   34  O   UNL     1      -6.302  15.032  68.983  1.00  0.00    -0.095 OA 
HETATM   35  P   UNL     1      -6.636  13.345  68.790  1.00  0.00    -0.115 P  
HETATM   36  O   UNL     1      -5.246  13.174  69.633  1.00  0.00    -0.082 OA 
HETATM   37  O   UNL     1      -5.964  13.546  67.315  1.00  0.00    -0.339 OA 
HETATM   38  O   UNL     1      -6.934  11.836  68.616  1.00  0.00    -0.079 OA 
ENDBRANCH  33  34
ENDBRANCH  31  33
ENDBRANCH  18  20
ENDBRANCH  14  18
ENDBRANCH   9  11
ENDBRANCH   5   9
BRANCH   7  39
HETATM   39  O   UNL     1     -10.806   5.650  68.701  1.00  0.00    -0.225 OA 
HETATM   40  C   UNL     1     -10.199   6.044  67.481  1.00  0.00    -0.184 C  
ENDBRANCH   7  39
BRANCH   8  41
HETATM   41  O   UNL     1      -8.756   5.195  70.661  1.00  0.00    -0.122 OA 
HETATM   42  C   UNL     1      -8.996   3.823  70.923  1.00  0.00    -0.092 C  
ENDBRANCH   8  41
ENDBRANCH   2   3
TORSDOF 9
ENDMDL
MODEL      100
REMARK 921   NORMALIZED FREE ENERGY PREDICTED BY IDOCK:   -5.88 KCAL/MOL
REMARK 922        TOTAL FREE ENERGY PREDICTED BY IDOCK:  -10.84 KCAL/MOL
REMARK 923 INTER-LIGAND FREE ENERGY PREDICTED BY IDOCK:   -9.48 KCAL/MOL
REMARK 924 INTRA-LIGAND FREE ENERGY PREDICTED BY IDOCK:   -1.36 KCAL/MOL
REMARK 927      BINDING AFFINITY PREDICTED BY RF-SCORE:    0.00 PKD
ROOT
HETATM    1  C   UNL     1      -7.335   6.373  72.955  1.00  0.00    -0.090 C  
HETATM    2  O   UNL     1      -6.660   6.363  71.695  1.00  0.00    -0.052 OA 
ENDROOT
BRANCH   2   3
HETATM    3  C   UNL     1      -7.487   6.486  70.605  1.00  0.00    -0.080 A  
HETATM    4  C   UNL     1      -8.202   7.682  70.410  1.00  0.00    -0.122 A  
HETATM    5  C   UNL     1      -9.135   7.838  69.393  1.00  0.00    -0.146 A  
HETATM    6  C   UNL     1      -9.309   6.749  68.535  1.00  0.00    -0.126 A  
HETATM    7  C   UNL     1      -8.568   5.561  68.654  1.00  0.00    -0.103 A  
HETATM    8  C   UNL     1      -7.611   5.428  69.683  1.00  0.00    -0.070 A  
BRANCH   5   9
HETATM    9  N   UNL     1      -9.900   8.997  69.218  1.00  0.00    -0.175 NA 
HETATM   10  H   UNL     1      -9.692   9.487  68.349  1.00  0.00     0.000 HD 
BRANCH   9  11
HETATM   11  C   UNL     1     -10.887   9.623  69.980  1.00  0.00    -0.264 A  
HETATM   12  N   UNL     1     -11.384   8.858  70.962  1.00  0.00    -0.276 NA 
HETATM   13  N   UNL     1     -11.301  10.886  69.749  1.00  0.00    -0.278 NA 
HETATM   14  C   UNL     1     -12.271  11.418  70.538  1.00  0.00    -0.386 A  
HETATM   15  F   UNL     1     -13.670  11.207  72.466  1.00  0.00    -0.340 F  
HETATM   16  C   UNL     1     -12.322   9.419  71.755  1.00  0.00    -0.394 A  
HETATM   17  C   UNL     1     -12.774  10.709  71.606  1.00  0.00    -0.426 A  
BRANCH  14  18
HETATM   18  N   UNL     1     -12.643  12.738  70.228  1.00  0.00    -0.069 NA 
HETATM   19  H   UNL     1     -13.610  12.963  70.462  1.00  0.00     0.000 HD 
BRANCH  18  20
HETATM   20  C   UNL     1     -11.923  13.810  69.653  1.00  0.00    -0.342 A  
HETATM   21  N   UNL     1     -11.853  14.006  68.319  1.00  0.00    -0.360 NA 
HETATM   22  C   UNL     1     -11.205  15.109  67.832  1.00  0.00    -0.329 A  
HETATM   23  C   UNL     1     -10.528  15.998  68.664  1.00  0.00    -0.251 A  
HETATM   24  O   UNL     1      -9.773  17.052  68.217  1.00  0.00    -0.256 OA 
HETATM   25  C   UNL     1     -10.593  15.796  70.032  1.00  0.00    -0.333 A  
HETATM   26  C   UNL     1      -9.381  16.927  66.852  1.00  0.00    -0.241 C  
HETATM   27  C   UNL     1     -11.291  14.695  70.527  1.00  0.00    -0.209 A  
HETATM   28  C   UNL     1     -10.533  16.493  65.935  1.00  0.00    -0.323 C  
HETATM   29  C   UNL     1      -8.819  18.274  66.384  1.00  0.00    -0.256 C  
HETATM   30  C   UNL     1      -8.275  15.854  66.689  1.00  0.00    -0.317 C  
HETATM   31  N   UNL     1     -11.238  15.416  66.445  1.00  0.00    -0.231 N  
HETATM   32  O   UNL     1     -10.693  16.924  64.794  1.00  0.00    -0.758 OA 
BRANCH  31  33
HETATM   33  C   UNL     1     -11.831  14.540  65.489  1.00  0.00    -0.330 C  
BRANCH  33  34
HETATM   34  O   UNL     1     -10.938  13.520  65.175  1.00  0.00    -0.299 OA 
HETATM   35  P   UNL     1     -11.715  12.350  64.163  1.00  0.00    -0.476 P  
HETATM   36  O   UNL     1     -10.926  11.287  65.121  1.00  0.00    -0.241 OA 
HETATM   37  O   UNL     1     -10.484  12.661  63.136  1.00  0.00    -0.195 OA 
HETATM   38  O   UNL     1     -12.409  11.304  63.258  1.00  0.00     0.004 OA 
ENDBRANCH  33  34
ENDBRANCH  31  33
ENDBRANCH  18  20
ENDBRANCH  14  18
ENDBRANCH   9  11
ENDBRANCH   5   9
BRANCH   7  39
HETATM   39  O   UNL     1      -8.954   4.632  67.718  1.00  0.00    -0.107 OA 
HETATM   40  C   UNL     1     -10.211   4.751  67.071  1.00  0.00    -0.158 C  
ENDBRANCH   7  39
BRANCH   8  41
HETATM   41  O   UNL     1      -6.866   4.284  69.659  1.00  0.00    -0.040 OA 
HETATM   42  C   UNL     1      -7.320   3.047  70.181  1.00  0.00    -0.040 C  
ENDBRANCH   8  41
ENDBRANCH   2   3
TORSDOF 9
ENDMDL
MODEL      101
REMARK 921   NORMALIZED FREE ENERGY PREDICTED BY IDOCK:   -5.88 KCAL/MOL
REMARK 922        TOTAL FREE ENERGY PREDICTED BY IDOCK:  -10.84 KCAL/MOL
REMARK 923 INTER-LIGAND FREE ENERGY PREDICTED BY IDOCK:   -9.54 KCAL/MOL
REMARK 924 INTRA-LIGAND FREE ENERGY PREDICTED BY IDOCK:   -1.30 KCAL/MOL
REMARK 927      BINDING AFFINITY PREDICTED BY RF-SCORE:    0.00 PKD
ROOT
HETATM    1  C   UNL     1      -9.484   4.206  67.025  1.00  0.00    -0.192 C  
HETATM    2  O   UNL     1      -8.757   4.546  68.209  1.00  0.00    -0.097 OA 
ENDROOT
BRANCH   2   3
HETATM    3  C   UNL     1      -9.337   5.531  68.970  1.00  0.00    -0.121 A  
HETATM    4  C   UNL     1      -9.984   6.607  68.334  1.00  0.00    -0.146 A  
HETATM    5  C   UNL     1     -10.497   7.691  69.035  1.00  0.00    -0.205 A  
HETATM    6  C   UNL     1     -10.374   7.647  70.426  1.00  0.00    -0.214 A  
HETATM    7  C   UNL     1      -9.796   6.561  71.105  1.00  0.00    -0.182 A  
HETATM    8  C   UNL     1      -9.296   5.460  70.377  1.00  0.00    -0.159 A  
BRANCH   5   9
HETATM    9  N   UNL     1     -11.089   8.799  68.420  1.00  0.00    -0.402 NA 
HETATM   10  H   UNL     1     -11.937   9.115  68.890  1.00  0.00     0.000 HD 
BRANCH   9  11
HETATM   11  C   UNL     1     -10.766   9.563  67.298  1.00  0.00    -0.199 A  
HETATM   12  N   UNL     1      -9.775   9.050  66.555  1.00  0.00    -0.222 NA 
HETATM   13  N   UNL     1     -11.397  10.716  66.988  1.00  0.00    -0.281 NA 
HETATM   14  C   UNL     1     -11.016  11.401  65.879  1.00  0.00    -0.207 A  
HETATM   15  F   UNL     1      -9.691  11.478  63.889  1.00  0.00    -0.248 F  
HETATM   16  C   UNL     1      -9.437   9.729  65.439  1.00  0.00    -0.269 A  
HETATM   17  C   UNL     1     -10.052  10.891  65.037  1.00  0.00    -0.300 A  
BRANCH  14  18
HETATM   18  N   UNL     1     -11.725  12.589  65.631  1.00  0.00    -0.403 NA 
HETATM   19  H   UNL     1     -12.713  12.447  65.422  1.00  0.00     0.000 HD 
BRANCH  18  20
HETATM   20  C   UNL     1     -11.321  13.943  65.620  1.00  0.00    -0.309 A  
HETATM   21  N   UNL     1     -10.358  14.422  66.436  1.00  0.00    -0.281 NA 
HETATM   22  C   UNL     1      -9.961  15.726  66.318  1.00  0.00    -0.295 A  
HETATM   23  C   UNL     1     -10.583  16.614  65.443  1.00  0.00    -0.237 A  
HETATM   24  O   UNL     1     -10.298  17.954  65.369  1.00  0.00    -0.580 OA 
HETATM   25  C   UNL     1     -11.576  16.128  64.609  1.00  0.00    -0.133 A  
HETATM   26  C   UNL     1      -9.633  18.455  66.526  1.00  0.00    -0.327 C  
HETATM   27  C   UNL     1     -11.948  14.788  64.702  1.00  0.00    -0.448 A  
HETATM   28  C   UNL     1      -8.485  17.551  66.997  1.00  0.00    -0.234 C  
HETATM   29  C   UNL     1      -9.099  19.856  66.210  1.00  0.00    -0.436 C  
HETATM   30  C   UNL     1     -10.612  18.563  67.723  1.00  0.00    -0.422 C  
HETATM   31  N   UNL     1      -8.854  16.218  67.061  1.00  0.00    -0.195 N  
HETATM   32  O   UNL     1      -7.423  17.979  67.447  1.00  0.00    -0.199 OA 
BRANCH  31  33
HETATM   33  C   UNL     1      -8.190  15.427  68.044  1.00  0.00    -0.144 C  
BRANCH  33  34
HETATM   34  O   UNL     1      -7.346  14.516  67.416  1.00  0.00    -0.188 OA 
HETATM   35  P   UNL     1      -7.112  13.135  68.433  1.00  0.00    -0.129 P  
HETATM   36  O   UNL     1      -5.561  13.279  67.939  1.00  0.00    -0.108 OA 
HETATM   37  O   UNL     1      -7.664  12.296  67.145  1.00  0.00    -0.160 OA 
HETATM   38  O   UNL     1      -6.903  11.899  69.341  1.00  0.00    -0.106 OA 
ENDBRANCH  33  34
ENDBRANCH  31  33
ENDBRANCH  18  20
ENDBRANCH  14  18
ENDBRANCH   9  11
ENDBRANCH   5   9
BRANCH   7  39
HETATM   39  O   UNL     1      -9.758   6.779  72.461  1.00  0.00    -0.154 OA 
HETATM   40  C   UNL     1     -10.384   7.923  73.019  1.00  0.00    -0.334 C  
ENDBRANCH   7  39
BRANCH   8  41
HETATM   41  O   UNL     1      -8.847   4.407  71.121  1.00  0.00    -0.109 OA 
HETATM   42  C   UNL     1      -9.659   3.302  71.477  1.00  0.00    -0.164 C  
ENDBRANCH   8  41
ENDBRANCH   2   3
TORSDOF 9
ENDMDL
MODEL      102
REMARK 921   NORMALIZED FREE ENERGY PREDICTED BY IDOCK:   -5.84 KCAL/MOL
REMARK 922        TOTAL FREE ENERGY PREDICTED BY IDOCK:  -10.78 KCAL/MOL
REMARK 923 INTER-LIGAND FREE ENERGY PREDICTED BY IDOCK:   -9.60 KCAL/MOL
REMARK 924 INTRA-LIGAND FREE ENERGY PREDICTED BY IDOCK:   -1.19 KCAL/MOL
REMARK 927      BINDING AFFINITY PREDICTED BY RF-SCORE:    0.00 PKD
ROOT
HETATM    1  C   UNL     1     -10.904  19.931  67.705  1.00  0.00    -0.153 C  
HETATM    2  O   UNL     1     -10.456  19.615  66.384  1.00  0.00    -0.445 OA 
ENDROOT
BRANCH   2   3
HETATM    3  C   UNL     1      -9.630  18.521  66.309  1.00  0.00    -0.273 A  
HETATM    4  C   UNL     1     -10.168  17.269  65.959  1.00  0.00    -0.314 A  
HETATM    5  C   UNL     1      -9.415  16.102  65.968  1.00  0.00    -0.339 A  
HETATM    6  C   UNL     1      -8.067  16.234  66.311  1.00  0.00    -0.267 A  
HETATM    7  C   UNL     1      -7.474  17.474  66.602  1.00  0.00    -0.245 A  
HETATM    8  C   UNL     1      -8.251  18.652  66.570  1.00  0.00    -0.286 A  
BRANCH   5   9
HETATM    9  N   UNL     1      -9.944  14.839  65.682  1.00  0.00    -0.345 NA 
HETATM   10  H   UNL     1      -9.950  14.622  64.686  1.00  0.00     0.000 HD 
BRANCH   9  11
HETATM   11  C   UNL     1     -10.466  13.813  66.471  1.00  0.00    -0.282 A  
HETATM   12  N   UNL     1     -11.355  14.227  67.385  1.00  0.00    -0.316 NA 
HETATM   13  N   UNL     1     -10.109  12.520  66.324  1.00  0.00    -0.245 NA 
HETATM   14  C   UNL     1     -10.664  11.584  67.139  1.00  0.00    -0.254 A  
HETATM   15  F   UNL     1     -12.275  11.050  68.824  1.00  0.00    -0.389 F  
HETATM   16  C   UNL     1     -11.919  13.276  68.160  1.00  0.00    -0.304 A  
HETATM   17  C   UNL     1     -11.634  11.936  68.051  1.00  0.00    -0.332 A  
BRANCH  14  18
HETATM   18  N   UNL     1     -10.236  10.264  66.917  1.00  0.00    -0.220 NA 
HETATM   19  H   UNL     1     -10.409   9.924  65.971  1.00  0.00     0.000 HD 
BRANCH  18  20
HETATM   20  C   UNL     1      -9.612   9.320  67.764  1.00  0.00    -0.142 A  
HETATM   21  N   UNL     1     -10.311   8.437  68.510  1.00  0.00    -0.209 NA 
HETATM   22  C   UNL     1      -9.642   7.499  69.248  1.00  0.00    -0.158 A  
HETATM   23  C   UNL     1      -8.252   7.477  69.335  1.00  0.00    -0.130 A  
HETATM   24  O   UNL     1      -7.541   6.631  70.146  1.00  0.00    -0.092 OA 
HETATM   25  C   UNL     1      -7.532   8.385  68.576  1.00  0.00    -0.094 A  
HETATM   26  C   UNL     1      -8.321   6.072  71.201  1.00  0.00    -0.124 C  
HETATM   27  C   UNL     1      -8.216   9.312  67.791  1.00  0.00    -0.115 A  
HETATM   28  C   UNL     1      -9.687   5.556  70.727  1.00  0.00    -0.177 C  
HETATM   29  C   UNL     1      -7.524   4.931  71.841  1.00  0.00    -0.085 C  
HETATM   30  C   UNL     1      -8.618   7.132  72.292  1.00  0.00    -0.128 C  
HETATM   31  N   UNL     1     -10.350   6.471  69.926  1.00  0.00    -0.183 N  
HETATM   32  O   UNL     1     -10.216   4.533  71.161  1.00  0.00    -0.174 OA 
BRANCH  31  33
HETATM   33  C   UNL     1     -11.774   6.437  69.976  1.00  0.00    -0.275 C  
BRANCH  33  34
HETATM   34  O   UNL     1     -12.201   6.686  71.276  1.00  0.00    -0.356 OA 
HETATM   35  P   UNL     1     -12.424   8.387  71.506  1.00  0.00    -0.284 P  
HETATM   36  O   UNL     1     -11.707   8.088  72.943  1.00  0.00    -0.369 OA 
HETATM   37  O   UNL     1     -13.941   7.967  71.936  1.00  0.00    -0.367 OA 
HETATM   38  O   UNL     1     -12.622   9.908  71.711  1.00  0.00    -0.378 OA 
ENDBRANCH  33  34
ENDBRANCH  31  33
ENDBRANCH  18  20
ENDBRANCH  14  18
ENDBRANCH   9  11
ENDBRANCH   5   9
BRANCH   7  39
HETATM   39  O   UNL     1      -6.152  17.330  66.947  1.00  0.00    -0.149 OA 
HETATM   40  C   UNL     1      -5.138  17.469  65.965  1.00  0.00    -0.156 C  
ENDBRANCH   7  39
BRANCH   8  41
HETATM   41  O   UNL     1      -7.572  19.820  66.764  1.00  0.00    -0.237 OA 
HETATM   42  C   UNL     1      -6.888  20.505  65.729  1.00  0.00    -0.202 C  
ENDBRANCH   8  41
ENDBRANCH   2   3
TORSDOF 9
ENDMDL
MODEL      103
REMARK 921   NORMALIZED FREE ENERGY PREDICTED BY IDOCK:   -5.81 KCAL/MOL
REMARK 922        TOTAL FREE ENERGY PREDICTED BY IDOCK:  -10.74 KCAL/MOL
REMARK 923 INTER-LIGAND FREE ENERGY PREDICTED BY IDOCK:   -8.94 KCAL/MOL
REMARK 924 INTRA-LIGAND FREE ENERGY PREDICTED BY IDOCK:   -1.80 KCAL/MOL
REMARK 927      BINDING AFFINITY PREDICTED BY RF-SCORE:    0.00 PKD
ROOT
HETATM    1  C   UNL     1      -6.973   8.280  73.484  1.00  0.00    -0.118 C  
HETATM    2  O   UNL     1      -7.317   7.444  72.376  1.00  0.00    -0.070 OA 
ENDROOT
BRANCH   2   3
HETATM    3  C   UNL     1      -8.557   7.691  71.840  1.00  0.00    -0.109 A  
HETATM    4  C   UNL     1      -8.809   8.927  71.217  1.00  0.00    -0.298 A  
HETATM    5  C   UNL     1     -10.067   9.287  70.750  1.00  0.00    -0.291 A  
HETATM    6  C   UNL     1     -11.080   8.336  70.894  1.00  0.00    -0.289 A  
HETATM    7  C   UNL     1     -10.856   7.064  71.448  1.00  0.00    -0.229 A  
HETATM    8  C   UNL     1      -9.567   6.710  71.902  1.00  0.00    -0.149 A  
BRANCH   5   9
HETATM    9  N   UNL     1     -10.353  10.534  70.183  1.00  0.00    -0.431 NA 
HETATM   10  H   UNL     1     -10.835  11.165  70.822  1.00  0.00     0.000 HD 
BRANCH   9  11
HETATM   11  C   UNL     1     -10.117  11.097  68.928  1.00  0.00    -0.186 A  
HETATM   12  N   UNL     1     -11.097  10.878  68.040  1.00  0.00    -0.270 NA 
HETATM   13  N   UNL     1      -9.003  11.801  68.636  1.00  0.00    -0.119 NA 
HETATM   14  C   UNL     1      -8.852  12.311  67.387  1.00  0.00    -0.185 A  
HETATM   15  F   UNL     1      -9.799  12.729  65.230  1.00  0.00    -0.264 F  
HETATM   16  C   UNL     1     -10.942  11.424  66.816  1.00  0.00    -0.291 A  
HETATM   17  C   UNL     1      -9.854  12.180  66.450  1.00  0.00    -0.227 A  
BRANCH  14  18
HETATM   18  N   UNL     1      -7.664  13.029  67.169  1.00  0.00    -0.369 NA 
HETATM   19  H   UNL     1      -6.926  12.486  66.720  1.00  0.00     0.000 HD 
BRANCH  18  20
HETATM   20  C   UNL     1      -7.303  14.365  67.457  1.00  0.00    -0.186 A  
HETATM   21  N   UNL     1      -8.215  15.349  67.611  1.00  0.00    -0.148 NA 
HETATM   22  C   UNL     1      -7.801  16.603  67.966  1.00  0.00    -0.170 A  
HETATM   23  C   UNL     1      -6.454  16.933  68.087  1.00  0.00    -0.145 A  
HETATM   24  O   UNL     1      -5.986  18.199  68.331  1.00  0.00    -0.175 OA 
HETATM   25  C   UNL     1      -5.515  15.928  67.924  1.00  0.00    -0.149 A  
HETATM   26  C   UNL     1      -6.936  19.219  68.033  1.00  0.00    -0.252 C  
HETATM   27  C   UNL     1      -5.942  14.640  67.604  1.00  0.00    -0.051 A  
HETATM   28  C   UNL     1      -8.340  18.908  68.572  1.00  0.00    -0.349 C  
HETATM   29  C   UNL     1      -6.430  20.540  68.621  1.00  0.00    -0.295 C  
HETATM   30  C   UNL     1      -7.096  19.396  66.501  1.00  0.00    -0.230 C  
HETATM   31  N   UNL     1      -8.747  17.619  68.274  1.00  0.00    -0.269 N  
HETATM   32  O   UNL     1      -9.090  19.760  69.046  1.00  0.00    -0.257 OA 
BRANCH  31  33
HETATM   33  C   UNL     1     -10.149  17.423  68.110  1.00  0.00    -0.328 C  
BRANCH  33  34
HETATM   34  O   UNL     1     -10.679  16.853  69.263  1.00  0.00    -0.335 OA 
HETATM   35  P   UNL     1     -11.599  15.445  68.854  1.00  0.00    -0.347 P  
HETATM   36  O   UNL     1     -12.640  16.044  69.962  1.00  0.00    -0.226 OA 
HETATM   37  O   UNL     1     -10.597  14.685  69.895  1.00  0.00    -0.123 OA 
HETATM   38  O   UNL     1     -12.422  14.186  68.488  1.00  0.00    -0.126 OA 
ENDBRANCH  33  34
ENDBRANCH  31  33
ENDBRANCH  18  20
ENDBRANCH  14  18
ENDBRANCH   9  11
ENDBRANCH   5   9
BRANCH   7  39
HETATM   39  O   UNL     1     -12.018   6.334  71.515  1.00  0.00    -0.303 OA 
HETATM   40  C   UNL     1     -13.271   6.992  71.612  1.00  0.00    -0.307 C  
ENDBRANCH   7  39
BRANCH   8  41
HETATM   41  O   UNL     1      -9.419   5.422  72.329  1.00  0.00    -0.144 OA 
HETATM   42  C   UNL     1      -9.652   5.011  73.665  1.00  0.00    -0.129 C  
ENDBRANCH   8  41
ENDBRANCH   2   3
TORSDOF 9
ENDMDL
MODEL      104
REMARK 921   NORMALIZED FREE ENERGY PREDICTED BY IDOCK:   -5.80 KCAL/MOL
REMARK 922        TOTAL FREE ENERGY PREDICTED BY IDOCK:  -10.72 KCAL/MOL
REMARK 923 INTER-LIGAND FREE ENERGY PREDICTED BY IDOCK:   -9.20 KCAL/MOL
REMARK 924 INTRA-LIGAND FREE ENERGY PREDICTED BY IDOCK:   -1.52 KCAL/MOL
REMARK 927      BINDING AFFINITY PREDICTED BY RF-SCORE:    0.00 PKD
ROOT
HETATM    1  C   UNL     1      -8.763   3.358  65.387  1.00  0.00    -0.122 C  
HETATM    2  O   UNL     1      -9.550   3.321  66.580  1.00  0.00    -0.142 OA 
ENDROOT
BRANCH   2   3
HETATM    3  C   UNL     1      -9.289   4.338  67.466  1.00  0.00    -0.162 A  
HETATM    4  C   UNL     1      -9.276   5.668  67.008  1.00  0.00    -0.117 A  
HETATM    5  C   UNL     1      -8.916   6.736  67.821  1.00  0.00    -0.116 A  
HETATM    6  C   UNL     1      -8.598   6.428  69.146  1.00  0.00    -0.125 A  
HETATM    7  C   UNL     1      -8.663   5.123  69.662  1.00  0.00    -0.092 A  
HETATM    8  C   UNL     1      -9.048   4.053  68.825  1.00  0.00    -0.134 A  
BRANCH   5   9
HETATM    9  N   UNL     1      -8.839   8.058  67.371  1.00  0.00    -0.130 NA 
HETATM   10  H   UNL     1      -8.157   8.189  66.624  1.00  0.00     0.000 HD 
BRANCH   9  11
HETATM   11  C   UNL     1      -9.496   9.236  67.728  1.00  0.00    -0.140 A  
HETATM   12  N   UNL     1     -10.832   9.130  67.749  1.00  0.00    -0.171 NA 
HETATM   13  N   UNL     1      -8.843  10.380  68.026  1.00  0.00    -0.129 NA 
HETATM   14  C   UNL     1      -9.562  11.483  68.359  1.00  0.00    -0.195 A  
HETATM   15  F   UNL     1     -11.690  12.450  68.868  1.00  0.00    -0.282 F  
HETATM   16  C   UNL     1     -11.524  10.229  68.117  1.00  0.00    -0.041 A  
HETATM   17  C   UNL     1     -10.934  11.420  68.466  1.00  0.00    -0.221 A  
BRANCH  14  18
HETATM   18  N   UNL     1      -8.803  12.629  68.654  1.00  0.00    -0.386 NA 
HETATM   19  H   UNL     1      -7.908  12.431  69.101  1.00  0.00     0.000 HD 
BRANCH  18  20
HETATM   20  C   UNL     1      -9.052  14.004  68.445  1.00  0.00    -0.191 A  
HETATM   21  N   UNL     1      -9.407  14.505  67.242  1.00  0.00    -0.203 NA 
HETATM   22  C   UNL     1      -9.709  15.835  67.128  1.00  0.00    -0.223 A  
HETATM   23  C   UNL     1      -9.576  16.720  68.195  1.00  0.00    -0.242 A  
HETATM   24  O   UNL     1      -9.758  18.076  68.102  1.00  0.00    -0.294 OA 
HETATM   25  C   UNL     1      -9.206  16.211  69.429  1.00  0.00    -0.170 A  
HETATM   26  C   UNL     1      -9.678  18.567  66.766  1.00  0.00    -0.333 C  
HETATM   27  C   UNL     1      -8.940  14.848  69.552  1.00  0.00     0.020 A  
HETATM   28  C   UNL     1     -10.471  17.714  65.765  1.00  0.00    -0.205 C  
HETATM   29  C   UNL     1     -10.193  20.010  66.748  1.00  0.00    -0.592 C  
HETATM   30  C   UNL     1      -8.212  18.566  66.263  1.00  0.00    -0.248 C  
HETATM   31  N   UNL     1     -10.222  16.360  65.911  1.00  0.00    -0.350 N  
HETATM   32  O   UNL     1     -11.104  18.186  64.822  1.00  0.00    -0.636 OA 
BRANCH  31  33
HETATM   33  C   UNL     1     -10.328  15.569  64.730  1.00  0.00    -0.005 C  
BRANCH  33  34
HETATM   34  O   UNL     1     -11.625  15.082  64.609  1.00  0.00    -0.410 OA 
HETATM   35  P   UNL     1     -11.587  13.382  64.286  1.00  0.00    -0.395 P  
HETATM   36  O   UNL     1     -12.776  13.755  63.229  1.00  0.00    -0.783 OA 
HETATM   37  O   UNL     1     -12.520  13.271  65.621  1.00  0.00    -0.457 OA 
HETATM   38  O   UNL     1     -11.553  11.862  63.997  1.00  0.00    -0.378 OA 
ENDBRANCH  33  34
ENDBRANCH  31  33
ENDBRANCH  18  20
ENDBRANCH  14  18
ENDBRANCH   9  11
ENDBRANCH   5   9
BRANCH   7  39
HETATM   39  O   UNL     1      -8.263   5.080  70.976  1.00  0.00    -0.104 OA 
HETATM   40  C   UNL     1      -9.226   5.110  72.016  1.00  0.00    -0.137 C  
ENDBRANCH   7  39
BRANCH   8  41
HETATM   41  O   UNL     1      -9.184   2.839  69.433  1.00  0.00    -0.120 OA 
HETATM   42  C   UNL     1      -8.269   1.772  69.257  1.00  0.00    -0.044 C  
ENDBRANCH   8  41
ENDBRANCH   2   3
TORSDOF 9
ENDMDL
MODEL      105
REMARK 921   NORMALIZED FREE ENERGY PREDICTED BY IDOCK:   -5.79 KCAL/MOL
REMARK 922        TOTAL FREE ENERGY PREDICTED BY IDOCK:  -10.70 KCAL/MOL
REMARK 923 INTER-LIGAND FREE ENERGY PREDICTED BY IDOCK:  -10.53 KCAL/MOL
REMARK 924 INTRA-LIGAND FREE ENERGY PREDICTED BY IDOCK:   -0.18 KCAL/MOL
REMARK 927      BINDING AFFINITY PREDICTED BY RF-SCORE:    0.00 PKD
ROOT
HETATM    1  C   UNL     1      -9.852   5.927  69.101  1.00  0.00    -0.156 C  
HETATM    2  O   UNL     1      -9.136   7.164  69.140  1.00  0.00    -0.138 OA 
ENDROOT
BRANCH   2   3
HETATM    3  C   UNL     1      -9.901   8.273  68.874  1.00  0.00    -0.180 A  
HETATM    4  C   UNL     1      -9.899   8.822  67.579  1.00  0.00    -0.232 A  
HETATM    5  C   UNL     1     -10.561  10.002  67.265  1.00  0.00    -0.257 A  
HETATM    6  C   UNL     1     -11.274  10.609  68.302  1.00  0.00    -0.362 A  
HETATM    7  C   UNL     1     -11.359  10.060  69.592  1.00  0.00    -0.202 A  
HETATM    8  C   UNL     1     -10.692   8.851  69.887  1.00  0.00    -0.227 A  
BRANCH   5   9
HETATM    9  N   UNL     1     -10.522  10.597  65.999  1.00  0.00    -0.217 NA 
HETATM   10  H   UNL     1     -10.069  10.015  65.296  1.00  0.00     0.000 HD 
BRANCH   9  11
HETATM   11  C   UNL     1     -10.971  11.818  65.496  1.00  0.00    -0.290 A  
HETATM   12  N   UNL     1     -11.613  11.722  64.323  1.00  0.00    -0.311 NA 
HETATM   13  N   UNL     1     -10.778  12.992  66.135  1.00  0.00    -0.271 NA 
HETATM   14  C   UNL     1     -11.245  14.136  65.571  1.00  0.00    -0.317 A  
HETATM   15  F   UNL     1     -12.527  15.177  63.841  1.00  0.00    -0.451 F  
HETATM   16  C   UNL     1     -12.099  12.867  63.799  1.00  0.00    -0.508 A  
HETATM   17  C   UNL     1     -11.972  14.095  64.402  1.00  0.00    -0.457 A  
BRANCH  14  18
HETATM   18  N   UNL     1     -11.001  15.311  66.303  1.00  0.00    -0.320 NA 
HETATM   19  H   UNL     1     -11.711  16.032  66.180  1.00  0.00     0.000 HD 
BRANCH  18  20
HETATM   20  C   UNL     1      -9.952  15.677  67.177  1.00  0.00    -0.240 A  
HETATM   21  N   UNL     1      -9.398  16.908  67.173  1.00  0.00    -0.231 NA 
HETATM   22  C   UNL     1      -8.441  17.220  68.100  1.00  0.00    -0.238 A  
HETATM   23  C   UNL     1      -7.942  16.278  68.996  1.00  0.00    -0.238 A  
HETATM   24  O   UNL     1      -6.907  16.510  69.866  1.00  0.00    -0.078 OA 
HETATM   25  C   UNL     1      -8.504  15.012  68.999  1.00  0.00    -0.200 A  
HETATM   26  C   UNL     1      -6.102  17.629  69.500  1.00  0.00    -0.250 C  
HETATM   27  C   UNL     1      -9.510  14.711  68.082  1.00  0.00    -0.212 A  
HETATM   28  C   UNL     1      -6.931  18.859  69.101  1.00  0.00    -0.281 C  
HETATM   29  C   UNL     1      -5.187  17.974  70.680  1.00  0.00    -0.274 C  
HETATM   30  C   UNL     1      -5.214  17.295  68.274  1.00  0.00    -0.132 C  
HETATM   31  N   UNL     1      -7.945  18.547  68.211  1.00  0.00    -0.295 N  
HETATM   32  O   UNL     1      -6.615  20.013  69.386  1.00  0.00    -0.332 OA 
BRANCH  31  33
HETATM   33  C   UNL     1      -8.321  19.576  67.299  1.00  0.00    -0.293 C  
BRANCH  33  34
HETATM   34  O   UNL     1      -7.183  20.240  66.852  1.00  0.00    -0.247 OA 
HETATM   35  P   UNL     1      -6.577  19.473  65.424  1.00  0.00    -0.240 P  
HETATM   36  O   UNL     1      -5.130  19.719  66.142  1.00  0.00    -0.161 OA 
HETATM   37  O   UNL     1      -6.735  20.954  64.755  1.00  0.00    -0.203 OA 
HETATM   38  O   UNL     1      -6.035  18.786  64.147  1.00  0.00    -0.382 OA 
ENDBRANCH  33  34
ENDBRANCH  31  33
ENDBRANCH  18  20
ENDBRANCH  14  18
ENDBRANCH   9  11
ENDBRANCH   5   9
BRANCH   7  39
HETATM   39  O   UNL     1     -12.082  10.867  70.436  1.00  0.00    -0.301 OA 
HETATM   40  C   UNL     1     -11.965  12.278  70.349  1.00  0.00    -0.263 C  
ENDBRANCH   7  39
BRANCH   8  41
HETATM   41  O   UNL     1     -10.914   8.338  71.133  1.00  0.00    -0.234 OA 
HETATM   42  C   UNL     1     -11.996   7.477  71.441  1.00  0.00    -0.309 C  
ENDBRANCH   8  41
ENDBRANCH   2   3
TORSDOF 9
ENDMDL
MODEL      106
REMARK 921   NORMALIZED FREE ENERGY PREDICTED BY IDOCK:   -5.78 KCAL/MOL
REMARK 922        TOTAL FREE ENERGY PREDICTED BY IDOCK:  -10.69 KCAL/MOL
REMARK 923 INTER-LIGAND FREE ENERGY PREDICTED BY IDOCK:   -9.10 KCAL/MOL
REMARK 924 INTRA-LIGAND FREE ENERGY PREDICTED BY IDOCK:   -1.59 KCAL/MOL
REMARK 927      BINDING AFFINITY PREDICTED BY RF-SCORE:    0.00 PKD
ROOT
HETATM    1  C   UNL     1     -11.679  15.083  64.747  1.00  0.00    -0.370 C  
HETATM    2  O   UNL     1     -10.910  15.458  65.892  1.00  0.00    -0.321 OA 
ENDROOT
BRANCH   2   3
HETATM    3  C   UNL     1     -11.086  14.647  66.986  1.00  0.00    -0.333 A  
HETATM    4  C   UNL     1     -11.025  13.250  66.831  1.00  0.00    -0.298 A  
HETATM    5  C   UNL     1     -11.299  12.369  67.869  1.00  0.00    -0.289 A  
HETATM    6  C   UNL     1     -11.607  12.942  69.106  1.00  0.00    -0.375 A  
HETATM    7  C   UNL     1     -11.613  14.330  69.321  1.00  0.00    -0.306 A  
HETATM    8  C   UNL     1     -11.315  15.209  68.258  1.00  0.00    -0.327 A  
BRANCH   5   9
HETATM    9  N   UNL     1     -11.302  10.978  67.721  1.00  0.00    -0.407 NA 
HETATM   10  H   UNL     1     -12.159  10.540  68.057  1.00  0.00     0.000 HD 
BRANCH   9  11
HETATM   11  C   UNL     1     -10.382  10.062  67.210  1.00  0.00    -0.237 A  
HETATM   12  N   UNL     1      -9.242  10.619  66.777  1.00  0.00    -0.155 NA 
HETATM   13  N   UNL     1     -10.618   8.734  67.159  1.00  0.00    -0.279 NA 
HETATM   14  C   UNL     1      -9.667   7.913  66.642  1.00  0.00    -0.235 A  
HETATM   15  F   UNL     1      -7.443   7.649  65.802  1.00  0.00    -0.071 F  
HETATM   16  C   UNL     1      -8.298   9.781  66.299  1.00  0.00    -0.116 A  
HETATM   17  C   UNL     1      -8.448   8.416  66.244  1.00  0.00    -0.127 A  
BRANCH  14  18
HETATM   18  N   UNL     1      -9.995   6.547  66.627  1.00  0.00    -0.281 NA 
HETATM   19  H   UNL     1     -10.458   6.240  65.772  1.00  0.00     0.000 HD 
BRANCH  18  20
HETATM   20  C   UNL     1      -9.802   5.520  67.579  1.00  0.00    -0.144 A  
HETATM   21  N   UNL     1      -9.939   5.724  68.907  1.00  0.00    -0.149 NA 
HETATM   22  C   UNL     1      -9.815   4.667  69.768  1.00  0.00    -0.226 A  
HETATM   23  C   UNL     1      -9.457   3.394  69.332  1.00  0.00    -0.151 A  
HETATM   24  O   UNL     1      -9.212   2.332  70.164  1.00  0.00    -0.101 OA 
HETATM   25  C   UNL     1      -9.310   3.183  67.971  1.00  0.00    -0.248 A  
HETATM   26  C   UNL     1      -8.933   2.720  71.508  1.00  0.00    -0.086 C  
HETATM   27  C   UNL     1      -9.480   4.252  67.093  1.00  0.00    -0.204 A  
HETATM   28  C   UNL     1      -9.910   3.778  72.041  1.00  0.00    -0.173 C  
HETATM   29  C   UNL     1      -8.979   1.471  72.393  1.00  0.00    -0.087 C  
HETATM   30  C   UNL     1      -7.519   3.346  71.621  1.00  0.00    -0.051 C  
HETATM   31  N   UNL     1     -10.094   4.824  71.153  1.00  0.00    -0.202 N  
HETATM   32  O   UNL     1     -10.330   3.794  73.197  1.00  0.00    -0.148 OA 
BRANCH  31  33
HETATM   33  C   UNL     1     -10.391   6.094  71.727  1.00  0.00    -0.210 C  
BRANCH  33  34
HETATM   34  O   UNL     1      -9.303   6.946  71.562  1.00  0.00    -0.155 OA 
HETATM   35  P   UNL     1      -9.855   8.525  71.119  1.00  0.00    -0.250 P  
HETATM   36  O   UNL     1      -8.593   8.461  70.082  1.00  0.00    -0.125 OA 
HETATM   37  O   UNL     1      -9.020   9.010  72.436  1.00  0.00    -0.326 OA 
HETATM   38  O   UNL     1     -10.348   9.938  70.722  1.00  0.00    -0.273 OA 
ENDBRANCH  33  34
ENDBRANCH  31  33
ENDBRANCH  18  20
ENDBRANCH  14  18
ENDBRANCH   9  11
ENDBRANCH   5   9
BRANCH   7  39
HETATM   39  O   UNL     1     -11.986  14.637  70.608  1.00  0.00    -0.279 OA 
HETATM   40  C   UNL     1     -13.191  14.116  71.146  1.00  0.00    -0.301 C  
ENDBRANCH   7  39
BRANCH   8  41
HETATM   41  O   UNL     1     -11.243  16.534  68.583  1.00  0.00    -0.353 OA 
HETATM   42  C   UNL     1     -10.021  17.236  68.727  1.00  0.00    -0.325 C  
ENDBRANCH   8  41
ENDBRANCH   2   3
TORSDOF 9
ENDMDL
MODEL      107
REMARK 921   NORMALIZED FREE ENERGY PREDICTED BY IDOCK:   -5.78 KCAL/MOL
REMARK 922        TOTAL FREE ENERGY PREDICTED BY IDOCK:  -10.68 KCAL/MOL
REMARK 923 INTER-LIGAND FREE ENERGY PREDICTED BY IDOCK:   -9.34 KCAL/MOL
REMARK 924 INTRA-LIGAND FREE ENERGY PREDICTED BY IDOCK:   -1.35 KCAL/MOL
REMARK 927      BINDING AFFINITY PREDICTED BY RF-SCORE:    0.00 PKD
ROOT
HETATM    1  C   UNL     1     -10.314   5.695  67.518  1.00  0.00    -0.222 C  
HETATM    2  O   UNL     1      -9.885   4.863  68.598  1.00  0.00    -0.157 OA 
ENDROOT
BRANCH   2   3
HETATM    3  C   UNL     1      -9.902   5.473  69.828  1.00  0.00    -0.194 A  
HETATM    4  C   UNL     1     -10.126   6.860  69.911  1.00  0.00    -0.200 A  
HETATM    5  C   UNL     1     -10.050   7.560  71.108  1.00  0.00    -0.188 A  
HETATM    6  C   UNL     1      -9.774   6.807  72.252  1.00  0.00    -0.156 A  
HETATM    7  C   UNL     1      -9.610   5.412  72.224  1.00  0.00    -0.155 A  
HETATM    8  C   UNL     1      -9.708   4.715  71.001  1.00  0.00    -0.188 A  
BRANCH   5   9
HETATM    9  N   UNL     1     -10.210   8.946  71.204  1.00  0.00    -0.240 NA 
HETATM   10  H   UNL     1     -10.064   9.303  72.148  1.00  0.00     0.000 HD 
BRANCH   9  11
HETATM   11  C   UNL     1     -10.527   9.944  70.282  1.00  0.00    -0.291 A  
HETATM   12  N   UNL     1     -11.838  10.209  70.194  1.00  0.00    -0.246 NA 
HETATM   13  N   UNL     1      -9.595  10.586  69.546  1.00  0.00    -0.154 NA 
HETATM   14  C   UNL     1      -9.991  11.543  68.667  1.00  0.00    -0.199 A  
HETATM   15  F   UNL     1     -11.757  12.899  67.793  1.00  0.00    -0.320 F  
HETATM   16  C   UNL     1     -12.205  11.188  69.340  1.00  0.00    -0.259 A  
HETATM   17  C   UNL     1     -11.316  11.910  68.579  1.00  0.00    -0.276 A  
BRANCH  14  18
HETATM   18  N   UNL     1      -8.957  12.161  67.943  1.00  0.00    -0.176 NA 
HETATM   19  H   UNL     1      -8.594  11.597  67.174  1.00  0.00     0.000 HD 
BRANCH  18  20
HETATM   20  C   UNL     1      -8.327  13.418  68.083  1.00  0.00    -0.164 A  
HETATM   21  N   UNL     1      -8.888  14.566  67.644  1.00  0.00    -0.179 NA 
HETATM   22  C   UNL     1      -8.260  15.758  67.883  1.00  0.00    -0.145 A  
HETATM   23  C   UNL     1      -7.006  15.828  68.484  1.00  0.00    -0.117 A  
HETATM   24  O   UNL     1      -6.288  16.985  68.643  1.00  0.00    -0.153 OA 
HETATM   25  C   UNL     1      -6.425  14.652  68.930  1.00  0.00    -0.090 A  
HETATM   26  C   UNL     1      -6.714  18.037  67.781  1.00  0.00    -0.199 C  
HETATM   27  C   UNL     1      -7.087  13.443  68.724  1.00  0.00    -0.101 A  
HETATM   28  C   UNL     1      -8.241  18.196  67.739  1.00  0.00    -0.242 C  
HETATM   29  C   UNL     1      -6.065  19.343  68.251  1.00  0.00    -0.245 C  
HETATM   30  C   UNL     1      -6.271  17.770  66.320  1.00  0.00    -0.265 C  
HETATM   31  N   UNL     1      -8.894  16.988  67.561  1.00  0.00    -0.209 N  
HETATM   32  O   UNL     1      -8.810  19.285  67.677  1.00  0.00    -0.290 OA 
BRANCH  31  33
HETATM   33  C   UNL     1     -10.140  17.041  66.872  1.00  0.00    -0.298 C  
BRANCH  33  34
HETATM   34  O   UNL     1      -9.992  16.499  65.598  1.00  0.00    -0.497 OA 
HETATM   35  P   UNL     1     -11.398  15.579  65.184  1.00  0.00    -0.116 P  
HETATM   36  O   UNL     1     -10.295  14.529  64.590  1.00  0.00    -0.370 OA 
HETATM   37  O   UNL     1     -11.466  16.569  63.888  1.00  0.00    -1.145 OA 
HETATM   38  O   UNL     1     -12.655  14.755  64.813  1.00  0.00    -0.452 OA 
ENDBRANCH  33  34
ENDBRANCH  31  33
ENDBRANCH  18  20
ENDBRANCH  14  18
ENDBRANCH   9  11
ENDBRANCH   5   9
BRANCH   7  39
HETATM   39  O   UNL     1      -9.306   4.916  73.470  1.00  0.00    -0.126 OA 
HETATM   40  C   UNL     1      -8.125   5.332  74.135  1.00  0.00    -0.106 C  
ENDBRANCH   7  39
BRANCH   8  41
HETATM   41  O   UNL     1      -9.638   3.354  71.082  1.00  0.00    -0.148 OA 
HETATM   42  C   UNL     1      -8.432   2.625  70.938  1.00  0.00    -0.057 C  
ENDBRANCH   8  41
ENDBRANCH   2   3
TORSDOF 9
ENDMDL
MODEL      108
REMARK 921   NORMALIZED FREE ENERGY PREDICTED BY IDOCK:   -5.73 KCAL/MOL
REMARK 922        TOTAL FREE ENERGY PREDICTED BY IDOCK:  -10.61 KCAL/MOL
REMARK 923 INTER-LIGAND FREE ENERGY PREDICTED BY IDOCK:   -9.33 KCAL/MOL
REMARK 924 INTRA-LIGAND FREE ENERGY PREDICTED BY IDOCK:   -1.28 KCAL/MOL
REMARK 927      BINDING AFFINITY PREDICTED BY RF-SCORE:    0.00 PKD
ROOT
HETATM    1  C   UNL     1     -11.388  15.735  64.547  1.00  0.00    -0.316 C  
HETATM    2  O   UNL     1     -10.693  16.885  65.036  1.00  0.00    -0.700 OA 
ENDROOT
BRANCH   2   3
HETATM    3  C   UNL     1     -10.007  16.680  66.208  1.00  0.00    -0.320 A  
HETATM    4  C   UNL     1     -10.126  15.446  66.874  1.00  0.00    -0.258 A  
HETATM    5  C   UNL     1      -9.548  15.206  68.114  1.00  0.00    -0.205 A  
HETATM    6  C   UNL     1      -8.800  16.251  68.664  1.00  0.00    -0.226 A  
HETATM    7  C   UNL     1      -8.601  17.474  68.002  1.00  0.00    -0.250 A  
HETATM    8  C   UNL     1      -9.181  17.693  66.735  1.00  0.00    -0.271 A  
BRANCH   5   9
HETATM    9  N   UNL     1      -9.704  14.009  68.821  1.00  0.00    -0.371 NA 
HETATM   10  H   UNL     1      -9.633  14.127  69.831  1.00  0.00     0.000 HD 
BRANCH   9  11
HETATM   11  C   UNL     1      -9.934  12.688  68.436  1.00  0.00    -0.210 A  
HETATM   12  N   UNL     1     -11.207  12.431  68.102  1.00  0.00    -0.244 NA 
HETATM   13  N   UNL     1      -8.961  11.753  68.401  1.00  0.00    -0.181 NA 
HETATM   14  C   UNL     1      -9.274  10.488  68.018  1.00  0.00    -0.142 A  
HETATM   15  F   UNL     1     -10.898   8.971  67.133  1.00  0.00    -0.345 F  
HETATM   16  C   UNL     1     -11.487  11.176  67.691  1.00  0.00    -0.250 A  
HETATM   17  C   UNL     1     -10.548  10.177  67.597  1.00  0.00    -0.265 A  
BRANCH  14  18
HETATM   18  N   UNL     1      -8.202   9.579  68.010  1.00  0.00    -0.113 NA 
HETATM   19  H   UNL     1      -7.476   9.798  67.328  1.00  0.00     0.000 HD 
BRANCH  18  20
HETATM   20  C   UNL     1      -7.944   8.417  68.773  1.00  0.00    -0.120 A  
HETATM   21  N   UNL     1      -8.930   7.655  69.293  1.00  0.00    -0.136 NA 
HETATM   22  C   UNL     1      -8.612   6.501  69.956  1.00  0.00    -0.140 A  
HETATM   23  C   UNL     1      -7.293   6.124  70.197  1.00  0.00    -0.082 A  
HETATM   24  O   UNL     1      -6.924   5.039  70.950  1.00  0.00    -0.045 OA 
HETATM   25  C   UNL     1      -6.279   6.907  69.670  1.00  0.00    -0.034 A  
HETATM   26  C   UNL     1      -7.959   4.572  71.813  1.00  0.00    -0.097 C  
HETATM   27  C   UNL     1      -6.607   8.060  68.959  1.00  0.00    -0.048 A  
HETATM   28  C   UNL     1      -9.322   4.470  71.114  1.00  0.00    -0.149 C  
HETATM   29  C   UNL     1      -7.550   3.202  72.364  1.00  0.00    -0.057 C  
HETATM   30  C   UNL     1      -8.161   5.538  73.008  1.00  0.00    -0.119 C  
HETATM   31  N   UNL     1      -9.630   5.608  70.387  1.00  0.00    -0.164 N  
HETATM   32  O   UNL     1     -10.130   3.568  71.327  1.00  0.00    -0.114 OA 
BRANCH  31  33
HETATM   33  C   UNL     1     -11.015   5.923  70.267  1.00  0.00    -0.320 C  
BRANCH  33  34
HETATM   34  O   UNL     1     -11.516   6.303  71.508  1.00  0.00    -0.287 OA 
HETATM   35  P   UNL     1     -11.737   8.019  71.553  1.00  0.00    -0.310 P  
HETATM   36  O   UNL     1     -11.109   7.863  73.054  1.00  0.00    -0.402 OA 
HETATM   37  O   UNL     1     -13.281   7.648  71.932  1.00  0.00    -0.310 OA 
HETATM   38  O   UNL     1     -11.935   9.553  71.594  1.00  0.00    -0.362 OA 
ENDBRANCH  33  34
ENDBRANCH  31  33
ENDBRANCH  18  20
ENDBRANCH  14  18
ENDBRANCH   9  11
ENDBRANCH   5   9
BRANCH   7  39
HETATM   39  O   UNL     1      -7.866  18.346  68.769  1.00  0.00    -0.306 OA 
HETATM   40  C   UNL     1      -6.466  18.463  68.574  1.00  0.00    -0.224 C  
ENDBRANCH   7  39
BRANCH   8  41
HETATM   41  O   UNL     1      -8.850  18.867  66.122  1.00  0.00    -0.429 OA 
HETATM   42  C   UNL     1      -9.559  20.078  66.322  1.00  0.00    -0.407 C  
ENDBRANCH   8  41
ENDBRANCH   2   3
TORSDOF 9
ENDMDL
MODEL      109
REMARK 921   NORMALIZED FREE ENERGY PREDICTED BY IDOCK:   -5.73 KCAL/MOL
REMARK 922        TOTAL FREE ENERGY PREDICTED BY IDOCK:  -10.61 KCAL/MOL
REMARK 923 INTER-LIGAND FREE ENERGY PREDICTED BY IDOCK:   -9.18 KCAL/MOL
REMARK 924 INTRA-LIGAND FREE ENERGY PREDICTED BY IDOCK:   -1.42 KCAL/MOL
REMARK 927      BINDING AFFINITY PREDICTED BY RF-SCORE:    0.00 PKD
ROOT
HETATM    1  C   UNL     1      -9.616   3.907  68.471  1.00  0.00    -0.111 C  
HETATM    2  O   UNL     1     -10.282   4.761  69.405  1.00  0.00    -0.210 OA 
ENDROOT
BRANCH   2   3
HETATM    3  C   UNL     1      -9.547   5.849  69.806  1.00  0.00    -0.153 A  
HETATM    4  C   UNL     1      -9.229   6.853  68.872  1.00  0.00    -0.132 A  
HETATM    5  C   UNL     1      -8.402   7.926  69.179  1.00  0.00    -0.133 A  
HETATM    6  C   UNL     1      -7.921   7.985  70.489  1.00  0.00    -0.096 A  
HETATM    7  C   UNL     1      -8.267   7.041  71.471  1.00  0.00    -0.108 A  
HETATM    8  C   UNL     1      -9.123   5.967  71.145  1.00  0.00    -0.146 A  
BRANCH   5   9
HETATM    9  N   UNL     1      -8.024   8.901  68.250  1.00  0.00    -0.104 NA 
HETATM   10  H   UNL     1      -7.071   9.236  68.383  1.00  0.00     0.000 HD 
BRANCH   9  11
HETATM   11  C   UNL     1      -8.677   9.513  67.179  1.00  0.00    -0.132 A  
HETATM   12  N   UNL     1      -8.616   8.818  66.034  1.00  0.00    -0.139 NA 
HETATM   13  N   UNL     1      -9.314  10.698  67.287  1.00  0.00    -0.150 NA 
HETATM   14  C   UNL     1      -9.920  11.225  66.192  1.00  0.00    -0.228 A  
HETATM   15  F   UNL     1     -10.601  10.956  63.914  1.00  0.00    -0.407 F  
HETATM   16  C   UNL     1      -9.255   9.344  64.968  1.00  0.00    -0.218 A  
HETATM   17  C   UNL     1      -9.952  10.528  65.004  1.00  0.00    -0.322 A  
BRANCH  14  18
HETATM   18  N   UNL     1     -10.558  12.461  66.393  1.00  0.00    -0.240 NA 
HETATM   19  H   UNL     1     -10.866  12.914  65.533  1.00  0.00     0.000 HD 
BRANCH  18  20
HETATM   20  C   UNL     1     -10.853  13.190  67.568  1.00  0.00    -0.255 A  
HETATM   21  N   UNL     1     -11.590  12.678  68.576  1.00  0.00    -0.301 NA 
HETATM   22  C   UNL     1     -11.771  13.410  69.718  1.00  0.00    -0.286 A  
HETATM   23  C   UNL     1     -11.298  14.713  69.846  1.00  0.00    -0.259 A  
HETATM   24  O   UNL     1     -11.549  15.525  70.923  1.00  0.00    -0.305 OA 
HETATM   25  C   UNL     1     -10.547  15.244  68.811  1.00  0.00    -0.240 A  
HETATM   26  C   UNL     1     -12.667  15.103  71.700  1.00  0.00    -0.356 C  
HETATM   27  C   UNL     1     -10.327  14.480  67.666  1.00  0.00    -0.237 A  
HETATM   28  C   UNL     1     -12.663  13.594  71.985  1.00  0.00    -0.197 C  
HETATM   29  C   UNL     1     -12.664  15.884  73.018  1.00  0.00    -0.611 C  
HETATM   30  C   UNL     1     -13.998  15.396  70.961  1.00  0.00    -0.301 C  
HETATM   31  N   UNL     1     -12.418  12.841  70.849  1.00  0.00    -0.345 N  
HETATM   32  O   UNL     1     -13.024  13.103  73.054  1.00  0.00    -0.096 OA 
BRANCH  31  33
HETATM   33  C   UNL     1     -13.013  11.547  70.809  1.00  0.00    -0.017 C  
BRANCH  33  34
HETATM   34  O   UNL     1     -12.575  10.799  71.898  1.00  0.00    -0.331 OA 
HETATM   35  P   UNL     1     -12.648   9.112  71.520  1.00  0.00    -0.358 P  
HETATM   36  O   UNL     1     -13.231   8.996  73.042  1.00  0.00    -0.306 OA 
HETATM   37  O   UNL     1     -11.061   9.123  71.904  1.00  0.00    -0.364 OA 
HETATM   38  O   UNL     1     -12.713   7.603  71.182  1.00  0.00    -0.290 OA 
ENDBRANCH  33  34
ENDBRANCH  31  33
ENDBRANCH  18  20
ENDBRANCH  14  18
ENDBRANCH   9  11
ENDBRANCH   5   9
BRANCH   7  39
HETATM   39  O   UNL     1      -7.632   7.299  72.662  1.00  0.00    -0.082 OA 
HETATM   40  C   UNL     1      -8.276   8.072  73.662  1.00  0.00    -0.227 C  
ENDBRANCH   7  39
BRANCH   8  41
HETATM   41  O   UNL     1      -9.489   5.160  72.183  1.00  0.00    -0.138 OA 
HETATM   42  C   UNL     1     -10.734   5.263  72.851  1.00  0.00    -0.253 C  
ENDBRANCH   8  41
ENDBRANCH   2   3
TORSDOF 9
ENDMDL
MODEL      110
REMARK 921   NORMALIZED FREE ENERGY PREDICTED BY IDOCK:   -5.72 KCAL/MOL
REMARK 922        TOTAL FREE ENERGY PREDICTED BY IDOCK:  -10.60 KCAL/MOL
REMARK 923 INTER-LIGAND FREE ENERGY PREDICTED BY IDOCK:   -9.23 KCAL/MOL
REMARK 924 INTRA-LIGAND FREE ENERGY PREDICTED BY IDOCK:   -1.37 KCAL/MOL
REMARK 927      BINDING AFFINITY PREDICTED BY RF-SCORE:    0.00 PKD
ROOT
HETATM    1  C   UNL     1      -8.864   2.099  67.991  1.00  0.00    -0.122 C  
HETATM    2  O   UNL     1      -9.264   3.198  67.168  1.00  0.00    -0.167 OA 
ENDROOT
BRANCH   2   3
HETATM    3  C   UNL     1      -8.686   4.399  67.501  1.00  0.00    -0.105 A  
HETATM    4  C   UNL     1      -8.979   4.988  68.745  1.00  0.00    -0.126 A  
HETATM    5  C   UNL     1      -8.517   6.248  69.103  1.00  0.00    -0.120 A  
HETATM    6  C   UNL     1      -7.703   6.900  68.172  1.00  0.00    -0.113 A  
HETATM    7  C   UNL     1      -7.332   6.320  66.948  1.00  0.00    -0.083 A  
HETATM    8  C   UNL     1      -7.797   5.031  66.609  1.00  0.00    -0.100 A  
BRANCH   5   9
HETATM    9  N   UNL     1      -8.845   6.877  70.308  1.00  0.00    -0.148 NA 
HETATM   10  H   UNL     1      -8.048   6.985  70.935  1.00  0.00     0.000 HD 
BRANCH   9  11
HETATM   11  C   UNL     1     -10.032   7.388  70.835  1.00  0.00    -0.184 A  
HETATM   12  N   UNL     1     -10.386   6.845  72.008  1.00  0.00    -0.198 NA 
HETATM   13  N   UNL     1     -10.757   8.345  70.218  1.00  0.00    -0.231 NA 
HETATM   14  C   UNL     1     -11.904   8.783  70.799  1.00  0.00    -0.178 A  
HETATM   15  F   UNL     1     -13.360   8.765  72.697  1.00  0.00    -0.418 F  
HETATM   16  C   UNL     1     -11.511   7.320  72.584  1.00  0.00    -0.261 A  
HETATM   17  C   UNL     1     -12.286   8.314  72.037  1.00  0.00    -0.349 A  
BRANCH  14  18
HETATM   18  N   UNL     1     -12.596   9.780  70.090  1.00  0.00    -0.414 NA 
HETATM   19  H   UNL     1     -13.490   9.473  69.707  1.00  0.00     0.000 HD 
BRANCH  18  20
HETATM   20  C   UNL     1     -12.281  11.129  69.810  1.00  0.00    -0.300 A  
HETATM   21  N   UNL     1     -11.981  11.563  68.567  1.00  0.00    -0.529 NA 
HETATM   22  C   UNL     1     -11.763  12.897  68.353  1.00  0.00    -0.345 A  
HETATM   23  C   UNL     1     -11.746  13.822  69.393  1.00  0.00    -0.325 A  
HETATM   24  O   UNL     1     -11.423  15.146  69.245  1.00  0.00    -0.273 OA 
HETATM   25  C   UNL     1     -12.047  13.379  70.671  1.00  0.00    -0.374 A  
HETATM   26  C   UNL     1     -10.700  15.421  68.048  1.00  0.00    -0.279 C  
HETATM   27  C   UNL     1     -12.312  12.026  70.879  1.00  0.00    -0.384 A  
HETATM   28  C   UNL     1     -11.303  14.737  66.813  1.00  0.00    -0.346 C  
HETATM   29  C   UNL     1     -10.664  16.939  67.840  1.00  0.00    -0.344 C  
HETATM   30  C   UNL     1      -9.241  14.908  68.152  1.00  0.00    -0.186 C  
HETATM   31  N   UNL     1     -11.588  13.400  67.035  1.00  0.00    -0.337 N  
HETATM   32  O   UNL     1     -11.350  15.260  65.701  1.00  0.00    -0.301 OA 
BRANCH  31  33
HETATM   33  C   UNL     1     -11.507  12.541  65.901  1.00  0.00    -0.373 C  
BRANCH  33  34
HETATM   34  O   UNL     1     -10.179  12.191  65.675  1.00  0.00    -0.243 OA 
HETATM   35  P   UNL     1      -9.858  10.633  66.356  1.00  0.00    -0.227 P  
HETATM   36  O   UNL     1      -8.467  11.346  66.835  1.00  0.00    -0.145 OA 
HETATM   37  O   UNL     1      -9.385  10.247  64.842  1.00  0.00    -0.207 OA 
HETATM   38  O   UNL     1      -9.571   9.239  66.966  1.00  0.00    -0.154 OA 
ENDBRANCH  33  34
ENDBRANCH  31  33
ENDBRANCH  18  20
ENDBRANCH  14  18
ENDBRANCH   9  11
ENDBRANCH   5   9
BRANCH   7  39
HETATM   39  O   UNL     1      -6.564   7.178  66.198  1.00  0.00    -0.050 OA 
HETATM   40  C   UNL     1      -5.209   7.411  66.543  1.00  0.00    -0.024 C  
ENDBRANCH   7  39
BRANCH   8  41
HETATM   41  O   UNL     1      -7.303   4.505  65.450  1.00  0.00    -0.073 OA 
HETATM   42  C   UNL     1      -7.924   4.678  64.188  1.00  0.00    -0.098 C  
ENDBRANCH   8  41
ENDBRANCH   2   3
TORSDOF 9
ENDMDL
MODEL      111
REMARK 921   NORMALIZED FREE ENERGY PREDICTED BY IDOCK:   -5.72 KCAL/MOL
REMARK 922        TOTAL FREE ENERGY PREDICTED BY IDOCK:  -10.60 KCAL/MOL
REMARK 923 INTER-LIGAND FREE ENERGY PREDICTED BY IDOCK:   -9.21 KCAL/MOL
REMARK 924 INTRA-LIGAND FREE ENERGY PREDICTED BY IDOCK:   -1.39 KCAL/MOL
REMARK 927      BINDING AFFINITY PREDICTED BY RF-SCORE:    0.00 PKD
ROOT
HETATM    1  C   UNL     1      -7.373   7.912  71.763  1.00  0.00    -0.073 C  
HETATM    2  O   UNL     1      -8.526   7.084  71.935  1.00  0.00    -0.110 OA 
ENDROOT
BRANCH   2   3
HETATM    3  C   UNL     1      -9.700   7.644  71.495  1.00  0.00    -0.165 A  
HETATM    4  C   UNL     1      -9.675   8.905  70.871  1.00  0.00    -0.300 A  
HETATM    5  C   UNL     1     -10.832   9.579  70.499  1.00  0.00    -0.292 A  
HETATM    6  C   UNL     1     -12.040   8.921  70.743  1.00  0.00    -0.143 A  
HETATM    7  C   UNL     1     -12.107   7.635  71.303  1.00  0.00    -0.314 A  
HETATM    8  C   UNL     1     -10.921   6.958  71.658  1.00  0.00    -0.234 A  
BRANCH   5   9
HETATM    9  N   UNL     1     -10.832  10.858  69.932  1.00  0.00    -0.446 NA 
HETATM   10  H   UNL     1     -11.188  11.576  70.562  1.00  0.00     0.000 HD 
BRANCH   9  11
HETATM   11  C   UNL     1     -10.448  11.359  68.688  1.00  0.00    -0.201 A  
HETATM   12  N   UNL     1     -11.392  11.250  67.741  1.00  0.00    -0.352 NA 
HETATM   13  N   UNL     1      -9.236  11.906  68.458  1.00  0.00    -0.172 NA 
HETATM   14  C   UNL     1      -8.943  12.366  67.214  1.00  0.00    -0.190 A  
HETATM   15  F   UNL     1      -9.692  12.857  64.996  1.00  0.00    -0.209 F  
HETATM   16  C   UNL     1     -11.091  11.745  66.522  1.00  0.00    -0.310 A  
HETATM   17  C   UNL     1      -9.893  12.345  66.217  1.00  0.00    -0.247 A  
BRANCH  14  18
HETATM   18  N   UNL     1      -7.660  12.919  67.064  1.00  0.00    -0.389 NA 
HETATM   19  H   UNL     1      -7.025  12.350  66.504  1.00  0.00     0.000 HD 
BRANCH  18  20
HETATM   20  C   UNL     1      -7.087  14.119  67.545  1.00  0.00    -0.163 A  
HETATM   21  N   UNL     1      -7.789  15.267  67.653  1.00  0.00    -0.144 NA 
HETATM   22  C   UNL     1      -7.195  16.372  68.200  1.00  0.00    -0.143 A  
HETATM   23  C   UNL     1      -5.852  16.385  68.568  1.00  0.00    -0.112 A  
HETATM   24  O   UNL     1      -5.184  17.496  69.015  1.00  0.00    -0.153 OA 
HETATM   25  C   UNL     1      -5.127  15.211  68.453  1.00  0.00    -0.105 A  
HETATM   26  C   UNL     1      -5.833  18.720  68.678  1.00  0.00    -0.208 C  
HETATM   27  C   UNL     1      -5.748  14.075  67.935  1.00  0.00    -0.116 A  
HETATM   28  C   UNL     1      -7.344  18.692  68.952  1.00  0.00    -0.273 C  
HETATM   29  C   UNL     1      -5.178  19.852  69.476  1.00  0.00    -0.222 C  
HETATM   30  C   UNL     1      -5.677  19.032  67.168  1.00  0.00    -0.166 C  
HETATM   31  N   UNL     1      -7.950  17.548  68.458  1.00  0.00    -0.264 N  
HETATM   32  O   UNL     1      -7.974  19.654  69.386  1.00  0.00    -0.208 OA 
BRANCH  31  33
HETATM   33  C   UNL     1      -9.309  17.680  68.053  1.00  0.00    -0.274 C  
BRANCH  33  34
HETATM   34  O   UNL     1      -9.367  17.905  66.681  1.00  0.00    -0.270 OA 
HETATM   35  P   UNL     1     -10.313  19.317  66.356  1.00  0.00    -0.505 P  
HETATM   36  O   UNL     1     -10.913  18.398  65.145  1.00  0.00    -0.604 OA 
HETATM   37  O   UNL     1      -8.975  19.839  65.580  1.00  0.00    -0.325 OA 
HETATM   38  O   UNL     1     -11.160  20.580  66.065  1.00  0.00     0.436 OA 
ENDBRANCH  33  34
ENDBRANCH  31  33
ENDBRANCH  18  20
ENDBRANCH  14  18
ENDBRANCH   9  11
ENDBRANCH   5   9
BRANCH   7  39
HETATM   39  O   UNL     1     -13.409   7.230  71.477  1.00  0.00    -0.379 OA 
HETATM   40  C   UNL     1     -14.336   8.074  72.140  1.00  0.00    -0.338 C  
ENDBRANCH   7  39
BRANCH   8  41
HETATM   41  O   UNL     1     -11.075   5.675  72.097  1.00  0.00    -0.247 OA 
HETATM   42  C   UNL     1     -10.760   5.258  73.415  1.00  0.00    -0.281 C  
ENDBRANCH   8  41
ENDBRANCH   2   3
TORSDOF 9
ENDMDL
MODEL      112
REMARK 921   NORMALIZED FREE ENERGY PREDICTED BY IDOCK:   -5.70 KCAL/MOL
REMARK 922        TOTAL FREE ENERGY PREDICTED BY IDOCK:  -10.56 KCAL/MOL
REMARK 923 INTER-LIGAND FREE ENERGY PREDICTED BY IDOCK:   -9.46 KCAL/MOL
REMARK 924 INTRA-LIGAND FREE ENERGY PREDICTED BY IDOCK:   -1.10 KCAL/MOL
REMARK 927      BINDING AFFINITY PREDICTED BY RF-SCORE:    0.00 PKD
ROOT
HETATM    1  C   UNL     1     -11.794  15.677  64.209  1.00  0.00    -0.146 C  
HETATM    2  O   UNL     1     -11.032  16.818  64.611  1.00  0.00    -0.839 OA 
ENDROOT
BRANCH   2   3
HETATM    3  C   UNL     1     -10.181  16.593  65.665  1.00  0.00    -0.262 A  
HETATM    4  C   UNL     1      -9.947  15.274  66.096  1.00  0.00    -0.325 A  
HETATM    5  C   UNL     1      -9.186  14.978  67.220  1.00  0.00    -0.201 A  
HETATM    6  C   UNL     1      -8.623  16.066  67.893  1.00  0.00    -0.165 A  
HETATM    7  C   UNL     1      -8.775  17.393  67.457  1.00  0.00    -0.219 A  
HETATM    8  C   UNL     1      -9.538  17.672  66.303  1.00  0.00    -0.244 A  
BRANCH   5   9
HETATM    9  N   UNL     1      -8.991  13.679  67.701  1.00  0.00    -0.191 NA 
HETATM   10  H   UNL     1      -8.020  13.374  67.651  1.00  0.00     0.000 HD 
BRANCH   9  11
HETATM   11  C   UNL     1      -9.844  12.713  68.235  1.00  0.00    -0.227 A  
HETATM   12  N   UNL     1     -10.638  13.167  69.215  1.00  0.00     0.041 NA 
HETATM   13  N   UNL     1      -9.868  11.434  67.802  1.00  0.00    -0.172 NA 
HETATM   14  C   UNL     1     -10.727  10.556  68.381  1.00  0.00    -0.224 A  
HETATM   15  F   UNL     1     -12.541  10.180  69.894  1.00  0.00    -0.202 F  
HETATM   16  C   UNL     1     -11.508  12.286  69.751  1.00  0.00    -0.166 A  
HETATM   17  C   UNL     1     -11.616  10.978  69.344  1.00  0.00    -0.312 A  
BRANCH  14  18
HETATM   18  N   UNL     1     -10.686   9.248  67.869  1.00  0.00    -0.420 NA 
HETATM   19  H   UNL     1     -10.795   9.194  66.856  1.00  0.00     0.000 HD 
BRANCH  18  20
HETATM   20  C   UNL     1     -10.522   7.993  68.499  1.00  0.00    -0.164 A  
HETATM   21  N   UNL     1     -10.365   7.865  69.834  1.00  0.00    -0.218 NA 
HETATM   22  C   UNL     1     -10.290   6.615  70.387  1.00  0.00    -0.199 A  
HETATM   23  C   UNL     1     -10.275   5.460  69.610  1.00  0.00    -0.274 A  
HETATM   24  O   UNL     1     -10.089   4.196  70.107  1.00  0.00    -0.163 OA 
HETATM   25  C   UNL     1     -10.429   5.589  68.239  1.00  0.00    -0.225 A  
HETATM   26  C   UNL     1      -9.494   4.180  71.402  1.00  0.00    -0.160 C  
HETATM   27  C   UNL     1     -10.549   6.861  67.683  1.00  0.00    -0.328 A  
HETATM   28  C   UNL     1     -10.129   5.192  72.366  1.00  0.00    -0.185 C  
HETATM   29  C   UNL     1      -9.616   2.764  71.975  1.00  0.00    -0.209 C  
HETATM   30  C   UNL     1      -7.990   4.547  71.325  1.00  0.00    -0.086 C  
HETATM   31  N   UNL     1     -10.269   6.447  71.799  1.00  0.00    -0.196 N  
HETATM   32  O   UNL     1     -10.314   4.969  73.562  1.00  0.00    -0.175 OA 
BRANCH  31  33
HETATM   33  C   UNL     1     -10.200   7.555  72.692  1.00  0.00    -0.245 C  
BRANCH  33  34
HETATM   34  O   UNL     1      -9.118   7.394  73.552  1.00  0.00    -0.170 OA 
HETATM   35  P   UNL     1      -7.743   8.243  72.931  1.00  0.00    -0.030 P  
HETATM   36  O   UNL     1      -6.945   6.898  73.405  1.00  0.00    -0.074 OA 
HETATM   37  O   UNL     1      -7.759   8.999  74.378  1.00  0.00    -0.364 OA 
HETATM   38  O   UNL     1      -6.514   9.001  72.376  1.00  0.00    -0.261 OA 
ENDBRANCH  33  34
ENDBRANCH  31  33
ENDBRANCH  18  20
ENDBRANCH  14  18
ENDBRANCH   9  11
ENDBRANCH   5   9
BRANCH   7  39
HETATM   39  O   UNL     1      -8.160  18.276  68.312  1.00  0.00    -0.279 OA 
HETATM   40  C   UNL     1      -6.956  17.914  68.967  1.00  0.00    -0.243 C  
ENDBRANCH   7  39
BRANCH   8  41
HETATM   41  O   UNL     1      -9.547  18.975  65.895  1.00  0.00    -0.460 OA 
HETATM   42  C   UNL     1     -10.515  19.918  66.320  1.00  0.00    -0.479 C  
ENDBRANCH   8  41
ENDBRANCH   2   3
TORSDOF 9
ENDMDL
MODEL      113
REMARK 921   NORMALIZED FREE ENERGY PREDICTED BY IDOCK:   -5.69 KCAL/MOL
REMARK 922        TOTAL FREE ENERGY PREDICTED BY IDOCK:  -10.55 KCAL/MOL
REMARK 923 INTER-LIGAND FREE ENERGY PREDICTED BY IDOCK:   -9.28 KCAL/MOL
REMARK 924 INTRA-LIGAND FREE ENERGY PREDICTED BY IDOCK:   -1.27 KCAL/MOL
REMARK 927      BINDING AFFINITY PREDICTED BY RF-SCORE:    0.00 PKD
ROOT
HETATM    1  C   UNL     1     -10.680  11.413  64.253  1.00  0.00    -0.356 C  
HETATM    2  O   UNL     1     -11.815  11.907  64.969  1.00  0.00    -0.272 OA 
ENDROOT
BRANCH   2   3
HETATM    3  C   UNL     1     -11.510  12.564  66.136  1.00  0.00    -0.377 A  
HETATM    4  C   UNL     1     -11.231  11.820  67.297  1.00  0.00    -0.364 A  
HETATM    5  C   UNL     1     -11.022  12.415  68.535  1.00  0.00    -0.245 A  
HETATM    6  C   UNL     1     -11.064  13.811  68.568  1.00  0.00    -0.292 A  
HETATM    7  C   UNL     1     -11.272  14.594  67.421  1.00  0.00    -0.342 A  
HETATM    8  C   UNL     1     -11.466  13.972  66.169  1.00  0.00    -0.346 A  
BRANCH   5   9
HETATM    9  N   UNL     1     -10.803  11.692  69.712  1.00  0.00    -0.448 NA 
HETATM   10  H   UNL     1      -9.855  11.791  70.074  1.00  0.00     0.000 HD 
BRANCH   9  11
HETATM   11  C   UNL     1     -11.606  10.864  70.496  1.00  0.00    -0.300 A  
HETATM   12  N   UNL     1     -12.469  11.526  71.281  1.00  0.00    -0.333 NA 
HETATM   13  N   UNL     1     -11.524   9.517  70.466  1.00  0.00    -0.271 NA 
HETATM   14  C   UNL     1     -12.342   8.786  71.267  1.00  0.00    -0.270 A  
HETATM   15  F   UNL     1     -14.184   8.736  72.792  1.00  0.00    -0.469 F  
HETATM   16  C   UNL     1     -13.296  10.779  72.042  1.00  0.00    -0.298 A  
HETATM   17  C   UNL     1     -13.296   9.404  72.044  1.00  0.00    -0.450 A  
BRANCH  14  18
HETATM   18  N   UNL     1     -12.189   7.393  71.172  1.00  0.00    -0.368 NA 
HETATM   19  H   UNL     1     -12.811   6.952  70.493  1.00  0.00     0.000 HD 
BRANCH  18  20
HETATM   20  C   UNL     1     -11.334   6.489  71.842  1.00  0.00    -0.285 A  
HETATM   21  N   UNL     1     -10.750   5.442  71.221  1.00  0.00    -0.216 NA 
HETATM   22  C   UNL     1      -9.871   4.653  71.911  1.00  0.00    -0.179 A  
HETATM   23  C   UNL     1      -9.623   4.832  73.270  1.00  0.00    -0.129 A  
HETATM   24  O   UNL     1      -8.839   4.001  74.029  1.00  0.00    -0.092 OA 
HETATM   25  C   UNL     1     -10.225   5.901  73.912  1.00  0.00    -0.262 A  
HETATM   26  C   UNL     1      -8.642   2.717  73.441  1.00  0.00    -0.076 C  
HETATM   27  C   UNL     1     -11.086   6.730  73.195  1.00  0.00    -0.220 A  
HETATM   28  C   UNL     1      -8.292   2.789  71.948  1.00  0.00    -0.058 C  
HETATM   29  C   UNL     1      -7.526   1.999  74.206  1.00  0.00    -0.033 C  
HETATM   30  C   UNL     1      -9.930   1.860  73.538  1.00  0.00    -0.141 C  
HETATM   31  N   UNL     1      -9.135   3.634  71.246  1.00  0.00    -0.105 N  
HETATM   32  O   UNL     1      -7.483   2.040  71.402  1.00  0.00    -0.035 OA 
BRANCH  31  33
HETATM   33  C   UNL     1      -9.362   3.306  69.878  1.00  0.00    -0.164 C  
BRANCH  33  34
HETATM   34  O   UNL     1      -8.470   4.010  69.076  1.00  0.00    -0.075 OA 
HETATM   35  P   UNL     1      -9.269   4.541  67.635  1.00  0.00    -0.157 P  
HETATM   36  O   UNL     1      -7.873   4.076  66.924  1.00  0.00    -0.094 OA 
HETATM   37  O   UNL     1      -8.781   6.027  68.105  1.00  0.00    -0.114 OA 
HETATM   38  O   UNL     1      -9.984   5.016  66.346  1.00  0.00    -0.178 OA 
ENDBRANCH  33  34
ENDBRANCH  31  33
ENDBRANCH  18  20
ENDBRANCH  14  18
ENDBRANCH   9  11
ENDBRANCH   5   9
BRANCH   7  39
HETATM   39  O   UNL     1     -11.311  15.933  67.727  1.00  0.00    -0.299 OA 
HETATM   40  C   UNL     1     -10.127  16.713  67.669  1.00  0.00    -0.272 C  
ENDBRANCH   7  39
BRANCH   8  41
HETATM   41  O   UNL     1     -11.558  14.810  65.095  1.00  0.00    -0.354 OA 
HETATM   42  C   UNL     1     -12.650  14.804  64.192  1.00  0.00     0.064 C  
ENDBRANCH   8  41
ENDBRANCH   2   3
TORSDOF 9
ENDMDL
MODEL      114
REMARK 921   NORMALIZED FREE ENERGY PREDICTED BY IDOCK:   -5.67 KCAL/MOL
REMARK 922        TOTAL FREE ENERGY PREDICTED BY IDOCK:  -10.51 KCAL/MOL
REMARK 923 INTER-LIGAND FREE ENERGY PREDICTED BY IDOCK:   -9.32 KCAL/MOL
REMARK 924 INTRA-LIGAND FREE ENERGY PREDICTED BY IDOCK:   -1.20 KCAL/MOL
REMARK 927      BINDING AFFINITY PREDICTED BY RF-SCORE:    0.00 PKD
ROOT
HETATM    1  C   UNL     1      -6.613  14.705  69.049  1.00  0.00    -0.102 C  
HETATM    2  O   UNL     1      -6.357  16.042  68.614  1.00  0.00    -0.112 OA 
ENDROOT
BRANCH   2   3
HETATM    3  C   UNL     1      -7.433  16.668  68.033  1.00  0.00    -0.164 A  
HETATM    4  C   UNL     1      -8.124  16.029  66.987  1.00  0.00    -0.257 A  
HETATM    5  C   UNL     1      -9.151  16.646  66.283  1.00  0.00    -0.298 A  
HETATM    6  C   UNL     1      -9.497  17.936  66.691  1.00  0.00    -0.303 A  
HETATM    7  C   UNL     1      -8.878  18.585  67.773  1.00  0.00    -0.275 A  
HETATM    8  C   UNL     1      -7.848  17.935  68.487  1.00  0.00    -0.298 A  
BRANCH   5   9
HETATM    9  N   UNL     1      -9.811  16.052  65.202  1.00  0.00    -0.341 NA 
HETATM   10  H   UNL     1      -9.552  16.457  64.302  1.00  0.00     0.000 HD 
BRANCH   9  11
HETATM   11  C   UNL     1     -10.747  15.024  65.093  1.00  0.00    -0.415 A  
HETATM   12  N   UNL     1     -11.621  15.186  64.089  1.00  0.00    -0.196 NA 
HETATM   13  N   UNL     1     -10.770  13.960  65.924  1.00  0.00    -0.282 NA 
HETATM   14  C   UNL     1     -11.721  13.006  65.750  1.00  0.00    -0.382 A  
HETATM   15  F   UNL     1     -13.509  12.131  64.423  1.00  0.00    -0.393 F  
HETATM   16  C   UNL     1     -12.534  14.208  63.913  1.00  0.00    -0.069 A  
HETATM   17  C   UNL     1     -12.604  13.080  64.694  1.00  0.00    -0.362 A  
BRANCH  14  18
HETATM   18  N   UNL     1     -11.672  11.934  66.658  1.00  0.00    -0.579 NA 
HETATM   19  H   UNL     1     -12.351  12.001  67.416  1.00  0.00     0.000 HD 
BRANCH  18  20
HETATM   20  C   UNL     1     -10.855  10.783  66.715  1.00  0.00    -0.194 A  
HETATM   21  N   UNL     1     -11.035   9.807  67.631  1.00  0.00    -0.240 NA 
HETATM   22  C   UNL     1     -10.258   8.682  67.580  1.00  0.00    -0.239 A  
HETATM   23  C   UNL     1      -9.214   8.542  66.669  1.00  0.00    -0.177 A  
HETATM   24  O   UNL     1      -8.339   7.487  66.651  1.00  0.00    -0.120 OA 
HETATM   25  C   UNL     1      -9.022   9.544  65.732  1.00  0.00    -0.219 A  
HETATM   26  C   UNL     1      -8.303   6.762  67.879  1.00  0.00    -0.120 C  
HETATM   27  C   UNL     1      -9.844  10.670  65.758  1.00  0.00    -0.296 A  
HETATM   28  C   UNL     1      -9.701   6.464  68.440  1.00  0.00    -0.131 C  
HETATM   29  C   UNL     1      -7.543   5.452  67.647  1.00  0.00    -0.088 C  
HETATM   30  C   UNL     1      -7.564   7.569  68.977  1.00  0.00    -0.108 C  
HETATM   31  N   UNL     1     -10.521   7.580  68.439  1.00  0.00    -0.193 N  
HETATM   32  O   UNL     1      -9.998   5.411  69.001  1.00  0.00    -0.159 OA 
BRANCH  31  33
HETATM   33  C   UNL     1     -11.509   7.638  69.464  1.00  0.00     0.327 C  
BRANCH  33  34
HETATM   34  O   UNL     1     -11.096   8.516  70.461  1.00  0.00    -0.244 OA 
HETATM   35  P   UNL     1     -12.314   8.630  71.686  1.00  0.00    -0.369 P  
HETATM   36  O   UNL     1     -11.949  10.221  71.625  1.00  0.00    -0.332 OA 
HETATM   37  O   UNL     1     -11.113   8.177  72.695  1.00  0.00    -0.365 OA 
HETATM   38  O   UNL     1     -13.403   8.732  72.781  1.00  0.00    -0.357 OA 
ENDBRANCH  33  34
ENDBRANCH  31  33
ENDBRANCH  18  20
ENDBRANCH  14  18
ENDBRANCH   9  11
ENDBRANCH   5   9
BRANCH   7  39
HETATM   39  O   UNL     1      -9.369  19.857  67.944  1.00  0.00    -0.336 OA 
HETATM   40  C   UNL     1     -10.240  20.422  66.978  1.00  0.00    -0.280 C  
ENDBRANCH   7  39
BRANCH   8  41
HETATM   41  O   UNL     1      -7.377  18.596  69.585  1.00  0.00     0.046 OA 
HETATM   42  C   UNL     1      -6.214  19.405  69.568  1.00  0.00    -0.297 C  
ENDBRANCH   8  41
ENDBRANCH   2   3
TORSDOF 9
ENDMDL
MODEL      115
REMARK 921   NORMALIZED FREE ENERGY PREDICTED BY IDOCK:   -5.65 KCAL/MOL
REMARK 922        TOTAL FREE ENERGY PREDICTED BY IDOCK:  -10.49 KCAL/MOL
REMARK 923 INTER-LIGAND FREE ENERGY PREDICTED BY IDOCK:   -9.10 KCAL/MOL
REMARK 924 INTRA-LIGAND FREE ENERGY PREDICTED BY IDOCK:   -1.40 KCAL/MOL
REMARK 927      BINDING AFFINITY PREDICTED BY RF-SCORE:    0.00 PKD
ROOT
HETATM    1  C   UNL     1      -7.149   6.577  74.136  1.00  0.00    -0.088 C  
HETATM    2  O   UNL     1      -6.559   5.895  73.026  1.00  0.00    -0.066 OA 
ENDROOT
BRANCH   2   3
HETATM    3  C   UNL     1      -7.416   5.667  71.977  1.00  0.00    -0.095 A  
HETATM    4  C   UNL     1      -8.728   6.171  72.032  1.00  0.00    -0.135 A  
HETATM    5  C   UNL     1      -9.679   5.888  71.060  1.00  0.00    -0.172 A  
HETATM    6  C   UNL     1      -9.256   5.099  69.987  1.00  0.00    -0.180 A  
HETATM    7  C   UNL     1      -7.938   4.631  69.859  1.00  0.00    -0.068 A  
HETATM    8  C   UNL     1      -6.981   4.943  70.849  1.00  0.00    -0.041 A  
BRANCH   5   9
HETATM    9  N   UNL     1     -11.005   6.328  71.125  1.00  0.00    -0.268 NA 
HETATM   10  H   UNL     1     -11.683   5.567  71.106  1.00  0.00     0.000 HD 
BRANCH   9  11
HETATM   11  C   UNL     1     -11.598   7.589  71.211  1.00  0.00    -0.281 A  
HETATM   12  N   UNL     1     -12.123   7.863  72.413  1.00  0.00    -0.312 NA 
HETATM   13  N   UNL     1     -11.636   8.455  70.176  1.00  0.00     0.002 NA 
HETATM   14  C   UNL     1     -12.237   9.661  70.345  1.00  0.00    -0.001 A  
HETATM   15  F   UNL     1     -13.265  11.234  71.825  1.00  0.00    -0.507 F  
HETATM   16  C   UNL     1     -12.684   9.081  72.569  1.00  0.00    -0.303 A  
HETATM   17  C   UNL     1     -12.735  10.030  71.575  1.00  0.00    -0.429 A  
BRANCH  14  18
HETATM   18  N   UNL     1     -12.231  10.499  69.217  1.00  0.00    -0.669 NA 
HETATM   19  H   UNL     1     -12.940  10.266  68.522  1.00  0.00     0.000 HD 
BRANCH  18  20
HETATM   20  C   UNL     1     -11.425  11.607  68.869  1.00  0.00    -0.287 A  
HETATM   21  N   UNL     1     -11.823  12.884  69.056  1.00  0.00    -0.311 NA 
HETATM   22  C   UNL     1     -10.961  13.907  68.769  1.00  0.00    -0.263 A  
HETATM   23  C   UNL     1      -9.710  13.685  68.199  1.00  0.00    -0.229 A  
HETATM   24  O   UNL     1      -8.859  14.680  67.791  1.00  0.00    -0.167 OA 
HETATM   25  C   UNL     1      -9.301  12.377  68.000  1.00  0.00    -0.204 A  
HETATM   26  C   UNL     1      -9.507  15.935  67.599  1.00  0.00    -0.219 C  
HETATM   27  C   UNL     1     -10.165  11.335  68.333  1.00  0.00    -0.205 A  
HETATM   28  C   UNL     1     -10.461  16.298  68.746  1.00  0.00    -0.282 C  
HETATM   29  C   UNL     1      -8.433  17.018  67.450  1.00  0.00    -0.208 C  
HETATM   30  C   UNL     1     -10.370  15.922  66.312  1.00  0.00    -0.324 C  
HETATM   31  N   UNL     1     -11.298  15.250  69.090  1.00  0.00    -0.276 N  
HETATM   32  O   UNL     1     -10.600  17.441  69.180  1.00  0.00    -0.321 OA 
BRANCH  31  33
HETATM   33  C   UNL     1     -12.579  15.608  69.603  1.00  0.00     0.066 C  
BRANCH  33  34
HETATM   34  O   UNL     1     -12.467  15.932  70.951  1.00  0.00    -0.428 OA 
HETATM   35  P   UNL     1     -13.395  14.822  71.901  1.00  0.00    -0.450 P  
HETATM   36  O   UNL     1     -13.817  16.176  72.714  1.00  0.00    -0.429 OA 
HETATM   37  O   UNL     1     -11.981  14.548  72.669  1.00  0.00    -0.123 OA 
HETATM   38  O   UNL     1     -14.225  13.830  72.751  1.00  0.00    -0.650 OA 
ENDBRANCH  33  34
ENDBRANCH  31  33
ENDBRANCH  18  20
ENDBRANCH  14  18
ENDBRANCH   9  11
ENDBRANCH   5   9
BRANCH   7  39
HETATM   39  O   UNL     1      -7.789   3.845  68.742  1.00  0.00    -0.063 OA 
HETATM   40  C   UNL     1      -8.263   4.297  67.483  1.00  0.00    -0.099 C  
ENDBRANCH   7  39
BRANCH   8  41
HETATM   41  O   UNL     1      -5.703   4.536  70.592  1.00  0.00    -0.011 OA 
HETATM   42  C   UNL     1      -5.157   3.324  71.083  1.00  0.00     0.000 C  
ENDBRANCH   8  41
ENDBRANCH   2   3
TORSDOF 9
ENDMDL
MODEL      116
REMARK 921   NORMALIZED FREE ENERGY PREDICTED BY IDOCK:   -5.65 KCAL/MOL
REMARK 922        TOTAL FREE ENERGY PREDICTED BY IDOCK:  -10.49 KCAL/MOL
REMARK 923 INTER-LIGAND FREE ENERGY PREDICTED BY IDOCK:   -9.51 KCAL/MOL
REMARK 924 INTRA-LIGAND FREE ENERGY PREDICTED BY IDOCK:   -0.98 KCAL/MOL
REMARK 927      BINDING AFFINITY PREDICTED BY RF-SCORE:    0.00 PKD
ROOT
HETATM    1  C   UNL     1     -10.128  19.830  69.543  1.00  0.00    -0.018 C  
HETATM    2  O   UNL     1     -10.340  19.830  68.129  1.00  0.00    -0.437 OA 
ENDROOT
BRANCH   2   3
HETATM    3  C   UNL     1      -9.621  18.879  67.445  1.00  0.00    -0.306 A  
HETATM    4  C   UNL     1     -10.153  17.586  67.291  1.00  0.00    -0.327 A  
HETATM    5  C   UNL     1      -9.439  16.548  66.707  1.00  0.00    -0.249 A  
HETATM    6  C   UNL     1      -8.160  16.860  66.238  1.00  0.00    -0.351 A  
HETATM    7  C   UNL     1      -7.617  18.153  66.311  1.00  0.00    -0.264 A  
HETATM    8  C   UNL     1      -8.365  19.200  66.893  1.00  0.00    -0.285 A  
BRANCH   5   9
HETATM    9  N   UNL     1      -9.925  15.241  66.598  1.00  0.00    -0.246 NA 
HETATM   10  H   UNL     1     -10.823  15.185  66.118  1.00  0.00     0.000 HD 
BRANCH   9  11
HETATM   11  C   UNL     1      -9.443  13.997  67.007  1.00  0.00    -0.250 A  
HETATM   12  N   UNL     1      -8.210  14.036  67.532  1.00  0.00    -0.173 NA 
HETATM   13  N   UNL     1     -10.156  12.857  66.886  1.00  0.00    -0.237 NA 
HETATM   14  C   UNL     1      -9.608  11.687  67.307  1.00  0.00    -0.174 A  
HETATM   15  F   UNL     1      -7.816  10.564  68.425  1.00  0.00    -0.096 F  
HETATM   16  C   UNL     1      -7.700  12.868  67.975  1.00  0.00    -0.143 A  
HETATM   17  C   UNL     1      -8.373  11.671  67.917  1.00  0.00    -0.143 A  
BRANCH  14  18
HETATM   18  N   UNL     1     -10.418  10.551  67.144  1.00  0.00    -0.235 NA 
HETATM   19  H   UNL     1     -11.276  10.723  66.620  1.00  0.00     0.000 HD 
BRANCH  18  20
HETATM   20  C   UNL     1     -10.263   9.213  67.573  1.00  0.00    -0.245 A  
HETATM   21  N   UNL     1     -10.490   8.826  68.847  1.00  0.00    -0.214 NA 
HETATM   22  C   UNL     1     -10.397   7.502  69.177  1.00  0.00    -0.212 A  
HETATM   23  C   UNL     1      -9.983   6.537  68.261  1.00  0.00    -0.143 A  
HETATM   24  O   UNL     1      -9.767   5.219  68.572  1.00  0.00    -0.128 OA 
HETATM   25  C   UNL     1      -9.744   6.931  66.955  1.00  0.00    -0.210 A  
HETATM   26  C   UNL     1      -9.585   4.989  69.967  1.00  0.00    -0.189 C  
HETATM   27  C   UNL     1      -9.881   8.275  66.612  1.00  0.00    -0.337 A  
HETATM   28  C   UNL     1     -10.618   5.721  70.835  1.00  0.00    -0.262 C  
HETATM   29  C   UNL     1      -9.660   3.480  70.224  1.00  0.00    -0.232 C  
HETATM   30  C   UNL     1      -8.197   5.496  70.434  1.00  0.00    -0.104 C  
HETATM   31  N   UNL     1     -10.769   7.049  70.472  1.00  0.00    -0.231 N  
HETATM   32  O   UNL     1     -11.113   5.241  71.854  1.00  0.00    -0.163 OA 
BRANCH  31  33
HETATM   33  C   UNL     1     -11.132   7.950  71.514  1.00  0.00    -0.241 C  
BRANCH  33  34
HETATM   34  O   UNL     1     -12.500   8.197  71.463  1.00  0.00    -0.297 OA 
HETATM   35  P   UNL     1     -12.811   9.864  71.811  1.00  0.00    -0.450 P  
HETATM   36  O   UNL     1     -14.042   9.248  72.690  1.00  0.00    -0.477 OA 
HETATM   37  O   UNL     1     -13.564   9.859  70.362  1.00  0.00     0.016 OA 
HETATM   38  O   UNL     1     -13.089  11.354  72.122  1.00  0.00    -0.462 OA 
ENDBRANCH  33  34
ENDBRANCH  31  33
ENDBRANCH  18  20
ENDBRANCH  14  18
ENDBRANCH   9  11
ENDBRANCH   5   9
BRANCH   7  39
HETATM   39  O   UNL     1      -6.334  18.188  65.821  1.00  0.00    -0.225 OA 
HETATM   40  C   UNL     1      -6.052  18.861  64.605  1.00  0.00    -0.175 C  
ENDBRANCH   7  39
BRANCH   8  41
HETATM   41  O   UNL     1      -7.802  20.442  66.828  1.00  0.00    -0.302 OA 
HETATM   42  C   UNL     1      -6.893  20.937  67.796  1.00  0.00    -0.294 C  
ENDBRANCH   8  41
ENDBRANCH   2   3
TORSDOF 9
ENDMDL
MODEL      117
REMARK 921   NORMALIZED FREE ENERGY PREDICTED BY IDOCK:   -5.65 KCAL/MOL
REMARK 922        TOTAL FREE ENERGY PREDICTED BY IDOCK:  -10.49 KCAL/MOL
REMARK 923 INTER-LIGAND FREE ENERGY PREDICTED BY IDOCK:   -8.99 KCAL/MOL
REMARK 924 INTRA-LIGAND FREE ENERGY PREDICTED BY IDOCK:   -1.50 KCAL/MOL
REMARK 927      BINDING AFFINITY PREDICTED BY RF-SCORE:    0.00 PKD
ROOT
HETATM    1  C   UNL     1     -11.133   7.039  71.651  1.00  0.00    -0.235 C  
HETATM    2  O   UNL     1     -11.000   5.877  70.829  1.00  0.00    -0.283 OA 
ENDROOT
BRANCH   2   3
HETATM    3  C   UNL     1     -10.345   6.091  69.641  1.00  0.00    -0.232 A  
HETATM    4  C   UNL     1     -10.188   7.405  69.164  1.00  0.00    -0.196 A  
HETATM    5  C   UNL     1      -9.633   7.689  67.922  1.00  0.00    -0.144 A  
HETATM    6  C   UNL     1      -9.195   6.594  67.172  1.00  0.00    -0.134 A  
HETATM    7  C   UNL     1      -9.271   5.272  67.640  1.00  0.00    -0.115 A  
HETATM    8  C   UNL     1      -9.823   5.005  68.911  1.00  0.00    -0.175 A  
BRANCH   5   9
HETATM    9  N   UNL     1      -9.523   8.983  67.403  1.00  0.00    -0.141 NA 
HETATM   10  H   UNL     1     -10.335   9.266  66.855  1.00  0.00     0.000 HD 
BRANCH   9  11
HETATM   11  C   UNL     1      -8.538   9.969  67.475  1.00  0.00    -0.122 A  
HETATM   12  N   UNL     1      -7.487   9.749  66.673  1.00  0.00    -0.094 NA 
HETATM   13  N   UNL     1      -8.637  11.048  68.280  1.00  0.00    -0.136 NA 
HETATM   14  C   UNL     1      -7.629  11.958  68.292  1.00  0.00    -0.116 A  
HETATM   15  F   UNL     1      -5.570  12.728  67.347  1.00  0.00    -0.115 F  
HETATM   16  C   UNL     1      -6.514  10.684  66.675  1.00  0.00    -0.100 A  
HETATM   17  C   UNL     1      -6.554  11.825  67.440  1.00  0.00    -0.118 A  
BRANCH  14  18
HETATM   18  N   UNL     1      -7.813  13.050  69.157  1.00  0.00    -0.304 NA 
HETATM   19  H   UNL     1      -8.023  12.786  70.120  1.00  0.00     0.000 HD 
BRANCH  18  20
HETATM   20  C   UNL     1      -7.761  14.445  68.940  1.00  0.00    -0.128 A  
HETATM   21  N   UNL     1      -8.720  15.112  68.262  1.00  0.00    -0.166 NA 
HETATM   22  C   UNL     1      -8.647  16.474  68.156  1.00  0.00    -0.193 A  
HETATM   23  C   UNL     1      -7.563  17.199  68.645  1.00  0.00    -0.258 A  
HETATM   24  O   UNL     1      -7.390  18.548  68.465  1.00  0.00    -0.275 OA 
HETATM   25  C   UNL     1      -6.574  16.518  69.335  1.00  0.00    -0.213 A  
HETATM   26  C   UNL     1      -8.167  19.079  67.394  1.00  0.00    -0.275 C  
HETATM   27  C   UNL     1      -6.673  15.135  69.479  1.00  0.00    -0.171 A  
HETATM   28  C   UNL     1      -9.621  18.586  67.405  1.00  0.00    -0.293 C  
HETATM   29  C   UNL     1      -8.133  20.609  67.482  1.00  0.00    -0.265 C  
HETATM   30  C   UNL     1      -7.581  18.656  66.022  1.00  0.00    -0.236 C  
HETATM   31  N   UNL     1      -9.713  17.214  67.575  1.00  0.00    -0.251 N  
HETATM   32  O   UNL     1     -10.582  19.293  67.107  1.00  0.00    -0.421 OA 
BRANCH  31  33
HETATM   33  C   UNL     1     -10.835  16.578  66.971  1.00  0.00    -0.113 C  
BRANCH  33  34
HETATM   34  O   UNL     1     -10.512  16.195  65.673  1.00  0.00    -0.356 OA 
HETATM   35  P   UNL     1     -11.731  15.137  65.051  1.00  0.00    -0.104 P  
HETATM   36  O   UNL     1     -10.444  14.316  64.467  1.00  0.00    -0.381 OA 
HETATM   37  O   UNL     1     -11.843  16.235  63.848  1.00  0.00    -0.994 OA 
HETATM   38  O   UNL     1     -12.822  14.190  64.494  1.00  0.00    -0.642 OA 
ENDBRANCH  33  34
ENDBRANCH  31  33
ENDBRANCH  18  20
ENDBRANCH  14  18
ENDBRANCH   9  11
ENDBRANCH   5   9
BRANCH   7  39
HETATM   39  O   UNL     1      -8.815   4.380  66.700  1.00  0.00    -0.111 OA 
HETATM   40  C   UNL     1      -9.281   4.450  65.362  1.00  0.00    -0.153 C  
ENDBRANCH   7  39
BRANCH   8  41
HETATM   41  O   UNL     1      -9.761   3.705  69.326  1.00  0.00    -0.160 OA 
HETATM   42  C   UNL     1      -8.756   3.210  70.193  1.00  0.00    -0.070 C  
ENDBRANCH   8  41
ENDBRANCH   2   3
TORSDOF 9
ENDMDL
MODEL      118
REMARK 921   NORMALIZED FREE ENERGY PREDICTED BY IDOCK:   -5.65 KCAL/MOL
REMARK 922        TOTAL FREE ENERGY PREDICTED BY IDOCK:  -10.48 KCAL/MOL
REMARK 923 INTER-LIGAND FREE ENERGY PREDICTED BY IDOCK:   -9.15 KCAL/MOL
REMARK 924 INTRA-LIGAND FREE ENERGY PREDICTED BY IDOCK:   -1.34 KCAL/MOL
REMARK 927      BINDING AFFINITY PREDICTED BY RF-SCORE:    0.00 PKD
ROOT
HETATM    1  C   UNL     1     -13.979   7.219  71.483  1.00  0.00    -0.361 C  
HETATM    2  O   UNL     1     -12.692   7.732  71.128  1.00  0.00    -0.273 OA 
ENDROOT
BRANCH   2   3
HETATM    3  C   UNL     1     -11.764   6.772  70.809  1.00  0.00    -0.386 A  
HETATM    4  C   UNL     1     -11.420   6.562  69.461  1.00  0.00    -0.384 A  
HETATM    5  C   UNL     1     -10.572   5.539  69.056  1.00  0.00    -0.201 A  
HETATM    6  C   UNL     1     -10.037   4.737  70.068  1.00  0.00    -0.308 A  
HETATM    7  C   UNL     1     -10.302   4.954  71.431  1.00  0.00    -0.151 A  
HETATM    8  C   UNL     1     -11.152   6.009  71.824  1.00  0.00    -0.276 A  
BRANCH   5   9
HETATM    9  N   UNL     1     -10.264   5.275  67.717  1.00  0.00    -0.173 NA 
HETATM   10  H   UNL     1     -10.568   4.352  67.410  1.00  0.00     0.000 HD 
BRANCH   9  11
HETATM   11  C   UNL     1      -9.629   6.007  66.714  1.00  0.00    -0.149 A  
HETATM   12  N   UNL     1      -8.782   5.286  65.965  1.00  0.00    -0.132 NA 
HETATM   13  N   UNL     1      -9.849   7.324  66.514  1.00  0.00    -0.171 NA 
HETATM   14  C   UNL     1      -9.184   7.962  65.516  1.00  0.00     0.211 A  
HETATM   15  F   UNL     1      -7.734   7.817  63.619  1.00  0.00    -0.102 F  
HETATM   16  C   UNL     1      -8.160   5.932  64.957  1.00  0.00    -0.132 A  
HETATM   17  C   UNL     1      -8.353   7.262  64.668  1.00  0.00     0.055 A  
BRANCH  14  18
HETATM   18  N   UNL     1      -9.472   9.330  65.379  1.00  0.00    -0.397 NA 
HETATM   19  H   UNL     1     -10.129   9.543  64.628  1.00  0.00     0.000 HD 
BRANCH  18  20
HETATM   20  C   UNL     1      -9.021  10.466  66.089  1.00  0.00    -0.157 A  
HETATM   21  N   UNL     1      -9.861  11.418  66.549  1.00  0.00    -0.203 NA 
HETATM   22  C   UNL     1      -9.364  12.450  67.297  1.00  0.00    -0.184 A  
HETATM   23  C   UNL     1      -8.000  12.611  67.527  1.00  0.00    -0.174 A  
HETATM   24  O   UNL     1      -7.446  13.686  68.173  1.00  0.00    -0.099 OA 
HETATM   25  C   UNL     1      -7.135  11.639  67.051  1.00  0.00    -0.145 A  
HETATM   26  C   UNL     1      -8.306  14.823  68.218  1.00  0.00    -0.148 C  
HETATM   27  C   UNL     1      -7.649  10.565  66.326  1.00  0.00    -0.133 A  
HETATM   28  C   UNL     1      -9.746  14.470  68.618  1.00  0.00    -0.221 C  
HETATM   29  C   UNL     1      -7.720  15.835  69.208  1.00  0.00    -0.224 C  
HETATM   30  C   UNL     1      -8.401  15.500  66.827  1.00  0.00    -0.301 C  
HETATM   31  N   UNL     1     -10.240  13.385  67.913  1.00  0.00    -0.235 N  
HETATM   32  O   UNL     1     -10.445  15.181  69.338  1.00  0.00    -0.236 OA 
BRANCH  31  33
HETATM   33  C   UNL     1     -11.647  13.370  67.685  1.00  0.00    -0.340 C  
BRANCH  33  34
HETATM   34  O   UNL     1     -11.993  14.417  66.836  1.00  0.00    -0.410 OA 
HETATM   35  P   UNL     1     -12.160  13.830  65.217  1.00  0.00    -0.465 P  
HETATM   36  O   UNL     1     -11.370  15.211  64.844  1.00  0.00    -0.385 OA 
HETATM   37  O   UNL     1     -13.661  14.466  65.313  1.00  0.00    -0.322 OA 
HETATM   38  O   UNL     1     -12.310  13.305  63.768  1.00  0.00    -0.628 OA 
ENDBRANCH  33  34
ENDBRANCH  31  33
ENDBRANCH  18  20
ENDBRANCH  14  18
ENDBRANCH   9  11
ENDBRANCH   5   9
BRANCH   7  39
HETATM   39  O   UNL     1      -9.692   4.007  72.218  1.00  0.00    -0.140 OA 
HETATM   40  C   UNL     1      -8.292   4.055  72.438  1.00  0.00    -0.099 C  
ENDBRANCH   7  39
BRANCH   8  41
HETATM   41  O   UNL     1     -11.270   6.210  73.169  1.00  0.00    -0.221 OA 
HETATM   42  C   UNL     1     -10.350   6.975  73.927  1.00  0.00    -0.348 C  
ENDBRANCH   8  41
ENDBRANCH   2   3
TORSDOF 9
ENDMDL
MODEL      119
REMARK 921   NORMALIZED FREE ENERGY PREDICTED BY IDOCK:   -5.64 KCAL/MOL
REMARK 922        TOTAL FREE ENERGY PREDICTED BY IDOCK:  -10.47 KCAL/MOL
REMARK 923 INTER-LIGAND FREE ENERGY PREDICTED BY IDOCK:   -8.41 KCAL/MOL
REMARK 924 INTRA-LIGAND FREE ENERGY PREDICTED BY IDOCK:   -2.06 KCAL/MOL
REMARK 927      BINDING AFFINITY PREDICTED BY RF-SCORE:    0.00 PKD
ROOT
HETATM    1  C   UNL     1      -5.912   6.407  69.753  1.00  0.00    -0.018 C  
HETATM    2  O   UNL     1      -6.127   7.254  68.622  1.00  0.00    -0.025 OA 
ENDROOT
BRANCH   2   3
HETATM    3  C   UNL     1      -7.412   7.241  68.137  1.00  0.00    -0.102 A  
HETATM    4  C   UNL     1      -8.428   7.905  68.848  1.00  0.00    -0.128 A  
HETATM    5  C   UNL     1      -9.765   7.844  68.476  1.00  0.00    -0.161 A  
HETATM    6  C   UNL     1     -10.056   7.111  67.322  1.00  0.00    -0.278 A  
HETATM    7  C   UNL     1      -9.065   6.489  66.545  1.00  0.00    -0.152 A  
HETATM    8  C   UNL     1      -7.710   6.577  66.930  1.00  0.00    -0.100 A  
BRANCH   5   9
HETATM    9  N   UNL     1     -10.798   8.446  69.202  1.00  0.00    -0.419 NA 
HETATM   10  H   UNL     1     -11.331   7.785  69.766  1.00  0.00     0.000 HD 
BRANCH   9  11
HETATM   11  C   UNL     1     -11.253   9.760  69.319  1.00  0.00    -0.088 A  
HETATM   12  N   UNL     1     -11.631  10.098  70.559  1.00  0.00    -0.304 NA 
HETATM   13  N   UNL     1     -11.305  10.615  68.275  1.00  0.00    -0.300 NA 
HETATM   14  C   UNL     1     -11.766  11.876  68.476  1.00  0.00    -0.330 A  
HETATM   15  F   UNL     1     -12.488  13.559  70.015  1.00  0.00    -0.353 F  
HETATM   16  C   UNL     1     -12.053  11.367  70.743  1.00  0.00    -0.332 A  
HETATM   17  C   UNL     1     -12.105  12.306  69.740  1.00  0.00    -0.229 A  
BRANCH  14  18
HETATM   18  N   UNL     1     -11.786  12.699  67.336  1.00  0.00    -0.404 NA 
HETATM   19  H   UNL     1     -12.526  12.470  66.672  1.00  0.00     0.000 HD 
BRANCH  18  20
HETATM   20  C   UNL     1     -10.972  13.784  66.941  1.00  0.00    -0.290 A  
HETATM   21  N   UNL     1      -9.731  13.980  67.436  1.00  0.00    -0.229 NA 
HETATM   22  C   UNL     1      -8.966  15.006  66.952  1.00  0.00    -0.251 A  
HETATM   23  C   UNL     1      -9.456  15.923  66.025  1.00  0.00    -0.354 A  
HETATM   24  O   UNL     1      -8.770  17.029  65.595  1.00  0.00    -0.468 OA 
HETATM   25  C   UNL     1     -10.731  15.728  65.520  1.00  0.00    -0.397 A  
HETATM   26  C   UNL     1      -7.707  17.409  66.466  1.00  0.00    -0.284 C  
HETATM   27  C   UNL     1     -11.492  14.656  65.984  1.00  0.00    -0.332 A  
HETATM   28  C   UNL     1      -6.846  16.219  66.915  1.00  0.00    -0.160 C  
HETATM   29  C   UNL     1      -6.835  18.443  65.746  1.00  0.00    -0.310 C  
HETATM   30  C   UNL     1      -8.258  18.053  67.764  1.00  0.00    -0.238 C  
HETATM   31  N   UNL     1      -7.609  15.148  67.349  1.00  0.00    -0.189 N  
HETATM   32  O   UNL     1      -5.625  16.278  67.055  1.00  0.00    -0.317 OA 
BRANCH  31  33
HETATM   33  C   UNL     1      -7.021  14.320  68.349  1.00  0.00    -0.100 C  
BRANCH  33  34
HETATM   34  O   UNL     1      -6.555  13.146  67.768  1.00  0.00    -0.119 OA 
HETATM   35  P   UNL     1      -6.616  11.855  68.919  1.00  0.00    -0.100 P  
HETATM   36  O   UNL     1      -5.157  11.481  68.284  1.00  0.00    -0.040 OA 
HETATM   37  O   UNL     1      -7.533  11.109  67.793  1.00  0.00    -0.090 OA 
HETATM   38  O   UNL     1      -6.670  10.700  69.949  1.00  0.00    -0.119 OA 
ENDBRANCH  33  34
ENDBRANCH  31  33
ENDBRANCH  18  20
ENDBRANCH  14  18
ENDBRANCH   9  11
ENDBRANCH   5   9
BRANCH   7  39
HETATM   39  O   UNL     1      -9.612   5.800  65.490  1.00  0.00     0.056 OA 
HETATM   40  C   UNL     1     -10.382   4.632  65.722  1.00  0.00    -0.264 C  
ENDBRANCH   7  39
BRANCH   8  41
HETATM   41  O   UNL     1      -6.807   6.032  66.063  1.00  0.00    -0.057 OA 
HETATM   42  C   UNL     1      -6.282   4.724  66.204  1.00  0.00    -0.035 C  
ENDBRANCH   8  41
ENDBRANCH   2   3
TORSDOF 9
ENDMDL
MODEL      120
REMARK 921   NORMALIZED FREE ENERGY PREDICTED BY IDOCK:   -5.64 KCAL/MOL
REMARK 922        TOTAL FREE ENERGY PREDICTED BY IDOCK:  -10.47 KCAL/MOL
REMARK 923 INTER-LIGAND FREE ENERGY PREDICTED BY IDOCK:   -8.61 KCAL/MOL
REMARK 924 INTRA-LIGAND FREE ENERGY PREDICTED BY IDOCK:   -1.85 KCAL/MOL
REMARK 927      BINDING AFFINITY PREDICTED BY RF-SCORE:    0.00 PKD
ROOT
HETATM    1  C   UNL     1     -13.178  10.930  71.157  1.00  0.00    -0.128 C  
HETATM    2  O   UNL     1     -11.944  11.600  70.886  1.00  0.00    -0.289 OA 
ENDROOT
BRANCH   2   3
HETATM    3  C   UNL     1     -11.973  12.423  69.787  1.00  0.00    -0.289 A  
HETATM    4  C   UNL     1     -11.869  11.864  68.500  1.00  0.00    -0.357 A  
HETATM    5  C   UNL     1     -11.783  12.641  67.351  1.00  0.00    -0.369 A  
HETATM    6  C   UNL     1     -11.843  14.025  67.531  1.00  0.00    -0.442 A  
HETATM    7  C   UNL     1     -12.014  14.623  68.791  1.00  0.00    -0.266 A  
HETATM    8  C   UNL     1     -12.117  13.816  69.945  1.00  0.00    -0.348 A  
BRANCH   5   9
HETATM    9  N   UNL     1     -11.619  12.108  66.069  1.00  0.00    -0.420 NA 
HETATM   10  H   UNL     1     -12.412  12.289  65.454  1.00  0.00     0.000 HD 
BRANCH   9  11
HETATM   11  C   UNL     1     -10.600  11.381  65.452  1.00  0.00    -0.275 A  
HETATM   12  N   UNL     1     -10.644  11.408  64.113  1.00  0.00    -0.343 NA 
HETATM   13  N   UNL     1      -9.653  10.711  66.144  1.00  0.00    -0.181 NA 
HETATM   14  C   UNL     1      -8.699  10.024  65.463  1.00  0.00    -0.155 A  
HETATM   15  F   UNL     1      -7.689   9.481  63.364  1.00  0.00    -0.107 F  
HETATM   16  C   UNL     1      -9.666  10.747  63.458  1.00  0.00    -0.341 A  
HETATM   17  C   UNL     1      -8.650  10.069  64.087  1.00  0.00    -0.188 A  
BRANCH  14  18
HETATM   18  N   UNL     1      -7.754   9.357  66.261  1.00  0.00    -0.096 NA 
HETATM   19  H   UNL     1      -6.937   9.025  65.747  1.00  0.00     0.000 HD 
BRANCH  18  20
HETATM   20  C   UNL     1      -7.727   9.060  67.642  1.00  0.00    -0.097 A  
HETATM   21  N   UNL     1      -8.479   8.082  68.192  1.00  0.00    -0.123 NA 
HETATM   22  C   UNL     1      -8.346   7.796  69.523  1.00  0.00    -0.129 A  
HETATM   23  C   UNL     1      -7.523   8.542  70.363  1.00  0.00    -0.069 A  
HETATM   24  O   UNL     1      -7.441   8.366  71.721  1.00  0.00    -0.089 OA 
HETATM   25  C   UNL     1      -6.755   9.550  69.804  1.00  0.00    -0.057 A  
HETATM   26  C   UNL     1      -8.555   7.665  72.268  1.00  0.00    -0.123 C  
HETATM   27  C   UNL     1      -6.861   9.811  68.439  1.00  0.00    -0.060 A  
HETATM   28  C   UNL     1      -8.939   6.421  71.453  1.00  0.00    -0.138 C  
HETATM   29  C   UNL     1      -8.216   7.263  73.707  1.00  0.00    -0.164 C  
HETATM   30  C   UNL     1      -9.817   8.564  72.296  1.00  0.00    -0.383 C  
HETATM   31  N   UNL     1      -9.016   6.681  70.095  1.00  0.00    -0.151 N  
HETATM   32  O   UNL     1      -9.319   5.367  71.960  1.00  0.00    -0.143 OA 
BRANCH  31  33
HETATM   33  C   UNL     1      -9.944   5.893  69.355  1.00  0.00    -0.178 C  
BRANCH  33  34
HETATM   34  O   UNL     1      -9.272   4.853  68.722  1.00  0.00    -0.108 OA 
HETATM   35  P   UNL     1      -9.782   4.741  67.071  1.00  0.00    -0.205 P  
HETATM   36  O   UNL     1      -9.762   3.136  67.379  1.00  0.00    -0.117 OA 
HETATM   37  O   UNL     1      -8.193   4.910  66.737  1.00  0.00    -0.107 OA 
HETATM   38  O   UNL     1     -10.239   4.640  65.596  1.00  0.00    -0.230 OA 
ENDBRANCH  33  34
ENDBRANCH  31  33
ENDBRANCH  18  20
ENDBRANCH  14  18
ENDBRANCH   9  11
ENDBRANCH   5   9
BRANCH   7  39
HETATM   39  O   UNL     1     -11.999  15.994  68.703  1.00  0.00    -0.306 OA 
HETATM   40  C   UNL     1     -10.807  16.674  68.347  1.00  0.00    -0.361 C  
ENDBRANCH   7  39
BRANCH   8  41
HETATM   41  O   UNL     1     -12.384  14.475  71.111  1.00  0.00    -0.304 OA 
HETATM   42  C   UNL     1     -11.411  15.209  71.833  1.00  0.00    -0.378 C  
ENDBRANCH   8  41
ENDBRANCH   2   3
TORSDOF 9
ENDMDL
MODEL      121
REMARK 921   NORMALIZED FREE ENERGY PREDICTED BY IDOCK:   -5.57 KCAL/MOL
REMARK 922        TOTAL FREE ENERGY PREDICTED BY IDOCK:  -10.37 KCAL/MOL
REMARK 923 INTER-LIGAND FREE ENERGY PREDICTED BY IDOCK:   -8.95 KCAL/MOL
REMARK 924 INTRA-LIGAND FREE ENERGY PREDICTED BY IDOCK:   -1.42 KCAL/MOL
REMARK 927      BINDING AFFINITY PREDICTED BY RF-SCORE:    0.00 PKD
ROOT
HETATM    1  C   UNL     1      -9.779   4.924  67.493  1.00  0.00    -0.164 C  
HETATM    2  O   UNL     1      -8.722   5.474  68.283  1.00  0.00    -0.100 OA 
ENDROOT
BRANCH   2   3
HETATM    3  C   UNL     1      -8.982   6.723  68.792  1.00  0.00    -0.130 A  
HETATM    4  C   UNL     1      -9.933   7.545  68.159  1.00  0.00    -0.198 A  
HETATM    5  C   UNL     1     -10.169   8.856  68.552  1.00  0.00    -0.197 A  
HETATM    6  C   UNL     1      -9.434   9.319  69.647  1.00  0.00    -0.188 A  
HETATM    7  C   UNL     1      -8.524   8.511  70.349  1.00  0.00    -0.137 A  
HETATM    8  C   UNL     1      -8.310   7.175  69.945  1.00  0.00    -0.135 A  
BRANCH   5   9
HETATM    9  N   UNL     1     -11.065   9.709  67.900  1.00  0.00    -0.508 NA 
HETATM   10  H   UNL     1     -11.992   9.719  68.325  1.00  0.00     0.000 HD 
BRANCH   9  11
HETATM   11  C   UNL     1     -10.960  10.549  66.791  1.00  0.00    -0.080 A  
HETATM   12  N   UNL     1     -10.408   9.967  65.716  1.00  0.00    -0.186 NA 
HETATM   13  N   UNL     1     -11.379  11.832  66.799  1.00  0.00    -0.386 NA 
HETATM   14  C   UNL     1     -11.235  12.582  65.675  1.00  0.00    -0.317 A  
HETATM   15  F   UNL     1     -10.648  12.685  63.359  1.00  0.00    -0.417 F  
HETATM   16  C   UNL     1     -10.308  10.720  64.601  1.00  0.00    -0.324 A  
HETATM   17  C   UNL     1     -10.739  12.022  64.518  1.00  0.00    -0.312 A  
BRANCH  14  18
HETATM   18  N   UNL     1     -11.697  13.905  65.771  1.00  0.00    -0.346 NA 
HETATM   19  H   UNL     1     -12.711  13.997  65.709  1.00  0.00     0.000 HD 
BRANCH  18  20
HETATM   20  C   UNL     1     -11.016  15.133  65.938  1.00  0.00    -0.339 A  
HETATM   21  N   UNL     1     -10.269  15.407  67.029  1.00  0.00    -0.257 NA 
HETATM   22  C   UNL     1      -9.573  16.583  67.090  1.00  0.00    -0.240 A  
HETATM   23  C   UNL     1      -9.679  17.561  66.104  1.00  0.00    -0.209 A  
HETATM   24  O   UNL     1      -9.092  18.798  66.175  1.00  0.00    -0.445 OA 
HETATM   25  C   UNL     1     -10.450  17.285  64.987  1.00  0.00     0.418 A  
HETATM   26  C   UNL     1      -8.721  19.173  67.499  1.00  0.00    -0.292 C  
HETATM   27  C   UNL     1     -11.124  16.067  64.907  1.00  0.00    -0.381 A  
HETATM   28  C   UNL     1      -8.007  18.048  68.263  1.00  0.00    -0.290 C  
HETATM   29  C   UNL     1      -7.816  20.407  67.419  1.00  0.00    -0.360 C  
HETATM   30  C   UNL     1      -9.970  19.537  68.342  1.00  0.00    -0.540 C  
HETATM   31  N   UNL     1      -8.667  16.835  68.157  1.00  0.00    -0.212 N  
HETATM   32  O   UNL     1      -7.068  18.239  69.033  1.00  0.00    -0.271 OA 
BRANCH  31  33
HETATM   33  C   UNL     1      -8.534  15.946  69.263  1.00  0.00    -0.242 C  
BRANCH  33  34
HETATM   34  O   UNL     1      -7.213  15.518  69.360  1.00  0.00    -0.175 OA 
HETATM   35  P   UNL     1      -6.967  14.137  68.345  1.00  0.00    -0.131 P  
HETATM   36  O   UNL     1      -6.110  13.594  69.626  1.00  0.00    -0.107 OA 
HETATM   37  O   UNL     1      -5.788  15.043  67.673  1.00  0.00    -0.265 OA 
HETATM   38  O   UNL     1      -6.747  12.902  67.439  1.00  0.00    -0.158 OA 
ENDBRANCH  33  34
ENDBRANCH  31  33
ENDBRANCH  18  20
ENDBRANCH  14  18
ENDBRANCH   9  11
ENDBRANCH   5   9
BRANCH   7  39
HETATM   39  O   UNL     1      -7.903   9.211  71.355  1.00  0.00    -0.310 OA 
HETATM   40  C   UNL     1      -6.786  10.036  71.066  1.00  0.00     0.173 C  
ENDBRANCH   7  39
BRANCH   8  41
HETATM   41  O   UNL     1      -7.489   6.435  70.746  1.00  0.00    -0.083 OA 
HETATM   42  C   UNL     1      -7.952   5.680  71.852  1.00  0.00    -0.111 C  
ENDBRANCH   8  41
ENDBRANCH   2   3
TORSDOF 9
ENDMDL
MODEL      122
REMARK 921   NORMALIZED FREE ENERGY PREDICTED BY IDOCK:   -5.55 KCAL/MOL
REMARK 922        TOTAL FREE ENERGY PREDICTED BY IDOCK:  -10.33 KCAL/MOL
REMARK 923 INTER-LIGAND FREE ENERGY PREDICTED BY IDOCK:   -8.32 KCAL/MOL
REMARK 924 INTRA-LIGAND FREE ENERGY PREDICTED BY IDOCK:   -2.01 KCAL/MOL
REMARK 927      BINDING AFFINITY PREDICTED BY RF-SCORE:    0.00 PKD
ROOT
HETATM    1  C   UNL     1     -10.790  15.064  65.005  1.00  0.00    -0.422 C  
HETATM    2  O   UNL     1     -10.954  16.240  65.801  1.00  0.00    -0.202 OA 
ENDROOT
BRANCH   2   3
HETATM    3  C   UNL     1      -9.811  16.664  66.433  1.00  0.00    -0.292 A  
HETATM    4  C   UNL     1      -8.679  15.829  66.451  1.00  0.00    -0.372 A  
HETATM    5  C   UNL     1      -7.527  16.146  67.161  1.00  0.00    -0.212 A  
HETATM    6  C   UNL     1      -7.529  17.369  67.836  1.00  0.00    -0.195 A  
HETATM    7  C   UNL     1      -8.613  18.262  67.790  1.00  0.00    -0.256 A  
HETATM    8  C   UNL     1      -9.768  17.931  67.049  1.00  0.00    -0.298 A  
BRANCH   5   9
HETATM    9  N   UNL     1      -6.413  15.303  67.241  1.00  0.00    -0.307 NA 
HETATM   10  H   UNL     1      -5.622  15.629  66.687  1.00  0.00     0.000 HD 
BRANCH   9  11
HETATM   11  C   UNL     1      -6.155  14.112  67.919  1.00  0.00    -0.146 A  
HETATM   12  N   UNL     1      -6.207  14.222  69.254  1.00  0.00    -0.102 NA 
HETATM   13  N   UNL     1      -5.880  12.951  67.287  1.00  0.00    -0.338 NA 
HETATM   14  C   UNL     1      -5.637  11.837  68.025  1.00  0.00    -0.046 A  
HETATM   15  F   UNL     1      -5.594  10.789  70.174  1.00  0.00    -0.045 F  
HETATM   16  C   UNL     1      -5.996  13.094  69.967  1.00  0.00    -0.135 A  
HETATM   17  C   UNL     1      -5.743  11.869  69.398  1.00  0.00    -0.073 A  
BRANCH  14  18
HETATM   18  N   UNL     1      -5.360  10.674  67.286  1.00  0.00    -0.040 NA 
HETATM   19  H   UNL     1      -4.481  10.710  66.770  1.00  0.00     0.000 HD 
BRANCH  18  20
HETATM   20  C   UNL     1      -6.074   9.465  67.127  1.00  0.00    -0.063 A  
HETATM   21  N   UNL     1      -7.388   9.353  67.415  1.00  0.00    -0.087 NA 
HETATM   22  C   UNL     1      -8.036   8.175  67.164  1.00  0.00    -0.116 A  
HETATM   23  C   UNL     1      -7.366   7.043  66.704  1.00  0.00    -0.080 A  
HETATM   24  O   UNL     1      -7.947   5.812  66.544  1.00  0.00    -0.100 OA 
HETATM   25  C   UNL     1      -6.016   7.153  66.414  1.00  0.00    -0.035 A  
HETATM   26  C   UNL     1      -9.162   5.661  67.274  1.00  0.00    -0.110 C  
HETATM   27  C   UNL     1      -5.368   8.368  66.630  1.00  0.00    -0.032 A  
HETATM   28  C   UNL     1     -10.100   6.869  67.132  1.00  0.00    -0.209 C  
HETATM   29  C   UNL     1      -9.867   4.391  66.787  1.00  0.00    -0.241 C  
HETATM   30  C   UNL     1      -8.882   5.513  68.791  1.00  0.00    -0.109 C  
HETATM   31  N   UNL     1      -9.445   8.073  67.321  1.00  0.00    -0.149 N  
HETATM   32  O   UNL     1     -11.324   6.773  67.049  1.00  0.00    -0.337 OA 
BRANCH  31  33
HETATM   33  C   UNL     1     -10.225   9.137  67.860  1.00  0.00    -0.216 C  
BRANCH  33  34
HETATM   34  O   UNL     1     -10.509  10.060  66.858  1.00  0.00    -0.236 OA 
HETATM   35  P   UNL     1     -10.484  11.663  67.511  1.00  0.00    -0.217 P  
HETATM   36  O   UNL     1     -11.811  11.854  66.578  1.00  0.00    -0.579 OA 
HETATM   37  O   UNL     1      -9.369  11.944  66.352  1.00  0.00    -0.217 OA 
HETATM   38  O   UNL     1     -10.461  13.097  68.095  1.00  0.00    -0.234 OA 
ENDBRANCH  33  34
ENDBRANCH  31  33
ENDBRANCH  18  20
ENDBRANCH  14  18
ENDBRANCH   9  11
ENDBRANCH   5   9
BRANCH   7  39
HETATM   39  O   UNL     1      -8.384  19.371  68.569  1.00  0.00    -0.346 OA 
HETATM   40  C   UNL     1      -7.063  19.705  68.964  1.00  0.00    -0.352 C  
ENDBRANCH   7  39
BRANCH   8  41
HETATM   41  O   UNL     1     -10.726  18.900  66.975  1.00  0.00    -0.430 OA 
HETATM   42  C   UNL     1     -10.782  19.864  65.938  1.00  0.00    -0.339 C  
ENDBRANCH   8  41
ENDBRANCH   2   3
TORSDOF 9
ENDMDL
MODEL      123
REMARK 921   NORMALIZED FREE ENERGY PREDICTED BY IDOCK:   -5.54 KCAL/MOL
REMARK 922        TOTAL FREE ENERGY PREDICTED BY IDOCK:  -10.32 KCAL/MOL
REMARK 923 INTER-LIGAND FREE ENERGY PREDICTED BY IDOCK:   -8.72 KCAL/MOL
REMARK 924 INTRA-LIGAND FREE ENERGY PREDICTED BY IDOCK:   -1.60 KCAL/MOL
REMARK 927      BINDING AFFINITY PREDICTED BY RF-SCORE:    0.00 PKD
ROOT
HETATM    1  C   UNL     1      -7.205  17.865  66.809  1.00  0.00    -0.203 C  
HETATM    2  O   UNL     1      -8.336  17.186  66.257  1.00  0.00    -0.300 OA 
ENDROOT
BRANCH   2   3
HETATM    3  C   UNL     1      -8.988  16.358  67.138  1.00  0.00    -0.202 A  
HETATM    4  C   UNL     1      -8.515  15.049  67.338  1.00  0.00    -0.202 A  
HETATM    5  C   UNL     1      -9.185  14.124  68.129  1.00  0.00    -0.194 A  
HETATM    6  C   UNL     1     -10.349  14.571  68.758  1.00  0.00    -0.243 A  
HETATM    7  C   UNL     1     -10.820  15.889  68.639  1.00  0.00    -0.291 A  
HETATM    8  C   UNL     1     -10.117  16.820  67.844  1.00  0.00    -0.284 A  
BRANCH   5   9
HETATM    9  N   UNL     1      -8.765  12.800  68.293  1.00  0.00    -0.226 NA 
HETATM   10  H   UNL     1      -7.830  12.721  68.692  1.00  0.00     0.000 HD 
BRANCH   9  11
HETATM   11  C   UNL     1      -9.353  11.563  68.026  1.00  0.00    -0.175 A  
HETATM   12  N   UNL     1      -9.196  11.146  66.762  1.00  0.00    -0.168 NA 
HETATM   13  N   UNL     1     -10.020  10.851  68.959  1.00  0.00    -0.207 NA 
HETATM   14  C   UNL     1     -10.567   9.657  68.612  1.00  0.00    -0.217 A  
HETATM   15  F   UNL     1     -10.826   7.935  66.971  1.00  0.00    -0.399 F  
HETATM   16  C   UNL     1      -9.718   9.941  66.449  1.00  0.00    -0.212 A  
HETATM   17  C   UNL     1     -10.382   9.141  67.348  1.00  0.00    -0.264 A  
BRANCH  14  18
HETATM   18  N   UNL     1     -11.243   8.982  69.644  1.00  0.00    -0.434 NA 
HETATM   19  H   UNL     1     -12.242   9.184  69.688  1.00  0.00     0.000 HD 
BRANCH  18  20
HETATM   20  C   UNL     1     -10.793   8.075  70.630  1.00  0.00    -0.234 A  
HETATM   21  N   UNL     1     -10.358   6.832  70.331  1.00  0.00    -0.195 NA 
HETATM   22  C   UNL     1      -9.863   6.033  71.326  1.00  0.00    -0.178 A  
HETATM   23  C   UNL     1      -9.877   6.421  72.664  1.00  0.00    -0.166 A  
HETATM   24  O   UNL     1      -9.497   5.615  73.706  1.00  0.00    -0.136 OA 
HETATM   25  C   UNL     1     -10.328   7.693  72.975  1.00  0.00    -0.393 A  
HETATM   26  C   UNL     1      -9.492   4.228  73.376  1.00  0.00    -0.110 C  
HETATM   27  C   UNL     1     -10.792   8.521  71.953  1.00  0.00    -0.392 A  
HETATM   28  C   UNL     1      -8.823   3.937  72.025  1.00  0.00    -0.101 C  
HETATM   29  C   UNL     1      -8.771   3.466  74.492  1.00  0.00    -0.090 C  
HETATM   30  C   UNL     1     -10.938   3.680  73.264  1.00  0.00    -0.276 C  
HETATM   31  N   UNL     1      -9.268   4.780  71.021  1.00  0.00    -0.135 N  
HETATM   32  O   UNL     1      -8.119   2.950  71.814  1.00  0.00    -0.056 OA 
BRANCH  31  33
HETATM   33  C   UNL     1      -9.268   4.243  69.701  1.00  0.00    -0.135 C  
BRANCH  33  34
HETATM   34  O   UNL     1      -8.001   4.380  69.142  1.00  0.00    -0.068 OA 
HETATM   35  P   UNL     1      -8.086   5.375  67.728  1.00  0.00    -0.099 P  
HETATM   36  O   UNL     1      -7.059   4.259  67.119  1.00  0.00    -0.065 OA 
HETATM   37  O   UNL     1      -6.973   6.287  68.500  1.00  0.00    -0.074 OA 
HETATM   38  O   UNL     1      -8.163   6.265  66.464  1.00  0.00    -0.108 OA 
ENDBRANCH  33  34
ENDBRANCH  31  33
ENDBRANCH  18  20
ENDBRANCH  14  18
ENDBRANCH   9  11
ENDBRANCH   5   9
BRANCH   7  39
HETATM   39  O   UNL     1     -12.002  16.064  69.318  1.00  0.00    -0.324 OA 
HETATM   40  C   UNL     1     -12.126  15.622  70.660  1.00  0.00    -0.405 C  
ENDBRANCH   7  39
BRANCH   8  41
HETATM   41  O   UNL     1     -10.588  18.101  67.870  1.00  0.00    -0.400 OA 
HETATM   42  C   UNL     1     -10.121  19.086  68.775  1.00  0.00    -0.363 C  
ENDBRANCH   8  41
ENDBRANCH   2   3
TORSDOF 9
ENDMDL
MODEL      124
REMARK 921   NORMALIZED FREE ENERGY PREDICTED BY IDOCK:   -5.52 KCAL/MOL
REMARK 922        TOTAL FREE ENERGY PREDICTED BY IDOCK:  -10.29 KCAL/MOL
REMARK 923 INTER-LIGAND FREE ENERGY PREDICTED BY IDOCK:   -9.10 KCAL/MOL
REMARK 924 INTRA-LIGAND FREE ENERGY PREDICTED BY IDOCK:   -1.19 KCAL/MOL
REMARK 927      BINDING AFFINITY PREDICTED BY RF-SCORE:    0.00 PKD
ROOT
HETATM    1  C   UNL     1      -5.763  15.204  68.284  1.00  0.00    -0.122 C  
HETATM    2  O   UNL     1      -5.618  16.287  67.361  1.00  0.00    -0.140 OA 
ENDROOT
BRANCH   2   3
HETATM    3  C   UNL     1      -6.779  16.972  67.101  1.00  0.00    -0.179 A  
HETATM    4  C   UNL     1      -7.933  16.262  66.722  1.00  0.00    -0.306 A  
HETATM    5  C   UNL     1      -9.109  16.894  66.340  1.00  0.00    -0.283 A  
HETATM    6  C   UNL     1      -9.107  18.291  66.385  1.00  0.00    -0.260 A  
HETATM    7  C   UNL     1      -8.000  19.037  66.822  1.00  0.00    -0.259 A  
HETATM    8  C   UNL     1      -6.819  18.376  67.222  1.00  0.00    -0.198 A  
BRANCH   5   9
HETATM    9  N   UNL     1     -10.247  16.209  65.902  1.00  0.00    -0.341 NA 
HETATM   10  H   UNL     1     -10.908  16.805  65.403  1.00  0.00     0.000 HD 
BRANCH   9  11
HETATM   11  C   UNL     1     -10.671  14.884  66.003  1.00  0.00    -0.323 A  
HETATM   12  N   UNL     1     -10.571  14.190  64.860  1.00  0.00    -0.411 NA 
HETATM   13  N   UNL     1     -11.138  14.347  67.151  1.00  0.00    -0.303 NA 
HETATM   14  C   UNL     1     -11.534  13.048  67.160  1.00  0.00    -0.331 A  
HETATM   15  F   UNL     1     -11.687  10.958  66.007  1.00  0.00     0.130 F  
HETATM   16  C   UNL     1     -10.937  12.892  64.902  1.00  0.00    -0.301 A  
HETATM   17  C   UNL     1     -11.392  12.264  66.037  1.00  0.00    -0.350 A  
BRANCH  14  18
HETATM   18  N   UNL     1     -12.006  12.571  68.395  1.00  0.00    -0.290 NA 
HETATM   19  H   UNL     1     -12.637  13.213  68.874  1.00  0.00     0.000 HD 
BRANCH  18  20
HETATM   20  C   UNL     1     -11.767  11.367  69.095  1.00  0.00    -0.342 A  
HETATM   21  N   UNL     1     -10.787  10.506  68.747  1.00  0.00    -0.215 NA 
HETATM   22  C   UNL     1     -10.560   9.396  69.516  1.00  0.00    -0.222 A  
HETATM   23  C   UNL     1     -11.369   9.068  70.601  1.00  0.00    -0.265 A  
HETATM   24  O   UNL     1     -11.251   7.913  71.331  1.00  0.00    -0.240 OA 
HETATM   25  C   UNL     1     -12.379   9.946  70.957  1.00  0.00    -0.451 A  
HETATM   26  C   UNL     1     -10.534   6.886  70.652  1.00  0.00    -0.210 C  
HETATM   27  C   UNL     1     -12.580  11.098  70.197  1.00  0.00    -0.249 A  
HETATM   28  C   UNL     1      -9.245   7.392  69.989  1.00  0.00    -0.148 C  
HETATM   29  C   UNL     1     -10.204   5.778  71.658  1.00  0.00    -0.253 C  
HETATM   30  C   UNL     1     -11.390   6.273  69.514  1.00  0.00    -0.475 C  
HETATM   31  N   UNL     1      -9.447   8.551  69.258  1.00  0.00    -0.157 N  
HETATM   32  O   UNL     1      -8.200   6.745  69.950  1.00  0.00    -0.123 OA 
BRANCH  31  33
HETATM   33  C   UNL     1      -8.597   8.740  68.130  1.00  0.00    -0.134 C  
BRANCH  33  34
HETATM   34  O   UNL     1      -9.251   8.315  66.977  1.00  0.00    -0.141 OA 
HETATM   35  P   UNL     1      -8.280   8.665  65.588  1.00  0.00    -0.139 P  
HETATM   36  O   UNL     1      -9.713   9.115  64.943  1.00  0.00     0.072 OA 
HETATM   37  O   UNL     1      -8.410   7.065  65.294  1.00  0.00    -0.136 OA 
HETATM   38  O   UNL     1      -7.412   8.978  64.345  1.00  0.00    -0.100 OA 
ENDBRANCH  33  34
ENDBRANCH  31  33
ENDBRANCH  18  20
ENDBRANCH  14  18
ENDBRANCH   9  11
ENDBRANCH   5   9
BRANCH   7  39
HETATM   39  O   UNL     1      -8.237  20.387  66.734  1.00  0.00    -0.287 OA 
HETATM   40  C   UNL     1      -9.485  20.921  67.145  1.00  0.00    -0.209 C  
ENDBRANCH   7  39
BRANCH   8  41
HETATM   41  O   UNL     1      -5.832  19.173  67.728  1.00  0.00    -0.191 OA 
HETATM   42  C   UNL     1      -5.759  19.552  69.092  1.00  0.00    -0.221 C  
ENDBRANCH   8  41
ENDBRANCH   2   3
TORSDOF 9
ENDMDL
MODEL      125
REMARK 921   NORMALIZED FREE ENERGY PREDICTED BY IDOCK:   -5.46 KCAL/MOL
REMARK 922        TOTAL FREE ENERGY PREDICTED BY IDOCK:  -10.20 KCAL/MOL
REMARK 923 INTER-LIGAND FREE ENERGY PREDICTED BY IDOCK:   -8.98 KCAL/MOL
REMARK 924 INTRA-LIGAND FREE ENERGY PREDICTED BY IDOCK:   -1.21 KCAL/MOL
REMARK 927      BINDING AFFINITY PREDICTED BY RF-SCORE:    0.00 PKD
ROOT
HETATM    1  C   UNL     1     -11.655  14.640  70.308  1.00  0.00    -0.280 C  
HETATM    2  O   UNL     1     -10.835  15.767  69.990  1.00  0.00    -0.286 OA 
ENDROOT
BRANCH   2   3
HETATM    3  C   UNL     1     -10.803  16.089  68.655  1.00  0.00    -0.301 A  
HETATM    4  C   UNL     1     -11.368  15.207  67.716  1.00  0.00    -0.335 A  
HETATM    5  C   UNL     1     -11.278  15.415  66.345  1.00  0.00    -0.164 A  
HETATM    6  C   UNL     1     -10.622  16.578  65.935  1.00  0.00    -0.279 A  
HETATM    7  C   UNL     1     -10.103  17.519  66.840  1.00  0.00    -0.324 A  
HETATM    8  C   UNL     1     -10.219  17.299  68.229  1.00  0.00    -0.348 A  
BRANCH   5   9
HETATM    9  N   UNL     1     -11.779  14.521  65.393  1.00  0.00    -0.355 NA 
HETATM   10  H   UNL     1     -12.707  14.773  65.055  1.00  0.00     0.000 HD 
BRANCH   9  11
HETATM   11  C   UNL     1     -11.279  13.357  64.809  1.00  0.00    -0.345 A  
HETATM   12  N   UNL     1     -11.942  12.970  63.710  1.00  0.00    -0.484 NA 
HETATM   13  N   UNL     1     -10.220  12.682  65.306  1.00  0.00    -0.289 NA 
HETATM   14  C   UNL     1      -9.801  11.554  64.677  1.00  0.00    -0.246 A  
HETATM   15  F   UNL     1      -9.977  10.087  62.796  1.00  0.00    -0.231 F  
HETATM   16  C   UNL     1     -11.485  11.866  63.081  1.00  0.00    -0.139 A  
HETATM   17  C   UNL     1     -10.396  11.142  63.505  1.00  0.00    -0.387 A  
BRANCH  14  18
HETATM   18  N   UNL     1      -8.694  10.915  65.261  1.00  0.00    -0.288 NA 
HETATM   19  H   UNL     1      -7.990  10.608  64.590  1.00  0.00     0.000 HD 
BRANCH  18  20
HETATM   20  C   UNL     1      -8.377  10.619  66.606  1.00  0.00    -0.136 A  
HETATM   21  N   UNL     1      -8.302   9.354  67.075  1.00  0.00    -0.126 NA 
HETATM   22  C   UNL     1      -7.913   9.137  68.369  1.00  0.00    -0.103 A  
HETATM   23  C   UNL     1      -7.678  10.182  69.258  1.00  0.00    -0.126 A  
HETATM   24  O   UNL     1      -7.396  10.016  70.590  1.00  0.00    -0.308 OA 
HETATM   25  C   UNL     1      -7.759  11.480  68.782  1.00  0.00    -0.124 A  
HETATM   26  C   UNL     1      -7.775   8.737  71.092  1.00  0.00    -0.123 C  
HETATM   27  C   UNL     1      -8.114  11.698  67.452  1.00  0.00    -0.153 A  
HETATM   28  C   UNL     1      -7.357   7.582  70.170  1.00  0.00    -0.077 C  
HETATM   29  C   UNL     1      -7.146   8.553  72.477  1.00  0.00    -0.067 C  
HETATM   30  C   UNL     1      -9.315   8.633  71.237  1.00  0.00    -0.288 C  
HETATM   31  N   UNL     1      -7.688   7.817  68.846  1.00  0.00    -0.110 N  
HETATM   32  O   UNL     1      -6.950   6.497  70.580  1.00  0.00    -0.061 OA 
BRANCH  31  33
HETATM   33  C   UNL     1      -7.972   6.667  68.054  1.00  0.00    -0.110 C  
BRANCH  33  34
HETATM   34  O   UNL     1      -9.276   6.245  68.294  1.00  0.00    -0.114 OA 
HETATM   35  P   UNL     1      -9.900   5.437  66.896  1.00  0.00    -0.210 P  
HETATM   36  O   UNL     1     -11.251   6.286  67.251  1.00  0.00    -0.332 OA 
HETATM   37  O   UNL     1     -10.155   4.196  67.926  1.00  0.00    -0.019 OA 
HETATM   38  O   UNL     1     -10.458   4.715  65.646  1.00  0.00    -0.272 OA 
ENDBRANCH  33  34
ENDBRANCH  31  33
ENDBRANCH  18  20
ENDBRANCH  14  18
ENDBRANCH   9  11
ENDBRANCH   5   9
BRANCH   7  39
HETATM   39  O   UNL     1      -9.472  18.550  66.186  1.00  0.00    -0.453 OA 
HETATM   40  C   UNL     1     -10.122  19.802  66.033  1.00  0.00    -0.477 C  
ENDBRANCH   7  39
BRANCH   8  41
HETATM   41  O   UNL     1      -9.780  18.312  69.032  1.00  0.00    -0.299 OA 
HETATM   42  C   UNL     1      -8.409  18.611  69.231  1.00  0.00     0.185 C  
ENDBRANCH   8  41
ENDBRANCH   2   3
TORSDOF 9
ENDMDL
MODEL      126
REMARK 921   NORMALIZED FREE ENERGY PREDICTED BY IDOCK:   -5.44 KCAL/MOL
REMARK 922        TOTAL FREE ENERGY PREDICTED BY IDOCK:  -10.17 KCAL/MOL
REMARK 923 INTER-LIGAND FREE ENERGY PREDICTED BY IDOCK:   -9.14 KCAL/MOL
REMARK 924 INTRA-LIGAND FREE ENERGY PREDICTED BY IDOCK:   -1.03 KCAL/MOL
REMARK 927      BINDING AFFINITY PREDICTED BY RF-SCORE:    0.00 PKD
ROOT
HETATM    1  C   UNL     1     -11.140  14.241  65.133  1.00  0.00    -0.352 C  
HETATM    2  O   UNL     1     -11.933  13.066  65.316  1.00  0.00    -0.357 OA 
ENDROOT
BRANCH   2   3
HETATM    3  C   UNL     1     -11.306  12.057  66.005  1.00  0.00    -0.343 A  
HETATM    4  C   UNL     1     -11.422  12.000  67.406  1.00  0.00    -0.406 A  
HETATM    5  C   UNL     1     -10.730  11.074  68.177  1.00  0.00    -0.205 A  
HETATM    6  C   UNL     1      -9.929  10.163  67.484  1.00  0.00    -0.231 A  
HETATM    7  C   UNL     1      -9.837  10.143  66.082  1.00  0.00    -0.237 A  
HETATM    8  C   UNL     1     -10.561  11.081  65.315  1.00  0.00    -0.214 A  
BRANCH   5   9
HETATM    9  N   UNL     1     -10.784  11.038  69.574  1.00  0.00    -0.388 NA 
HETATM   10  H   UNL     1     -10.055  11.594  70.019  1.00  0.00     0.000 HD 
BRANCH   9  11
HETATM   11  C   UNL     1     -11.624  10.401  70.488  1.00  0.00    -0.344 A  
HETATM   12  N   UNL     1     -12.858  10.922  70.550  1.00  0.00    -0.267 NA 
HETATM   13  N   UNL     1     -11.230   9.353  71.242  1.00  0.00    -0.338 NA 
HETATM   14  C   UNL     1     -12.112   8.795  72.112  1.00  0.00    -0.371 A  
HETATM   15  F   UNL     1     -14.350   8.679  72.948  1.00  0.00    -0.410 F  
HETATM   16  C   UNL     1     -13.728  10.329  71.395  1.00  0.00     0.048 A  
HETATM   17  C   UNL     1     -13.414   9.240  72.172  1.00  0.00    -0.473 A  
BRANCH  14  18
HETATM   18  N   UNL     1     -11.618   7.709  72.856  1.00  0.00    -0.601 NA 
HETATM   19  H   UNL     1     -11.788   7.782  73.859  1.00  0.00     0.000 HD 
BRANCH  18  20
HETATM   20  C   UNL     1     -10.930   6.536  72.471  1.00  0.00    -0.248 A  
HETATM   21  N   UNL     1      -9.889   6.553  71.611  1.00  0.00    -0.168 NA 
HETATM   22  C   UNL     1      -9.218   5.391  71.342  1.00  0.00    -0.146 A  
HETATM   23  C   UNL     1      -9.628   4.162  71.853  1.00  0.00    -0.152 A  
HETATM   24  O   UNL     1      -9.059   2.959  71.525  1.00  0.00    -0.087 OA 
HETATM   25  C   UNL     1     -10.700   4.141  72.731  1.00  0.00    -0.197 A  
HETATM   26  C   UNL     1      -8.307   3.001  70.315  1.00  0.00    -0.048 C  
HETATM   27  C   UNL     1     -11.354   5.333  73.037  1.00  0.00    -0.376 A  
HETATM   28  C   UNL     1      -7.384   4.226  70.225  1.00  0.00    -0.045 C  
HETATM   29  C   UNL     1      -7.480   1.715  70.212  1.00  0.00    -0.036 C  
HETATM   30  C   UNL     1      -9.244   3.080  69.083  1.00  0.00    -0.222 C  
HETATM   31  N   UNL     1      -8.034   5.403  70.556  1.00  0.00    -0.099 N  
HETATM   32  O   UNL     1      -6.257   4.193  69.733  1.00  0.00    -0.025 OA 
BRANCH  31  33
HETATM   33  C   UNL     1      -7.563   6.585  69.914  1.00  0.00    -0.100 C  
BRANCH  33  34
HETATM   34  O   UNL     1      -7.994   7.703  70.621  1.00  0.00    -0.096 OA 
HETATM   35  P   UNL     1      -6.756   8.913  70.620  1.00  0.00    -0.071 P  
HETATM   36  O   UNL     1      -7.196   9.085  72.185  1.00  0.00    -0.329 OA 
HETATM   37  O   UNL     1      -7.912   9.865  69.971  1.00  0.00    -0.167 OA 
HETATM   38  O   UNL     1      -5.649   9.994  70.620  1.00  0.00    -0.054 OA 
ENDBRANCH  33  34
ENDBRANCH  31  33
ENDBRANCH  18  20
ENDBRANCH  14  18
ENDBRANCH   9  11
ENDBRANCH   5   9
BRANCH   7  39
HETATM   39  O   UNL     1      -8.954   9.183  65.650  1.00  0.00    -0.177 OA 
HETATM   40  C   UNL     1      -8.201   8.431  66.588  1.00  0.00    -0.105 C  
ENDBRANCH   7  39
BRANCH   8  41
HETATM   41  O   UNL     1     -10.494  10.922  63.961  1.00  0.00    -0.364 OA 
HETATM   42  C   UNL     1      -9.433  11.425  63.168  1.00  0.00    -0.343 C  
ENDBRANCH   8  41
ENDBRANCH   2   3
TORSDOF 9
ENDMDL
MODEL      127
REMARK 921   NORMALIZED FREE ENERGY PREDICTED BY IDOCK:   -5.42 KCAL/MOL
REMARK 922        TOTAL FREE ENERGY PREDICTED BY IDOCK:  -10.13 KCAL/MOL
REMARK 923 INTER-LIGAND FREE ENERGY PREDICTED BY IDOCK:   -8.93 KCAL/MOL
REMARK 924 INTRA-LIGAND FREE ENERGY PREDICTED BY IDOCK:   -1.20 KCAL/MOL
REMARK 927      BINDING AFFINITY PREDICTED BY RF-SCORE:    0.00 PKD
ROOT
HETATM    1  C   UNL     1     -13.208  15.548  71.036  1.00  0.00    -0.474 C  
HETATM    2  O   UNL     1     -11.906  15.701  70.465  1.00  0.00    -0.314 OA 
ENDROOT
BRANCH   2   3
HETATM    3  C   UNL     1     -11.735  15.066  69.259  1.00  0.00    -0.323 A  
HETATM    4  C   UNL     1     -12.027  13.694  69.151  1.00  0.00    -0.394 A  
HETATM    5  C   UNL     1     -11.777  12.965  67.996  1.00  0.00    -0.356 A  
HETATM    6  C   UNL     1     -11.248  13.675  66.915  1.00  0.00    -0.326 A  
HETATM    7  C   UNL     1     -11.005  15.058  66.958  1.00  0.00    -0.318 A  
HETATM    8  C   UNL     1     -11.282  15.785  68.136  1.00  0.00    -0.344 A  
BRANCH   5   9
HETATM    9  N   UNL     1     -12.004  11.589  67.886  1.00  0.00    -0.641 NA 
HETATM   10  H   UNL     1     -12.942  11.361  67.558  1.00  0.00     0.000 HD 
BRANCH   9  11
HETATM   11  C   UNL     1     -11.218  10.462  68.131  1.00  0.00    -0.268 A  
HETATM   12  N   UNL     1     -10.744   9.876  67.023  1.00  0.00    -0.206 NA 
HETATM   13  N   UNL     1     -10.957  10.005  69.374  1.00  0.00    -0.238 NA 
HETATM   14  C   UNL     1     -10.186   8.897  69.523  1.00  0.00    -0.204 A  
HETATM   15  F   UNL     1      -8.779   7.245  68.515  1.00  0.00    -0.123 F  
HETATM   16  C   UNL     1      -9.951   8.797  67.196  1.00  0.00    -0.230 A  
HETATM   17  C   UNL     1      -9.613   8.289  68.427  1.00  0.00    -0.144 A  
BRANCH  14  18
HETATM   18  N   UNL     1      -9.965   8.490  70.850  1.00  0.00    -0.183 NA 
HETATM   19  H   UNL     1      -9.526   9.201  71.435  1.00  0.00     0.000 HD 
BRANCH  18  20
HETATM   20  C   UNL     1     -10.239   7.278  71.524  1.00  0.00    -0.193 A  
HETATM   21  N   UNL     1      -9.272   6.397  71.859  1.00  0.00    -0.149 NA 
HETATM   22  C   UNL     1      -9.598   5.281  72.580  1.00  0.00    -0.149 A  
HETATM   23  C   UNL     1     -10.915   4.965  72.904  1.00  0.00    -0.262 A  
HETATM   24  O   UNL     1     -11.302   3.806  73.525  1.00  0.00    -0.242 OA 
HETATM   25  C   UNL     1     -11.910   5.863  72.556  1.00  0.00    -0.238 A  
HETATM   26  C   UNL     1     -10.331   2.765  73.435  1.00  0.00    -0.133 C  
HETATM   27  C   UNL     1     -11.570   7.022  71.860  1.00  0.00    -0.320 A  
HETATM   28  C   UNL     1      -8.906   3.247  73.744  1.00  0.00    -0.076 C  
HETATM   29  C   UNL     1     -10.727   1.647  74.406  1.00  0.00    -0.177 C  
HETATM   30  C   UNL     1     -10.283   2.175  72.003  1.00  0.00    -0.168 C  
HETATM   31  N   UNL     1      -8.584   4.413  73.069  1.00  0.00    -0.101 N  
HETATM   32  O   UNL     1      -8.081   2.578  74.364  1.00  0.00    -0.060 OA 
BRANCH  31  33
HETATM   33  C   UNL     1      -7.210   4.589  72.735  1.00  0.00    -0.081 C  
BRANCH  33  34
HETATM   34  O   UNL     1      -7.065   4.602  71.351  1.00  0.00    -0.047 OA 
HETATM   35  P   UNL     1      -6.308   3.137  70.825  1.00  0.00    -0.024 P  
HETATM   36  O   UNL     1      -5.477   4.149  69.846  1.00  0.00    -0.011 OA 
HETATM   37  O   UNL     1      -7.634   2.979  69.886  1.00  0.00    -0.044 OA 
HETATM   38  O   UNL     1      -5.631   1.827  70.354  1.00  0.00    -0.014 OA 
ENDBRANCH  33  34
ENDBRANCH  31  33
ENDBRANCH  18  20
ENDBRANCH  14  18
ENDBRANCH   9  11
ENDBRANCH   5   9
BRANCH   7  39
HETATM   39  O   UNL     1     -10.447  15.507  65.785  1.00  0.00    -0.315 OA 
HETATM   40  C   UNL     1     -11.276  15.867  64.692  1.00  0.00    -0.351 C  
ENDBRANCH   7  39
BRANCH   8  41
HETATM   41  O   UNL     1     -11.113  17.137  68.054  1.00  0.00    -0.313 OA 
HETATM   42  C   UNL     1     -10.027  17.825  68.651  1.00  0.00    -0.379 C  
ENDBRANCH   8  41
ENDBRANCH   2   3
TORSDOF 9
ENDMDL
MODEL      128
REMARK 921   NORMALIZED FREE ENERGY PREDICTED BY IDOCK:   -5.42 KCAL/MOL
REMARK 922        TOTAL FREE ENERGY PREDICTED BY IDOCK:  -10.13 KCAL/MOL
REMARK 923 INTER-LIGAND FREE ENERGY PREDICTED BY IDOCK:   -8.47 KCAL/MOL
REMARK 924 INTRA-LIGAND FREE ENERGY PREDICTED BY IDOCK:   -1.66 KCAL/MOL
REMARK 927      BINDING AFFINITY PREDICTED BY RF-SCORE:    0.00 PKD
ROOT
HETATM    1  C   UNL     1     -10.154   3.677  72.498  1.00  0.00    -0.168 C  
HETATM    2  O   UNL     1     -10.980   4.841  72.568  1.00  0.00    -0.183 OA 
ENDROOT
BRANCH   2   3
HETATM    3  C   UNL     1     -10.683   5.808  71.639  1.00  0.00    -0.256 A  
HETATM    4  C   UNL     1     -10.860   5.532  70.271  1.00  0.00    -0.285 A  
HETATM    5  C   UNL     1     -10.479   6.420  69.273  1.00  0.00    -0.231 A  
HETATM    6  C   UNL     1      -9.937   7.636  69.697  1.00  0.00    -0.185 A  
HETATM    7  C   UNL     1      -9.805   7.979  71.052  1.00  0.00    -0.174 A  
HETATM    8  C   UNL     1     -10.213   7.071  72.052  1.00  0.00    -0.190 A  
BRANCH   5   9
HETATM    9  N   UNL     1     -10.591   6.141  67.907  1.00  0.00    -0.233 NA 
HETATM   10  H   UNL     1     -11.475   5.697  67.658  1.00  0.00     0.000 HD 
BRANCH   9  11
HETATM   11  C   UNL     1      -9.750   6.341  66.812  1.00  0.00    -0.156 A  
HETATM   12  N   UNL     1      -9.378   5.209  66.196  1.00  0.00    -0.150 NA 
HETATM   13  N   UNL     1      -9.348   7.564  66.408  1.00  0.00    -0.174 NA 
HETATM   14  C   UNL     1      -8.523   7.668  65.334  1.00  0.00    -0.098 A  
HETATM   15  F   UNL     1      -7.419   6.595  63.503  1.00  0.00    -0.055 F  
HETATM   16  C   UNL     1      -8.588   5.339  65.110  1.00  0.00    -0.151 A  
HETATM   17  C   UNL     1      -8.162   6.549  64.617  1.00  0.00    -0.052 A  
BRANCH  14  18
HETATM   18  N   UNL     1      -8.154   8.978  64.983  1.00  0.00    -0.129 NA 
HETATM   19  H   UNL     1      -7.147   9.116  64.893  1.00  0.00     0.000 HD 
BRANCH  18  20
HETATM   20  C   UNL     1      -8.920  10.139  64.731  1.00  0.00    -0.203 A  
HETATM   21  N   UNL     1      -9.046  11.137  65.632  1.00  0.00    -0.208 NA 
HETATM   22  C   UNL     1      -9.738  12.268  65.293  1.00  0.00    -0.113 A  
HETATM   23  C   UNL     1     -10.404  12.393  64.076  1.00  0.00    -0.409 A  
HETATM   24  O   UNL     1     -11.201  13.456  63.737  1.00  0.00    -0.289 OA 
HETATM   25  C   UNL     1     -10.282  11.368  63.152  1.00  0.00    -0.380 A  
HETATM   26  C   UNL     1     -11.642  14.214  64.861  1.00  0.00    -0.379 C  
HETATM   27  C   UNL     1      -9.540  10.236  63.484  1.00  0.00    -0.321 A  
HETATM   28  C   UNL     1     -10.515  14.513  65.861  1.00  0.00    -0.312 C  
HETATM   29  C   UNL     1     -12.253  15.524  64.354  1.00  0.00    -0.087 C  
HETATM   30  C   UNL     1     -12.727  13.444  65.657  1.00  0.00    -0.432 C  
HETATM   31  N   UNL     1      -9.766  13.390  66.165  1.00  0.00    -0.275 N  
HETATM   32  O   UNL     1     -10.409  15.579  66.466  1.00  0.00    -0.272 OA 
BRANCH  31  33
HETATM   33  C   UNL     1      -9.189  13.350  67.468  1.00  0.00    -0.219 C  
BRANCH  33  34
HETATM   34  O   UNL     1      -7.896  13.861  67.421  1.00  0.00    -0.173 OA 
HETATM   35  P   UNL     1      -6.846  12.892  68.399  1.00  0.00    -0.120 P  
HETATM   36  O   UNL     1      -6.252  14.345  68.854  1.00  0.00    -0.083 OA 
HETATM   37  O   UNL     1      -5.979  12.732  67.025  1.00  0.00    -0.307 OA 
HETATM   38  O   UNL     1      -5.907  12.026  69.273  1.00  0.00    -0.063 OA 
ENDBRANCH  33  34
ENDBRANCH  31  33
ENDBRANCH  18  20
ENDBRANCH  14  18
ENDBRANCH   9  11
ENDBRANCH   5   9
BRANCH   7  39
HETATM   39  O   UNL     1      -9.208   9.208  71.204  1.00  0.00    -0.250 OA 
HETATM   40  C   UNL     1      -8.110   9.574  70.385  1.00  0.00    -0.183 C  
ENDBRANCH   7  39
BRANCH   8  41
HETATM   41  O   UNL     1     -10.144   7.527  73.337  1.00  0.00    -0.296 OA 
HETATM   42  C   UNL     1      -9.031   7.305  74.185  1.00  0.00    -0.226 C  
ENDBRANCH   8  41
ENDBRANCH   2   3
TORSDOF 9
ENDMDL
MODEL      129
REMARK 921   NORMALIZED FREE ENERGY PREDICTED BY IDOCK:   -5.37 KCAL/MOL
REMARK 922        TOTAL FREE ENERGY PREDICTED BY IDOCK:  -10.06 KCAL/MOL
REMARK 923 INTER-LIGAND FREE ENERGY PREDICTED BY IDOCK:   -8.71 KCAL/MOL
REMARK 924 INTRA-LIGAND FREE ENERGY PREDICTED BY IDOCK:   -1.35 KCAL/MOL
REMARK 927      BINDING AFFINITY PREDICTED BY RF-SCORE:    0.00 PKD
ROOT
HETATM    1  C   UNL     1      -8.119   8.021  74.534  1.00  0.00    -0.225 C  
HETATM    2  O   UNL     1      -7.420   6.952  73.892  1.00  0.00    -0.091 OA 
ENDROOT
BRANCH   2   3
HETATM    3  C   UNL     1      -8.196   6.181  73.062  1.00  0.00    -0.115 A  
HETATM    4  C   UNL     1      -8.882   6.788  71.994  1.00  0.00    -0.134 A  
HETATM    5  C   UNL     1      -9.768   6.091  71.181  1.00  0.00    -0.177 A  
HETATM    6  C   UNL     1      -9.920   4.729  71.453  1.00  0.00    -0.267 A  
HETATM    7  C   UNL     1      -9.204   4.070  72.465  1.00  0.00    -0.114 A  
HETATM    8  C   UNL     1      -8.296   4.791  73.270  1.00  0.00    -0.103 A  
BRANCH   5   9
HETATM    9  N   UNL     1     -10.506   6.688  70.153  1.00  0.00    -0.202 NA 
HETATM   10  H   UNL     1     -11.509   6.699  70.334  1.00  0.00     0.000 HD 
BRANCH   9  11
HETATM   11  C   UNL     1     -10.160   7.269  68.933  1.00  0.00    -0.180 A  
HETATM   12  N   UNL     1     -10.798   6.744  67.878  1.00  0.00    -0.249 NA 
HETATM   13  N   UNL     1      -9.264   8.273  68.826  1.00  0.00    -0.144 NA 
HETATM   14  C   UNL     1      -8.982   8.780  67.598  1.00  0.00    -0.135 A  
HETATM   15  F   UNL     1      -9.480   8.844  65.259  1.00  0.00    -0.267 F  
HETATM   16  C   UNL     1     -10.529   7.286  66.672  1.00  0.00    -0.134 A  
HETATM   17  C   UNL     1      -9.654   8.330  66.483  1.00  0.00    -0.244 A  
BRANCH  14  18
HETATM   18  N   UNL     1      -8.038   9.821  67.578  1.00  0.00    -0.113 NA 
HETATM   19  H   UNL     1      -7.078   9.509  67.435  1.00  0.00     0.000 HD 
BRANCH  18  20
HETATM   20  C   UNL     1      -8.175  11.221  67.719  1.00  0.00    -0.120 A  
HETATM   21  N   UNL     1      -9.364  11.851  67.599  1.00  0.00    -0.178 NA 
HETATM   22  C   UNL     1      -9.438  13.199  67.825  1.00  0.00    -0.209 A  
HETATM   23  C   UNL     1      -8.308  13.970  68.086  1.00  0.00    -0.164 A  
HETATM   24  O   UNL     1      -8.316  15.336  68.208  1.00  0.00    -0.142 OA 
HETATM   25  C   UNL     1      -7.087  13.328  68.203  1.00  0.00    -0.111 A  
HETATM   26  C   UNL     1      -9.470  15.948  67.636  1.00  0.00    -0.219 C  
HETATM   27  C   UNL     1      -7.021  11.948  68.015  1.00  0.00    -0.078 A  
HETATM   28  C   UNL     1     -10.776  15.234  68.012  1.00  0.00    -0.268 C  
HETATM   29  C   UNL     1      -9.521  17.409  68.093  1.00  0.00    -0.288 C  
HETATM   30  C   UNL     1      -9.398  15.924  66.087  1.00  0.00    -0.385 C  
HETATM   31  N   UNL     1     -10.695  13.862  67.848  1.00  0.00    -0.238 N  
HETATM   32  O   UNL     1     -11.830  15.824  68.247  1.00  0.00    -0.301 OA 
BRANCH  31  33
HETATM   33  C   UNL     1     -11.910  13.194  67.518  1.00  0.00    -0.360 C  
BRANCH  33  34
HETATM   34  O   UNL     1     -12.378  13.656  66.292  1.00  0.00    -0.432 OA 
HETATM   35  P   UNL     1     -11.807  12.631  65.019  1.00  0.00    -0.432 P  
HETATM   36  O   UNL     1     -11.565  14.052  64.249  1.00  0.00    -0.380 OA 
HETATM   37  O   UNL     1     -13.391  12.465  64.661  1.00  0.00    -0.778 OA 
HETATM   38  O   UNL     1     -11.296  11.715  63.881  1.00  0.00    -0.382 OA 
ENDBRANCH  33  34
ENDBRANCH  31  33
ENDBRANCH  18  20
ENDBRANCH  14  18
ENDBRANCH   9  11
ENDBRANCH   5   9
BRANCH   7  39
HETATM   39  O   UNL     1      -9.564   2.747  72.555  1.00  0.00    -0.102 OA 
HETATM   40  C   UNL     1     -10.801   2.381  73.144  1.00  0.00    -0.155 C  
ENDBRANCH   7  39
BRANCH   8  41
HETATM   41  O   UNL     1      -7.569   4.051  74.158  1.00  0.00    -0.072 OA 
HETATM   42  C   UNL     1      -6.218   3.680  73.942  1.00  0.00    -0.024 C  
ENDBRANCH   8  41
ENDBRANCH   2   3
TORSDOF 9
ENDMDL
MODEL      130
REMARK 921   NORMALIZED FREE ENERGY PREDICTED BY IDOCK:   -5.36 KCAL/MOL
REMARK 922        TOTAL FREE ENERGY PREDICTED BY IDOCK:  -10.05 KCAL/MOL
REMARK 923 INTER-LIGAND FREE ENERGY PREDICTED BY IDOCK:   -8.74 KCAL/MOL
REMARK 924 INTRA-LIGAND FREE ENERGY PREDICTED BY IDOCK:   -1.31 KCAL/MOL
REMARK 927      BINDING AFFINITY PREDICTED BY RF-SCORE:    0.00 PKD
ROOT
HETATM    1  C   UNL     1     -10.440  20.741  68.504  1.00  0.00     0.526 C  
HETATM    2  O   UNL     1      -9.495  20.840  67.435  1.00  0.00    -0.422 OA 
ENDROOT
BRANCH   2   3
HETATM    3  C   UNL     1      -8.885  19.656  67.103  1.00  0.00    -0.312 A  
HETATM    4  C   UNL     1      -9.566  18.730  66.291  1.00  0.00    -0.316 A  
HETATM    5  C   UNL     1      -9.057  17.470  66.004  1.00  0.00    -0.027 A  
HETATM    6  C   UNL     1      -7.799  17.172  66.535  1.00  0.00    -0.325 A  
HETATM    7  C   UNL     1      -7.056  18.091  67.293  1.00  0.00    -0.189 A  
HETATM    8  C   UNL     1      -7.583  19.373  67.561  1.00  0.00    -0.250 A  
BRANCH   5   9
HETATM    9  N   UNL     1      -9.743  16.512  65.250  1.00  0.00    -0.318 NA 
HETATM   10  H   UNL     1      -9.804  16.749  64.260  1.00  0.00     0.000 HD 
BRANCH   9  11
HETATM   11  C   UNL     1     -10.363  15.303  65.565  1.00  0.00    -0.383 A  
HETATM   12  N   UNL     1     -11.640  15.223  65.164  1.00  0.00    -0.250 NA 
HETATM   13  N   UNL     1      -9.732  14.302  66.214  1.00  0.00    -0.296 NA 
HETATM   14  C   UNL     1     -10.412  13.158  66.486  1.00  0.00    -0.279 A  
HETATM   15  F   UNL     1     -12.398  11.854  66.205  1.00  0.00    -0.196 F  
HETATM   16  C   UNL     1     -12.285  14.064  65.413  1.00  0.00    -0.439 A  
HETATM   17  C   UNL     1     -11.704  12.987  66.040  1.00  0.00    -0.393 A  
BRANCH  14  18
HETATM   18  N   UNL     1      -9.680  12.168  67.164  1.00  0.00    -0.197 NA 
HETATM   19  H   UNL     1      -9.001  12.537  67.830  1.00  0.00     0.000 HD 
BRANCH  18  20
HETATM   20  C   UNL     1      -9.710  10.757  67.094  1.00  0.00    -0.170 A  
HETATM   21  N   UNL     1      -9.925   9.979  68.176  1.00  0.00    -0.149 NA 
HETATM   22  C   UNL     1     -10.021   8.623  68.024  1.00  0.00    -0.182 A  
HETATM   23  C   UNL     1      -9.810   7.998  66.797  1.00  0.00    -0.257 A  
HETATM   24  O   UNL     1      -9.783   6.639  66.616  1.00  0.00    -0.169 OA 
HETATM   25  C   UNL     1      -9.582   8.792  65.686  1.00  0.00    -0.105 A  
HETATM   26  C   UNL     1      -9.564   5.912  67.823  1.00  0.00    -0.115 C  
HETATM   27  C   UNL     1      -9.529  10.177  65.837  1.00  0.00    -0.249 A  
HETATM   28  C   UNL     1     -10.425   6.416  68.991  1.00  0.00    -0.224 C  
HETATM   29  C   UNL     1      -9.857   4.432  67.558  1.00  0.00    -0.180 C  
HETATM   30  C   UNL     1      -8.091   6.043  68.288  1.00  0.00    -0.110 C  
HETATM   31  N   UNL     1     -10.388   7.794  69.119  1.00  0.00    -0.213 N  
HETATM   32  O   UNL     1     -10.932   5.674  69.831  1.00  0.00    -0.339 OA 
BRANCH  31  33
HETATM   33  C   UNL     1     -10.551   8.309  70.437  1.00  0.00    -0.224 C  
BRANCH  33  34
HETATM   34  O   UNL     1      -9.335   8.260  71.111  1.00  0.00    -0.150 OA 
HETATM   35  P   UNL     1      -9.551   7.524  72.663  1.00  0.00    -0.209 P  
HETATM   36  O   UNL     1      -8.550   8.719  73.151  1.00  0.00    -0.366 OA 
HETATM   37  O   UNL     1      -8.403   6.483  72.151  1.00  0.00    -0.108 OA 
HETATM   38  O   UNL     1      -9.745   6.866  74.050  1.00  0.00    -0.236 OA 
ENDBRANCH  33  34
ENDBRANCH  31  33
ENDBRANCH  18  20
ENDBRANCH  14  18
ENDBRANCH   9  11
ENDBRANCH   5   9
BRANCH   7  39
HETATM   39  O   UNL     1      -5.875  17.543  67.732  1.00  0.00    -0.138 OA 
HETATM   40  C   UNL     1      -5.712  16.134  67.768  1.00  0.00    -0.141 C  
ENDBRANCH   7  39
BRANCH   8  41
HETATM   41  O   UNL     1      -6.751  20.235  68.215  1.00  0.00    -0.288 OA 
HETATM   42  C   UNL     1      -6.109  21.330  67.585  1.00  0.00    -0.354 C  
ENDBRANCH   8  41
ENDBRANCH   2   3
TORSDOF 9
ENDMDL
MODEL      131
REMARK 921   NORMALIZED FREE ENERGY PREDICTED BY IDOCK:   -5.36 KCAL/MOL
REMARK 922        TOTAL FREE ENERGY PREDICTED BY IDOCK:  -10.04 KCAL/MOL
REMARK 923 INTER-LIGAND FREE ENERGY PREDICTED BY IDOCK:   -8.58 KCAL/MOL
REMARK 924 INTRA-LIGAND FREE ENERGY PREDICTED BY IDOCK:   -1.47 KCAL/MOL
REMARK 927      BINDING AFFINITY PREDICTED BY RF-SCORE:    0.00 PKD
ROOT
HETATM    1  C   UNL     1      -6.078  20.046  64.897  1.00  0.00    -0.254 C  
HETATM    2  O   UNL     1      -6.978  20.030  66.008  1.00  0.00    -0.239 OA 
ENDROOT
BRANCH   2   3
HETATM    3  C   UNL     1      -7.458  18.785  66.333  1.00  0.00    -0.252 A  
HETATM    4  C   UNL     1      -6.555  17.759  66.667  1.00  0.00    -0.239 A  
HETATM    5  C   UNL     1      -6.961  16.452  66.902  1.00  0.00    -0.212 A  
HETATM    6  C   UNL     1      -8.334  16.204  66.826  1.00  0.00    -0.299 A  
HETATM    7  C   UNL     1      -9.276  17.213  66.562  1.00  0.00    -0.266 A  
HETATM    8  C   UNL     1      -8.846  18.539  66.343  1.00  0.00    -0.256 A  
BRANCH   5   9
HETATM    9  N   UNL     1      -6.075  15.405  67.176  1.00  0.00    -0.256 NA 
HETATM   10  H   UNL     1      -5.234  15.429  66.600  1.00  0.00     0.000 HD 
BRANCH   9  11
HETATM   11  C   UNL     1      -6.098  14.334  68.070  1.00  0.00    -0.148 A  
HETATM   12  N   UNL     1      -5.330  14.512  69.154  1.00  0.00    -0.081 NA 
HETATM   13  N   UNL     1      -6.829  13.219  67.861  1.00  0.00    -0.122 NA 
HETATM   14  C   UNL     1      -6.790  12.221  68.782  1.00  0.00    -0.092 A  
HETATM   15  F   UNL     1      -6.064  11.460  70.930  1.00  0.00    -0.115 F  
HETATM   16  C   UNL     1      -5.335  13.523  70.073  1.00  0.00    -0.098 A  
HETATM   17  C   UNL     1      -6.076  12.372  69.950  1.00  0.00    -0.135 A  
BRANCH  14  18
HETATM   18  N   UNL     1      -7.581  11.097  68.486  1.00  0.00    -0.112 NA 
HETATM   19  H   UNL     1      -7.229  10.534  67.712  1.00  0.00     0.000 HD 
BRANCH  18  20
HETATM   20  C   UNL     1      -8.774  10.605  69.063  1.00  0.00    -0.146 A  
HETATM   21  N   UNL     1      -8.778   9.762  70.118  1.00  0.00    -0.211 NA 
HETATM   22  C   UNL     1      -9.969   9.386  70.676  1.00  0.00    -0.284 A  
HETATM   23  C   UNL     1     -11.195   9.768  70.135  1.00  0.00    -0.272 A  
HETATM   24  O   UNL     1     -12.411   9.327  70.590  1.00  0.00    -0.123 OA 
HETATM   25  C   UNL     1     -11.194  10.627  69.049  1.00  0.00    -0.324 A  
HETATM   26  C   UNL     1     -12.326   8.136  71.368  1.00  0.00    -0.298 C  
HETATM   27  C   UNL     1      -9.978  11.043  68.509  1.00  0.00    -0.198 A  
HETATM   28  C   UNL     1     -11.198   8.179  72.409  1.00  0.00    -0.386 C  
HETATM   29  C   UNL     1     -13.672   7.914  72.065  1.00  0.00    -0.296 C  
HETATM   30  C   UNL     1     -12.033   6.907  70.469  1.00  0.00    -0.358 C  
HETATM   31  N   UNL     1      -9.999   8.618  71.872  1.00  0.00    -0.294 N  
HETATM   32  O   UNL     1     -11.295   7.699  73.537  1.00  0.00    -0.216 OA 
BRANCH  31  33
HETATM   33  C   UNL     1      -8.813   8.103  72.471  1.00  0.00    -0.208 C  
BRANCH  33  34
HETATM   34  O   UNL     1      -8.341   7.030  71.723  1.00  0.00    -0.110 OA 
HETATM   35  P   UNL     1      -8.324   5.598  72.695  1.00  0.00    -0.115 P  
HETATM   36  O   UNL     1      -6.883   5.355  71.965  1.00  0.00    -0.062 OA 
HETATM   37  O   UNL     1      -9.266   4.979  71.514  1.00  0.00    -0.140 OA 
HETATM   38  O   UNL     1      -8.309   4.317  73.565  1.00  0.00    -0.093 OA 
ENDBRANCH  33  34
ENDBRANCH  31  33
ENDBRANCH  18  20
ENDBRANCH  14  18
ENDBRANCH   9  11
ENDBRANCH   5   9
BRANCH   7  39
HETATM   39  O   UNL     1     -10.552  16.705  66.500  1.00  0.00    -0.286 OA 
HETATM   40  C   UNL     1     -10.811  15.373  66.913  1.00  0.00    -0.313 C  
ENDBRANCH   7  39
BRANCH   8  41
HETATM   41  O   UNL     1      -9.834  19.470  66.197  1.00  0.00    -0.388 OA 
HETATM   42  C   UNL     1     -10.161  20.422  67.193  1.00  0.00    -0.278 C  
ENDBRANCH   8  41
ENDBRANCH   2   3
TORSDOF 9
ENDMDL
MODEL      132
REMARK 921   NORMALIZED FREE ENERGY PREDICTED BY IDOCK:   -5.33 KCAL/MOL
REMARK 922        TOTAL FREE ENERGY PREDICTED BY IDOCK:  -10.00 KCAL/MOL
REMARK 923 INTER-LIGAND FREE ENERGY PREDICTED BY IDOCK:   -8.23 KCAL/MOL
REMARK 924 INTRA-LIGAND FREE ENERGY PREDICTED BY IDOCK:   -1.77 KCAL/MOL
REMARK 927      BINDING AFFINITY PREDICTED BY RF-SCORE:    0.00 PKD
ROOT
HETATM    1  C   UNL     1      -8.628   8.567  65.068  1.00  0.00    -0.135 C  
HETATM    2  O   UNL     1      -8.048   7.310  64.711  1.00  0.00    -0.129 OA 
ENDROOT
BRANCH   2   3
HETATM    3  C   UNL     1      -8.652   6.220  65.289  1.00  0.00    -0.061 A  
HETATM    4  C   UNL     1      -9.284   6.359  66.538  1.00  0.00    -0.174 A  
HETATM    5  C   UNL     1      -9.820   5.280  67.230  1.00  0.00    -0.161 A  
HETATM    6  C   UNL     1      -9.735   4.035  66.602  1.00  0.00    -0.215 A  
HETATM    7  C   UNL     1      -9.172   3.863  65.326  1.00  0.00    -0.150 A  
HETATM    8  C   UNL     1      -8.648   4.974  64.631  1.00  0.00    -0.150 A  
BRANCH   5   9
HETATM    9  N   UNL     1     -10.398   5.387  68.499  1.00  0.00    -0.171 NA 
HETATM   10  H   UNL     1     -10.985   4.589  68.742  1.00  0.00     0.000 HD 
BRANCH   9  11
HETATM   11  C   UNL     1     -10.344   6.354  69.503  1.00  0.00    -0.208 A  
HETATM   12  N   UNL     1      -9.331   6.188  70.365  1.00  0.00    -0.160 NA 
HETATM   13  N   UNL     1     -11.232   7.366  69.597  1.00  0.00    -0.114 NA 
HETATM   14  C   UNL     1     -11.108   8.263  70.610  1.00  0.00    -0.253 A  
HETATM   15  F   UNL     1      -9.827   9.086  72.455  1.00  0.00    -0.351 F  
HETATM   16  C   UNL     1      -9.206   7.111  71.343  1.00  0.00    -0.150 A  
HETATM   17  C   UNL     1     -10.048   8.187  71.487  1.00  0.00    -0.188 A  
BRANCH  14  18
HETATM   18  N   UNL     1     -12.073   9.284  70.632  1.00  0.00    -0.469 NA 
HETATM   19  H   UNL     1     -12.997   8.976  70.937  1.00  0.00     0.000 HD 
BRANCH  18  20
HETATM   20  C   UNL     1     -12.001  10.658  70.310  1.00  0.00    -0.339 A  
HETATM   21  N   UNL     1     -11.357  11.116  69.215  1.00  0.00    -0.254 NA 
HETATM   22  C   UNL     1     -11.392  12.451  68.921  1.00  0.00    -0.294 A  
HETATM   23  C   UNL     1     -11.994  13.381  69.765  1.00  0.00    -0.330 A  
HETATM   24  O   UNL     1     -11.959  14.738  69.572  1.00  0.00    -0.295 OA 
HETATM   25  C   UNL     1     -12.650  12.916  70.893  1.00  0.00    -0.355 A  
HETATM   26  C   UNL     1     -10.917  15.157  68.694  1.00  0.00    -0.255 C  
HETATM   27  C   UNL     1     -12.650  11.549  71.167  1.00  0.00    -0.463 A  
HETATM   28  C   UNL     1     -10.820  14.297  67.425  1.00  0.00    -0.285 C  
HETATM   29  C   UNL     1     -11.161  16.622  68.315  1.00  0.00    -0.295 C  
HETATM   30  C   UNL     1      -9.534  15.055  69.387  1.00  0.00    -0.132 C  
HETATM   31  N   UNL     1     -10.847  12.940  67.703  1.00  0.00    -0.228 N  
HETATM   32  O   UNL     1     -10.557  14.752  66.313  1.00  0.00    -0.291 OA 
BRANCH  31  33
HETATM   33  C   UNL     1     -10.137  12.098  66.799  1.00  0.00    -0.200 C  
BRANCH  33  34
HETATM   34  O   UNL     1      -8.782  12.413  66.834  1.00  0.00    -0.198 OA 
HETATM   35  P   UNL     1      -7.946  11.301  67.864  1.00  0.00    -0.132 P  
HETATM   36  O   UNL     1      -7.175  12.650  68.368  1.00  0.00    -0.097 OA 
HETATM   37  O   UNL     1      -7.031  11.016  66.543  1.00  0.00    -0.130 OA 
HETATM   38  O   UNL     1      -7.199  10.306  68.785  1.00  0.00    -0.076 OA 
ENDBRANCH  33  34
ENDBRANCH  31  33
ENDBRANCH  18  20
ENDBRANCH  14  18
ENDBRANCH   9  11
ENDBRANCH   5   9
BRANCH   7  39
HETATM   39  O   UNL     1      -9.172   2.541  64.952  1.00  0.00    -0.134 OA 
HETATM   40  C   UNL     1      -8.245   1.635  65.528  1.00  0.00    -0.079 C  
ENDBRANCH   7  39
BRANCH   8  41
HETATM   41  O   UNL     1      -8.217   4.732  63.359  1.00  0.00    -0.094 OA 
HETATM   42  C   UNL     1      -6.883   4.374  63.042  1.00  0.00    -0.038 C  
ENDBRANCH   8  41
ENDBRANCH   2   3
TORSDOF 9
ENDMDL
MODEL      133
REMARK 921   NORMALIZED FREE ENERGY PREDICTED BY IDOCK:   -5.31 KCAL/MOL
REMARK 922        TOTAL FREE ENERGY PREDICTED BY IDOCK:   -9.97 KCAL/MOL
REMARK 923 INTER-LIGAND FREE ENERGY PREDICTED BY IDOCK:   -9.45 KCAL/MOL
REMARK 924 INTRA-LIGAND FREE ENERGY PREDICTED BY IDOCK:   -0.52 KCAL/MOL
REMARK 927      BINDING AFFINITY PREDICTED BY RF-SCORE:    0.00 PKD
ROOT
HETATM    1  C   UNL     1      -5.510  18.396  71.055  1.00  0.00    -0.157 C  
HETATM    2  O   UNL     1      -5.127  17.304  70.215  1.00  0.00    -0.183 OA 
ENDROOT
BRANCH   2   3
HETATM    3  C   UNL     1      -5.758  17.276  68.995  1.00  0.00    -0.166 A  
HETATM    4  C   UNL     1      -6.460  16.121  68.604  1.00  0.00    -0.120 A  
HETATM    5  C   UNL     1      -7.029  15.982  67.345  1.00  0.00    -0.190 A  
HETATM    6  C   UNL     1      -6.904  17.074  66.482  1.00  0.00    -0.281 A  
HETATM    7  C   UNL     1      -6.269  18.270  66.855  1.00  0.00    -0.172 A  
HETATM    8  C   UNL     1      -5.712  18.400  68.145  1.00  0.00    -0.176 A  
BRANCH   5   9
HETATM    9  N   UNL     1      -7.679  14.820  66.915  1.00  0.00    -0.296 NA 
HETATM   10  H   UNL     1      -7.046  14.032  66.782  1.00  0.00     0.000 HD 
BRANCH   9  11
HETATM   11  C   UNL     1      -9.009  14.512  66.629  1.00  0.00    -0.219 A  
HETATM   12  N   UNL     1      -9.646  15.451  65.916  1.00  0.00    -0.343 NA 
HETATM   13  N   UNL     1      -9.601  13.367  67.033  1.00  0.00    -0.236 NA 
HETATM   14  C   UNL     1     -10.903  13.148  66.714  1.00  0.00    -0.276 A  
HETATM   15  F   UNL     1     -12.849  13.845  65.511  1.00  0.00    -0.492 F  
HETATM   16  C   UNL     1     -10.928  15.196  65.581  1.00  0.00    -0.355 A  
HETATM   17  C   UNL     1     -11.592  14.043  65.926  1.00  0.00    -0.347 A  
BRANCH  14  18
HETATM   18  N   UNL     1     -11.439  11.933  67.174  1.00  0.00    -0.432 NA 
HETATM   19  H   UNL     1     -12.422  11.987  67.440  1.00  0.00     0.000 HD 
BRANCH  18  20
HETATM   20  C   UNL     1     -10.867  10.650  67.335  1.00  0.00    -0.296 A  
HETATM   21  N   UNL     1     -10.786  10.035  68.534  1.00  0.00    -0.221 NA 
HETATM   22  C   UNL     1     -10.292   8.761  68.607  1.00  0.00    -0.205 A  
HETATM   23  C   UNL     1      -9.776   8.101  67.494  1.00  0.00    -0.161 A  
HETATM   24  O   UNL     1      -9.170   6.872  67.536  1.00  0.00    -0.123 OA 
HETATM   25  C   UNL     1      -9.852   8.732  66.263  1.00  0.00    -0.342 A  
HETATM   26  C   UNL     1      -8.724   6.507  68.840  1.00  0.00    -0.127 C  
HETATM   27  C   UNL     1     -10.396  10.013  66.185  1.00  0.00    -0.225 A  
HETATM   28  C   UNL     1      -9.772   6.774  69.929  1.00  0.00    -0.158 C  
HETATM   29  C   UNL     1      -8.350   5.021  68.826  1.00  0.00    -0.084 C  
HETATM   30  C   UNL     1      -7.469   7.322  69.244  1.00  0.00    -0.096 C  
HETATM   31  N   UNL     1     -10.328   8.038  69.830  1.00  0.00    -0.215 N  
HETATM   32  O   UNL     1      -9.960   6.029  70.890  1.00  0.00    -0.180 OA 
BRANCH  31  33
HETATM   33  C   UNL     1     -10.758   8.635  71.050  1.00  0.00    -0.228 C  
BRANCH  33  34
HETATM   34  O   UNL     1     -12.135   8.488  71.181  1.00  0.00    -0.288 OA 
HETATM   35  P   UNL     1     -12.852  10.007  71.601  1.00  0.00    -0.476 P  
HETATM   36  O   UNL     1     -13.737   9.085  72.620  1.00  0.00    -0.470 OA 
HETATM   37  O   UNL     1     -13.755   9.768  70.263  1.00  0.00     0.251 OA 
HETATM   38  O   UNL     1     -13.492  11.365  71.977  1.00  0.00    -0.393 OA 
ENDBRANCH  33  34
ENDBRANCH  31  33
ENDBRANCH  18  20
ENDBRANCH  14  18
ENDBRANCH   9  11
ENDBRANCH   5   9
BRANCH   7  39
HETATM   39  O   UNL     1      -6.242  19.170  65.817  1.00  0.00    -0.189 OA 
HETATM   40  C   UNL     1      -7.410  19.896  65.470  1.00  0.00    -0.247 C  
ENDBRANCH   7  39
BRANCH   8  41
HETATM   41  O   UNL     1      -5.209  19.630  68.457  1.00  0.00    -0.189 OA 
HETATM   42  C   UNL     1      -6.020  20.742  68.793  1.00  0.00    -0.341 C  
ENDBRANCH   8  41
ENDBRANCH   2   3
TORSDOF 9
ENDMDL
MODEL      134
REMARK 921   NORMALIZED FREE ENERGY PREDICTED BY IDOCK:   -5.28 KCAL/MOL
REMARK 922        TOTAL FREE ENERGY PREDICTED BY IDOCK:   -9.92 KCAL/MOL
REMARK 923 INTER-LIGAND FREE ENERGY PREDICTED BY IDOCK:   -8.79 KCAL/MOL
REMARK 924 INTRA-LIGAND FREE ENERGY PREDICTED BY IDOCK:   -1.12 KCAL/MOL
REMARK 927      BINDING AFFINITY PREDICTED BY RF-SCORE:    0.00 PKD
ROOT
HETATM    1  C   UNL     1      -6.478   6.245  71.787  1.00  0.00    -0.050 C  
HETATM    2  O   UNL     1      -6.923   4.936  72.151  1.00  0.00    -0.060 OA 
ENDROOT
BRANCH   2   3
HETATM    3  C   UNL     1      -8.221   4.880  72.599  1.00  0.00    -0.115 A  
HETATM    4  C   UNL     1      -8.978   6.063  72.680  1.00  0.00    -0.127 A  
HETATM    5  C   UNL     1     -10.256   6.098  73.223  1.00  0.00    -0.209 A  
HETATM    6  C   UNL     1     -10.780   4.877  73.657  1.00  0.00    -0.352 A  
HETATM    7  C   UNL     1     -10.085   3.663  73.533  1.00  0.00    -0.130 A  
HETATM    8  C   UNL     1      -8.794   3.645  72.963  1.00  0.00    -0.093 A  
BRANCH   5   9
HETATM    9  N   UNL     1     -11.002   7.272  73.368  1.00  0.00    -0.558 NA 
HETATM   10  H   UNL     1     -11.168   7.524  74.342  1.00  0.00     0.000 HD 
BRANCH   9  11
HETATM   11  C   UNL     1     -11.566   8.172  72.464  1.00  0.00    -0.404 A  
HETATM   12  N   UNL     1     -12.897   8.061  72.343  1.00  0.00    -0.170 NA 
HETATM   13  N   UNL     1     -10.837   9.074  71.773  1.00  0.00    -0.357 NA 
HETATM   14  C   UNL     1     -11.468   9.910  70.908  1.00  0.00    -0.376 A  
HETATM   15  F   UNL     1     -13.525  10.746  70.018  1.00  0.00    -0.106 F  
HETATM   16  C   UNL     1     -13.506   8.926  71.505  1.00  0.00    -0.332 A  
HETATM   17  C   UNL     1     -12.840   9.893  70.791  1.00  0.00    -0.216 A  
BRANCH  14  18
HETATM   18  N   UNL     1     -10.634  10.817  70.232  1.00  0.00    -0.389 NA 
HETATM   19  H   UNL     1     -10.560  11.729  70.682  1.00  0.00     0.000 HD 
BRANCH  18  20
HETATM   20  C   UNL     1      -9.878  10.697  69.043  1.00  0.00    -0.205 A  
HETATM   21  N   UNL     1     -10.424  10.846  67.817  1.00  0.00    -0.192 NA 
HETATM   22  C   UNL     1      -9.620  10.795  66.710  1.00  0.00    -0.172 A  
HETATM   23  C   UNL     1      -8.261  10.501  66.794  1.00  0.00    -0.126 A  
HETATM   24  O   UNL     1      -7.439  10.329  65.710  1.00  0.00    -0.131 OA 
HETATM   25  C   UNL     1      -7.700  10.342  68.050  1.00  0.00    -0.092 A  
HETATM   26  C   UNL     1      -8.146  10.053  64.503  1.00  0.00    -0.156 C  
HETATM   27  C   UNL     1      -8.513  10.437  69.178  1.00  0.00    -0.168 A  
HETATM   28  C   UNL     1      -9.352  10.979  64.289  1.00  0.00    -0.205 C  
HETATM   29  C   UNL     1      -7.171  10.184  63.328  1.00  0.00    -0.129 C  
HETATM   30  C   UNL     1      -8.711   8.609  64.510  1.00  0.00    -0.034 C  
HETATM   31  N   UNL     1     -10.142  11.090  65.421  1.00  0.00    -0.255 N  
HETATM   32  O   UNL     1      -9.686  11.418  63.189  1.00  0.00    -0.345 OA 
BRANCH  31  33
HETATM   33  C   UNL     1     -11.530  11.326  65.201  1.00  0.00     0.183 C  
BRANCH  33  34
HETATM   34  O   UNL     1     -11.951  12.394  65.987  1.00  0.00    -0.537 OA 
HETATM   35  P   UNL     1     -11.656  13.885  65.158  1.00  0.00    -0.375 P  
HETATM   36  O   UNL     1     -11.170  14.384  66.637  1.00  0.00    -0.321 OA 
HETATM   37  O   UNL     1     -13.256  14.132  65.370  1.00  0.00    -0.741 OA 
HETATM   38  O   UNL     1     -11.393  15.218  64.418  1.00  0.00    -0.315 OA 
ENDBRANCH  33  34
ENDBRANCH  31  33
ENDBRANCH  18  20
ENDBRANCH  14  18
ENDBRANCH   9  11
ENDBRANCH   5   9
BRANCH   7  39
HETATM   39  O   UNL     1     -10.798   2.619  74.071  1.00  0.00    -0.173 OA 
HETATM   40  C   UNL     1     -11.380   1.640  73.225  1.00  0.00    -0.175 C  
ENDBRANCH   7  39
BRANCH   8  41
HETATM   41  O   UNL     1      -8.237   2.411  72.787  1.00  0.00    -0.057 OA 
HETATM   42  C   UNL     1      -7.371   1.805  73.730  1.00  0.00    -0.028 C  
ENDBRANCH   8  41
ENDBRANCH   2   3
TORSDOF 9
ENDMDL
MODEL      135
REMARK 921   NORMALIZED FREE ENERGY PREDICTED BY IDOCK:   -5.26 KCAL/MOL
REMARK 922        TOTAL FREE ENERGY PREDICTED BY IDOCK:   -9.90 KCAL/MOL
REMARK 923 INTER-LIGAND FREE ENERGY PREDICTED BY IDOCK:   -8.54 KCAL/MOL
REMARK 924 INTRA-LIGAND FREE ENERGY PREDICTED BY IDOCK:   -1.36 KCAL/MOL
REMARK 927      BINDING AFFINITY PREDICTED BY RF-SCORE:    0.00 PKD
ROOT
HETATM    1  C   UNL     1      -5.919   6.717  71.898  1.00  0.00    -0.038 C  
HETATM    2  O   UNL     1      -6.440   5.425  71.577  1.00  0.00    -0.036 OA 
ENDROOT
BRANCH   2   3
HETATM    3  C   UNL     1      -7.648   5.136  72.162  1.00  0.00    -0.098 A  
HETATM    4  C   UNL     1      -8.522   6.185  72.501  1.00  0.00    -0.118 A  
HETATM    5  C   UNL     1      -9.710   5.977  73.191  1.00  0.00    -0.162 A  
HETATM    6  C   UNL     1     -10.021   4.652  73.506  1.00  0.00    -0.181 A  
HETATM    7  C   UNL     1      -9.210   3.569  73.129  1.00  0.00    -0.098 A  
HETATM    8  C   UNL     1      -8.015   3.799  72.413  1.00  0.00    -0.073 A  
BRANCH   5   9
HETATM    9  N   UNL     1     -10.563   7.011  73.590  1.00  0.00    -0.448 NA 
HETATM   10  H   UNL     1     -10.646   7.096  74.602  1.00  0.00     0.000 HD 
BRANCH   9  11
HETATM   11  C   UNL     1     -11.326   7.951  72.896  1.00  0.00    -0.337 A  
HETATM   12  N   UNL     1     -12.648   7.817  73.070  1.00  0.00     0.382 NA 
HETATM   13  N   UNL     1     -10.779   8.911  72.120  1.00  0.00    -0.321 NA 
HETATM   14  C   UNL     1     -11.596   9.784  71.475  1.00  0.00    -0.353 A  
HETATM   15  F   UNL     1     -13.808  10.624  71.125  1.00  0.00    -0.092 F  
HETATM   16  C   UNL     1     -13.438   8.717  72.448  1.00  0.00    -0.401 A  
HETATM   17  C   UNL     1     -12.959   9.742  71.668  1.00  0.00    -0.419 A  
BRANCH  14  18
HETATM   18  N   UNL     1     -10.944  10.750  70.689  1.00  0.00    -0.310 NA 
HETATM   19  H   UNL     1     -10.438  11.452  71.229  1.00  0.00     0.000 HD 
BRANCH  18  20
HETATM   20  C   UNL     1     -10.861  10.929  69.290  1.00  0.00    -0.241 A  
HETATM   21  N   UNL     1     -11.148  12.103  68.688  1.00  0.00    -0.235 NA 
HETATM   22  C   UNL     1     -10.971  12.229  67.337  1.00  0.00    -0.253 A  
HETATM   23  C   UNL     1     -10.591  11.155  66.535  1.00  0.00    -0.262 A  
HETATM   24  O   UNL     1     -10.509  11.202  65.167  1.00  0.00    -0.276 OA 
HETATM   25  C   UNL     1     -10.302   9.947  67.149  1.00  0.00    -0.304 A  
HETATM   26  C   UNL     1     -11.240  12.284  64.594  1.00  0.00    -0.315 C  
HETATM   27  C   UNL     1     -10.442   9.834  68.531  1.00  0.00    -0.239 A  
HETATM   28  C   UNL     1     -11.012  13.615  65.325  1.00  0.00    -0.310 C  
HETATM   29  C   UNL     1     -10.834  12.419  63.123  1.00  0.00    -0.090 C  
HETATM   30  C   UNL     1     -12.766  12.016  64.657  1.00  0.00    -0.006 C  
HETATM   31  N   UNL     1     -11.126  13.490  66.700  1.00  0.00    -0.295 N  
HETATM   32  O   UNL     1     -10.929  14.700  64.752  1.00  0.00    -0.392 OA 
BRANCH  31  33
HETATM   33  C   UNL     1     -11.588  14.641  67.401  1.00  0.00    -0.389 C  
BRANCH  33  34
HETATM   34  O   UNL     1     -10.527  15.230  68.082  1.00  0.00    -0.239 OA 
HETATM   35  P   UNL     1     -10.508  16.934  67.780  1.00  0.00    -0.326 P  
HETATM   36  O   UNL     1      -8.895  16.696  67.659  1.00  0.00    -0.198 OA 
HETATM   37  O   UNL     1     -10.580  17.059  69.406  1.00  0.00    -0.335 OA 
HETATM   38  O   UNL     1     -10.490  18.458  67.510  1.00  0.00    -0.384 OA 
ENDBRANCH  33  34
ENDBRANCH  31  33
ENDBRANCH  18  20
ENDBRANCH  14  18
ENDBRANCH   9  11
ENDBRANCH   5   9
BRANCH   7  39
HETATM   39  O   UNL     1      -9.713   2.378  73.594  1.00  0.00    -0.088 OA 
HETATM   40  C   UNL     1     -11.102   2.240  73.848  1.00  0.00    -0.182 C  
ENDBRANCH   7  39
BRANCH   8  41
HETATM   41  O   UNL     1      -7.345   2.684  71.998  1.00  0.00    -0.041 OA 
HETATM   42  C   UNL     1      -7.420   2.175  70.678  1.00  0.00    -0.033 C  
ENDBRANCH   8  41
ENDBRANCH   2   3
TORSDOF 9
ENDMDL
MODEL      136
REMARK 921   NORMALIZED FREE ENERGY PREDICTED BY IDOCK:   -5.26 KCAL/MOL
REMARK 922        TOTAL FREE ENERGY PREDICTED BY IDOCK:   -9.90 KCAL/MOL
REMARK 923 INTER-LIGAND FREE ENERGY PREDICTED BY IDOCK:   -8.84 KCAL/MOL
REMARK 924 INTRA-LIGAND FREE ENERGY PREDICTED BY IDOCK:   -1.05 KCAL/MOL
REMARK 927      BINDING AFFINITY PREDICTED BY RF-SCORE:    0.00 PKD
ROOT
HETATM    1  C   UNL     1     -10.051   4.526  71.693  1.00  0.00    -0.179 C  
HETATM    2  O   UNL     1      -9.640   3.796  70.534  1.00  0.00    -0.171 OA 
ENDROOT
BRANCH   2   3
HETATM    3  C   UNL     1      -9.837   4.456  69.346  1.00  0.00    -0.168 A  
HETATM    4  C   UNL     1     -10.172   5.822  69.360  1.00  0.00    -0.301 A  
HETATM    5  C   UNL     1     -10.490   6.526  68.205  1.00  0.00    -0.219 A  
HETATM    6  C   UNL     1     -10.425   5.814  67.005  1.00  0.00    -0.342 A  
HETATM    7  C   UNL     1     -10.030   4.467  66.939  1.00  0.00    -0.198 A  
HETATM    8  C   UNL     1      -9.694   3.773  68.121  1.00  0.00    -0.046 A  
BRANCH   5   9
HETATM    9  N   UNL     1     -10.884   7.869  68.203  1.00  0.00    -0.441 NA 
HETATM   10  H   UNL     1     -11.771   8.028  68.678  1.00  0.00     0.000 HD 
BRANCH   9  11
HETATM   11  C   UNL     1     -10.320   9.036  67.687  1.00  0.00    -0.257 A  
HETATM   12  N   UNL     1     -10.554   9.224  66.380  1.00  0.00    -0.074 NA 
HETATM   13  N   UNL     1      -9.604   9.900  68.438  1.00  0.00    -0.146 NA 
HETATM   14  C   UNL     1      -9.086  11.011  67.854  1.00  0.00    -0.147 A  
HETATM   15  F   UNL     1      -8.935  12.414  65.922  1.00  0.00    -0.132 F  
HETATM   16  C   UNL     1     -10.060  10.352  65.829  1.00  0.00    -0.262 A  
HETATM   17  C   UNL     1      -9.349  11.296  66.532  1.00  0.00    -0.185 A  
BRANCH  14  18
HETATM   18  N   UNL     1      -8.356  11.855  68.708  1.00  0.00    -0.346 NA 
HETATM   19  H   UNL     1      -7.906  11.371  69.485  1.00  0.00     0.000 HD 
BRANCH  18  20
HETATM   20  C   UNL     1      -8.129  13.250  68.688  1.00  0.00    -0.028 A  
HETATM   21  N   UNL     1      -9.126  14.147  68.524  1.00  0.00    -0.192 NA 
HETATM   22  C   UNL     1      -8.847  15.484  68.593  1.00  0.00    -0.193 A  
HETATM   23  C   UNL     1      -7.548  15.965  68.736  1.00  0.00    -0.178 A  
HETATM   24  O   UNL     1      -7.206  17.293  68.699  1.00  0.00    -0.210 OA 
HETATM   25  C   UNL     1      -6.523  15.048  68.899  1.00  0.00    -0.091 A  
HETATM   26  C   UNL     1      -8.197  18.114  68.086  1.00  0.00    -0.276 C  
HETATM   27  C   UNL     1      -6.815  13.686  68.871  1.00  0.00    -0.110 A  
HETATM   28  C   UNL     1      -9.620  17.802  68.573  1.00  0.00    -0.322 C  
HETATM   29  C   UNL     1      -7.856  19.581  68.372  1.00  0.00    -0.374 C  
HETATM   30  C   UNL     1      -8.215  17.908  66.550  1.00  0.00    -0.298 C  
HETATM   31  N   UNL     1      -9.895  16.445  68.568  1.00  0.00    -0.224 N  
HETATM   32  O   UNL     1     -10.478  18.663  68.762  1.00  0.00    -0.245 OA 
BRANCH  31  33
HETATM   33  C   UNL     1     -11.254  16.078  68.346  1.00  0.00    -0.364 C  
BRANCH  33  34
HETATM   34  O   UNL     1     -12.013  16.401  69.467  1.00  0.00    -0.028 OA 
HETATM   35  P   UNL     1     -12.188  15.008  70.479  1.00  0.00    -0.399 P  
HETATM   36  O   UNL     1     -13.727  15.540  70.611  1.00  0.00    -0.397 OA 
HETATM   37  O   UNL     1     -11.535  15.963  71.631  1.00  0.00    -0.407 OA 
HETATM   38  O   UNL     1     -12.344  13.763  71.385  1.00  0.00    -0.333 OA 
ENDBRANCH  33  34
ENDBRANCH  31  33
ENDBRANCH  18  20
ENDBRANCH  14  18
ENDBRANCH   9  11
ENDBRANCH   5   9
BRANCH   7  39
HETATM   39  O   UNL     1     -10.089   3.989  65.653  1.00  0.00    -0.184 OA 
HETATM   40  C   UNL     1      -9.035   4.258  64.742  1.00  0.00    -0.145 C  
ENDBRANCH   7  39
BRANCH   8  41
HETATM   41  O   UNL     1      -9.223   2.503  67.953  1.00  0.00    -0.172 OA 
HETATM   42  C   UNL     1      -7.856   2.200  67.738  1.00  0.00    -0.059 C  
ENDBRANCH   8  41
ENDBRANCH   2   3
TORSDOF 9
ENDMDL
MODEL      137
REMARK 921   NORMALIZED FREE ENERGY PREDICTED BY IDOCK:   -5.24 KCAL/MOL
REMARK 922        TOTAL FREE ENERGY PREDICTED BY IDOCK:   -9.86 KCAL/MOL
REMARK 923 INTER-LIGAND FREE ENERGY PREDICTED BY IDOCK:   -8.58 KCAL/MOL
REMARK 924 INTRA-LIGAND FREE ENERGY PREDICTED BY IDOCK:   -1.27 KCAL/MOL
REMARK 927      BINDING AFFINITY PREDICTED BY RF-SCORE:    0.00 PKD
ROOT
HETATM    1  C   UNL     1      -7.365   6.019  69.974  1.00  0.00    -0.075 C  
HETATM    2  O   UNL     1      -6.676   6.349  68.765  1.00  0.00    -0.056 OA 
ENDROOT
BRANCH   2   3
HETATM    3  C   UNL     1      -7.449   6.986  67.825  1.00  0.00    -0.098 A  
HETATM    4  C   UNL     1      -8.557   7.748  68.240  1.00  0.00    -0.124 A  
HETATM    5  C   UNL     1      -9.443   8.330  67.342  1.00  0.00    -0.151 A  
HETATM    6  C   UNL     1      -9.159   8.152  65.985  1.00  0.00    -0.218 A  
HETATM    7  C   UNL     1      -8.028   7.456  65.529  1.00  0.00    -0.122 A  
HETATM    8  C   UNL     1      -7.129   6.887  66.456  1.00  0.00    -0.067 A  
BRANCH   5   9
HETATM    9  N   UNL     1     -10.583   9.040  67.732  1.00  0.00    -0.378 NA 
HETATM   10  H   UNL     1     -11.108   9.421  66.945  1.00  0.00     0.000 HD 
BRANCH   9  11
HETATM   11  C   UNL     1     -11.155   9.338  68.969  1.00  0.00     0.052 A  
HETATM   12  N   UNL     1     -11.247   8.285  69.795  1.00  0.00    -0.053 NA 
HETATM   13  N   UNL     1     -11.575  10.576  69.305  1.00  0.00    -0.256 NA 
HETATM   14  C   UNL     1     -12.125  10.777  70.531  1.00  0.00    -0.366 A  
HETATM   15  F   UNL     1     -12.640   9.908  72.699  1.00  0.00    -0.281 F  
HETATM   16  C   UNL     1     -11.764   8.516  71.020  1.00  0.00    -0.275 A  
HETATM   17  C   UNL     1     -12.185   9.752  71.449  1.00  0.00    -0.397 A  
BRANCH  14  18
HETATM   18  N   UNL     1     -12.535  12.095  70.798  1.00  0.00    -0.325 NA 
HETATM   19  H   UNL     1     -13.238  12.170  71.533  1.00  0.00     0.000 HD 
BRANCH  18  20
HETATM   20  C   UNL     1     -12.153  13.334  70.235  1.00  0.00    -0.335 A  
HETATM   21  N   UNL     1     -11.458  13.425  69.081  1.00  0.00    -0.283 NA 
HETATM   22  C   UNL     1     -11.189  14.658  68.551  1.00  0.00    -0.271 A  
HETATM   23  C   UNL     1     -11.527  15.838  69.210  1.00  0.00    -0.365 A  
HETATM   24  O   UNL     1     -11.181  17.092  68.777  1.00  0.00    -0.179 OA 
HETATM   25  C   UNL     1     -12.235  15.747  70.397  1.00  0.00    -0.388 A  
HETATM   26  C   UNL     1     -10.101  17.090  67.846  1.00  0.00    -0.306 C  
HETATM   27  C   UNL     1     -12.545  14.490  70.912  1.00  0.00    -0.414 A  
HETATM   28  C   UNL     1     -10.253  16.022  66.754  1.00  0.00    -0.274 C  
HETATM   29  C   UNL     1     -10.008  18.481  67.209  1.00  0.00    -0.350 C  
HETATM   30  C   UNL     1      -8.758  16.788  68.558  1.00  0.00    -0.245 C  
HETATM   31  N   UNL     1     -10.587  14.781  67.270  1.00  0.00    -0.269 N  
HETATM   32  O   UNL     1      -9.929  16.198  65.580  1.00  0.00    -0.386 OA 
BRANCH  31  33
HETATM   33  C   UNL     1     -10.126  13.649  66.538  1.00  0.00    -0.286 C  
BRANCH  33  34
HETATM   34  O   UNL     1      -8.754  13.505  66.716  1.00  0.00    -0.188 OA 
HETATM   35  P   UNL     1      -8.438  12.241  67.855  1.00  0.00    -0.184 P  
HETATM   36  O   UNL     1      -7.316  13.290  68.413  1.00  0.00    -0.097 OA 
HETATM   37  O   UNL     1      -7.544  11.598  66.649  1.00  0.00    -0.130 OA 
HETATM   38  O   UNL     1      -8.156  11.110  68.873  1.00  0.00    -0.144 OA 
ENDBRANCH  33  34
ENDBRANCH  31  33
ENDBRANCH  18  20
ENDBRANCH  14  18
ENDBRANCH   9  11
ENDBRANCH   5   9
BRANCH   7  39
HETATM   39  O   UNL     1      -8.000   7.387  64.157  1.00  0.00    -0.132 OA 
HETATM   40  C   UNL     1      -7.606   8.516  63.393  1.00  0.00    -0.123 C  
ENDBRANCH   7  39
BRANCH   8  41
HETATM   41  O   UNL     1      -6.006   6.319  65.927  1.00  0.00    -0.024 OA 
HETATM   42  C   UNL     1      -5.898   4.940  65.623  1.00  0.00    -0.018 C  
ENDBRANCH   8  41
ENDBRANCH   2   3
TORSDOF 9
ENDMDL
MODEL      138
REMARK 921   NORMALIZED FREE ENERGY PREDICTED BY IDOCK:   -5.23 KCAL/MOL
REMARK 922        TOTAL FREE ENERGY PREDICTED BY IDOCK:   -9.85 KCAL/MOL
REMARK 923 INTER-LIGAND FREE ENERGY PREDICTED BY IDOCK:   -8.41 KCAL/MOL
REMARK 924 INTRA-LIGAND FREE ENERGY PREDICTED BY IDOCK:   -1.45 KCAL/MOL
REMARK 927      BINDING AFFINITY PREDICTED BY RF-SCORE:    0.00 PKD
ROOT
HETATM    1  C   UNL     1     -10.948   5.903  69.331  1.00  0.00    -0.350 C  
HETATM    2  O   UNL     1      -9.644   5.693  69.879  1.00  0.00    -0.150 OA 
ENDROOT
BRANCH   2   3
HETATM    3  C   UNL     1      -8.751   6.705  69.626  1.00  0.00    -0.140 A  
HETATM    4  C   UNL     1      -8.479   7.073  68.295  1.00  0.00    -0.123 A  
HETATM    5  C   UNL     1      -7.510   8.011  67.961  1.00  0.00    -0.097 A  
HETATM    6  C   UNL     1      -6.832   8.610  69.025  1.00  0.00    -0.056 A  
HETATM    7  C   UNL     1      -7.118   8.321  70.370  1.00  0.00    -0.037 A  
HETATM    8  C   UNL     1      -8.118   7.378  70.690  1.00  0.00    -0.110 A  
BRANCH   5   9
HETATM    9  N   UNL     1      -7.182   8.347  66.643  1.00  0.00    -0.077 NA 
HETATM   10  H   UNL     1      -6.218   8.123  66.400  1.00  0.00     0.000 HD 
BRANCH   9  11
HETATM   11  C   UNL     1      -7.895   8.924  65.592  1.00  0.00    -0.096 A  
HETATM   12  N   UNL     1      -7.495   8.523  64.377  1.00  0.00    -0.104 NA 
HETATM   13  N   UNL     1      -8.899   9.806  65.782  1.00  0.00    -0.146 NA 
HETATM   14  C   UNL     1      -9.538  10.323  64.701  1.00  0.00    -0.312 A  
HETATM   15  F   UNL     1      -9.867  10.310  62.331  1.00  0.00    -0.298 F  
HETATM   16  C   UNL     1      -8.167   9.023  63.319  1.00  0.00    -0.181 A  
HETATM   17  C   UNL     1      -9.220   9.899  63.429  1.00  0.00    -0.240 A  
BRANCH  14  18
HETATM   18  N   UNL     1     -10.570  11.233  64.989  1.00  0.00    -0.299 NA 
HETATM   19  H   UNL     1     -11.247  11.345  64.235  1.00  0.00     0.000 HD 
BRANCH  18  20
HETATM   20  C   UNL     1     -10.841  12.021  66.131  1.00  0.00    -0.286 A  
HETATM   21  N   UNL     1     -10.582  13.345  66.179  1.00  0.00    -0.289 NA 
HETATM   22  C   UNL     1     -10.942  14.062  67.288  1.00  0.00    -0.295 A  
HETATM   23  C   UNL     1     -11.486  13.458  68.418  1.00  0.00    -0.316 A  
HETATM   24  O   UNL     1     -11.759  14.114  69.591  1.00  0.00    -0.278 OA 
HETATM   25  C   UNL     1     -11.747  12.098  68.374  1.00  0.00    -0.388 A  
HETATM   26  C   UNL     1     -11.062  15.351  69.721  1.00  0.00    -0.288 C  
HETATM   27  C   UNL     1     -11.419  11.377  67.227  1.00  0.00    -0.301 A  
HETATM   28  C   UNL     1     -11.114  16.206  68.447  1.00  0.00    -0.359 C  
HETATM   29  C   UNL     1     -11.665  16.126  70.897  1.00  0.00    -0.370 C  
HETATM   30  C   UNL     1      -9.558  15.111  70.014  1.00  0.00     0.119 C  
HETATM   31  N   UNL     1     -10.814  15.478  67.308  1.00  0.00    -0.313 N  
HETATM   32  O   UNL     1     -11.222  17.431  68.455  1.00  0.00    -0.124 OA 
BRANCH  31  33
HETATM   33  C   UNL     1     -10.198  16.198  66.244  1.00  0.00    -0.320 C  
BRANCH  33  34
HETATM   34  O   UNL     1      -8.874  16.472  66.571  1.00  0.00    -0.231 OA 
HETATM   35  P   UNL     1      -8.517  18.132  66.236  1.00  0.00    -0.051 P  
HETATM   36  O   UNL     1      -7.121  17.511  65.656  1.00  0.00    -0.367 OA 
HETATM   37  O   UNL     1      -8.084  18.190  67.809  1.00  0.00    -0.232 OA 
HETATM   38  O   UNL     1      -8.197  19.617  65.935  1.00  0.00    -0.380 OA 
ENDBRANCH  33  34
ENDBRANCH  31  33
ENDBRANCH  18  20
ENDBRANCH  14  18
ENDBRANCH   9  11
ENDBRANCH   5   9
BRANCH   7  39
HETATM   39  O   UNL     1      -6.287   9.009  71.220  1.00  0.00    -0.064 OA 
HETATM   40  C   UNL     1      -5.709  10.239  70.814  1.00  0.00    -0.094 C  
ENDBRANCH   7  39
BRANCH   8  41
HETATM   41  O   UNL     1      -8.401   7.237  72.019  1.00  0.00    -0.105 OA 
HETATM   42  C   UNL     1      -9.104   8.208  72.774  1.00  0.00    -0.259 C  
ENDBRANCH   8  41
ENDBRANCH   2   3
TORSDOF 9
ENDMDL
MODEL      139
REMARK 921   NORMALIZED FREE ENERGY PREDICTED BY IDOCK:   -5.21 KCAL/MOL
REMARK 922        TOTAL FREE ENERGY PREDICTED BY IDOCK:   -9.81 KCAL/MOL
REMARK 923 INTER-LIGAND FREE ENERGY PREDICTED BY IDOCK:   -7.99 KCAL/MOL
REMARK 924 INTRA-LIGAND FREE ENERGY PREDICTED BY IDOCK:   -1.82 KCAL/MOL
REMARK 927      BINDING AFFINITY PREDICTED BY RF-SCORE:    0.00 PKD
ROOT
HETATM    1  C   UNL     1     -12.371   7.129  71.578  1.00  0.00    -0.370 C  
HETATM    2  O   UNL     1     -11.281   6.423  72.177  1.00  0.00    -0.251 OA 
ENDROOT
BRANCH   2   3
HETATM    3  C   UNL     1     -10.650   5.536  71.340  1.00  0.00    -0.243 A  
HETATM    4  C   UNL     1     -10.539   5.834  69.969  1.00  0.00    -0.380 A  
HETATM    5  C   UNL     1     -10.011   4.938  69.049  1.00  0.00    -0.167 A  
HETATM    6  C   UNL     1      -9.552   3.720  69.559  1.00  0.00    -0.230 A  
HETATM    7  C   UNL     1      -9.582   3.409  70.928  1.00  0.00    -0.169 A  
HETATM    8  C   UNL     1     -10.107   4.340  71.851  1.00  0.00    -0.167 A  
BRANCH   5   9
HETATM    9  N   UNL     1      -9.948   5.190  67.674  1.00  0.00    -0.161 NA 
HETATM   10  H   UNL     1     -10.750   4.825  67.161  1.00  0.00     0.000 HD 
BRANCH   9  11
HETATM   11  C   UNL     1      -9.019   5.834  66.856  1.00  0.00    -0.114 A  
HETATM   12  N   UNL     1      -7.770   5.361  66.971  1.00  0.00    -0.099 NA 
HETATM   13  N   UNL     1      -9.349   6.842  66.022  1.00  0.00    -0.048 NA 
HETATM   14  C   UNL     1      -8.381   7.417  65.263  1.00  0.00    -0.104 A  
HETATM   15  F   UNL     1      -6.113   7.401  64.502  1.00  0.00    -0.036 F  
HETATM   16  C   UNL     1      -6.830   5.923  66.182  1.00  0.00    -0.061 A  
HETATM   17  C   UNL     1      -7.092   6.931  65.285  1.00  0.00    -0.067 A  
BRANCH  14  18
HETATM   18  N   UNL     1      -8.812   8.458  64.423  1.00  0.00    -0.394 NA 
HETATM   19  H   UNL     1      -8.844   8.209  63.435  1.00  0.00     0.000 HD 
BRANCH  18  20
HETATM   20  C   UNL     1      -9.210   9.787  64.696  1.00  0.00    -0.255 A  
HETATM   21  N   UNL     1      -8.949  10.397  65.872  1.00  0.00    -0.156 NA 
HETATM   22  C   UNL     1      -9.293  11.711  66.041  1.00  0.00    -0.227 A  
HETATM   23  C   UNL     1      -9.993  12.424  65.071  1.00  0.00    -0.197 A  
HETATM   24  O   UNL     1     -10.457  13.704  65.238  1.00  0.00    -0.317 OA 
HETATM   25  C   UNL     1     -10.268  11.799  63.866  1.00  0.00    -0.411 A  
HETATM   26  C   UNL     1     -10.549  14.099  66.604  1.00  0.00    -0.278 C  
HETATM   27  C   UNL     1      -9.877  10.474  63.681  1.00  0.00    -0.354 A  
HETATM   28  C   UNL     1      -9.302  13.727  67.420  1.00  0.00    -0.226 C  
HETATM   29  C   UNL     1     -10.777  15.613  66.658  1.00  0.00    -0.296 C  
HETATM   30  C   UNL     1     -11.742  13.400  67.304  1.00  0.00    -0.424 C  
HETATM   31  N   UNL     1      -8.904  12.417  67.211  1.00  0.00    -0.184 N  
HETATM   32  O   UNL     1      -8.826  14.444  68.299  1.00  0.00    -0.169 OA 
BRANCH  31  33
HETATM   33  C   UNL     1      -8.256  11.774  68.305  1.00  0.00    -0.157 C  
BRANCH  33  34
HETATM   34  O   UNL     1      -9.167  10.965  68.977  1.00  0.00    -0.176 OA 
HETATM   35  P   UNL     1      -8.542   9.357  69.107  1.00  0.00    -0.156 P  
HETATM   36  O   UNL     1     -10.078   8.939  68.737  1.00  0.00    -0.188 OA 
HETATM   37  O   UNL     1      -8.764   9.574  70.710  1.00  0.00    -0.204 OA 
HETATM   38  O   UNL     1      -7.983   7.918  69.224  1.00  0.00    -0.113 OA 
ENDBRANCH  33  34
ENDBRANCH  31  33
ENDBRANCH  18  20
ENDBRANCH  14  18
ENDBRANCH   9  11
ENDBRANCH   5   9
BRANCH   7  39
HETATM   39  O   UNL     1      -9.113   2.140  71.166  1.00  0.00    -0.077 OA 
HETATM   40  C   UNL     1      -8.148   1.562  70.302  1.00  0.00    -0.041 C  
ENDBRANCH   7  39
BRANCH   8  41
HETATM   41  O   UNL     1     -10.001   3.997  73.168  1.00  0.00    -0.131 OA 
HETATM   42  C   UNL     1     -10.964   3.213  73.850  1.00  0.00    -0.190 C  
ENDBRANCH   8  41
ENDBRANCH   2   3
TORSDOF 9
ENDMDL
MODEL      140
REMARK 921   NORMALIZED FREE ENERGY PREDICTED BY IDOCK:   -5.20 KCAL/MOL
REMARK 922        TOTAL FREE ENERGY PREDICTED BY IDOCK:   -9.80 KCAL/MOL
REMARK 923 INTER-LIGAND FREE ENERGY PREDICTED BY IDOCK:   -8.26 KCAL/MOL
REMARK 924 INTRA-LIGAND FREE ENERGY PREDICTED BY IDOCK:   -1.54 KCAL/MOL
REMARK 927      BINDING AFFINITY PREDICTED BY RF-SCORE:    0.00 PKD
ROOT
HETATM    1  C   UNL     1      -9.522   1.668  68.342  1.00  0.00    -0.186 C  
HETATM    2  O   UNL     1      -9.157   1.477  66.973  1.00  0.00    -0.120 OA 
ENDROOT
BRANCH   2   3
HETATM    3  C   UNL     1      -9.000   2.639  66.258  1.00  0.00    -0.137 A  
HETATM    4  C   UNL     1      -9.643   3.813  66.693  1.00  0.00    -0.197 A  
HETATM    5  C   UNL     1      -9.617   4.995  65.964  1.00  0.00    -0.168 A  
HETATM    6  C   UNL     1      -8.880   4.976  64.777  1.00  0.00    -0.128 A  
HETATM    7  C   UNL     1      -8.169   3.847  64.339  1.00  0.00    -0.090 A  
HETATM    8  C   UNL     1      -8.193   2.660  65.103  1.00  0.00    -0.091 A  
BRANCH   5   9
HETATM    9  N   UNL     1     -10.298   6.155  66.348  1.00  0.00    -0.430 NA 
HETATM   10  H   UNL     1     -11.047   6.412  65.706  1.00  0.00     0.000 HD 
BRANCH   9  11
HETATM   11  C   UNL     1     -10.170   7.034  67.423  1.00  0.00    -0.215 A  
HETATM   12  N   UNL     1     -11.055   6.825  68.408  1.00  0.00    -0.181 NA 
HETATM   13  N   UNL     1      -9.236   8.008  67.469  1.00  0.00    -0.136 NA 
HETATM   14  C   UNL     1      -9.184   8.824  68.553  1.00  0.00    -0.141 A  
HETATM   15  F   UNL     1      -9.963   9.335  70.756  1.00  0.00    -0.249 F  
HETATM   16  C   UNL     1     -10.962   7.625  69.491  1.00  0.00    -0.097 A  
HETATM   17  C   UNL     1     -10.021   8.617  69.628  1.00  0.00    -0.191 A  
BRANCH  14  18
HETATM   18  N   UNL     1      -8.182   9.809  68.518  1.00  0.00    -0.104 NA 
HETATM   19  H   UNL     1      -7.234   9.436  68.471  1.00  0.00     0.000 HD 
BRANCH  18  20
HETATM   20  C   UNL     1      -8.246  11.221  68.535  1.00  0.00    -0.150 A  
HETATM   21  N   UNL     1      -9.354  11.903  68.173  1.00  0.00    -0.187 NA 
HETATM   22  C   UNL     1      -9.374  13.266  68.288  1.00  0.00    -0.205 A  
HETATM   23  C   UNL     1      -8.253  13.994  68.681  1.00  0.00    -0.103 A  
HETATM   24  O   UNL     1      -8.189  15.364  68.704  1.00  0.00    -0.141 OA 
HETATM   25  C   UNL     1      -7.113  13.298  69.047  1.00  0.00    -0.044 A  
HETATM   26  C   UNL     1      -9.189  15.989  67.904  1.00  0.00    -0.196 C  
HETATM   27  C   UNL     1      -7.110  11.906  68.969  1.00  0.00    -0.092 A  
HETATM   28  C   UNL     1     -10.585  15.380  68.104  1.00  0.00    -0.263 C  
HETATM   29  C   UNL     1      -9.218  17.484  68.243  1.00  0.00    -0.277 C  
HETATM   30  C   UNL     1      -8.867  15.837  66.395  1.00  0.00    -0.371 C  
HETATM   31  N   UNL     1     -10.570  13.997  68.052  1.00  0.00    -0.243 N  
HETATM   32  O   UNL     1     -11.621  16.043  68.116  1.00  0.00    -0.308 OA 
BRANCH  31  33
HETATM   33  C   UNL     1     -11.756  13.371  67.570  1.00  0.00    -0.366 C  
BRANCH  33  34
HETATM   34  O   UNL     1     -11.964  13.727  66.241  1.00  0.00    -0.381 OA 
HETATM   35  P   UNL     1     -11.536  12.407  65.206  1.00  0.00    -0.352 P  
HETATM   36  O   UNL     1     -10.868  13.591  64.299  1.00  0.00    -0.391 OA 
HETATM   37  O   UNL     1     -13.065  12.556  64.653  1.00  0.00    -0.845 OA 
HETATM   38  O   UNL     1     -11.153  11.227  64.280  1.00  0.00    -0.333 OA 
ENDBRANCH  33  34
ENDBRANCH  31  33
ENDBRANCH  18  20
ENDBRANCH  14  18
ENDBRANCH   9  11
ENDBRANCH   5   9
BRANCH   7  39
HETATM   39  O   UNL     1      -7.563   4.073  63.127  1.00  0.00    -0.056 OA 
HETATM   40  C   UNL     1      -6.686   5.174  62.961  1.00  0.00    -0.026 C  
ENDBRANCH   7  39
BRANCH   8  41
HETATM   41  O   UNL     1      -7.392   1.648  64.657  1.00  0.00    -0.050 OA 
HETATM   42  C   UNL     1      -6.044   1.486  65.061  1.00  0.00    -0.017 C  
ENDBRANCH   8  41
ENDBRANCH   2   3
TORSDOF 9
ENDMDL
MODEL      141
REMARK 921   NORMALIZED FREE ENERGY PREDICTED BY IDOCK:   -5.18 KCAL/MOL
REMARK 922        TOTAL FREE ENERGY PREDICTED BY IDOCK:   -9.77 KCAL/MOL
REMARK 923 INTER-LIGAND FREE ENERGY PREDICTED BY IDOCK:   -8.23 KCAL/MOL
REMARK 924 INTRA-LIGAND FREE ENERGY PREDICTED BY IDOCK:   -1.55 KCAL/MOL
REMARK 927      BINDING AFFINITY PREDICTED BY RF-SCORE:    0.00 PKD
ROOT
HETATM    1  C   UNL     1     -11.533  15.166  64.582  1.00  0.00    -0.362 C  
HETATM    2  O   UNL     1     -10.921  16.435  64.828  1.00  0.00    -0.664 OA 
ENDROOT
BRANCH   2   3
HETATM    3  C   UNL     1     -10.389  16.576  66.087  1.00  0.00    -0.334 A  
HETATM    4  C   UNL     1     -10.321  15.459  66.939  1.00  0.00    -0.277 A  
HETATM    5  C   UNL     1      -9.896  15.549  68.259  1.00  0.00    -0.213 A  
HETATM    6  C   UNL     1      -9.497  16.814  68.698  1.00  0.00    -0.255 A  
HETATM    7  C   UNL     1      -9.486  17.942  67.861  1.00  0.00    -0.272 A  
HETATM    8  C   UNL     1      -9.905  17.827  66.518  1.00  0.00    -0.329 A  
BRANCH   5   9
HETATM    9  N   UNL     1      -9.877  14.464  69.140  1.00  0.00    -0.406 NA 
HETATM   10  H   UNL     1      -9.039  14.432  69.721  1.00  0.00     0.000 HD 
BRANCH   9  11
HETATM   11  C   UNL     1     -10.761  13.415  69.394  1.00  0.00     0.120 A  
HETATM   12  N   UNL     1     -11.575  13.628  70.438  1.00  0.00    -0.123 NA 
HETATM   13  N   UNL     1     -10.795  12.287  68.653  1.00  0.00    -0.229 NA 
HETATM   14  C   UNL     1     -11.686  11.312  68.973  1.00  0.00    -0.342 A  
HETATM   15  F   UNL     1     -13.549  10.613  70.300  1.00  0.00    -0.163 F  
HETATM   16  C   UNL     1     -12.476  12.662  70.715  1.00  0.00    -0.270 A  
HETATM   17  C   UNL     1     -12.595  11.500  69.990  1.00  0.00    -0.023 A  
BRANCH  14  18
HETATM   18  N   UNL     1     -11.653  10.173  68.150  1.00  0.00    -0.672 NA 
HETATM   19  H   UNL     1     -12.575   9.834  67.874  1.00  0.00     0.000 HD 
BRANCH  18  20
HETATM   20  C   UNL     1     -10.579   9.412  67.635  1.00  0.00    -0.271 A  
HETATM   21  N   UNL     1      -9.818   8.610  68.411  1.00  0.00    -0.167 NA 
HETATM   22  C   UNL     1      -8.845   7.841  67.834  1.00  0.00    -0.123 A  
HETATM   23  C   UNL     1      -8.542   7.922  66.477  1.00  0.00    -0.142 A  
HETATM   24  O   UNL     1      -7.505   7.257  65.875  1.00  0.00    -0.076 OA 
HETATM   25  C   UNL     1      -9.317   8.748  65.680  1.00  0.00    -0.219 A  
HETATM   26  C   UNL     1      -6.508   6.817  66.793  1.00  0.00    -0.043 C  
HETATM   27  C   UNL     1     -10.337   9.499  66.263  1.00  0.00    -0.226 A  
HETATM   28  C   UNL     1      -7.097   6.147  68.043  1.00  0.00    -0.078 C  
HETATM   29  C   UNL     1      -5.577   5.840  66.066  1.00  0.00    -0.013 C  
HETATM   30  C   UNL     1      -5.661   8.009  67.305  1.00  0.00    -0.037 C  
HETATM   31  N   UNL     1      -8.127   6.884  68.602  1.00  0.00    -0.119 N  
HETATM   32  O   UNL     1      -6.591   5.171  68.594  1.00  0.00    -0.045 OA 
BRANCH  31  33
HETATM   33  C   UNL     1      -8.293   6.766  70.012  1.00  0.00    -0.135 C  
BRANCH  33  34
HETATM   34  O   UNL     1      -7.631   7.812  70.649  1.00  0.00    -0.076 OA 
HETATM   35  P   UNL     1      -6.513   7.180  71.809  1.00  0.00    -0.047 P  
HETATM   36  O   UNL     1      -7.082   8.402  72.732  1.00  0.00    -0.125 OA 
HETATM   37  O   UNL     1      -5.408   8.044  70.974  1.00  0.00    -0.029 OA 
HETATM   38  O   UNL     1      -5.513   6.615  72.846  1.00  0.00    -0.037 OA 
ENDBRANCH  33  34
ENDBRANCH  31  33
ENDBRANCH  18  20
ENDBRANCH  14  18
ENDBRANCH   9  11
ENDBRANCH   5   9
BRANCH   7  39
HETATM   39  O   UNL     1      -9.093  19.070  68.541  1.00  0.00    -0.333 OA 
HETATM   40  C   UNL     1      -7.720  19.300  68.809  1.00  0.00    -0.362 C  
ENDBRANCH   7  39
BRANCH   8  41
HETATM   41  O   UNL     1      -9.764  18.948  65.751  1.00  0.00    -0.437 OA 
HETATM   42  C   UNL     1     -10.757  19.953  65.648  1.00  0.00    -0.272 C  
ENDBRANCH   8  41
ENDBRANCH   2   3
TORSDOF 9
ENDMDL
MODEL      142
REMARK 921   NORMALIZED FREE ENERGY PREDICTED BY IDOCK:   -5.17 KCAL/MOL
REMARK 922        TOTAL FREE ENERGY PREDICTED BY IDOCK:   -9.76 KCAL/MOL
REMARK 923 INTER-LIGAND FREE ENERGY PREDICTED BY IDOCK:   -8.33 KCAL/MOL
REMARK 924 INTRA-LIGAND FREE ENERGY PREDICTED BY IDOCK:   -1.42 KCAL/MOL
REMARK 927      BINDING AFFINITY PREDICTED BY RF-SCORE:    0.00 PKD
ROOT
HETATM    1  C   UNL     1     -10.765  20.068  67.046  1.00  0.00    -0.237 C  
HETATM    2  O   UNL     1      -9.985  19.650  68.169  1.00  0.00    -0.385 OA 
ENDROOT
BRANCH   2   3
HETATM    3  C   UNL     1      -9.156  18.583  67.922  1.00  0.00    -0.290 A  
HETATM    4  C   UNL     1      -9.665  17.450  67.261  1.00  0.00    -0.267 A  
HETATM    5  C   UNL     1      -8.916  16.295  67.074  1.00  0.00    -0.206 A  
HETATM    6  C   UNL     1      -7.601  16.322  67.546  1.00  0.00    -0.170 A  
HETATM    7  C   UNL     1      -7.033  17.456  68.151  1.00  0.00    -0.190 A  
HETATM    8  C   UNL     1      -7.804  18.626  68.317  1.00  0.00    -0.307 A  
BRANCH   5   9
HETATM    9  N   UNL     1      -9.421  15.136  66.473  1.00  0.00    -0.264 NA 
HETATM   10  H   UNL     1      -9.352  15.148  65.456  1.00  0.00     0.000 HD 
BRANCH   9  11
HETATM   11  C   UNL     1      -9.998  13.968  66.971  1.00  0.00    -0.257 A  
HETATM   12  N   UNL     1     -11.200  13.687  66.447  1.00  0.00    -0.304 NA 
HETATM   13  N   UNL     1      -9.399  13.189  67.897  1.00  0.00    -0.207 NA 
HETATM   14  C   UNL     1     -10.034  12.070  68.331  1.00  0.00    -0.208 A  
HETATM   15  F   UNL     1     -11.874  10.557  68.108  1.00  0.00    -0.331 F  
HETATM   16  C   UNL     1     -11.796  12.551  66.867  1.00  0.00    -0.334 A  
HETATM   17  C   UNL     1     -11.239  11.690  67.781  1.00  0.00    -0.268 A  
BRANCH  14  18
HETATM   18  N   UNL     1      -9.340  11.318  69.294  1.00  0.00    -0.398 NA 
HETATM   19  H   UNL     1      -8.657  11.856  69.828  1.00  0.00     0.000 HD 
BRANCH  18  20
HETATM   20  C   UNL     1      -9.414   9.955  69.661  1.00  0.00    -0.231 A  
HETATM   21  N   UNL     1      -8.656   9.003  69.075  1.00  0.00    -0.132 NA 
HETATM   22  C   UNL     1      -8.721   7.715  69.532  1.00  0.00    -0.136 A  
HETATM   23  C   UNL     1      -9.615   7.324  70.526  1.00  0.00    -0.168 A  
HETATM   24  O   UNL     1      -9.796   6.029  70.938  1.00  0.00    -0.178 OA 
HETATM   25  C   UNL     1     -10.398   8.298  71.124  1.00  0.00    -0.247 A  
HETATM   26  C   UNL     1      -9.323   5.066  69.999  1.00  0.00    -0.150 C  
HETATM   27  C   UNL     1     -10.299   9.617  70.686  1.00  0.00    -0.365 A  
HETATM   28  C   UNL     1      -7.933   5.404  69.442  1.00  0.00    -0.089 C  
HETATM   29  C   UNL     1      -9.294   3.695  70.682  1.00  0.00    -0.228 C  
HETATM   30  C   UNL     1     -10.267   4.980  68.772  1.00  0.00    -0.164 C  
HETATM   31  N   UNL     1      -7.833   6.723  69.033  1.00  0.00    -0.109 N  
HETATM   32  O   UNL     1      -7.070   4.559  69.208  1.00  0.00    -0.050 OA 
BRANCH  31  33
HETATM   33  C   UNL     1      -6.930   6.984  67.962  1.00  0.00    -0.083 C  
BRANCH  33  34
HETATM   34  O   UNL     1      -7.587   6.814  66.747  1.00  0.00    -0.087 OA 
HETATM   35  P   UNL     1      -7.182   8.110  65.673  1.00  0.00    -0.073 P  
HETATM   36  O   UNL     1      -8.776   8.052  65.318  1.00  0.00    -0.130 OA 
HETATM   37  O   UNL     1      -6.700   6.914  64.672  1.00  0.00    -0.041 OA 
HETATM   38  O   UNL     1      -6.821   9.269  64.713  1.00  0.00    -0.084 OA 
ENDBRANCH  33  34
ENDBRANCH  31  33
ENDBRANCH  18  20
ENDBRANCH  14  18
ENDBRANCH   9  11
ENDBRANCH   5   9
BRANCH   7  39
HETATM   39  O   UNL     1      -5.745  17.213  68.563  1.00  0.00    -0.137 OA 
HETATM   40  C   UNL     1      -5.497  16.674  69.851  1.00  0.00    -0.189 C  
ENDBRANCH   7  39
BRANCH   8  41
HETATM   41  O   UNL     1      -7.142  19.710  68.819  1.00  0.00    -0.322 OA 
HETATM   42  C   UNL     1      -6.454  20.647  68.010  1.00  0.00    -0.315 C  
ENDBRANCH   8  41
ENDBRANCH   2   3
TORSDOF 9
ENDMDL
MODEL      143
REMARK 921   NORMALIZED FREE ENERGY PREDICTED BY IDOCK:   -5.15 KCAL/MOL
REMARK 922        TOTAL FREE ENERGY PREDICTED BY IDOCK:   -9.73 KCAL/MOL
REMARK 923 INTER-LIGAND FREE ENERGY PREDICTED BY IDOCK:   -7.76 KCAL/MOL
REMARK 924 INTRA-LIGAND FREE ENERGY PREDICTED BY IDOCK:   -1.97 KCAL/MOL
REMARK 927      BINDING AFFINITY PREDICTED BY RF-SCORE:    0.00 PKD
ROOT
HETATM    1  C   UNL     1      -9.800   4.575  66.876  1.00  0.00    -0.213 C  
HETATM    2  O   UNL     1      -9.701   4.084  68.215  1.00  0.00    -0.144 OA 
ENDROOT
BRANCH   2   3
HETATM    3  C   UNL     1      -9.735   5.059  69.182  1.00  0.00    -0.173 A  
HETATM    4  C   UNL     1     -10.342   6.296  68.898  1.00  0.00    -0.246 A  
HETATM    5  C   UNL     1     -10.319   7.363  69.787  1.00  0.00    -0.222 A  
HETATM    6  C   UNL     1      -9.688   7.137  71.013  1.00  0.00    -0.165 A  
HETATM    7  C   UNL     1      -9.128   5.897  71.364  1.00  0.00    -0.140 A  
HETATM    8  C   UNL     1      -9.176   4.819  70.453  1.00  0.00    -0.136 A  
BRANCH   5   9
HETATM    9  N   UNL     1     -10.864   8.619  69.501  1.00  0.00    -0.376 NA 
HETATM   10  H   UNL     1     -10.607   8.967  68.578  1.00  0.00     0.000 HD 
BRANCH   9  11
HETATM   11  C   UNL     1     -11.683   9.497  70.211  1.00  0.00    -0.117 A  
HETATM   12  N   UNL     1     -12.823   8.945  70.650  1.00  0.00     0.251 NA 
HETATM   13  N   UNL     1     -11.356  10.787  70.437  1.00  0.00    -0.293 NA 
HETATM   14  C   UNL     1     -12.215  11.575  71.135  1.00  0.00    -0.182 A  
HETATM   15  F   UNL     1     -14.214  11.752  72.436  1.00  0.00    -0.046 F  
HETATM   16  C   UNL     1     -13.645   9.736  71.372  1.00  0.00    -0.249 A  
HETATM   17  C   UNL     1     -13.369  11.049  71.672  1.00  0.00    -0.243 A  
BRANCH  14  18
HETATM   18  N   UNL     1     -11.796  12.903  71.324  1.00  0.00     0.088 NA 
HETATM   19  H   UNL     1     -11.563  13.131  72.291  1.00  0.00     0.000 HD 
BRANCH  18  20
HETATM   20  C   UNL     1     -11.638  13.980  70.423  1.00  0.00    -0.139 A  
HETATM   21  N   UNL     1     -10.993  13.852  69.243  1.00  0.00    -0.221 NA 
HETATM   22  C   UNL     1     -10.945  14.915  68.382  1.00  0.00    -0.261 A  
HETATM   23  C   UNL     1     -11.459  16.165  68.718  1.00  0.00    -0.340 A  
HETATM   24  O   UNL     1     -11.336  17.286  67.939  1.00  0.00    -0.047 OA 
HETATM   25  C   UNL     1     -12.115  16.301  69.931  1.00  0.00     0.225 A  
HETATM   26  C   UNL     1     -10.292  17.191  66.973  1.00  0.00    -0.308 C  
HETATM   27  C   UNL     1     -12.200  15.204  70.787  1.00  0.00    -0.392 A  
HETATM   28  C   UNL     1     -10.288  15.851  66.224  1.00  0.00    -0.314 C  
HETATM   29  C   UNL     1     -10.445  18.347  65.978  1.00  0.00    -0.400 C  
HETATM   30  C   UNL     1      -8.901  17.308  67.648  1.00  0.00    -0.220 C  
HETATM   31  N   UNL     1     -10.401  14.767  67.078  1.00  0.00    -0.253 N  
HETATM   32  O   UNL     1     -10.025  15.742  65.027  1.00  0.00    -0.386 OA 
BRANCH  31  33
HETATM   33  C   UNL     1      -9.775  13.560  66.650  1.00  0.00    -0.280 C  
BRANCH  33  34
HETATM   34  O   UNL     1     -10.740  12.676  66.178  1.00  0.00    -0.261 OA 
HETATM   35  P   UNL     1     -10.215  11.045  66.427  1.00  0.00    -0.246 P  
HETATM   36  O   UNL     1     -10.824  10.828  64.926  1.00  0.00    -0.191 OA 
HETATM   37  O   UNL     1     -11.618  10.890  67.247  1.00  0.00    -0.475 OA 
HETATM   38  O   UNL     1      -9.746   9.587  66.649  1.00  0.00    -0.181 OA 
ENDBRANCH  33  34
ENDBRANCH  31  33
ENDBRANCH  18  20
ENDBRANCH  14  18
ENDBRANCH   9  11
ENDBRANCH   5   9
BRANCH   7  39
HETATM   39  O   UNL     1      -8.533   5.946  72.601  1.00  0.00    -0.119 OA 
HETATM   40  C   UNL     1      -8.653   7.108  73.406  1.00  0.00    -0.134 C  
ENDBRANCH   7  39
BRANCH   8  41
HETATM   41  O   UNL     1      -8.701   3.626  70.916  1.00  0.00    -0.070 OA 
HETATM   42  C   UNL     1      -9.531   2.615  71.461  1.00  0.00    -0.142 C  
ENDBRANCH   8  41
ENDBRANCH   2   3
TORSDOF 9
ENDMDL
MODEL      144
REMARK 921   NORMALIZED FREE ENERGY PREDICTED BY IDOCK:   -5.12 KCAL/MOL
REMARK 922        TOTAL FREE ENERGY PREDICTED BY IDOCK:   -9.68 KCAL/MOL
REMARK 923 INTER-LIGAND FREE ENERGY PREDICTED BY IDOCK:   -8.47 KCAL/MOL
REMARK 924 INTRA-LIGAND FREE ENERGY PREDICTED BY IDOCK:   -1.20 KCAL/MOL
REMARK 927      BINDING AFFINITY PREDICTED BY RF-SCORE:    0.00 PKD
ROOT
HETATM    1  C   UNL     1      -9.040   3.208  64.350  1.00  0.00    -0.123 C  
HETATM    2  O   UNL     1      -8.323   3.508  65.550  1.00  0.00    -0.100 OA 
ENDROOT
BRANCH   2   3
HETATM    3  C   UNL     1      -8.680   4.694  66.144  1.00  0.00    -0.114 A  
HETATM    4  C   UNL     1      -8.463   5.905  65.459  1.00  0.00    -0.154 A  
HETATM    5  C   UNL     1      -8.699   7.145  66.039  1.00  0.00    -0.147 A  
HETATM    6  C   UNL     1      -9.204   7.136  67.341  1.00  0.00    -0.137 A  
HETATM    7  C   UNL     1      -9.497   5.951  68.036  1.00  0.00    -0.108 A  
HETATM    8  C   UNL     1      -9.268   4.700  67.424  1.00  0.00    -0.131 A  
BRANCH   5   9
HETATM    9  N   UNL     1      -8.434   8.360  65.398  1.00  0.00    -0.170 NA 
HETATM   10  H   UNL     1      -7.761   8.274  64.637  1.00  0.00     0.000 HD 
BRANCH   9  11
HETATM   11  C   UNL     1      -8.895   9.664  65.580  1.00  0.00    -0.172 A  
HETATM   12  N   UNL     1      -9.816  10.046  64.684  1.00  0.00    -0.288 NA 
HETATM   13  N   UNL     1      -8.454  10.468  66.571  1.00  0.00    -0.136 NA 
HETATM   14  C   UNL     1      -8.954  11.726  66.673  1.00  0.00    -0.195 A  
HETATM   15  F   UNL     1     -10.541  13.353  65.927  1.00  0.00    -0.269 F  
HETATM   16  C   UNL     1     -10.324  11.289  64.826  1.00  0.00    -0.307 A  
HETATM   17  C   UNL     1      -9.952  12.155  65.826  1.00  0.00    -0.249 A  
BRANCH  14  18
HETATM   18  N   UNL     1      -8.441  12.494  67.732  1.00  0.00    -0.159 NA 
HETATM   19  H   UNL     1      -8.298  11.969  68.595  1.00  0.00     0.000 HD 
BRANCH  18  20
HETATM   20  C   UNL     1      -8.086  13.859  67.823  1.00  0.00    -0.172 A  
HETATM   21  N   UNL     1      -9.001  14.841  67.971  1.00  0.00    -0.170 NA 
HETATM   22  C   UNL     1      -8.584  16.134  68.130  1.00  0.00    -0.177 A  
HETATM   23  C   UNL     1      -7.241  16.495  68.053  1.00  0.00    -0.143 A  
HETATM   24  O   UNL     1      -6.784  17.787  68.095  1.00  0.00    -0.194 OA 
HETATM   25  C   UNL     1      -6.300  15.491  67.895  1.00  0.00    -0.169 A  
HETATM   26  C   UNL     1      -7.790  18.752  67.797  1.00  0.00    -0.242 C  
HETATM   27  C   UNL     1      -6.725  14.169  67.776  1.00  0.00    -0.190 A  
HETATM   28  C   UNL     1      -9.112  18.485  68.531  1.00  0.00    -0.328 C  
HETATM   29  C   UNL     1      -7.256  20.139  68.168  1.00  0.00    -0.293 C  
HETATM   30  C   UNL     1      -8.131  18.748  66.285  1.00  0.00    -0.270 C  
HETATM   31  N   UNL     1      -9.516  17.164  68.431  1.00  0.00    -0.267 N  
HETATM   32  O   UNL     1      -9.827  19.375  68.990  1.00  0.00    -0.428 OA 
BRANCH  31  33
HETATM   33  C   UNL     1     -10.921  16.931  68.456  1.00  0.00    -0.290 C  
BRANCH  33  34
HETATM   34  O   UNL     1     -11.333  16.711  69.767  1.00  0.00    -0.157 OA 
HETATM   35  P   UNL     1     -12.026  15.131  69.908  1.00  0.00    -0.350 P  
HETATM   36  O   UNL     1     -13.129  15.910  70.828  1.00  0.00    -0.490 OA 
HETATM   37  O   UNL     1     -10.899  14.916  71.068  1.00  0.00    -0.104 OA 
HETATM   38  O   UNL     1     -12.646  13.718  70.033  1.00  0.00    -0.275 OA 
ENDBRANCH  33  34
ENDBRANCH  31  33
ENDBRANCH  18  20
ENDBRANCH  14  18
ENDBRANCH   9  11
ENDBRANCH   5   9
BRANCH   7  39
HETATM   39  O   UNL     1      -9.942   6.212  69.310  1.00  0.00    -0.147 OA 
HETATM   40  C   UNL     1     -11.333   6.245  69.588  1.00  0.00    -0.422 C  
ENDBRANCH   7  39
BRANCH   8  41
HETATM   41  O   UNL     1      -9.678   3.606  68.131  1.00  0.00    -0.137 OA 
HETATM   42  C   UNL     1      -8.815   2.843  68.957  1.00  0.00    -0.098 C  
ENDBRANCH   8  41
ENDBRANCH   2   3
TORSDOF 9
ENDMDL
MODEL      145
REMARK 921   NORMALIZED FREE ENERGY PREDICTED BY IDOCK:   -5.10 KCAL/MOL
REMARK 922        TOTAL FREE ENERGY PREDICTED BY IDOCK:   -9.65 KCAL/MOL
REMARK 923 INTER-LIGAND FREE ENERGY PREDICTED BY IDOCK:   -8.01 KCAL/MOL
REMARK 924 INTRA-LIGAND FREE ENERGY PREDICTED BY IDOCK:   -1.64 KCAL/MOL
REMARK 927      BINDING AFFINITY PREDICTED BY RF-SCORE:    0.00 PKD
ROOT
HETATM    1  C   UNL     1     -10.664  14.890  64.974  1.00  0.00    -0.431 C  
HETATM    2  O   UNL     1     -10.863  16.042  65.798  1.00  0.00    -0.305 OA 
ENDROOT
BRANCH   2   3
HETATM    3  C   UNL     1      -9.732  16.483  66.441  1.00  0.00    -0.285 A  
HETATM    4  C   UNL     1      -8.603  15.647  66.509  1.00  0.00    -0.335 A  
HETATM    5  C   UNL     1      -7.466  15.983  67.233  1.00  0.00    -0.201 A  
HETATM    6  C   UNL     1      -7.480  17.226  67.871  1.00  0.00    -0.187 A  
HETATM    7  C   UNL     1      -8.559  18.120  67.774  1.00  0.00    -0.255 A  
HETATM    8  C   UNL     1      -9.699  17.768  67.019  1.00  0.00    -0.290 A  
BRANCH   5   9
HETATM    9  N   UNL     1      -6.356  15.141  67.364  1.00  0.00    -0.320 NA 
HETATM   10  H   UNL     1      -5.504  15.535  66.965  1.00  0.00     0.000 HD 
BRANCH   9  11
HETATM   11  C   UNL     1      -6.168  13.878  67.924  1.00  0.00    -0.158 A  
HETATM   12  N   UNL     1      -6.229  13.860  69.263  1.00  0.00    -0.101 NA 
HETATM   13  N   UNL     1      -5.946  12.771  67.183  1.00  0.00    -0.311 NA 
HETATM   14  C   UNL     1      -5.769  11.580  67.811  1.00  0.00    -0.049 A  
HETATM   15  F   UNL     1      -5.805  10.327  69.848  1.00  0.00    -0.039 F  
HETATM   16  C   UNL     1      -6.085  12.660  69.863  1.00  0.00    -0.125 A  
HETATM   17  C   UNL     1      -5.888  11.484  69.180  1.00  0.00    -0.048 A  
BRANCH  14  18
HETATM   18  N   UNL     1      -5.544  10.481  66.964  1.00  0.00    -0.042 NA 
HETATM   19  H   UNL     1      -4.648  10.509  66.476  1.00  0.00     0.000 HD 
BRANCH  18  20
HETATM   20  C   UNL     1      -6.329   9.345  66.663  1.00  0.00    -0.066 A  
HETATM   21  N   UNL     1      -7.522   9.109  67.251  1.00  0.00    -0.087 NA 
HETATM   22  C   UNL     1      -8.267   8.031  66.856  1.00  0.00    -0.115 A  
HETATM   23  C   UNL     1      -7.796   7.105  65.929  1.00  0.00    -0.106 A  
HETATM   24  O   UNL     1      -8.455   5.952  65.585  1.00  0.00    -0.143 OA 
HETATM   25  C   UNL     1      -6.571   7.340  65.329  1.00  0.00    -0.047 A  
HETATM   26  C   UNL     1      -9.436   5.555  66.541  1.00  0.00    -0.151 C  
HETATM   27  C   UNL     1      -5.833   8.463  65.702  1.00  0.00    -0.044 A  
HETATM   28  C   UNL     1     -10.322   6.719  67.009  1.00  0.00    -0.268 C  
HETATM   29  C   UNL     1     -10.303   4.456  65.918  1.00  0.00    -0.234 C  
HETATM   30  C   UNL     1      -8.766   4.986  67.817  1.00  0.00    -0.103 C  
HETATM   31  N   UNL     1      -9.585   7.840  67.352  1.00  0.00    -0.145 N  
HETATM   32  O   UNL     1     -11.526   6.609  67.236  1.00  0.00    -0.206 OA 
BRANCH  31  33
HETATM   33  C   UNL     1     -10.142   8.676  68.363  1.00  0.00    -0.191 C  
BRANCH  33  34
HETATM   34  O   UNL     1      -9.862   8.142  69.617  1.00  0.00    -0.179 OA 
HETATM   35  P   UNL     1     -11.251   8.281  70.640  1.00  0.00    -0.197 P  
HETATM   36  O   UNL     1     -10.140   8.708  71.760  1.00  0.00    -0.252 OA 
HETATM   37  O   UNL     1     -11.097   6.663  70.797  1.00  0.00    -0.252 OA 
HETATM   38  O   UNL     1     -12.493   8.406  71.554  1.00  0.00    -0.301 OA 
ENDBRANCH  33  34
ENDBRANCH  31  33
ENDBRANCH  18  20
ENDBRANCH  14  18
ENDBRANCH   9  11
ENDBRANCH   5   9
BRANCH   7  39
HETATM   39  O   UNL     1      -8.344  19.252  68.523  1.00  0.00    -0.344 OA 
HETATM   40  C   UNL     1      -7.364  20.196  68.125  1.00  0.00    -0.244 C  
ENDBRANCH   7  39
BRANCH   8  41
HETATM   41  O   UNL     1     -10.653  18.737  66.894  1.00  0.00    -0.405 OA 
HETATM   42  C   UNL     1     -10.606  19.756  65.911  1.00  0.00    -0.453 C  
ENDBRANCH   8  41
ENDBRANCH   2   3
TORSDOF 9
ENDMDL
MODEL      146
REMARK 921   NORMALIZED FREE ENERGY PREDICTED BY IDOCK:   -5.07 KCAL/MOL
REMARK 922        TOTAL FREE ENERGY PREDICTED BY IDOCK:   -9.61 KCAL/MOL
REMARK 923 INTER-LIGAND FREE ENERGY PREDICTED BY IDOCK:   -8.48 KCAL/MOL
REMARK 924 INTRA-LIGAND FREE ENERGY PREDICTED BY IDOCK:   -1.13 KCAL/MOL
REMARK 927      BINDING AFFINITY PREDICTED BY RF-SCORE:    0.00 PKD
ROOT
HETATM    1  C   UNL     1     -10.860  19.221  65.552  1.00  0.00    -0.059 C  
HETATM    2  O   UNL     1      -9.802  18.294  65.810  1.00  0.00    -0.516 OA 
ENDROOT
BRANCH   2   3
HETATM    3  C   UNL     1     -10.126  17.290  66.689  1.00  0.00    -0.302 A  
HETATM    4  C   UNL     1     -10.226  15.966  66.222  1.00  0.00    -0.324 A  
HETATM    5  C   UNL     1     -10.652  14.919  67.029  1.00  0.00    -0.289 A  
HETATM    6  C   UNL     1     -10.947  15.237  68.357  1.00  0.00    -0.271 A  
HETATM    7  C   UNL     1     -10.797  16.532  68.881  1.00  0.00    -0.336 A  
HETATM    8  C   UNL     1     -10.346  17.580  68.050  1.00  0.00    -0.368 A  
BRANCH   5   9
HETATM    9  N   UNL     1     -10.816  13.608  66.570  1.00  0.00    -0.282 NA 
HETATM   10  H   UNL     1     -11.745  13.428  66.188  1.00  0.00     0.000 HD 
BRANCH   9  11
HETATM   11  C   UNL     1      -9.979  12.493  66.523  1.00  0.00    -0.244 A  
HETATM   12  N   UNL     1      -8.679  12.780  66.679  1.00  0.00    -0.121 NA 
HETATM   13  N   UNL     1     -10.437  11.237  66.338  1.00  0.00    -0.249 NA 
HETATM   14  C   UNL     1      -9.551  10.208  66.301  1.00  0.00    -0.193 A  
HETATM   15  F   UNL     1      -7.300   9.449  66.580  1.00  0.00    -0.086 F  
HETATM   16  C   UNL     1      -7.820  11.739  66.674  1.00  0.00    -0.043 A  
HETATM   17  C   UNL     1      -8.210  10.430  66.524  1.00  0.00    -0.131 A  
BRANCH  14  18
HETATM   18  N   UNL     1     -10.114   8.935  66.105  1.00  0.00    -0.408 NA 
HETATM   19  H   UNL     1     -10.964   8.939  65.542  1.00  0.00     0.000 HD 
BRANCH  18  20
HETATM   20  C   UNL     1      -9.719   7.651  66.545  1.00  0.00    -0.181 A  
HETATM   21  N   UNL     1      -9.995   7.190  67.784  1.00  0.00    -0.148 NA 
HETATM   22  C   UNL     1      -9.652   5.908  68.118  1.00  0.00    -0.120 A  
HETATM   23  C   UNL     1      -8.940   5.082  67.253  1.00  0.00    -0.113 A  
HETATM   24  O   UNL     1      -8.477   3.833  67.582  1.00  0.00    -0.093 OA 
HETATM   25  C   UNL     1      -8.650   5.554  65.984  1.00  0.00    -0.134 A  
HETATM   26  C   UNL     1      -8.403   3.610  68.988  1.00  0.00    -0.068 C  
HETATM   27  C   UNL     1      -9.038   6.845  65.631  1.00  0.00     0.097 A  
HETATM   28  C   UNL     1      -9.661   4.077  69.736  1.00  0.00    -0.210 C  
HETATM   29  C   UNL     1      -8.175   2.115  69.231  1.00  0.00    -0.065 C  
HETATM   30  C   UNL     1      -7.219   4.392  69.611  1.00  0.00    -0.050 C  
HETATM   31  N   UNL     1     -10.056   5.350  69.361  1.00  0.00    -0.212 N  
HETATM   32  O   UNL     1     -10.148   3.473  70.690  1.00  0.00     0.012 OA 
BRANCH  31  33
HETATM   33  C   UNL     1     -10.719   6.123  70.359  1.00  0.00    -0.284 C  
BRANCH  33  34
HETATM   34  O   UNL     1      -9.894   7.167  70.764  1.00  0.00    -0.179 OA 
HETATM   35  P   UNL     1     -10.855   8.532  71.221  1.00  0.00    -0.295 P  
HETATM   36  O   UNL     1      -9.706   9.365  70.410  1.00  0.00    -0.225 OA 
HETATM   37  O   UNL     1     -10.062   8.411  72.643  1.00  0.00    -0.292 OA 
HETATM   38  O   UNL     1     -11.714   9.753  71.630  1.00  0.00    -0.385 OA 
ENDBRANCH  33  34
ENDBRANCH  31  33
ENDBRANCH  18  20
ENDBRANCH  14  18
ENDBRANCH   9  11
ENDBRANCH   5   9
BRANCH   7  39
HETATM   39  O   UNL     1     -11.191  16.591  70.196  1.00  0.00    -0.323 OA 
HETATM   40  C   UNL     1     -12.341  15.883  70.629  1.00  0.00    -0.273 C  
ENDBRANCH   7  39
BRANCH   8  41
HETATM   41  O   UNL     1     -10.131  18.779  68.667  1.00  0.00    -0.381 OA 
HETATM   42  C   UNL     1      -8.851  19.373  68.791  1.00  0.00    -0.342 C  
ENDBRANCH   8  41
ENDBRANCH   2   3
TORSDOF 9
ENDMDL
MODEL      147
REMARK 921   NORMALIZED FREE ENERGY PREDICTED BY IDOCK:   -5.05 KCAL/MOL
REMARK 922        TOTAL FREE ENERGY PREDICTED BY IDOCK:   -9.57 KCAL/MOL
REMARK 923 INTER-LIGAND FREE ENERGY PREDICTED BY IDOCK:   -8.35 KCAL/MOL
REMARK 924 INTRA-LIGAND FREE ENERGY PREDICTED BY IDOCK:   -1.22 KCAL/MOL
REMARK 927      BINDING AFFINITY PREDICTED BY RF-SCORE:    0.00 PKD
ROOT
HETATM    1  C   UNL     1      -9.725   3.987  69.741  1.00  0.00    -0.184 C  
HETATM    2  O   UNL     1     -10.357   5.223  70.084  1.00  0.00    -0.261 OA 
ENDROOT
BRANCH   2   3
HETATM    3  C   UNL     1      -9.489   6.242  70.387  1.00  0.00    -0.161 A  
HETATM    4  C   UNL     1      -8.421   6.525  69.515  1.00  0.00    -0.131 A  
HETATM    5  C   UNL     1      -7.444   7.467  69.810  1.00  0.00    -0.091 A  
HETATM    6  C   UNL     1      -7.592   8.161  71.014  1.00  0.00    -0.083 A  
HETATM    7  C   UNL     1      -8.679   7.957  71.881  1.00  0.00    -0.129 A  
HETATM    8  C   UNL     1      -9.671   7.008  71.556  1.00  0.00    -0.165 A  
BRANCH   5   9
HETATM    9  N   UNL     1      -6.341   7.721  68.987  1.00  0.00    -0.035 NA 
HETATM   10  H   UNL     1      -5.530   7.147  69.214  1.00  0.00     0.000 HD 
BRANCH   9  11
HETATM   11  C   UNL     1      -6.117   8.593  67.921  1.00  0.00    -0.051 A  
HETATM   12  N   UNL     1      -6.148   8.003  66.718  1.00  0.00    -0.052 NA 
HETATM   13  N   UNL     1      -5.890   9.913  68.088  1.00  0.00    -0.043 NA 
HETATM   14  C   UNL     1      -5.676  10.690  66.995  1.00  0.00    -0.049 A  
HETATM   15  F   UNL     1      -5.644  10.886  64.611  1.00  0.00    -0.142 F  
HETATM   16  C   UNL     1      -5.968   8.801  65.644  1.00  0.00    -0.051 A  
HETATM   17  C   UNL     1      -5.764  10.157  65.727  1.00  0.00    -0.072 A  
BRANCH  14  18
HETATM   18  N   UNL     1      -5.449  12.052  67.259  1.00  0.00    -0.116 NA 
HETATM   19  H   UNL     1      -4.468  12.328  67.203  1.00  0.00     0.000 HD 
BRANCH  18  20
HETATM   20  C   UNL     1      -6.327  13.109  67.588  1.00  0.00    -0.160 A  
HETATM   21  N   UNL     1      -7.622  13.124  67.206  1.00  0.00    -0.126 NA 
HETATM   22  C   UNL     1      -8.438  14.139  67.626  1.00  0.00    -0.185 A  
HETATM   23  C   UNL     1      -7.957  15.219  68.362  1.00  0.00    -0.131 A  
HETATM   24  O   UNL     1      -8.708  16.313  68.710  1.00  0.00    -0.219 OA 
HETATM   25  C   UNL     1      -6.628  15.210  68.751  1.00  0.00    -0.094 A  
HETATM   26  C   UNL     1      -9.880  16.471  67.913  1.00  0.00    -0.240 C  
HETATM   27  C   UNL     1      -5.810  14.152  68.358  1.00  0.00    -0.104 A  
HETATM   28  C   UNL     1     -10.656  15.159  67.723  1.00  0.00    -0.264 C  
HETATM   29  C   UNL     1     -10.779  17.519  68.576  1.00  0.00    -0.237 C  
HETATM   30  C   UNL     1      -9.520  16.965  66.489  1.00  0.00    -0.296 C  
HETATM   31  N   UNL     1      -9.833  14.106  67.359  1.00  0.00    -0.236 N  
HETATM   32  O   UNL     1     -11.884  15.092  67.708  1.00  0.00    -0.336 OA 
BRANCH  31  33
HETATM   33  C   UNL     1     -10.426  13.095  66.549  1.00  0.00    -0.279 C  
BRANCH  33  34
HETATM   34  O   UNL     1     -10.607  13.580  65.257  1.00  0.00    -0.301 OA 
HETATM   35  P   UNL     1     -11.976  12.811  64.528  1.00  0.00    -0.455 P  
HETATM   36  O   UNL     1     -11.001  12.757  63.218  1.00  0.00    -0.314 OA 
HETATM   37  O   UNL     1     -12.520  14.337  64.322  1.00  0.00    -0.657 OA 
HETATM   38  O   UNL     1     -13.200  12.124  63.875  1.00  0.00    -0.748 OA 
ENDBRANCH  33  34
ENDBRANCH  31  33
ENDBRANCH  18  20
ENDBRANCH  14  18
ENDBRANCH   9  11
ENDBRANCH   5   9
BRANCH   7  39
HETATM   39  O   UNL     1      -8.570   8.730  73.012  1.00  0.00    -0.382 OA 
HETATM   40  C   UNL     1      -7.958   8.205  74.179  1.00  0.00    -0.249 C  
ENDBRANCH   7  39
BRANCH   8  41
HETATM   41  O   UNL     1     -10.741   6.951  72.402  1.00  0.00    -0.212 OA 
HETATM   42  C   UNL     1     -12.063   6.681  71.969  1.00  0.00    -0.310 C  
ENDBRANCH   8  41
ENDBRANCH   2   3
TORSDOF 9
ENDMDL
MODEL      148
REMARK 921   NORMALIZED FREE ENERGY PREDICTED BY IDOCK:   -5.05 KCAL/MOL
REMARK 922        TOTAL FREE ENERGY PREDICTED BY IDOCK:   -9.57 KCAL/MOL
REMARK 923 INTER-LIGAND FREE ENERGY PREDICTED BY IDOCK:   -8.67 KCAL/MOL
REMARK 924 INTRA-LIGAND FREE ENERGY PREDICTED BY IDOCK:   -0.90 KCAL/MOL
REMARK 927      BINDING AFFINITY PREDICTED BY RF-SCORE:    0.00 PKD
ROOT
HETATM    1  C   UNL     1     -12.268  15.012  69.914  1.00  0.00    -0.309 C  
HETATM    2  O   UNL     1     -11.756  16.257  69.433  1.00  0.00    -0.255 OA 
ENDROOT
BRANCH   2   3
HETATM    3  C   UNL     1     -10.981  16.156  68.304  1.00  0.00    -0.340 A  
HETATM    4  C   UNL     1     -10.755  14.892  67.729  1.00  0.00    -0.271 A  
HETATM    5  C   UNL     1      -9.897  14.701  66.653  1.00  0.00    -0.269 A  
HETATM    6  C   UNL     1      -9.287  15.846  66.134  1.00  0.00    -0.385 A  
HETATM    7  C   UNL     1      -9.537  17.135  66.634  1.00  0.00    -0.267 A  
HETATM    8  C   UNL     1     -10.425  17.311  67.717  1.00  0.00    -0.371 A  
BRANCH   5   9
HETATM    9  N   UNL     1      -9.611  13.446  66.106  1.00  0.00    -0.425 NA 
HETATM   10  H   UNL     1      -9.820  13.385  65.110  1.00  0.00     0.000 HD 
BRANCH   9  11
HETATM   11  C   UNL     1      -9.101  12.260  66.634  1.00  0.00    -0.203 A  
HETATM   12  N   UNL     1      -7.764  12.176  66.596  1.00  0.00     0.039 NA 
HETATM   13  N   UNL     1      -9.886  11.284  67.139  1.00  0.00    -0.188 NA 
HETATM   14  C   UNL     1      -9.306  10.157  67.630  1.00  0.00    -0.148 A  
HETATM   15  F   UNL     1      -7.304   8.992  68.228  1.00  0.00    -0.077 F  
HETATM   16  C   UNL     1      -7.208  11.064  67.121  1.00  0.00    -0.112 A  
HETATM   17  C   UNL     1      -7.934  10.041  67.683  1.00  0.00    -0.105 A  
BRANCH  14  18
HETATM   18  N   UNL     1     -10.196   9.194  68.136  1.00  0.00    -0.198 NA 
HETATM   19  H   UNL     1     -11.050   9.585  68.532  1.00  0.00     0.000 HD 
BRANCH  18  20
HETATM   20  C   UNL     1     -10.124   7.784  68.197  1.00  0.00    -0.185 A  
HETATM   21  N   UNL     1      -9.594   7.127  69.252  1.00  0.00    -0.155 NA 
HETATM   22  C   UNL     1      -9.628   5.760  69.281  1.00  0.00    -0.139 A  
HETATM   23  C   UNL     1     -10.109   5.007  68.212  1.00  0.00    -0.103 A  
HETATM   24  O   UNL     1     -10.061   3.638  68.147  1.00  0.00     0.146 OA 
HETATM   25  C   UNL     1     -10.647   5.677  67.126  1.00  0.00    -0.344 A  
HETATM   26  C   UNL     1      -9.112   3.063  69.043  1.00  0.00    -0.144 C  
HETATM   27  C   UNL     1     -10.651   7.071  67.118  1.00  0.00    -0.412 A  
HETATM   28  C   UNL     1      -9.179   3.664  70.454  1.00  0.00    -0.146 C  
HETATM   29  C   UNL     1      -9.359   1.552  69.106  1.00  0.00    -0.180 C  
HETATM   30  C   UNL     1      -7.664   3.301  68.544  1.00  0.00    -0.055 C  
HETATM   31  N   UNL     1      -9.209   5.049  70.438  1.00  0.00    -0.141 N  
HETATM   32  O   UNL     1      -9.030   3.005  71.482  1.00  0.00    -0.083 OA 
BRANCH  31  33
HETATM   33  C   UNL     1      -8.626   5.705  71.560  1.00  0.00    -0.132 C  
BRANCH  33  34
HETATM   34  O   UNL     1      -9.437   5.529  72.677  1.00  0.00    -0.147 OA 
HETATM   35  P   UNL     1     -10.851   6.518  72.538  1.00  0.00    -0.263 P  
HETATM   36  O   UNL     1     -10.568   6.804  74.122  1.00  0.00    -0.312 OA 
HETATM   37  O   UNL     1     -11.657   5.109  72.719  1.00  0.00    -0.257 OA 
HETATM   38  O   UNL     1     -12.115   7.402  72.414  1.00  0.00    -0.247 OA 
ENDBRANCH  33  34
ENDBRANCH  31  33
ENDBRANCH  18  20
ENDBRANCH  14  18
ENDBRANCH   9  11
ENDBRANCH   5   9
BRANCH   7  39
HETATM   39  O   UNL     1      -8.786  18.082  65.981  1.00  0.00    -0.498 OA 
HETATM   40  C   UNL     1      -7.369  18.018  66.015  1.00  0.00    -0.263 C  
ENDBRANCH   7  39
BRANCH   8  41
HETATM   41  O   UNL     1     -10.688  18.604  68.069  1.00  0.00    -0.343 OA 
HETATM   42  C   UNL     1      -9.928  19.321  69.026  1.00  0.00    -0.379 C  
ENDBRANCH   8  41
ENDBRANCH   2   3
TORSDOF 9
ENDMDL
MODEL      149
REMARK 921   NORMALIZED FREE ENERGY PREDICTED BY IDOCK:   -5.01 KCAL/MOL
REMARK 922        TOTAL FREE ENERGY PREDICTED BY IDOCK:   -9.52 KCAL/MOL
REMARK 923 INTER-LIGAND FREE ENERGY PREDICTED BY IDOCK:   -8.15 KCAL/MOL
REMARK 924 INTRA-LIGAND FREE ENERGY PREDICTED BY IDOCK:   -1.37 KCAL/MOL
REMARK 927      BINDING AFFINITY PREDICTED BY RF-SCORE:    0.00 PKD
ROOT
HETATM    1  C   UNL     1      -6.589  17.283  66.437  1.00  0.00    -0.246 C  
HETATM    2  O   UNL     1      -7.615  16.917  67.363  1.00  0.00    -0.151 OA 
ENDROOT
BRANCH   2   3
HETATM    3  C   UNL     1      -8.543  16.036  66.865  1.00  0.00    -0.231 A  
HETATM    4  C   UNL     1      -8.406  14.661  67.131  1.00  0.00    -0.236 A  
HETATM    5  C   UNL     1      -9.244  13.704  66.573  1.00  0.00    -0.179 A  
HETATM    6  C   UNL     1     -10.269  14.178  65.751  1.00  0.00    -0.347 A  
HETATM    7  C   UNL     1     -10.482  15.546  65.512  1.00  0.00    -0.386 A  
HETATM    8  C   UNL     1      -9.632  16.505  66.102  1.00  0.00    -0.315 A  
BRANCH   5   9
HETATM    9  N   UNL     1      -9.088  12.328  66.776  1.00  0.00    -0.208 NA 
HETATM   10  H   UNL     1      -9.543  11.762  66.061  1.00  0.00     0.000 HD 
BRANCH   9  11
HETATM   11  C   UNL     1      -8.443  11.567  67.751  1.00  0.00    -0.137 A  
HETATM   12  N   UNL     1      -7.131  11.400  67.532  1.00  0.00    -0.099 NA 
HETATM   13  N   UNL     1      -9.082  11.047  68.820  1.00  0.00    -0.173 NA 
HETATM   14  C   UNL     1      -8.378  10.313  69.720  1.00  0.00    -0.080 A  
HETATM   15  F   UNL     1      -6.254   9.520  70.483  1.00  0.00    -0.043 F  
HETATM   16  C   UNL     1      -6.444  10.697  68.458  1.00  0.00    -0.054 A  
HETATM   17  C   UNL     1      -7.015  10.162  69.588  1.00  0.00    -0.103 A  
BRANCH  14  18
HETATM   18  N   UNL     1      -9.122   9.809  70.800  1.00  0.00    -0.354 NA 
HETATM   19  H   UNL     1      -9.783  10.477  71.196  1.00  0.00     0.000 HD 
BRANCH  18  20
HETATM   20  C   UNL     1      -9.122   8.549  71.440  1.00  0.00    -0.206 A  
HETATM   21  N   UNL     1      -9.540   7.421  70.825  1.00  0.00    -0.171 NA 
HETATM   22  C   UNL     1      -9.440   6.222  71.476  1.00  0.00    -0.151 A  
HETATM   23  C   UNL     1      -9.006   6.129  72.796  1.00  0.00    -0.126 A  
HETATM   24  O   UNL     1      -8.994   4.968  73.526  1.00  0.00    -0.115 OA 
HETATM   25  C   UNL     1      -8.582   7.284  73.432  1.00  0.00    -0.175 A  
HETATM   26  C   UNL     1      -9.845   3.956  72.992  1.00  0.00    -0.131 C  
HETATM   27  C   UNL     1      -8.645   8.499  72.751  1.00  0.00    -0.168 A  
HETATM   28  C   UNL     1      -9.701   3.793  71.472  1.00  0.00    -0.171 C  
HETATM   29  C   UNL     1      -9.523   2.632  73.693  1.00  0.00    -0.107 C  
HETATM   30  C   UNL     1     -11.336   4.294  73.247  1.00  0.00    -0.301 C  
HETATM   31  N   UNL     1      -9.737   5.005  70.804  1.00  0.00    -0.182 N  
HETATM   32  O   UNL     1      -9.741   2.706  70.897  1.00  0.00    -0.146 OA 
BRANCH  31  33
HETATM   33  C   UNL     1     -10.265   4.981  69.481  1.00  0.00    -0.216 C  
BRANCH  33  34
HETATM   34  O   UNL     1      -9.223   4.870  68.565  1.00  0.00    -0.109 OA 
HETATM   35  P   UNL     1      -9.862   4.640  66.973  1.00  0.00    -0.171 P  
HETATM   36  O   UNL     1      -8.651   3.549  66.857  1.00  0.00    -0.103 OA 
HETATM   37  O   UNL     1      -8.985   5.967  66.604  1.00  0.00    -0.120 OA 
HETATM   38  O   UNL     1     -10.433   4.434  65.549  1.00  0.00    -0.265 OA 
ENDBRANCH  33  34
ENDBRANCH  31  33
ENDBRANCH  18  20
ENDBRANCH  14  18
ENDBRANCH   9  11
ENDBRANCH   5   9
BRANCH   7  39
HETATM   39  O   UNL     1     -11.525  15.747  64.639  1.00  0.00    -0.393 OA 
HETATM   40  C   UNL     1     -12.330  14.655  64.225  1.00  0.00    -0.349 C  
ENDBRANCH   7  39
BRANCH   8  41
HETATM   41  O   UNL     1      -9.975  17.811  65.900  1.00  0.00    -0.527 OA 
HETATM   42  C   UNL     1     -10.529  18.636  66.910  1.00  0.00    -0.402 C  
ENDBRANCH   8  41
ENDBRANCH   2   3
TORSDOF 9
ENDMDL
MODEL      150
REMARK 921   NORMALIZED FREE ENERGY PREDICTED BY IDOCK:   -5.00 KCAL/MOL
REMARK 922        TOTAL FREE ENERGY PREDICTED BY IDOCK:   -9.50 KCAL/MOL
REMARK 923 INTER-LIGAND FREE ENERGY PREDICTED BY IDOCK:   -7.89 KCAL/MOL
REMARK 924 INTRA-LIGAND FREE ENERGY PREDICTED BY IDOCK:   -1.61 KCAL/MOL
REMARK 927      BINDING AFFINITY PREDICTED BY RF-SCORE:    0.00 PKD
ROOT
HETATM    1  C   UNL     1      -5.339   5.875  70.513  1.00  0.00    -0.013 C  
HETATM    2  O   UNL     1      -5.948   6.664  69.488  1.00  0.00    -0.020 OA 
ENDROOT
BRANCH   2   3
HETATM    3  C   UNL     1      -7.294   6.445  69.326  1.00  0.00    -0.092 A  
HETATM    4  C   UNL     1      -8.208   7.069  70.195  1.00  0.00    -0.133 A  
HETATM    5  C   UNL     1      -9.572   6.810  70.158  1.00  0.00    -0.161 A  
HETATM    6  C   UNL     1     -10.009   5.915  69.178  1.00  0.00    -0.214 A  
HETATM    7  C   UNL     1      -9.140   5.322  68.248  1.00  0.00    -0.110 A  
HETATM    8  C   UNL     1      -7.759   5.610  68.290  1.00  0.00    -0.089 A  
BRANCH   5   9
HETATM    9  N   UNL     1     -10.489   7.373  71.051  1.00  0.00    -0.214 NA 
HETATM   10  H   UNL     1     -10.636   6.808  71.887  1.00  0.00     0.000 HD 
BRANCH   9  11
HETATM   11  C   UNL     1     -11.247   8.545  71.042  1.00  0.00    -0.268 A  
HETATM   12  N   UNL     1     -11.897   8.784  72.189  1.00  0.00    -0.369 NA 
HETATM   13  N   UNL     1     -11.317   9.365  69.972  1.00  0.00    -0.192 NA 
HETATM   14  C   UNL     1     -12.083  10.485  70.046  1.00  0.00    -0.274 A  
HETATM   15  F   UNL     1     -13.421  11.951  71.380  1.00  0.00    -0.342 F  
HETATM   16  C   UNL     1     -12.623   9.920  72.253  1.00  0.00    -0.118 A  
HETATM   17  C   UNL     1     -12.720  10.822  71.220  1.00  0.00    -0.441 A  
BRANCH  14  18
HETATM   18  N   UNL     1     -12.099  11.281  68.888  1.00  0.00    -0.502 NA 
HETATM   19  H   UNL     1     -12.813  11.013  68.210  1.00  0.00     0.000 HD 
BRANCH  18  20
HETATM   20  C   UNL     1     -11.310  12.383  68.490  1.00  0.00    -0.293 A  
HETATM   21  N   UNL     1      -9.962  12.381  68.575  1.00  0.00    -0.204 NA 
HETATM   22  C   UNL     1      -9.254  13.451  68.099  1.00  0.00    -0.215 A  
HETATM   23  C   UNL     1      -9.880  14.595  67.609  1.00  0.00    -0.218 A  
HETATM   24  O   UNL     1      -9.219  15.733  67.225  1.00  0.00    -0.202 OA 
HETATM   25  C   UNL     1     -11.262  14.602  67.525  1.00  0.00    -0.343 A  
HETATM   26  C   UNL     1      -7.899  15.826  67.755  1.00  0.00    -0.141 C  
HETATM   27  C   UNL     1     -11.979  13.493  67.971  1.00  0.00    -0.372 A  
HETATM   28  C   UNL     1      -7.107  14.516  67.625  1.00  0.00    -0.183 C  
HETATM   29  C   UNL     1      -7.162  16.956  67.029  1.00  0.00    -0.233 C  
HETATM   30  C   UNL     1      -7.931  16.158  69.269  1.00  0.00    -0.194 C  
HETATM   31  N   UNL     1      -7.834  13.415  68.045  1.00  0.00    -0.133 N  
HETATM   32  O   UNL     1      -5.907  14.471  67.362  1.00  0.00    -0.342 OA 
BRANCH  31  33
HETATM   33  C   UNL     1      -7.083  12.334  68.590  1.00  0.00    -0.103 C  
BRANCH  33  34
HETATM   34  O   UNL     1      -7.313  11.183  67.843  1.00  0.00    -0.087 OA 
HETATM   35  P   UNL     1      -6.209  11.116  66.512  1.00  0.00    -0.092 P  
HETATM   36  O   UNL     1      -7.532  10.619  65.693  1.00  0.00    -0.148 OA 
HETATM   37  O   UNL     1      -5.793   9.667  67.139  1.00  0.00    -0.050 OA 
HETATM   38  O   UNL     1      -5.221  11.056  65.321  1.00  0.00    -0.187 OA 
ENDBRANCH  33  34
ENDBRANCH  31  33
ENDBRANCH  18  20
ENDBRANCH  14  18
ENDBRANCH   9  11
ENDBRANCH   5   9
BRANCH   7  39
HETATM   39  O   UNL     1      -9.808   4.452  67.419  1.00  0.00    -0.185 OA 
HETATM   40  C   UNL     1     -10.502   4.940  66.283  1.00  0.00    -0.304 C  
ENDBRANCH   7  39
BRANCH   8  41
HETATM   41  O   UNL     1      -7.006   5.072  67.286  1.00  0.00    -0.062 OA 
HETATM   42  C   UNL     1      -6.438   5.840  66.240  1.00  0.00    -0.043 C  
ENDBRANCH   8  41
ENDBRANCH   2   3
TORSDOF 9
ENDMDL
MODEL      151
REMARK 921   NORMALIZED FREE ENERGY PREDICTED BY IDOCK:   -5.00 KCAL/MOL
REMARK 922        TOTAL FREE ENERGY PREDICTED BY IDOCK:   -9.49 KCAL/MOL
REMARK 923 INTER-LIGAND FREE ENERGY PREDICTED BY IDOCK:   -8.24 KCAL/MOL
REMARK 924 INTRA-LIGAND FREE ENERGY PREDICTED BY IDOCK:   -1.26 KCAL/MOL
REMARK 927      BINDING AFFINITY PREDICTED BY RF-SCORE:    0.00 PKD
ROOT
HETATM    1  C   UNL     1     -11.032   9.767  68.354  1.00  0.00    -0.152 C  
HETATM    2  O   UNL     1     -11.266  10.050  69.736  1.00  0.00    -0.247 OA 
ENDROOT
BRANCH   2   3
HETATM    3  C   UNL     1     -11.775  11.301  69.982  1.00  0.00    -0.346 A  
HETATM    4  C   UNL     1     -11.600  12.321  69.028  1.00  0.00    -0.368 A  
HETATM    5  C   UNL     1     -11.993  13.634  69.255  1.00  0.00    -0.336 A  
HETATM    6  C   UNL     1     -12.614  13.894  70.480  1.00  0.00    -0.382 A  
HETATM    7  C   UNL     1     -12.868  12.893  71.432  1.00  0.00    -0.283 A  
HETATM    8  C   UNL     1     -12.477  11.561  71.176  1.00  0.00    -0.337 A  
BRANCH   5   9
HETATM    9  N   UNL     1     -11.775  14.674  68.346  1.00  0.00    -0.347 NA 
HETATM   10  H   UNL     1     -12.638  15.089  67.996  1.00  0.00     0.000 HD 
BRANCH   9  11
HETATM   11  C   UNL     1     -10.627  15.264  67.816  1.00  0.00    -0.266 A  
HETATM   12  N   UNL     1     -10.810  16.518  67.379  1.00  0.00    -0.256 NA 
HETATM   13  N   UNL     1      -9.438  14.628  67.751  1.00  0.00    -0.202 NA 
HETATM   14  C   UNL     1      -8.371  15.275  67.215  1.00  0.00    -0.200 A  
HETATM   15  F   UNL     1      -7.444  17.305  66.352  1.00  0.00    -0.227 F  
HETATM   16  C   UNL     1      -9.728  17.154  66.883  1.00  0.00    -0.268 A  
HETATM   17  C   UNL     1      -8.477  16.589  66.812  1.00  0.00    -0.238 A  
BRANCH  14  18
HETATM   18  N   UNL     1      -7.173  14.541  67.187  1.00  0.00    -0.351 NA 
HETATM   19  H   UNL     1      -6.383  15.050  66.792  1.00  0.00     0.000 HD 
BRANCH  18  20
HETATM   20  C   UNL     1      -6.862  13.227  67.605  1.00  0.00    -0.163 A  
HETATM   21  N   UNL     1      -6.689  12.209  66.735  1.00  0.00     0.009 NA 
HETATM   22  C   UNL     1      -6.312  10.979  67.203  1.00  0.00    -0.076 A  
HETATM   23  C   UNL     1      -6.189  10.709  68.563  1.00  0.00    -0.049 A  
HETATM   24  O   UNL     1      -5.924   9.469  69.085  1.00  0.00    -0.038 OA 
HETATM   25  C   UNL     1      -6.372  11.750  69.459  1.00  0.00    -0.123 A  
HETATM   26  C   UNL     1      -6.202   8.404  68.179  1.00  0.00    -0.051 C  
HETATM   27  C   UNL     1      -6.713  13.012  68.976  1.00  0.00    -0.099 A  
HETATM   28  C   UNL     1      -5.664   8.665  66.764  1.00  0.00    -0.048 C  
HETATM   29  C   UNL     1      -5.591   7.116  68.741  1.00  0.00    -0.018 C  
HETATM   30  C   UNL     1      -7.730   8.193  68.024  1.00  0.00    -0.114 C  
HETATM   31  N   UNL     1      -5.984   9.930  66.301  1.00  0.00    -0.062 N  
HETATM   32  O   UNL     1      -5.174   7.791  66.051  1.00  0.00    -0.024 OA 
BRANCH  31  33
HETATM   33  C   UNL     1      -6.149  10.063  64.892  1.00  0.00    -0.116 C  
BRANCH  33  34
HETATM   34  O   UNL     1      -7.440   9.687  64.536  1.00  0.00    -0.116 OA 
HETATM   35  P   UNL     1      -7.387   8.276  63.535  1.00  0.00    -0.121 P  
HETATM   36  O   UNL     1      -8.538   9.071  62.690  1.00  0.00    -0.207 OA 
HETATM   37  O   UNL     1      -8.368   7.632  64.671  1.00  0.00    -0.106 OA 
HETATM   38  O   UNL     1      -7.340   7.014  62.641  1.00  0.00    -0.064 OA 
ENDBRANCH  33  34
ENDBRANCH  31  33
ENDBRANCH  18  20
ENDBRANCH  14  18
ENDBRANCH   9  11
ENDBRANCH   5   9
BRANCH   7  39
HETATM   39  O   UNL     1     -13.450  13.412  72.564  1.00  0.00    -0.558 OA 
HETATM   40  C   UNL     1     -12.949  14.608  73.139  1.00  0.00    -0.500 C  
ENDBRANCH   7  39
BRANCH   8  41
HETATM   41  O   UNL     1     -12.856  10.639  72.109  1.00  0.00    -0.371 OA 
HETATM   42  C   UNL     1     -13.424   9.384  71.778  1.00  0.00    -0.412 C  
ENDBRANCH   8  41
ENDBRANCH   2   3
TORSDOF 9
ENDMDL
MODEL      152
REMARK 921   NORMALIZED FREE ENERGY PREDICTED BY IDOCK:   -4.96 KCAL/MOL
REMARK 922        TOTAL FREE ENERGY PREDICTED BY IDOCK:   -9.44 KCAL/MOL
REMARK 923 INTER-LIGAND FREE ENERGY PREDICTED BY IDOCK:   -7.79 KCAL/MOL
REMARK 924 INTRA-LIGAND FREE ENERGY PREDICTED BY IDOCK:   -1.65 KCAL/MOL
REMARK 927      BINDING AFFINITY PREDICTED BY RF-SCORE:    0.00 PKD
ROOT
HETATM    1  C   UNL     1      -5.664   9.159  72.304  1.00  0.00    -0.058 C  
HETATM    2  O   UNL     1      -7.015   9.328  71.869  1.00  0.00    -0.314 OA 
ENDROOT
BRANCH   2   3
HETATM    3  C   UNL     1      -7.368   8.554  70.791  1.00  0.00    -0.066 A  
HETATM    4  C   UNL     1      -6.730   8.756  69.554  1.00  0.00    -0.047 A  
HETATM    5  C   UNL     1      -7.109   8.086  68.398  1.00  0.00    -0.084 A  
HETATM    6  C   UNL     1      -8.145   7.158  68.529  1.00  0.00    -0.125 A  
HETATM    7  C   UNL     1      -8.764   6.876  69.758  1.00  0.00    -0.141 A  
HETATM    8  C   UNL     1      -8.354   7.555  70.926  1.00  0.00    -0.114 A  
BRANCH   5   9
HETATM    9  N   UNL     1      -6.529   8.316  67.146  1.00  0.00    -0.057 NA 
HETATM   10  H   UNL     1      -5.568   7.981  67.080  1.00  0.00     0.000 HD 
BRANCH   9  11
HETATM   11  C   UNL     1      -6.986   8.907  65.967  1.00  0.00    -0.084 A  
HETATM   12  N   UNL     1      -6.213   8.664  64.900  1.00  0.00    -0.064 NA 
HETATM   13  N   UNL     1      -8.109   9.654  65.908  1.00  0.00    -0.111 NA 
HETATM   14  C   UNL     1      -8.480  10.197  64.719  1.00  0.00    -0.174 A  
HETATM   15  F   UNL     1      -8.126  10.366  62.360  1.00  0.00    -0.137 F  
HETATM   16  C   UNL     1      -6.620   9.184  63.722  1.00  0.00    -0.090 A  
HETATM   17  C   UNL     1      -7.766   9.928  63.573  1.00  0.00    -0.143 A  
BRANCH  14  18
HETATM   18  N   UNL     1      -9.660  10.959  64.748  1.00  0.00    -0.234 NA 
HETATM   19  H   UNL     1     -10.196  10.929  63.880  1.00  0.00     0.000 HD 
BRANCH  18  20
HETATM   20  C   UNL     1     -10.241  11.761  65.757  1.00  0.00    -0.239 A  
HETATM   21  N   UNL     1      -9.984  13.081  65.875  1.00  0.00    -0.277 NA 
HETATM   22  C   UNL     1     -10.642  13.813  66.826  1.00  0.00    -0.273 A  
HETATM   23  C   UNL     1     -11.506  13.227  67.748  1.00  0.00    -0.317 A  
HETATM   24  O   UNL     1     -12.099  13.897  68.786  1.00  0.00    -0.354 OA 
HETATM   25  C   UNL     1     -11.767  11.872  67.633  1.00  0.00    -0.346 A  
HETATM   26  C   UNL     1     -11.449  15.123  69.113  1.00  0.00    -0.306 C  
HETATM   27  C   UNL     1     -11.128  11.136  66.635  1.00  0.00    -0.255 A  
HETATM   28  C   UNL     1     -11.109  15.969  67.877  1.00  0.00    -0.307 C  
HETATM   29  C   UNL     1     -12.358  15.918  70.056  1.00  0.00    -0.148 C  
HETATM   30  C   UNL     1     -10.104  14.861  69.836  1.00  0.00     0.034 C  
HETATM   31  N   UNL     1     -10.499  15.227  66.879  1.00  0.00    -0.283 N  
HETATM   32  O   UNL     1     -11.192  17.196  67.848  1.00  0.00    -0.200 OA 
BRANCH  31  33
HETATM   33  C   UNL     1      -9.584  15.928  66.042  1.00  0.00    -0.350 C  
BRANCH  33  34
HETATM   34  O   UNL     1      -8.361  16.057  66.692  1.00  0.00    -0.239 OA 
HETATM   35  P   UNL     1      -7.892  17.722  66.739  1.00  0.00    -0.266 P  
HETATM   36  O   UNL     1      -6.419  17.115  66.376  1.00  0.00    -0.217 OA 
HETATM   37  O   UNL     1      -7.824  17.491  68.353  1.00  0.00    -0.243 OA 
HETATM   38  O   UNL     1      -7.473  19.212  66.780  1.00  0.00    -0.216 OA 
ENDBRANCH  33  34
ENDBRANCH  31  33
ENDBRANCH  18  20
ENDBRANCH  14  18
ENDBRANCH   9  11
ENDBRANCH   5   9
BRANCH   7  39
HETATM   39  O   UNL     1      -9.778   5.960  69.612  1.00  0.00    -0.149 OA 
HETATM   40  C   UNL     1     -11.101   6.395  69.344  1.00  0.00    -0.387 C  
ENDBRANCH   7  39
BRANCH   8  41
HETATM   41  O   UNL     1      -8.936   7.145  72.090  1.00  0.00    -0.129 OA 
HETATM   42  C   UNL     1      -9.961   7.870  72.747  1.00  0.00    -0.283 C  
ENDBRANCH   8  41
ENDBRANCH   2   3
TORSDOF 9
ENDMDL
MODEL      153
REMARK 921   NORMALIZED FREE ENERGY PREDICTED BY IDOCK:   -4.95 KCAL/MOL
REMARK 922        TOTAL FREE ENERGY PREDICTED BY IDOCK:   -9.42 KCAL/MOL
REMARK 923 INTER-LIGAND FREE ENERGY PREDICTED BY IDOCK:   -8.45 KCAL/MOL
REMARK 924 INTRA-LIGAND FREE ENERGY PREDICTED BY IDOCK:   -0.97 KCAL/MOL
REMARK 927      BINDING AFFINITY PREDICTED BY RF-SCORE:    0.00 PKD
ROOT
HETATM    1  C   UNL     1      -7.470   8.690  74.471  1.00  0.00    -0.110 C  
HETATM    2  O   UNL     1      -7.222   7.549  73.646  1.00  0.00    -0.085 OA 
ENDROOT
BRANCH   2   3
HETATM    3  C   UNL     1      -8.298   7.145  72.894  1.00  0.00    -0.106 A  
HETATM    4  C   UNL     1      -8.908   8.056  72.012  1.00  0.00    -0.209 A  
HETATM    5  C   UNL     1     -10.062   7.752  71.302  1.00  0.00    -0.179 A  
HETATM    6  C   UNL     1     -10.579   6.466  71.478  1.00  0.00    -0.273 A  
HETATM    7  C   UNL     1      -9.965   5.504  72.296  1.00  0.00    -0.174 A  
HETATM    8  C   UNL     1      -8.783   5.826  72.996  1.00  0.00    -0.123 A  
BRANCH   5   9
HETATM    9  N   UNL     1     -10.718   8.663  70.467  1.00  0.00    -0.216 NA 
HETATM   10  H   UNL     1     -11.720   8.721  70.644  1.00  0.00     0.000 HD 
BRANCH   9  11
HETATM   11  C   UNL     1     -10.291   9.508  69.442  1.00  0.00    -0.214 A  
HETATM   12  N   UNL     1     -10.944   9.335  68.284  1.00  0.00    -0.068 NA 
HETATM   13  N   UNL     1      -9.309  10.420  69.603  1.00  0.00    -0.133 NA 
HETATM   14  C   UNL     1      -8.953  11.201  68.551  1.00  0.00    -0.168 A  
HETATM   15  F   UNL     1      -9.382  11.916  66.309  1.00  0.00    -0.207 F  
HETATM   16  C   UNL     1     -10.597  10.145  67.262  1.00  0.00    -0.261 A  
HETATM   17  C   UNL     1      -9.632  11.119  67.355  1.00  0.00    -0.168 A  
BRANCH  14  18
HETATM   18  N   UNL     1      -7.923  12.123  68.806  1.00  0.00    -0.320 NA 
HETATM   19  H   UNL     1      -7.050  11.695  69.116  1.00  0.00     0.000 HD 
BRANCH  18  20
HETATM   20  C   UNL     1      -7.874  13.532  68.714  1.00  0.00    -0.029 A  
HETATM   21  N   UNL     1      -8.947  14.276  68.370  1.00  0.00    -0.186 NA 
HETATM   22  C   UNL     1      -8.851  15.641  68.376  1.00  0.00    -0.184 A  
HETATM   23  C   UNL     1      -7.651  16.299  68.635  1.00  0.00    -0.188 A  
HETATM   24  O   UNL     1      -7.478  17.656  68.543  1.00  0.00    -0.248 OA 
HETATM   25  C   UNL     1      -6.547  15.539  68.981  1.00  0.00    -0.123 A  
HETATM   26  C   UNL     1      -8.480  18.302  67.761  1.00  0.00    -0.249 C  
HETATM   27  C   UNL     1      -6.659  14.149  69.017  1.00  0.00    -0.104 A  
HETATM   28  C   UNL     1      -9.901  17.830  68.099  1.00  0.00    -0.326 C  
HETATM   29  C   UNL     1      -8.366  19.815  67.979  1.00  0.00    -0.332 C  
HETATM   30  C   UNL     1      -8.279  18.010  66.252  1.00  0.00    -0.242 C  
HETATM   31  N   UNL     1     -10.000  16.450  68.159  1.00  0.00    -0.237 N  
HETATM   32  O   UNL     1     -10.878  18.577  68.125  1.00  0.00    -0.244 OA 
BRANCH  31  33
HETATM   33  C   UNL     1     -11.263  15.892  67.807  1.00  0.00    -0.258 C  
BRANCH  33  34
HETATM   34  O   UNL     1     -11.102  15.008  66.744  1.00  0.00    -0.324 OA 
HETATM   35  P   UNL     1     -11.384  15.831  65.247  1.00  0.00     0.073 P  
HETATM   36  O   UNL     1     -12.184  14.457  64.869  1.00  0.00    -0.413 OA 
HETATM   37  O   UNL     1      -9.884  15.313  64.866  1.00  0.00    -0.184 OA 
HETATM   38  O   UNL     1     -11.636  16.566  63.909  1.00  0.00    -1.175 OA 
ENDBRANCH  33  34
ENDBRANCH  31  33
ENDBRANCH  18  20
ENDBRANCH  14  18
ENDBRANCH   9  11
ENDBRANCH   5   9
BRANCH   7  39
HETATM   39  O   UNL     1     -10.690   4.337  72.332  1.00  0.00    -0.126 OA 
HETATM   40  C   UNL     1     -11.379   3.960  73.513  1.00  0.00    -0.165 C  
ENDBRANCH   7  39
BRANCH   8  41
HETATM   41  O   UNL     1      -8.199   4.801  73.684  1.00  0.00    -0.105 OA 
HETATM   42  C   UNL     1      -7.253   3.916  73.110  1.00  0.00    -0.063 C  
ENDBRANCH   8  41
ENDBRANCH   2   3
TORSDOF 9
ENDMDL
MODEL      154
REMARK 921   NORMALIZED FREE ENERGY PREDICTED BY IDOCK:   -4.93 KCAL/MOL
REMARK 922        TOTAL FREE ENERGY PREDICTED BY IDOCK:   -9.39 KCAL/MOL
REMARK 923 INTER-LIGAND FREE ENERGY PREDICTED BY IDOCK:   -8.75 KCAL/MOL
REMARK 924 INTRA-LIGAND FREE ENERGY PREDICTED BY IDOCK:   -0.64 KCAL/MOL
REMARK 927      BINDING AFFINITY PREDICTED BY RF-SCORE:    0.00 PKD
ROOT
HETATM    1  C   UNL     1      -9.747   6.694  74.284  1.00  0.00    -0.302 C  
HETATM    2  O   UNL     1      -9.094   6.907  73.030  1.00  0.00    -0.126 OA 
ENDROOT
BRANCH   2   3
HETATM    3  C   UNL     1      -9.938   7.238  71.998  1.00  0.00    -0.162 A  
HETATM    4  C   UNL     1     -10.749   8.383  72.105  1.00  0.00    -0.407 A  
HETATM    5  C   UNL     1     -11.701   8.718  71.151  1.00  0.00    -0.291 A  
HETATM    6  C   UNL     1     -11.793   7.873  70.042  1.00  0.00     0.369 A  
HETATM    7  C   UNL     1     -10.957   6.758  69.862  1.00  0.00    -0.291 A  
HETATM    8  C   UNL     1      -9.984   6.443  70.835  1.00  0.00    -0.185 A  
BRANCH   5   9
HETATM    9  N   UNL     1     -12.558   9.817  71.267  1.00  0.00    -0.341 NA 
HETATM   10  H   UNL     1     -13.454   9.584  71.695  1.00  0.00     0.000 HD 
BRANCH   9  11
HETATM   11  C   UNL     1     -12.447  11.164  70.922  1.00  0.00    -0.409 A  
HETATM   12  N   UNL     1     -13.093  11.995  71.753  1.00  0.00    -0.426 NA 
HETATM   13  N   UNL     1     -11.750  11.592  69.848  1.00  0.00    -0.331 NA 
HETATM   14  C   UNL     1     -11.697  12.923  69.582  1.00  0.00    -0.299 A  
HETATM   15  F   UNL     1     -12.196  15.159  70.272  1.00  0.00    -0.292 F  
HETATM   16  C   UNL     1     -12.997  13.315  71.489  1.00  0.00    -0.337 A  
HETATM   17  C   UNL     1     -12.282  13.833  70.436  1.00  0.00    -0.363 A  
BRANCH  14  18
HETATM   18  N   UNL     1     -10.951  13.281  68.447  1.00  0.00    -0.254 NA 
HETATM   19  H   UNL     1     -10.387  12.522  68.064  1.00  0.00     0.000 HD 
BRANCH  18  20
HETATM   20  C   UNL     1     -10.837  14.499  67.738  1.00  0.00    -0.264 A  
HETATM   21  N   UNL     1     -10.049  15.513  68.155  1.00  0.00    -0.217 NA 
HETATM   22  C   UNL     1      -9.925  16.633  67.380  1.00  0.00    -0.265 A  
HETATM   23  C   UNL     1     -10.659  16.810  66.209  1.00  0.00    -0.190 A  
HETATM   24  O   UNL     1     -10.653  17.958  65.459  1.00  0.00    -0.638 OA 
HETATM   25  C   UNL     1     -11.472  15.775  65.781  1.00  0.00     0.222 A  
HETATM   26  C   UNL     1     -10.184  19.099  66.175  1.00  0.00    -0.463 C  
HETATM   27  C   UNL     1     -11.564  14.616  66.552  1.00  0.00    -0.350 A  
HETATM   28  C   UNL     1      -8.907  18.818  66.980  1.00  0.00    -0.294 C  
HETATM   29  C   UNL     1      -9.933  20.231  65.173  1.00  0.00     0.671 C  
HETATM   30  C   UNL     1     -11.240  19.580  67.202  1.00  0.00    -0.070 C  
HETATM   31  N   UNL     1      -8.994  17.652  67.722  1.00  0.00    -0.244 N  
HETATM   32  O   UNL     1      -7.989  19.627  67.102  1.00  0.00    -0.260 OA 
BRANCH  31  33
HETATM   33  C   UNL     1      -8.247  17.619  68.934  1.00  0.00    -0.151 C  
BRANCH  33  34
HETATM   34  O   UNL     1      -6.896  17.799  68.655  1.00  0.00    -0.222 OA 
HETATM   35  P   UNL     1      -6.029  18.113  70.119  1.00  0.00     0.088 P  
HETATM   36  O   UNL     1      -5.266  19.227  69.198  1.00  0.00    -0.195 OA 
HETATM   37  O   UNL     1      -5.132  16.823  69.675  1.00  0.00    -0.136 OA 
HETATM   38  O   UNL     1      -5.253  18.394  71.429  1.00  0.00    -0.397 OA 
ENDBRANCH  33  34
ENDBRANCH  31  33
ENDBRANCH  18  20
ENDBRANCH  14  18
ENDBRANCH   9  11
ENDBRANCH   5   9
BRANCH   7  39
HETATM   39  O   UNL     1     -11.276   6.070  68.716  1.00  0.00    -0.331 OA 
HETATM   40  C   UNL     1     -11.032   6.650  67.445  1.00  0.00    -0.360 C  
ENDBRANCH   7  39
BRANCH   8  41
HETATM   41  O   UNL     1      -9.150   5.406  70.529  1.00  0.00    -0.137 OA 
HETATM   42  C   UNL     1      -8.133   5.488  69.546  1.00  0.00    -0.101 C  
ENDBRANCH   8  41
ENDBRANCH   2   3
TORSDOF 9
ENDMDL
MODEL      155
REMARK 921   NORMALIZED FREE ENERGY PREDICTED BY IDOCK:   -4.93 KCAL/MOL
REMARK 922        TOTAL FREE ENERGY PREDICTED BY IDOCK:   -9.39 KCAL/MOL
REMARK 923 INTER-LIGAND FREE ENERGY PREDICTED BY IDOCK:   -8.63 KCAL/MOL
REMARK 924 INTRA-LIGAND FREE ENERGY PREDICTED BY IDOCK:   -0.76 KCAL/MOL
REMARK 927      BINDING AFFINITY PREDICTED BY RF-SCORE:    0.00 PKD
ROOT
HETATM    1  C   UNL     1     -11.042  19.520  67.123  1.00  0.00    -0.178 C  
HETATM    2  O   UNL     1     -10.527  18.602  68.091  1.00  0.00    -0.367 OA 
ENDROOT
BRANCH   2   3
HETATM    3  C   UNL     1      -9.790  17.571  67.562  1.00  0.00    -0.293 A  
HETATM    4  C   UNL     1     -10.433  16.369  67.212  1.00  0.00    -0.303 A  
HETATM    5  C   UNL     1      -9.738  15.249  66.774  1.00  0.00    -0.236 A  
HETATM    6  C   UNL     1      -8.352  15.383  66.658  1.00  0.00    -0.255 A  
HETATM    7  C   UNL     1      -7.678  16.585  66.931  1.00  0.00    -0.231 A  
HETATM    8  C   UNL     1      -8.404  17.718  67.359  1.00  0.00    -0.222 A  
BRANCH   5   9
HETATM    9  N   UNL     1     -10.351  14.026  66.479  1.00  0.00    -0.280 NA 
HETATM   10  H   UNL     1     -11.238  14.129  65.987  1.00  0.00     0.000 HD 
BRANCH   9  11
HETATM   11  C   UNL     1     -10.006  12.695  66.717  1.00  0.00    -0.234 A  
HETATM   12  N   UNL     1      -8.901  12.295  66.072  1.00  0.00     0.054 NA 
HETATM   13  N   UNL     1     -10.720  11.884  67.525  1.00  0.00    -0.217 NA 
HETATM   14  C   UNL     1     -10.316  10.599  67.697  1.00  0.00    -0.209 A  
HETATM   15  F   UNL     1      -8.658   8.918  67.314  1.00  0.00    -0.115 F  
HETATM   16  C   UNL     1      -8.498  11.025  66.286  1.00  0.00    -0.165 A  
HETATM   17  C   UNL     1      -9.151  10.147  67.117  1.00  0.00    -0.135 A  
BRANCH  14  18
HETATM   18  N   UNL     1     -11.117   9.825  68.554  1.00  0.00    -0.462 NA 
HETATM   19  H   UNL     1     -12.112   9.856  68.333  1.00  0.00     0.000 HD 
BRANCH  18  20
HETATM   20  C   UNL     1     -10.798   9.012  69.666  1.00  0.00    -0.186 A  
HETATM   21  N   UNL     1     -10.626   7.676  69.564  1.00  0.00    -0.231 NA 
HETATM   22  C   UNL     1     -10.241   6.960  70.665  1.00  0.00    -0.195 A  
HETATM   23  C   UNL     1     -10.108   7.547  71.921  1.00  0.00    -0.172 A  
HETATM   24  O   UNL     1      -9.835   6.854  73.073  1.00  0.00    -0.164 OA 
HETATM   25  C   UNL     1     -10.290   8.915  72.030  1.00  0.00    -0.378 A  
HETATM   26  C   UNL     1     -10.113   5.459  72.973  1.00  0.00    -0.176 C  
HETATM   27  C   UNL     1     -10.640   9.649  70.898  1.00  0.00    -0.386 A  
HETATM   28  C   UNL     1      -9.586   4.834  71.673  1.00  0.00    -0.158 C  
HETATM   29  C   UNL     1      -9.494   4.752  74.183  1.00  0.00    -0.131 C  
HETATM   30  C   UNL     1     -11.641   5.198  72.984  1.00  0.00    -0.301 C  
HETATM   31  N   UNL     1      -9.914   5.582  70.555  1.00  0.00    -0.198 N  
HETATM   32  O   UNL     1      -9.097   3.707  71.611  1.00  0.00    -0.102 OA 
BRANCH  31  33
HETATM   33  C   UNL     1     -10.088   4.856  69.341  1.00  0.00    -0.200 C  
BRANCH  33  34
HETATM   34  O   UNL     1      -9.456   5.530  68.300  1.00  0.00    -0.109 OA 
HETATM   35  P   UNL     1     -10.091   4.996  66.782  1.00  0.00    -0.242 P  
HETATM   36  O   UNL     1      -8.520   5.037  66.333  1.00  0.00    -0.111 OA 
HETATM   37  O   UNL     1     -10.419   6.578  66.546  1.00  0.00    -0.164 OA 
HETATM   38  O   UNL     1     -10.659   4.518  65.423  1.00  0.00    -0.264 OA 
ENDBRANCH  33  34
ENDBRANCH  31  33
ENDBRANCH  18  20
ENDBRANCH  14  18
ENDBRANCH   9  11
ENDBRANCH   5   9
BRANCH   7  39
HETATM   39  O   UNL     1      -6.320  16.444  66.781  1.00  0.00    -0.280 OA 
HETATM   40  C   UNL     1      -5.562  15.742  67.753  1.00  0.00    -0.137 C  
ENDBRANCH   7  39
BRANCH   8  41
HETATM   41  O   UNL     1      -7.682  18.868  67.502  1.00  0.00    -0.231 OA 
HETATM   42  C   UNL     1      -7.517  19.818  66.464  1.00  0.00    -0.267 C  
ENDBRANCH   8  41
ENDBRANCH   2   3
TORSDOF 9
ENDMDL
MODEL      156
REMARK 921   NORMALIZED FREE ENERGY PREDICTED BY IDOCK:   -4.93 KCAL/MOL
REMARK 922        TOTAL FREE ENERGY PREDICTED BY IDOCK:   -9.39 KCAL/MOL
REMARK 923 INTER-LIGAND FREE ENERGY PREDICTED BY IDOCK:   -8.81 KCAL/MOL
REMARK 924 INTRA-LIGAND FREE ENERGY PREDICTED BY IDOCK:   -0.58 KCAL/MOL
REMARK 927      BINDING AFFINITY PREDICTED BY RF-SCORE:    0.00 PKD
ROOT
HETATM    1  C   UNL     1     -10.946  19.573  67.309  1.00  0.00    -0.341 C  
HETATM    2  O   UNL     1     -10.656  18.940  66.061  1.00  0.00    -0.457 OA 
ENDROOT
BRANCH   2   3
HETATM    3  C   UNL     1      -9.639  18.018  66.112  1.00  0.00    -0.173 A  
HETATM    4  C   UNL     1      -9.941  16.647  66.028  1.00  0.00    -0.346 A  
HETATM    5  C   UNL     1      -8.978  15.657  66.181  1.00  0.00    -0.327 A  
HETATM    6  C   UNL     1      -7.667  16.093  66.388  1.00  0.00    -0.129 A  
HETATM    7  C   UNL     1      -7.311  17.452  66.411  1.00  0.00    -0.305 A  
HETATM    8  C   UNL     1      -8.301  18.443  66.237  1.00  0.00    -0.207 A  
BRANCH   5   9
HETATM    9  N   UNL     1      -9.267  14.289  66.161  1.00  0.00    -0.510 NA 
HETATM   10  H   UNL     1      -9.828  14.008  65.358  1.00  0.00     0.000 HD 
BRANCH   9  11
HETATM   11  C   UNL     1      -8.950  13.226  67.008  1.00  0.00    -0.228 A  
HETATM   12  N   UNL     1      -7.749  13.335  67.593  1.00  0.00    -0.156 NA 
HETATM   13  N   UNL     1      -9.781  12.183  67.221  1.00  0.00    -0.189 NA 
HETATM   14  C   UNL     1      -9.391  11.188  68.059  1.00  0.00    -0.166 A  
HETATM   15  F   UNL     1      -7.797  10.367  69.642  1.00  0.00    -0.127 F  
HETATM   16  C   UNL     1      -7.397  12.352  68.449  1.00  0.00    -0.113 A  
HETATM   17  C   UNL     1      -8.198  11.274  68.743  1.00  0.00    -0.122 A  
BRANCH  14  18
HETATM   18  N   UNL     1     -10.315  10.142  68.222  1.00  0.00    -0.176 NA 
HETATM   19  H   UNL     1     -11.242  10.449  68.519  1.00  0.00     0.000 HD 
BRANCH  18  20
HETATM   20  C   UNL     1     -10.198   8.744  68.052  1.00  0.00    -0.213 A  
HETATM   21  N   UNL     1      -9.712   7.932  69.016  1.00  0.00    -0.159 NA 
HETATM   22  C   UNL     1      -9.699   6.579  68.814  1.00  0.00    -0.129 A  
HETATM   23  C   UNL     1     -10.086   6.006  67.605  1.00  0.00    -0.160 A  
HETATM   24  O   UNL     1      -9.985   4.669  67.316  1.00  0.00    -0.188 OA 
HETATM   25  C   UNL     1     -10.579   6.836  66.612  1.00  0.00    -0.208 A  
HETATM   26  C   UNL     1      -9.075   3.974  68.165  1.00  0.00    -0.137 C  
HETATM   27  C   UNL     1     -10.631   8.211  66.837  1.00  0.00    -0.311 A  
HETATM   28  C   UNL     1      -9.251   4.327  69.649  1.00  0.00    -0.135 C  
HETATM   29  C   UNL     1      -9.272   2.468  67.959  1.00  0.00    -0.254 C  
HETATM   30  C   UNL     1      -7.608   4.328  67.812  1.00  0.00    -0.069 C  
HETATM   31  N   UNL     1      -9.329   5.693  69.862  1.00  0.00    -0.144 N  
HETATM   32  O   UNL     1      -9.143   3.508  70.560  1.00  0.00    -0.096 OA 
BRANCH  31  33
HETATM   33  C   UNL     1      -8.840   6.165  71.115  1.00  0.00    -0.139 C  
BRANCH  33  34
HETATM   34  O   UNL     1      -9.764   5.877  72.114  1.00  0.00    -0.156 OA 
HETATM   35  P   UNL     1     -10.759   7.262  72.412  1.00  0.00    -0.289 P  
HETATM   36  O   UNL     1     -10.546   6.834  73.975  1.00  0.00    -0.343 OA 
HETATM   37  O   UNL     1     -11.993   6.245  72.082  1.00  0.00    -0.329 OA 
HETATM   38  O   UNL     1     -11.649   8.500  72.679  1.00  0.00    -0.357 OA 
ENDBRANCH  33  34
ENDBRANCH  31  33
ENDBRANCH  18  20
ENDBRANCH  14  18
ENDBRANCH   9  11
ENDBRANCH   5   9
BRANCH   7  39
HETATM   39  O   UNL     1      -5.972  17.616  66.671  1.00  0.00    -0.146 OA 
HETATM   40  C   UNL     1      -5.393  17.038  67.830  1.00  0.00    -0.119 C  
ENDBRANCH   7  39
BRANCH   8  41
HETATM   41  O   UNL     1      -7.851  19.730  66.171  1.00  0.00    -0.313 OA 
HETATM   42  C   UNL     1      -7.460  20.479  67.308  1.00  0.00    -0.339 C  
ENDBRANCH   8  41
ENDBRANCH   2   3
TORSDOF 9
ENDMDL
MODEL      157
REMARK 921   NORMALIZED FREE ENERGY PREDICTED BY IDOCK:   -4.92 KCAL/MOL
REMARK 922        TOTAL FREE ENERGY PREDICTED BY IDOCK:   -9.38 KCAL/MOL
REMARK 923 INTER-LIGAND FREE ENERGY PREDICTED BY IDOCK:   -7.83 KCAL/MOL
REMARK 924 INTRA-LIGAND FREE ENERGY PREDICTED BY IDOCK:   -1.55 KCAL/MOL
REMARK 927      BINDING AFFINITY PREDICTED BY RF-SCORE:    0.00 PKD
ROOT
HETATM    1  C   UNL     1     -11.599  15.848  70.095  1.00  0.00    -0.351 C  
HETATM    2  O   UNL     1     -11.938  16.177  68.745  1.00  0.00    -0.286 OA 
ENDROOT
BRANCH   2   3
HETATM    3  C   UNL     1     -10.894  16.083  67.857  1.00  0.00    -0.333 A  
HETATM    4  C   UNL     1     -10.370  14.818  67.535  1.00  0.00    -0.238 A  
HETATM    5  C   UNL     1      -9.250  14.655  66.730  1.00  0.00    -0.264 A  
HETATM    6  C   UNL     1      -8.678  15.821  66.216  1.00  0.00    -0.358 A  
HETATM    7  C   UNL     1      -9.209  17.100  66.458  1.00  0.00    -0.266 A  
HETATM    8  C   UNL     1     -10.359  17.244  67.264  1.00  0.00    -0.331 A  
BRANCH   5   9
HETATM    9  N   UNL     1      -8.677  13.410  66.447  1.00  0.00    -0.425 NA 
HETATM   10  H   UNL     1      -8.319  13.340  65.494  1.00  0.00     0.000 HD 
BRANCH   9  11
HETATM   11  C   UNL     1      -8.491  12.245  67.190  1.00  0.00    -0.184 A  
HETATM   12  N   UNL     1      -7.442  12.290  68.023  1.00  0.00    -0.104 NA 
HETATM   13  N   UNL     1      -9.298  11.167  67.081  1.00  0.00    -0.164 NA 
HETATM   14  C   UNL     1      -9.042  10.070  67.840  1.00  0.00    -0.131 A  
HETATM   15  F   UNL     1      -7.771   9.062  69.598  1.00  0.00    -0.066 F  
HETATM   16  C   UNL     1      -7.229  11.202  68.793  1.00  0.00    -0.098 A  
HETATM   17  C   UNL     1      -8.021  10.080  68.765  1.00  0.00    -0.096 A  
BRANCH  14  18
HETATM   18  N   UNL     1      -9.931   8.996  67.663  1.00  0.00    -0.187 NA 
HETATM   19  H   UNL     1     -10.887   9.194  67.959  1.00  0.00     0.000 HD 
BRANCH  18  20
HETATM   20  C   UNL     1      -9.744   7.692  67.152  1.00  0.00    -0.183 A  
HETATM   21  N   UNL     1      -8.708   7.367  66.348  1.00  0.00    -0.136 NA 
HETATM   22  C   UNL     1      -8.543   6.068  65.952  1.00  0.00    -0.150 A  
HETATM   23  C   UNL     1      -9.463   5.072  66.272  1.00  0.00    -0.157 A  
HETATM   24  O   UNL     1      -9.402   3.784  65.807  1.00  0.00    -0.149 OA 
HETATM   25  C   UNL     1     -10.530   5.403  67.091  1.00  0.00    -0.298 A  
HETATM   26  C   UNL     1      -8.585   3.640  64.648  1.00  0.00    -0.104 C  
HETATM   27  C   UNL     1     -10.672   6.719  67.529  1.00  0.00    -0.381 A  
HETATM   28  C   UNL     1      -7.241   4.374  64.767  1.00  0.00    -0.070 C  
HETATM   29  C   UNL     1      -8.345   2.146  64.406  1.00  0.00    -0.082 C  
HETATM   30  C   UNL     1      -9.286   4.231  63.399  1.00  0.00    -0.133 C  
HETATM   31  N   UNL     1      -7.386   5.672  65.228  1.00  0.00    -0.070 N  
HETATM   32  O   UNL     1      -6.182   3.930  64.326  1.00  0.00    -0.022 OA 
BRANCH  31  33
HETATM   33  C   UNL     1      -6.417   6.613  64.775  1.00  0.00    -0.042 C  
BRANCH  33  34
HETATM   34  O   UNL     1      -6.956   7.380  63.747  1.00  0.00    -0.054 OA 
HETATM   35  P   UNL     1      -6.416   9.018  63.890  1.00  0.00    -0.090 P  
HETATM   36  O   UNL     1      -7.969   9.357  63.509  1.00  0.00    -0.126 OA 
HETATM   37  O   UNL     1      -5.869   8.801  62.367  1.00  0.00    -0.087 OA 
HETATM   38  O   UNL     1      -5.934  10.483  64.018  1.00  0.00    -0.127 OA 
ENDBRANCH  33  34
ENDBRANCH  31  33
ENDBRANCH  18  20
ENDBRANCH  14  18
ENDBRANCH   9  11
ENDBRANCH   5   9
BRANCH   7  39
HETATM   39  O   UNL     1      -8.442  18.080  65.877  1.00  0.00    -0.509 OA 
HETATM   40  C   UNL     1      -7.033  18.075  66.038  1.00  0.00    -0.305 C  
ENDBRANCH   7  39
BRANCH   8  41
HETATM   41  O   UNL     1     -10.864  18.509  67.360  1.00  0.00    -0.421 OA 
HETATM   42  C   UNL     1     -10.492  19.421  68.378  1.00  0.00    -0.251 C  
ENDBRANCH   8  41
ENDBRANCH   2   3
TORSDOF 9
ENDMDL
MODEL      158
REMARK 921   NORMALIZED FREE ENERGY PREDICTED BY IDOCK:   -4.91 KCAL/MOL
REMARK 922        TOTAL FREE ENERGY PREDICTED BY IDOCK:   -9.36 KCAL/MOL
REMARK 923 INTER-LIGAND FREE ENERGY PREDICTED BY IDOCK:   -8.10 KCAL/MOL
REMARK 924 INTRA-LIGAND FREE ENERGY PREDICTED BY IDOCK:   -1.26 KCAL/MOL
REMARK 927      BINDING AFFINITY PREDICTED BY RF-SCORE:    0.00 PKD
ROOT
HETATM    1  C   UNL     1     -10.230   4.624  66.955  1.00  0.00    -0.155 C  
HETATM    2  O   UNL     1      -9.224   4.549  65.942  1.00  0.00    -0.128 OA 
ENDROOT
BRANCH   2   3
HETATM    3  C   UNL     1      -8.717   5.765  65.553  1.00  0.00    -0.138 A  
HETATM    4  C   UNL     1      -8.966   6.904  66.339  1.00  0.00    -0.172 A  
HETATM    5  C   UNL     1      -8.577   8.180  65.953  1.00  0.00    -0.151 A  
HETATM    6  C   UNL     1      -7.882   8.279  64.745  1.00  0.00    -0.129 A  
HETATM    7  C   UNL     1      -7.553   7.159  63.962  1.00  0.00    -0.113 A  
HETATM    8  C   UNL     1      -7.942   5.869  64.380  1.00  0.00    -0.129 A  
BRANCH   5   9
HETATM    9  N   UNL     1      -8.867   9.333  66.690  1.00  0.00    -0.126 NA 
HETATM   10  H   UNL     1      -9.784   9.725  66.478  1.00  0.00     0.000 HD 
BRANCH   9  11
HETATM   11  C   UNL     1      -8.169  10.060  67.654  1.00  0.00    -0.114 A  
HETATM   12  N   UNL     1      -8.148   9.484  68.864  1.00  0.00    -0.094 NA 
HETATM   13  N   UNL     1      -7.565  11.239  67.390  1.00  0.00    -0.113 NA 
HETATM   14  C   UNL     1      -6.909  11.884  68.389  1.00  0.00    -0.071 A  
HETATM   15  F   UNL     1      -6.092  11.858  70.637  1.00  0.00    -0.166 F  
HETATM   16  C   UNL     1      -7.461  10.125  69.832  1.00  0.00    -0.170 A  
HETATM   17  C   UNL     1      -6.793  11.311  69.636  1.00  0.00    -0.095 A  
BRANCH  14  18
HETATM   18  N   UNL     1      -6.310  13.103  68.027  1.00  0.00    -0.110 NA 
HETATM   19  H   UNL     1      -5.349  13.012  67.697  1.00  0.00     0.000 HD 
BRANCH  18  20
HETATM   20  C   UNL     1      -6.793  14.431  68.037  1.00  0.00    -0.143 A  
HETATM   21  N   UNL     1      -7.712  14.877  67.153  1.00  0.00    -0.191 NA 
HETATM   22  C   UNL     1      -8.194  16.152  67.268  1.00  0.00    -0.177 A  
HETATM   23  C   UNL     1      -7.702  17.049  68.214  1.00  0.00    -0.209 A  
HETATM   24  O   UNL     1      -8.072  18.367  68.296  1.00  0.00    -0.280 OA 
HETATM   25  C   UNL     1      -6.756  16.596  69.118  1.00  0.00    -0.217 A  
HETATM   26  C   UNL     1      -8.666  18.863  67.099  1.00  0.00    -0.284 C  
HETATM   27  C   UNL     1      -6.297  15.283  69.025  1.00  0.00    -0.108 A  
HETATM   28  C   UNL     1      -9.714  17.908  66.509  1.00  0.00    -0.329 C  
HETATM   29  C   UNL     1      -9.307  20.221  67.401  1.00  0.00    -0.531 C  
HETATM   30  C   UNL     1      -7.598  19.062  65.993  1.00  0.00    -0.273 C  
HETATM   31  N   UNL     1      -9.262  16.601  66.445  1.00  0.00    -0.269 N  
HETATM   32  O   UNL     1     -10.758  18.287  65.980  1.00  0.00    -0.355 OA 
BRANCH  31  33
HETATM   33  C   UNL     1      -9.792  15.802  65.390  1.00  0.00    -0.177 C  
BRANCH  33  34
HETATM   34  O   UNL     1     -11.141  15.554  65.626  1.00  0.00    -0.308 OA 
HETATM   35  P   UNL     1     -11.462  13.860  65.481  1.00  0.00    -0.340 P  
HETATM   36  O   UNL     1     -12.798  14.379  64.696  1.00  0.00    -0.643 OA 
HETATM   37  O   UNL     1     -12.042  14.005  67.001  1.00  0.00    -0.427 OA 
HETATM   38  O   UNL     1     -11.749  12.344  65.352  1.00  0.00    -0.372 OA 
ENDBRANCH  33  34
ENDBRANCH  31  33
ENDBRANCH  18  20
ENDBRANCH  14  18
ENDBRANCH   9  11
ENDBRANCH   5   9
BRANCH   7  39
HETATM   39  O   UNL     1      -6.906   7.527  62.807  1.00  0.00    -0.068 OA 
HETATM   40  C   UNL     1      -6.917   8.880  62.382  1.00  0.00    -0.092 C  
ENDBRANCH   7  39
BRANCH   8  41
HETATM   41  O   UNL     1      -7.491   4.833  63.613  1.00  0.00    -0.053 OA 
HETATM   42  C   UNL     1      -8.248   4.251  62.566  1.00  0.00    -0.078 C  
ENDBRANCH   8  41
ENDBRANCH   2   3
TORSDOF 9
ENDMDL
MODEL      159
REMARK 921   NORMALIZED FREE ENERGY PREDICTED BY IDOCK:   -4.91 KCAL/MOL
REMARK 922        TOTAL FREE ENERGY PREDICTED BY IDOCK:   -9.36 KCAL/MOL
REMARK 923 INTER-LIGAND FREE ENERGY PREDICTED BY IDOCK:   -8.30 KCAL/MOL
REMARK 924 INTRA-LIGAND FREE ENERGY PREDICTED BY IDOCK:   -1.06 KCAL/MOL
REMARK 927      BINDING AFFINITY PREDICTED BY RF-SCORE:    0.00 PKD
ROOT
HETATM    1  C   UNL     1     -13.953  13.186  72.330  1.00  0.00    -0.397 C  
HETATM    2  O   UNL     1     -12.603  13.614  72.136  1.00  0.00    -0.191 OA 
ENDROOT
BRANCH   2   3
HETATM    3  C   UNL     1     -12.305  13.993  70.850  1.00  0.00    -0.372 A  
HETATM    4  C   UNL     1     -12.351  13.038  69.818  1.00  0.00    -0.141 A  
HETATM    5  C   UNL     1     -11.959  13.324  68.516  1.00  0.00    -0.304 A  
HETATM    6  C   UNL     1     -11.546  14.634  68.265  1.00  0.00    -0.353 A  
HETATM    7  C   UNL     1     -11.549  15.636  69.250  1.00  0.00    -0.366 A  
HETATM    8  C   UNL     1     -11.967  15.331  70.564  1.00  0.00    -0.344 A  
BRANCH   5   9
HETATM    9  N   UNL     1     -11.940  12.374  67.490  1.00  0.00    -0.506 NA 
HETATM   10  H   UNL     1     -12.861  11.991  67.279  1.00  0.00     0.000 HD 
BRANCH   9  11
HETATM   11  C   UNL     1     -10.927  11.839  66.693  1.00  0.00    -0.294 A  
HETATM   12  N   UNL     1     -11.286  11.639  65.417  1.00  0.00    -0.246 NA 
HETATM   13  N   UNL     1      -9.696  11.550  67.165  1.00  0.00    -0.183 NA 
HETATM   14  C   UNL     1      -8.770  11.027  66.321  1.00  0.00    -0.176 A  
HETATM   15  F   UNL     1      -8.159  10.428  64.087  1.00  0.00    -0.157 F  
HETATM   16  C   UNL     1     -10.339  11.151  64.588  1.00  0.00    -0.330 A  
HETATM   17  C   UNL     1      -9.055  10.862  64.983  1.00  0.00    -0.190 A  
BRANCH  14  18
HETATM   18  N   UNL     1      -7.516  10.756  66.896  1.00  0.00    -0.113 NA 
HETATM   19  H   UNL     1      -6.736  10.831  66.243  1.00  0.00     0.000 HD 
BRANCH  18  20
HETATM   20  C   UNL     1      -7.138  10.400  68.210  1.00  0.00    -0.078 A  
HETATM   21  N   UNL     1      -7.273   9.146  68.692  1.00  0.00    -0.074 NA 
HETATM   22  C   UNL     1      -6.814   8.852  69.946  1.00  0.00    -0.046 A  
HETATM   23  C   UNL     1      -6.291   9.828  70.792  1.00  0.00    -0.095 A  
HETATM   24  O   UNL     1      -5.922   9.606  72.094  1.00  0.00    -0.285 OA 
HETATM   25  C   UNL     1      -6.156  11.117  70.303  1.00  0.00    -0.144 A  
HETATM   26  C   UNL     1      -6.499   8.427  72.652  1.00  0.00    -0.091 C  
HETATM   27  C   UNL     1      -6.585  11.403  69.008  1.00  0.00    -0.086 A  
HETATM   28  C   UNL     1      -6.410   7.215  71.714  1.00  0.00    -0.040 C  
HETATM   29  C   UNL     1      -5.790   8.119  73.975  1.00  0.00    -0.086 C  
HETATM   30  C   UNL     1      -8.008   8.634  72.942  1.00  0.00     0.020 C  
HETATM   31  N   UNL     1      -6.813   7.513  70.423  1.00  0.00    -0.047 N  
HETATM   32  O   UNL     1      -6.191   6.069  72.103  1.00  0.00    -0.040 OA 
BRANCH  31  33
HETATM   33  C   UNL     1      -7.394   6.445  69.681  1.00  0.00    -0.080 C  
BRANCH  33  34
HETATM   34  O   UNL     1      -8.779   6.581  69.674  1.00  0.00    -0.136 OA 
HETATM   35  P   UNL     1      -9.499   5.320  70.615  1.00  0.00    -0.188 P  
HETATM   36  O   UNL     1     -10.572   5.281  69.383  1.00  0.00    -0.252 OA 
HETATM   37  O   UNL     1     -10.179   6.549  71.447  1.00  0.00    -0.195 OA 
HETATM   38  O   UNL     1     -10.143   4.191  71.456  1.00  0.00    -0.179 OA 
ENDBRANCH  33  34
ENDBRANCH  31  33
ENDBRANCH  18  20
ENDBRANCH  14  18
ENDBRANCH   9  11
ENDBRANCH   5   9
BRANCH   7  39
HETATM   39  O   UNL     1     -11.060  16.823  68.761  1.00  0.00    -0.306 OA 
HETATM   40  C   UNL     1     -10.414  16.864  67.499  1.00  0.00    -0.328 C  
ENDBRANCH   7  39
BRANCH   8  41
HETATM   41  O   UNL     1     -12.035  16.386  71.427  1.00  0.00    -0.362 OA 
HETATM   42  C   UNL     1     -11.952  16.248  72.835  1.00  0.00    -0.516 C  
ENDBRANCH   8  41
ENDBRANCH   2   3
TORSDOF 9
ENDMDL
MODEL      160
REMARK 921   NORMALIZED FREE ENERGY PREDICTED BY IDOCK:   -4.88 KCAL/MOL
REMARK 922        TOTAL FREE ENERGY PREDICTED BY IDOCK:   -9.31 KCAL/MOL
REMARK 923 INTER-LIGAND FREE ENERGY PREDICTED BY IDOCK:   -7.23 KCAL/MOL
REMARK 924 INTRA-LIGAND FREE ENERGY PREDICTED BY IDOCK:   -2.08 KCAL/MOL
REMARK 927      BINDING AFFINITY PREDICTED BY RF-SCORE:    0.00 PKD
ROOT
HETATM    1  C   UNL     1      -5.686   7.736  71.672  1.00  0.00    -0.035 C  
HETATM    2  O   UNL     1      -5.968   6.368  71.363  1.00  0.00    -0.034 OA 
ENDROOT
BRANCH   2   3
HETATM    3  C   UNL     1      -7.187   5.923  71.810  1.00  0.00    -0.091 A  
HETATM    4  C   UNL     1      -8.166   6.856  72.199  1.00  0.00    -0.105 A  
HETATM    5  C   UNL     1      -9.379   6.479  72.760  1.00  0.00    -0.139 A  
HETATM    6  C   UNL     1      -9.604   5.106  72.889  1.00  0.00    -0.162 A  
HETATM    7  C   UNL     1      -8.682   4.139  72.453  1.00  0.00    -0.107 A  
HETATM    8  C   UNL     1      -7.462   4.542  71.869  1.00  0.00    -0.075 A  
BRANCH   5   9
HETATM    9  N   UNL     1     -10.340   7.391  73.209  1.00  0.00    -0.322 NA 
HETATM   10  H   UNL     1     -10.424   7.419  74.224  1.00  0.00     0.000 HD 
BRANCH   9  11
HETATM   11  C   UNL     1     -11.208   8.270  72.561  1.00  0.00    -0.376 A  
HETATM   12  N   UNL     1     -12.495   8.117  72.903  1.00  0.00    -0.091 NA 
HETATM   13  N   UNL     1     -10.788   9.194  71.671  1.00  0.00    -0.360 NA 
HETATM   14  C   UNL     1     -11.702  10.009  71.082  1.00  0.00    -0.387 A  
HETATM   15  F   UNL     1     -13.964  10.776  70.959  1.00  0.00     0.193 F  
HETATM   16  C   UNL     1     -13.381   8.961  72.332  1.00  0.00    -0.440 A  
HETATM   17  C   UNL     1     -13.030   9.948  71.443  1.00  0.00    -0.407 A  
BRANCH  14  18
HETATM   18  N   UNL     1     -11.179  10.940  70.169  1.00  0.00    -0.433 NA 
HETATM   19  H   UNL     1     -11.149  11.897  70.523  1.00  0.00     0.000 HD 
BRANCH  18  20
HETATM   20  C   UNL     1     -10.686  10.796  68.852  1.00  0.00    -0.222 A  
HETATM   21  N   UNL     1      -9.881   9.777  68.484  1.00  0.00    -0.153 NA 
HETATM   22  C   UNL     1      -9.504   9.654  67.175  1.00  0.00    -0.148 A  
HETATM   23  C   UNL     1      -9.846  10.601  66.213  1.00  0.00    -0.214 A  
HETATM   24  O   UNL     1      -9.400  10.582  64.916  1.00  0.00    -0.195 OA 
HETATM   25  C   UNL     1     -10.666  11.652  66.588  1.00  0.00    -0.310 A  
HETATM   26  C   UNL     1      -8.238   9.778  64.730  1.00  0.00    -0.148 C  
HETATM   27  C   UNL     1     -11.084  11.751  67.915  1.00  0.00    -0.302 A  
HETATM   28  C   UNL     1      -8.337   8.412  65.425  1.00  0.00    -0.157 C  
HETATM   29  C   UNL     1      -8.018   9.585  63.225  1.00  0.00    -0.143 C  
HETATM   30  C   UNL     1      -6.984  10.470  65.322  1.00  0.00    -0.045 C  
HETATM   31  N   UNL     1      -8.778   8.515  66.733  1.00  0.00    -0.119 N  
HETATM   32  O   UNL     1      -7.895   7.370  64.942  1.00  0.00    -0.112 OA 
BRANCH  31  33
HETATM   33  C   UNL     1      -8.305   7.521  67.638  1.00  0.00    -0.118 C  
BRANCH  33  34
HETATM   34  O   UNL     1      -9.035   6.349  67.467  1.00  0.00    -0.118 OA 
HETATM   35  P   UNL     1     -10.229   6.213  68.714  1.00  0.00    -0.232 P  
HETATM   36  O   UNL     1      -9.758   4.648  68.723  1.00  0.00    -0.160 OA 
HETATM   37  O   UNL     1     -11.282   6.109  67.471  1.00  0.00    -0.292 OA 
HETATM   38  O   UNL     1     -11.296   6.092  69.828  1.00  0.00    -0.411 OA 
ENDBRANCH  33  34
ENDBRANCH  31  33
ENDBRANCH  18  20
ENDBRANCH  14  18
ENDBRANCH   9  11
ENDBRANCH   5   9
BRANCH   7  39
HETATM   39  O   UNL     1      -9.120   2.866  72.730  1.00  0.00    -0.085 OA 
HETATM   40  C   UNL     1     -10.271   2.350  72.081  1.00  0.00    -0.109 C  
ENDBRANCH   7  39
BRANCH   8  41
HETATM   41  O   UNL     1      -6.675   3.539  71.380  1.00  0.00    -0.029 OA 
HETATM   42  C   UNL     1      -7.021   2.757  70.250  1.00  0.00    -0.034 C  
ENDBRANCH   8  41
ENDBRANCH   2   3
TORSDOF 9
ENDMDL
MODEL      161
REMARK 921   NORMALIZED FREE ENERGY PREDICTED BY IDOCK:   -4.88 KCAL/MOL
REMARK 922        TOTAL FREE ENERGY PREDICTED BY IDOCK:   -9.31 KCAL/MOL
REMARK 923 INTER-LIGAND FREE ENERGY PREDICTED BY IDOCK:   -8.15 KCAL/MOL
REMARK 924 INTRA-LIGAND FREE ENERGY PREDICTED BY IDOCK:   -1.16 KCAL/MOL
REMARK 927      BINDING AFFINITY PREDICTED BY RF-SCORE:    0.00 PKD
ROOT
HETATM    1  C   UNL     1     -10.507  20.091  68.327  1.00  0.00    -0.268 C  
HETATM    2  O   UNL     1      -9.447  19.283  68.843  1.00  0.00    -0.384 OA 
ENDROOT
BRANCH   2   3
HETATM    3  C   UNL     1      -8.760  18.569  67.892  1.00  0.00    -0.284 A  
HETATM    4  C   UNL     1      -9.147  17.248  67.603  1.00  0.00    -0.228 A  
HETATM    5  C   UNL     1      -8.434  16.432  66.733  1.00  0.00    -0.244 A  
HETATM    6  C   UNL     1      -7.317  17.004  66.119  1.00  0.00    -0.225 A  
HETATM    7  C   UNL     1      -6.934  18.340  66.328  1.00  0.00    -0.249 A  
HETATM    8  C   UNL     1      -7.681  19.158  67.202  1.00  0.00    -0.245 A  
BRANCH   5   9
HETATM    9  N   UNL     1      -8.767  15.098  66.478  1.00  0.00    -0.399 NA 
HETATM   10  H   UNL     1      -9.384  14.984  65.674  1.00  0.00     0.000 HD 
BRANCH   9  11
HETATM   11  C   UNL     1      -8.434  13.889  67.090  1.00  0.00    -0.180 A  
HETATM   12  N   UNL     1      -7.119  13.727  67.297  1.00  0.00    -0.104 NA 
HETATM   13  N   UNL     1      -9.354  12.966  67.442  1.00  0.00    -0.187 NA 
HETATM   14  C   UNL     1      -8.942  11.813  68.030  1.00  0.00    -0.176 A  
HETATM   15  F   UNL     1      -7.156  10.539  68.983  1.00  0.00    -0.059 F  
HETATM   16  C   UNL     1      -6.736  12.589  67.914  1.00  0.00    -0.103 A  
HETATM   17  C   UNL     1      -7.612  11.616  68.333  1.00  0.00    -0.126 A  
BRANCH  14  18
HETATM   18  N   UNL     1      -9.964  10.909  68.364  1.00  0.00    -0.172 NA 
HETATM   19  H   UNL     1     -10.688  10.818  67.651  1.00  0.00     0.000 HD 
BRANCH  18  20
HETATM   20  C   UNL     1     -10.175  10.102  69.506  1.00  0.00    -0.236 A  
HETATM   21  N   UNL     1      -9.419   9.017  69.779  1.00  0.00    -0.168 NA 
HETATM   22  C   UNL     1      -9.626   8.326  70.942  1.00  0.00    -0.165 A  
HETATM   23  C   UNL     1     -10.658   8.646  71.820  1.00  0.00    -0.325 A  
HETATM   24  O   UNL     1     -10.976   7.918  72.938  1.00  0.00    -0.377 OA 
HETATM   25  C   UNL     1     -11.439   9.755  71.540  1.00  0.00    -0.393 A  
HETATM   26  C   UNL     1     -10.461   6.589  72.912  1.00  0.00    -0.222 C  
HETATM   27  C   UNL     1     -11.198  10.483  70.376  1.00  0.00    -0.378 A  
HETATM   28  C   UNL     1      -8.993   6.524  72.465  1.00  0.00    -0.135 C  
HETATM   29  C   UNL     1     -10.608   5.984  74.313  1.00  0.00    -0.095 C  
HETATM   30  C   UNL     1     -11.253   5.708  71.914  1.00  0.00    -0.246 C  
HETATM   31  N   UNL     1      -8.755   7.270  71.323  1.00  0.00    -0.127 N  
HETATM   32  O   UNL     1      -8.169   5.750  72.948  1.00  0.00    -0.117 OA 
BRANCH  31  33
HETATM   33  C   UNL     1      -7.714   6.801  70.469  1.00  0.00    -0.104 C  
BRANCH  33  34
HETATM   34  O   UNL     1      -8.204   5.789  69.649  1.00  0.00    -0.105 OA 
HETATM   35  P   UNL     1      -7.774   6.107  68.003  1.00  0.00    -0.104 P  
HETATM   36  O   UNL     1      -9.304   5.611  67.713  1.00  0.00    -0.110 OA 
HETATM   37  O   UNL     1      -7.083   4.629  68.068  1.00  0.00    -0.059 OA 
HETATM   38  O   UNL     1      -7.389   6.391  66.531  1.00  0.00    -0.075 OA 
ENDBRANCH  33  34
ENDBRANCH  31  33
ENDBRANCH  18  20
ENDBRANCH  14  18
ENDBRANCH   9  11
ENDBRANCH   5   9
BRANCH   7  39
HETATM   39  O   UNL     1      -5.782  18.645  65.644  1.00  0.00    -0.158 OA 
HETATM   40  C   UNL     1      -5.851  19.158  64.323  1.00  0.00    -0.261 C  
ENDBRANCH   7  39
BRANCH   8  41
HETATM   41  O   UNL     1      -7.299  20.468  67.265  1.00  0.00    -0.291 OA 
HETATM   42  C   UNL     1      -6.380  20.967  68.221  1.00  0.00    -0.269 C  
ENDBRANCH   8  41
ENDBRANCH   2   3
TORSDOF 9
ENDMDL
MODEL      162
REMARK 921   NORMALIZED FREE ENERGY PREDICTED BY IDOCK:   -4.87 KCAL/MOL
REMARK 922        TOTAL FREE ENERGY PREDICTED BY IDOCK:   -9.29 KCAL/MOL
REMARK 923 INTER-LIGAND FREE ENERGY PREDICTED BY IDOCK:   -7.97 KCAL/MOL
REMARK 924 INTRA-LIGAND FREE ENERGY PREDICTED BY IDOCK:   -1.32 KCAL/MOL
REMARK 927      BINDING AFFINITY PREDICTED BY RF-SCORE:    0.00 PKD
ROOT
HETATM    1  C   UNL     1      -7.417   5.065  71.099  1.00  0.00    -0.074 C  
HETATM    2  O   UNL     1      -7.821   6.153  71.934  1.00  0.00    -0.100 OA 
ENDROOT
BRANCH   2   3
HETATM    3  C   UNL     1      -8.127   7.308  71.256  1.00  0.00    -0.102 A  
HETATM    4  C   UNL     1      -7.095   8.196  70.900  1.00  0.00    -0.050 A  
HETATM    5  C   UNL     1      -7.341   9.430  70.311  1.00  0.00    -0.118 A  
HETATM    6  C   UNL     1      -8.678   9.739  70.049  1.00  0.00    -0.237 A  
HETATM    7  C   UNL     1      -9.732   8.853  70.326  1.00  0.00    -0.185 A  
HETATM    8  C   UNL     1      -9.462   7.596  70.910  1.00  0.00    -0.164 A  
BRANCH   5   9
HETATM    9  N   UNL     1      -6.336  10.353  70.004  1.00  0.00    -0.094 NA 
HETATM   10  H   UNL     1      -5.566   9.948  69.473  1.00  0.00     0.000 HD 
BRANCH   9  11
HETATM   11  C   UNL     1      -6.163  11.712  70.271  1.00  0.00    -0.068 A  
HETATM   12  N   UNL     1      -5.563  11.966  71.442  1.00  0.00    -0.372 NA 
HETATM   13  N   UNL     1      -6.563  12.684  69.423  1.00  0.00    -0.098 NA 
HETATM   14  C   UNL     1      -6.360  13.983  69.764  1.00  0.00    -0.134 A  
HETATM   15  F   UNL     1      -5.386  15.564  71.271  1.00  0.00    -0.151 F  
HETATM   16  C   UNL     1      -5.339  13.262  71.744  1.00  0.00    -0.108 A  
HETATM   17  C   UNL     1      -5.687  14.307  70.921  1.00  0.00    -0.199 A  
BRANCH  14  18
HETATM   18  N   UNL     1      -6.807  14.928  68.825  1.00  0.00    -0.097 NA 
HETATM   19  H   UNL     1      -6.329  15.827  68.881  1.00  0.00     0.000 HD 
BRANCH  18  20
HETATM   20  C   UNL     1      -7.797  14.862  67.818  1.00  0.00    -0.152 A  
HETATM   21  N   UNL     1      -8.646  13.819  67.699  1.00  0.00    -0.174 NA 
HETATM   22  C   UNL     1      -9.631  13.856  66.750  1.00  0.00    -0.283 A  
HETATM   23  C   UNL     1      -9.736  14.897  65.830  1.00  0.00    -0.333 A  
HETATM   24  O   UNL     1     -10.633  14.924  64.793  1.00  0.00    -0.407 OA 
HETATM   25  C   UNL     1      -8.862  15.965  65.945  1.00  0.00    -0.168 A  
HETATM   26  C   UNL     1     -11.158  13.640  64.466  1.00  0.00    -0.386 C  
HETATM   27  C   UNL     1      -7.887  15.945  66.941  1.00  0.00    -0.282 A  
HETATM   28  C   UNL     1     -11.587  12.835  65.701  1.00  0.00    -0.370 C  
HETATM   29  C   UNL     1     -12.352  13.830  63.524  1.00  0.00    -0.172 C  
HETATM   30  C   UNL     1     -10.096  12.776  63.739  1.00  0.00    -0.039 C  
HETATM   31  N   UNL     1     -10.625  12.841  66.697  1.00  0.00    -0.255 N  
HETATM   32  O   UNL     1     -12.582  12.113  65.730  1.00  0.00    -0.344 OA 
BRANCH  31  33
HETATM   33  C   UNL     1     -10.575  11.688  67.533  1.00  0.00    -0.209 C  
BRANCH  33  34
HETATM   34  O   UNL     1     -10.794  10.547  66.767  1.00  0.00    -0.224 OA 
HETATM   35  P   UNL     1      -9.282   9.799  66.381  1.00  0.00    -0.180 P  
HETATM   36  O   UNL     1      -9.972   9.613  64.911  1.00  0.00    -0.173 OA 
HETATM   37  O   UNL     1      -9.937   8.482  67.089  1.00  0.00    -0.192 OA 
HETATM   38  O   UNL     1      -7.930   9.130  66.036  1.00  0.00    -0.101 OA 
ENDBRANCH  33  34
ENDBRANCH  31  33
ENDBRANCH  18  20
ENDBRANCH  14  18
ENDBRANCH   9  11
ENDBRANCH   5   9
BRANCH   7  39
HETATM   39  O   UNL     1     -10.950   9.408  70.015  1.00  0.00    -0.230 OA 
HETATM   40  C   UNL     1     -11.770   9.952  71.037  1.00  0.00    -0.382 C  
ENDBRANCH   7  39
BRANCH   8  41
HETATM   41  O   UNL     1     -10.533   6.761  71.048  1.00  0.00    -0.209 OA 
HETATM   42  C   UNL     1     -11.024   5.943  70.001  1.00  0.00    -0.360 C  
ENDBRANCH   8  41
ENDBRANCH   2   3
TORSDOF 9
ENDMDL
MODEL      163
REMARK 921   NORMALIZED FREE ENERGY PREDICTED BY IDOCK:   -4.86 KCAL/MOL
REMARK 922        TOTAL FREE ENERGY PREDICTED BY IDOCK:   -9.28 KCAL/MOL
REMARK 923 INTER-LIGAND FREE ENERGY PREDICTED BY IDOCK:   -8.04 KCAL/MOL
REMARK 924 INTRA-LIGAND FREE ENERGY PREDICTED BY IDOCK:   -1.24 KCAL/MOL
REMARK 927      BINDING AFFINITY PREDICTED BY RF-SCORE:    0.00 PKD
ROOT
HETATM    1  C   UNL     1      -5.814  16.459  67.333  1.00  0.00    -0.158 C  
HETATM    2  O   UNL     1      -6.980  16.271  66.527  1.00  0.00    -0.199 OA 
ENDROOT
BRANCH   2   3
HETATM    3  C   UNL     1      -7.925  15.440  67.076  1.00  0.00    -0.224 A  
HETATM    4  C   UNL     1      -7.618  14.083  67.283  1.00  0.00    -0.094 A  
HETATM    5  C   UNL     1      -8.557  13.164  67.733  1.00  0.00    -0.188 A  
HETATM    6  C   UNL     1      -9.832  13.663  68.012  1.00  0.00    -0.244 A  
HETATM    7  C   UNL     1     -10.161  15.023  67.884  1.00  0.00    -0.228 A  
HETATM    8  C   UNL     1      -9.189  15.945  67.442  1.00  0.00    -0.201 A  
BRANCH   5   9
HETATM    9  N   UNL     1      -8.290  11.799  67.888  1.00  0.00    -0.141 NA 
HETATM   10  H   UNL     1      -7.333  11.608  68.183  1.00  0.00     0.000 HD 
BRANCH   9  11
HETATM   11  C   UNL     1      -9.055  10.644  67.723  1.00  0.00    -0.143 A  
HETATM   12  N   UNL     1      -8.908  10.058  66.527  1.00  0.00    -0.138 NA 
HETATM   13  N   UNL     1      -9.870  10.160  68.685  1.00  0.00    -0.157 NA 
HETATM   14  C   UNL     1     -10.584   9.031  68.439  1.00  0.00    -0.154 A  
HETATM   15  F   UNL     1     -11.037   7.184  66.988  1.00  0.00    -0.415 F  
HETATM   16  C   UNL     1      -9.600   8.918  66.318  1.00  0.00    -0.260 A  
HETATM   17  C   UNL     1     -10.424   8.344  67.256  1.00  0.00    -0.303 A  
BRANCH  14  18
HETATM   18  N   UNL     1     -11.406   8.597  69.493  1.00  0.00    -0.421 NA 
HETATM   19  H   UNL     1     -12.280   9.116  69.579  1.00  0.00     0.000 HD 
BRANCH  18  20
HETATM   20  C   UNL     1     -11.245   7.575  70.456  1.00  0.00    -0.269 A  
HETATM   21  N   UNL     1     -10.058   6.976  70.689  1.00  0.00    -0.191 NA 
HETATM   22  C   UNL     1      -9.955   6.049  71.690  1.00  0.00    -0.179 A  
HETATM   23  C   UNL     1     -11.060   5.626  72.425  1.00  0.00    -0.271 A  
HETATM   24  O   UNL     1     -11.030   4.622  73.359  1.00  0.00    -0.260 OA 
HETATM   25  C   UNL     1     -12.281   6.234  72.184  1.00  0.00    -0.255 A  
HETATM   26  C   UNL     1      -9.902   3.760  73.226  1.00  0.00    -0.120 C  
HETATM   27  C   UNL     1     -12.373   7.210  71.193  1.00  0.00    -0.404 A  
HETATM   28  C   UNL     1      -8.585   4.524  73.019  1.00  0.00    -0.105 C  
HETATM   29  C   UNL     1      -9.808   2.886  74.480  1.00  0.00    -0.156 C  
HETATM   30  C   UNL     1     -10.057   2.832  71.994  1.00  0.00    -0.186 C  
HETATM   31  N   UNL     1      -8.691   5.509  72.052  1.00  0.00    -0.131 N  
HETATM   32  O   UNL     1      -7.514   4.177  73.514  1.00  0.00    -0.072 OA 
BRANCH  31  33
HETATM   33  C   UNL     1      -7.504   5.805  71.322  1.00  0.00    -0.095 C  
BRANCH  33  34
HETATM   34  O   UNL     1      -6.744   6.735  72.025  1.00  0.00    -0.057 OA 
HETATM   35  P   UNL     1      -7.225   8.339  71.589  1.00  0.00    -0.101 P  
HETATM   36  O   UNL     1      -5.614   8.614  71.599  1.00  0.00    -0.036 OA 
HETATM   37  O   UNL     1      -7.481   8.524  73.191  1.00  0.00    -0.298 OA 
HETATM   38  O   UNL     1      -7.656   9.774  71.199  1.00  0.00    -0.278 OA 
ENDBRANCH  33  34
ENDBRANCH  31  33
ENDBRANCH  18  20
ENDBRANCH  14  18
ENDBRANCH   9  11
ENDBRANCH   5   9
BRANCH   7  39
HETATM   39  O   UNL     1     -11.484  15.249  68.179  1.00  0.00    -0.328 OA 
HETATM   40  C   UNL     1     -12.302  14.190  68.650  1.00  0.00    -0.018 C  
ENDBRANCH   7  39
BRANCH   8  41
HETATM   41  O   UNL     1      -9.566  17.257  67.446  1.00  0.00    -0.246 OA 
HETATM   42  C   UNL     1      -9.202  18.169  68.467  1.00  0.00    -0.314 C  
ENDBRANCH   8  41
ENDBRANCH   2   3
TORSDOF 9
ENDMDL
MODEL      164
REMARK 921   NORMALIZED FREE ENERGY PREDICTED BY IDOCK:   -4.85 KCAL/MOL
REMARK 922        TOTAL FREE ENERGY PREDICTED BY IDOCK:   -9.27 KCAL/MOL
REMARK 923 INTER-LIGAND FREE ENERGY PREDICTED BY IDOCK:   -7.16 KCAL/MOL
REMARK 924 INTRA-LIGAND FREE ENERGY PREDICTED BY IDOCK:   -2.12 KCAL/MOL
REMARK 927      BINDING AFFINITY PREDICTED BY RF-SCORE:    0.00 PKD
ROOT
HETATM    1  C   UNL     1     -13.305  10.821  71.977  1.00  0.00    -0.298 C  
HETATM    2  O   UNL     1     -13.041  12.071  71.335  1.00  0.00    -0.344 OA 
ENDROOT
BRANCH   2   3
HETATM    3  C   UNL     1     -12.094  12.013  70.342  1.00  0.00    -0.321 A  
HETATM    4  C   UNL     1     -11.408  10.807  70.108  1.00  0.00    -0.390 A  
HETATM    5  C   UNL     1     -10.366  10.704  69.196  1.00  0.00    -0.221 A  
HETATM    6  C   UNL     1     -10.048  11.861  68.481  1.00  0.00    -0.211 A  
HETATM    7  C   UNL     1     -10.752  13.068  68.635  1.00  0.00    -0.248 A  
HETATM    8  C   UNL     1     -11.819  13.149  69.554  1.00  0.00    -0.322 A  
BRANCH   5   9
HETATM    9  N   UNL     1      -9.631   9.531  68.992  1.00  0.00    -0.161 NA 
HETATM   10  H   UNL     1      -9.565   9.264  68.010  1.00  0.00     0.000 HD 
BRANCH   9  11
HETATM   11  C   UNL     1      -8.970   8.649  69.847  1.00  0.00    -0.149 A  
HETATM   12  N   UNL     1      -8.428   9.236  70.924  1.00  0.00    -0.259 NA 
HETATM   13  N   UNL     1      -8.884   7.323  69.611  1.00  0.00    -0.141 NA 
HETATM   14  C   UNL     1      -8.217   6.536  70.495  1.00  0.00    -0.118 A  
HETATM   15  F   UNL     1      -7.101   6.332  72.601  1.00  0.00    -0.074 F  
HETATM   16  C   UNL     1      -7.800   8.430  71.806  1.00  0.00    -0.126 A  
HETATM   17  C   UNL     1      -7.698   7.068  71.655  1.00  0.00    -0.093 A  
BRANCH  14  18
HETATM   18  N   UNL     1      -8.176   5.168  70.172  1.00  0.00    -0.085 NA 
HETATM   19  H   UNL     1      -7.890   4.567  70.945  1.00  0.00     0.000 HD 
BRANCH  18  20
HETATM   20  C   UNL     1      -8.459   4.473  68.975  1.00  0.00    -0.079 A  
HETATM   21  N   UNL     1      -8.140   4.962  67.757  1.00  0.00    -0.094 NA 
HETATM   22  C   UNL     1      -8.372   4.201  66.643  1.00  0.00    -0.101 A  
HETATM   23  C   UNL     1      -9.015   2.967  66.708  1.00  0.00    -0.159 A  
HETATM   24  O   UNL     1      -9.369   2.221  65.614  1.00  0.00    -0.085 OA 
HETATM   25  C   UNL     1      -9.349   2.466  67.955  1.00  0.00    -0.253 A  
HETATM   26  C   UNL     1      -9.418   2.977  64.406  1.00  0.00    -0.145 C  
HETATM   27  C   UNL     1      -9.073   3.224  69.092  1.00  0.00    -0.207 A  
HETATM   28  C   UNL     1      -8.202   3.897  64.225  1.00  0.00    -0.090 C  
HETATM   29  C   UNL     1      -9.517   2.003  63.227  1.00  0.00    -0.095 C  
HETATM   30  C   UNL     1     -10.662   3.902  64.382  1.00  0.00    -0.200 C  
HETATM   31  N   UNL     1      -7.917   4.628  65.366  1.00  0.00    -0.097 N  
HETATM   32  O   UNL     1      -7.662   4.105  63.140  1.00  0.00    -0.063 OA 
BRANCH  31  33
HETATM   33  C   UNL     1      -7.318   5.905  65.164  1.00  0.00    -0.076 C  
BRANCH  33  34
HETATM   34  O   UNL     1      -8.311   6.858  64.955  1.00  0.00    -0.112 OA 
HETATM   35  P   UNL     1      -7.973   8.274  65.890  1.00  0.00    -0.108 P  
HETATM   36  O   UNL     1      -9.580   8.226  66.183  1.00  0.00    -0.209 OA 
HETATM   37  O   UNL     1      -8.043   9.044  64.453  1.00  0.00    -0.129 OA 
HETATM   38  O   UNL     1      -7.670   9.541  66.727  1.00  0.00    -0.097 OA 
ENDBRANCH  33  34
ENDBRANCH  31  33
ENDBRANCH  18  20
ENDBRANCH  14  18
ENDBRANCH   9  11
ENDBRANCH   5   9
BRANCH   7  39
HETATM   39  O   UNL     1     -10.220  14.063  67.851  1.00  0.00    -0.232 OA 
HETATM   40  C   UNL     1     -10.634  14.208  66.502  1.00  0.00    -0.282 C  
ENDBRANCH   7  39
BRANCH   8  41
HETATM   41  O   UNL     1     -12.511  14.326  69.563  1.00  0.00    -0.292 OA 
HETATM   42  C   UNL     1     -12.321  15.335  70.539  1.00  0.00    -0.387 C  
ENDBRANCH   8  41
ENDBRANCH   2   3
TORSDOF 9
ENDMDL
MODEL      165
REMARK 921   NORMALIZED FREE ENERGY PREDICTED BY IDOCK:   -4.85 KCAL/MOL
REMARK 922        TOTAL FREE ENERGY PREDICTED BY IDOCK:   -9.27 KCAL/MOL
REMARK 923 INTER-LIGAND FREE ENERGY PREDICTED BY IDOCK:   -7.31 KCAL/MOL
REMARK 924 INTRA-LIGAND FREE ENERGY PREDICTED BY IDOCK:   -1.96 KCAL/MOL
REMARK 927      BINDING AFFINITY PREDICTED BY RF-SCORE:    0.00 PKD
ROOT
HETATM    1  C   UNL     1      -7.552   3.252  73.109  1.00  0.00    -0.060 C  
HETATM    2  O   UNL     1      -8.473   4.345  73.177  1.00  0.00    -0.094 OA 
ENDROOT
BRANCH   2   3
HETATM    3  C   UNL     1      -8.328   5.274  72.176  1.00  0.00    -0.125 A  
HETATM    4  C   UNL     1      -9.128   5.180  71.022  1.00  0.00    -0.178 A  
HETATM    5  C   UNL     1      -8.963   6.018  69.927  1.00  0.00    -0.141 A  
HETATM    6  C   UNL     1      -7.975   6.999  70.038  1.00  0.00    -0.115 A  
HETATM    7  C   UNL     1      -7.200   7.171  71.197  1.00  0.00    -0.074 A  
HETATM    8  C   UNL     1      -7.394   6.321  72.307  1.00  0.00    -0.092 A  
BRANCH   5   9
HETATM    9  N   UNL     1      -9.707   5.903  68.747  1.00  0.00    -0.127 NA 
HETATM   10  H   UNL     1     -10.712   5.853  68.909  1.00  0.00     0.000 HD 
BRANCH   9  11
HETATM   11  C   UNL     1      -9.364   5.841  67.396  1.00  0.00    -0.112 A  
HETATM   12  N   UNL     1      -9.503   4.623  66.853  1.00  0.00    -0.150 NA 
HETATM   13  N   UNL     1      -8.933   6.913  66.698  1.00  0.00    -0.139 NA 
HETATM   14  C   UNL     1      -8.617   6.764  65.386  1.00  0.00    -0.047 A  
HETATM   15  F   UNL     1      -8.586   5.366  63.445  1.00  0.00    -0.128 F  
HETATM   16  C   UNL     1      -9.216   4.506  65.540  1.00  0.00    -0.152 A  
HETATM   17  C   UNL     1      -8.803   5.554  64.753  1.00  0.00     0.024 A  
BRANCH  14  18
HETATM   18  N   UNL     1      -8.177   7.930  64.736  1.00  0.00    -0.250 NA 
HETATM   19  H   UNL     1      -7.283   7.827  64.256  1.00  0.00     0.000 HD 
BRANCH  18  20
HETATM   20  C   UNL     1      -8.746   9.219  64.624  1.00  0.00    -0.192 A  
HETATM   21  N   UNL     1      -8.881  10.049  65.681  1.00  0.00    -0.153 NA 
HETATM   22  C   UNL     1      -9.368  11.313  65.488  1.00  0.00    -0.221 A  
HETATM   23  C   UNL     1      -9.822  11.751  64.247  1.00  0.00    -0.206 A  
HETATM   24  O   UNL     1     -10.420  12.965  64.027  1.00  0.00    -0.415 OA 
HETATM   25  C   UNL     1      -9.692  10.900  63.162  1.00  0.00    -0.396 A  
HETATM   26  C   UNL     1     -10.927  13.569  65.215  1.00  0.00    -0.295 C  
HETATM   27  C   UNL     1      -9.155   9.628  63.354  1.00  0.00    -0.213 A  
HETATM   28  C   UNL     1      -9.935  13.513  66.386  1.00  0.00    -0.295 C  
HETATM   29  C   UNL     1     -11.287  15.026  64.904  1.00  0.00    -0.419 C  
HETATM   30  C   UNL     1     -12.207  12.843  65.703  1.00  0.00    -0.519 C  
HETATM   31  N   UNL     1      -9.385  12.253  66.554  1.00  0.00    -0.228 N  
HETATM   32  O   UNL     1      -9.789  14.426  67.197  1.00  0.00    -0.245 OA 
BRANCH  31  33
HETATM   33  C   UNL     1      -9.021  11.897  67.885  1.00  0.00    -0.179 C  
BRANCH  33  34
HETATM   34  O   UNL     1     -10.168  11.746  68.658  1.00  0.00    -0.214 OA 
HETATM   35  P   UNL     1     -10.544  10.065  68.828  1.00  0.00    -0.232 P  
HETATM   36  O   UNL     1     -12.075  10.584  68.585  1.00  0.00    -0.324 OA 
HETATM   37  O   UNL     1     -10.469  10.376  70.429  1.00  0.00    -0.183 OA 
HETATM   38  O   UNL     1     -10.881   8.562  68.980  1.00  0.00    -0.140 OA 
ENDBRANCH  33  34
ENDBRANCH  31  33
ENDBRANCH  18  20
ENDBRANCH  14  18
ENDBRANCH   9  11
ENDBRANCH   5   9
BRANCH   7  39
HETATM   39  O   UNL     1      -6.274   8.174  71.038  1.00  0.00    -0.033 OA 
HETATM   40  C   UNL     1      -6.574   9.301  70.231  1.00  0.00    -0.062 C  
ENDBRANCH   7  39
BRANCH   8  41
HETATM   41  O   UNL     1      -6.671   6.625  73.424  1.00  0.00    -0.074 OA 
HETATM   42  C   UNL     1      -7.224   7.271  74.558  1.00  0.00    -0.110 C  
ENDBRANCH   8  41
ENDBRANCH   2   3
TORSDOF 9
ENDMDL
MODEL      166
REMARK 921   NORMALIZED FREE ENERGY PREDICTED BY IDOCK:   -4.83 KCAL/MOL
REMARK 922        TOTAL FREE ENERGY PREDICTED BY IDOCK:   -9.23 KCAL/MOL
REMARK 923 INTER-LIGAND FREE ENERGY PREDICTED BY IDOCK:   -7.90 KCAL/MOL
REMARK 924 INTRA-LIGAND FREE ENERGY PREDICTED BY IDOCK:   -1.34 KCAL/MOL
REMARK 927      BINDING AFFINITY PREDICTED BY RF-SCORE:    0.00 PKD
ROOT
HETATM    1  C   UNL     1      -7.461   4.740  70.211  1.00  0.00    -0.051 C  
HETATM    2  O   UNL     1      -7.986   5.620  71.207  1.00  0.00    -0.108 OA 
ENDROOT
BRANCH   2   3
HETATM    3  C   UNL     1      -8.317   6.871  70.745  1.00  0.00    -0.127 A  
HETATM    4  C   UNL     1      -7.295   7.765  70.375  1.00  0.00    -0.069 A  
HETATM    5  C   UNL     1      -7.550   9.079  70.002  1.00  0.00    -0.072 A  
HETATM    6  C   UNL     1      -8.892   9.468  69.974  1.00  0.00    -0.246 A  
HETATM    7  C   UNL     1      -9.946   8.588  70.271  1.00  0.00    -0.183 A  
HETATM    8  C   UNL     1      -9.669   7.252  70.631  1.00  0.00    -0.175 A  
BRANCH   5   9
HETATM    9  N   UNL     1      -6.546  10.001  69.689  1.00  0.00    -0.053 NA 
HETATM   10  H   UNL     1      -5.892   9.660  68.985  1.00  0.00     0.000 HD 
BRANCH   9  11
HETATM   11  C   UNL     1      -6.250  11.289  70.135  1.00  0.00    -0.147 A  
HETATM   12  N   UNL     1      -5.699  11.330  71.356  1.00  0.00    -0.352 NA 
HETATM   13  N   UNL     1      -6.496  12.396  69.401  1.00  0.00    -0.113 NA 
HETATM   14  C   UNL     1      -6.180  13.613  69.914  1.00  0.00    -0.118 A  
HETATM   15  F   UNL     1      -5.140  14.881  71.655  1.00  0.00    -0.135 F  
HETATM   16  C   UNL     1      -5.361  12.548  71.831  1.00  0.00     0.190 A  
HETATM   17  C   UNL     1      -5.548  13.717  71.134  1.00  0.00    -0.217 A  
BRANCH  14  18
HETATM   18  N   UNL     1      -6.469  14.709  69.084  1.00  0.00    -0.103 NA 
HETATM   19  H   UNL     1      -5.804  15.478  69.164  1.00  0.00     0.000 HD 
BRANCH  18  20
HETATM   20  C   UNL     1      -7.512  14.943  68.159  1.00  0.00    -0.115 A  
HETATM   21  N   UNL     1      -8.675  14.258  68.185  1.00  0.00    -0.167 NA 
HETATM   22  C   UNL     1      -9.673  14.589  67.309  1.00  0.00    -0.232 A  
HETATM   23  C   UNL     1      -9.500  15.553  66.319  1.00  0.00    -0.323 A  
HETATM   24  O   UNL     1     -10.427  15.840  65.350  1.00  0.00    -0.368 OA 
HETATM   25  C   UNL     1      -8.306  16.253  66.285  1.00  0.00    -0.343 A  
HETATM   26  C   UNL     1     -11.391  14.806  65.165  1.00  0.00    -0.379 C  
HETATM   27  C   UNL     1      -7.307  15.943  67.207  1.00  0.00    -0.251 A  
HETATM   28  C   UNL     1     -11.951  14.265  66.488  1.00  0.00    -0.427 C  
HETATM   29  C   UNL     1     -12.530  15.354  64.299  1.00  0.00     0.048 C  
HETATM   30  C   UNL     1     -10.764  13.590  64.435  1.00  0.00    -0.402 C  
HETATM   31  N   UNL     1     -10.955  13.984  67.409  1.00  0.00    -0.288 N  
HETATM   32  O   UNL     1     -13.126  13.938  66.646  1.00  0.00     0.204 OA 
BRANCH  31  33
HETATM   33  C   UNL     1     -11.226  12.930  68.329  1.00  0.00    -0.270 C  
BRANCH  33  34
HETATM   34  O   UNL     1     -12.276  13.299  69.164  1.00  0.00    -0.266 OA 
HETATM   35  P   UNL     1     -11.671  14.236  70.489  1.00  0.00    -0.132 P  
HETATM   36  O   UNL     1     -12.720  13.328  71.354  1.00  0.00    -0.354 OA 
HETATM   37  O   UNL     1     -12.740  15.357  69.973  1.00  0.00    -0.290 OA 
HETATM   38  O   UNL     1     -11.131  15.073  71.673  1.00  0.00    -0.281 OA 
ENDBRANCH  33  34
ENDBRANCH  31  33
ENDBRANCH  18  20
ENDBRANCH  14  18
ENDBRANCH   9  11
ENDBRANCH   5   9
BRANCH   7  39
HETATM   39  O   UNL     1     -11.163   9.224  70.212  1.00  0.00    -0.245 OA 
HETATM   40  C   UNL     1     -11.742   9.767  71.387  1.00  0.00    -0.398 C  
ENDBRANCH   7  39
BRANCH   8  41
HETATM   41  O   UNL     1     -10.755   6.443  70.801  1.00  0.00    -0.227 OA 
HETATM   42  C   UNL     1     -11.462   6.333  72.024  1.00  0.00    -0.310 C  
ENDBRANCH   8  41
ENDBRANCH   2   3
TORSDOF 9
ENDMDL
MODEL      167
REMARK 921   NORMALIZED FREE ENERGY PREDICTED BY IDOCK:   -4.82 KCAL/MOL
REMARK 922        TOTAL FREE ENERGY PREDICTED BY IDOCK:   -9.22 KCAL/MOL
REMARK 923 INTER-LIGAND FREE ENERGY PREDICTED BY IDOCK:   -8.06 KCAL/MOL
REMARK 924 INTRA-LIGAND FREE ENERGY PREDICTED BY IDOCK:   -1.16 KCAL/MOL
REMARK 927      BINDING AFFINITY PREDICTED BY RF-SCORE:    0.00 PKD
ROOT
HETATM    1  C   UNL     1     -12.788   7.126  71.202  1.00  0.00    -0.288 C  
HETATM    2  O   UNL     1     -12.094   6.239  72.083  1.00  0.00    -0.333 OA 
ENDROOT
BRANCH   2   3
HETATM    3  C   UNL     1     -10.802   5.961  71.709  1.00  0.00    -0.260 A  
HETATM    4  C   UNL     1     -10.055   6.934  71.020  1.00  0.00    -0.206 A  
HETATM    5  C   UNL     1      -8.784   6.686  70.518  1.00  0.00    -0.144 A  
HETATM    6  C   UNL     1      -8.256   5.416  70.764  1.00  0.00    -0.115 A  
HETATM    7  C   UNL     1      -8.939   4.438  71.506  1.00  0.00    -0.123 A  
HETATM    8  C   UNL     1     -10.223   4.715  72.023  1.00  0.00    -0.190 A  
BRANCH   5   9
HETATM    9  N   UNL     1      -8.050   7.618  69.778  1.00  0.00    -0.123 NA 
HETATM   10  H   UNL     1      -7.673   8.375  70.347  1.00  0.00     0.000 HD 
BRANCH   9  11
HETATM   11  C   UNL     1      -7.724   7.732  68.426  1.00  0.00    -0.119 A  
HETATM   12  N   UNL     1      -6.477   7.338  68.130  1.00  0.00    -0.044 NA 
HETATM   13  N   UNL     1      -8.588   8.198  67.499  1.00  0.00    -0.129 NA 
HETATM   14  C   UNL     1      -8.187   8.280  66.204  1.00  0.00    -0.119 A  
HETATM   15  F   UNL     1      -6.520   7.806  64.555  1.00  0.00    -0.046 F  
HETATM   16  C   UNL     1      -6.112   7.395  66.832  1.00  0.00    -0.046 A  
HETATM   17  C   UNL     1      -6.942   7.826  65.825  1.00  0.00    -0.057 A  
BRANCH  14  18
HETATM   18  N   UNL     1      -9.148   8.775  65.306  1.00  0.00    -0.405 NA 
HETATM   19  H   UNL     1      -9.626   8.051  64.770  1.00  0.00     0.000 HD 
BRANCH  18  20
HETATM   20  C   UNL     1      -9.574  10.089  65.009  1.00  0.00    -0.297 A  
HETATM   21  N   UNL     1      -9.694  11.046  65.955  1.00  0.00    -0.215 NA 
HETATM   22  C   UNL     1     -10.036  12.318  65.587  1.00  0.00    -0.252 A  
HETATM   23  C   UNL     1     -10.359  12.649  64.273  1.00  0.00    -0.374 A  
HETATM   24  O   UNL     1     -10.815  13.880  63.876  1.00  0.00     0.035 OA 
HETATM   25  C   UNL     1     -10.243  11.669  63.302  1.00  0.00    -0.445 A  
HETATM   26  C   UNL     1     -11.336  14.663  64.947  1.00  0.00    -0.403 C  
HETATM   27  C   UNL     1      -9.853  10.383  63.674  1.00  0.00    -0.288 A  
HETATM   28  C   UNL     1     -10.436  14.652  66.191  1.00  0.00    -0.302 C  
HETATM   29  C   UNL     1     -11.525  16.100  64.450  1.00  0.00    -0.197 C  
HETATM   30  C   UNL     1     -12.713  14.121  65.409  1.00  0.00    -0.453 C  
HETATM   31  N   UNL     1     -10.030  13.374  66.539  1.00  0.00    -0.279 N  
HETATM   32  O   UNL     1     -10.253  15.635  66.906  1.00  0.00    -0.268 OA 
BRANCH  31  33
HETATM   33  C   UNL     1      -9.794  13.144  67.925  1.00  0.00    -0.231 C  
BRANCH  33  34
HETATM   34  O   UNL     1      -8.525  12.598  68.097  1.00  0.00    -0.165 OA 
HETATM   35  P   UNL     1      -7.320  13.785  67.732  1.00  0.00    -0.180 P  
HETATM   36  O   UNL     1      -6.587  12.527  66.989  1.00  0.00    -0.112 OA 
HETATM   37  O   UNL     1      -6.788  13.475  69.244  1.00  0.00    -0.106 OA 
HETATM   38  O   UNL     1      -6.241  14.846  67.405  1.00  0.00    -0.329 OA 
ENDBRANCH  33  34
ENDBRANCH  31  33
ENDBRANCH  18  20
ENDBRANCH  14  18
ENDBRANCH   9  11
ENDBRANCH   5   9
BRANCH   7  39
HETATM   39  O   UNL     1      -8.225   3.266  71.571  1.00  0.00    -0.060 OA 
HETATM   40  C   UNL     1      -7.125   3.148  72.458  1.00  0.00    -0.039 C  
ENDBRANCH   7  39
BRANCH   8  41
HETATM   41  O   UNL     1     -10.768   3.747  72.816  1.00  0.00    -0.149 OA 
HETATM   42  C   UNL     1     -10.534   3.658  74.211  1.00  0.00    -0.208 C  
ENDBRANCH   8  41
ENDBRANCH   2   3
TORSDOF 9
ENDMDL
MODEL      168
REMARK 921   NORMALIZED FREE ENERGY PREDICTED BY IDOCK:   -4.80 KCAL/MOL
REMARK 922        TOTAL FREE ENERGY PREDICTED BY IDOCK:   -9.19 KCAL/MOL
REMARK 923 INTER-LIGAND FREE ENERGY PREDICTED BY IDOCK:   -7.79 KCAL/MOL
REMARK 924 INTRA-LIGAND FREE ENERGY PREDICTED BY IDOCK:   -1.40 KCAL/MOL
REMARK 927      BINDING AFFINITY PREDICTED BY RF-SCORE:    0.00 PKD
ROOT
HETATM    1  C   UNL     1      -5.529   3.956  68.485  1.00  0.00    -0.013 C  
HETATM    2  O   UNL     1      -6.873   3.766  68.935  1.00  0.00    -0.044 OA 
ENDROOT
BRANCH   2   3
HETATM    3  C   UNL     1      -7.188   4.443  70.088  1.00  0.00    -0.046 A  
HETATM    4  C   UNL     1      -7.414   5.831  70.036  1.00  0.00    -0.075 A  
HETATM    5  C   UNL     1      -7.631   6.596  71.175  1.00  0.00    -0.089 A  
HETATM    6  C   UNL     1      -7.651   5.909  72.392  1.00  0.00    -0.101 A  
HETATM    7  C   UNL     1      -7.496   4.515  72.481  1.00  0.00    -0.083 A  
HETATM    8  C   UNL     1      -7.295   3.752  71.311  1.00  0.00    -0.040 A  
BRANCH   5   9
HETATM    9  N   UNL     1      -7.798   7.985  71.152  1.00  0.00    -0.084 NA 
HETATM   10  H   UNL     1      -7.033   8.489  71.599  1.00  0.00     0.000 HD 
BRANCH   9  11
HETATM   11  C   UNL     1      -8.790   8.826  70.649  1.00  0.00    -0.182 A  
HETATM   12  N   UNL     1      -9.969   8.717  71.277  1.00  0.00    -0.222 NA 
HETATM   13  N   UNL     1      -8.581   9.676  69.621  1.00  0.00    -0.170 NA 
HETATM   14  C   UNL     1      -9.604  10.457  69.189  1.00  0.00    -0.213 A  
HETATM   15  F   UNL     1     -11.840  11.245  69.512  1.00  0.00    -0.294 F  
HETATM   16  C   UNL     1     -10.962   9.528  70.855  1.00  0.00    -0.337 A  
HETATM   17  C   UNL     1     -10.820  10.441  69.838  1.00  0.00    -0.298 A  
BRANCH  14  18
HETATM   18  N   UNL     1      -9.299  11.311  68.116  1.00  0.00    -0.174 NA 
HETATM   19  H   UNL     1      -9.402  10.878  67.198  1.00  0.00     0.000 HD 
BRANCH  18  20
HETATM   20  C   UNL     1      -8.876  12.659  68.074  1.00  0.00    -0.195 A  
HETATM   21  N   UNL     1      -9.733  13.695  68.196  1.00  0.00    -0.224 NA 
HETATM   22  C   UNL     1      -9.247  14.974  68.225  1.00  0.00    -0.184 A  
HETATM   23  C   UNL     1      -7.896  15.257  68.038  1.00  0.00    -0.132 A  
HETATM   24  O   UNL     1      -7.377  16.523  67.948  1.00  0.00    -0.131 OA 
HETATM   25  C   UNL     1      -7.014  14.197  67.907  1.00  0.00    -0.173 A  
HETATM   26  C   UNL     1      -8.354  17.513  67.633  1.00  0.00    -0.214 C  
HETATM   27  C   UNL     1      -7.508  12.894  67.921  1.00  0.00    -0.131 A  
HETATM   28  C   UNL     1      -9.638  17.373  68.464  1.00  0.00    -0.298 C  
HETATM   29  C   UNL     1      -7.733  18.896  67.858  1.00  0.00    -0.286 C  
HETATM   30  C   UNL     1      -8.790  17.409  66.150  1.00  0.00    -0.180 C  
HETATM   31  N   UNL     1     -10.108  16.071  68.496  1.00  0.00    -0.228 N  
HETATM   32  O   UNL     1     -10.279  18.332  68.891  1.00  0.00    -0.386 OA 
BRANCH  31  33
HETATM   33  C   UNL     1     -11.518  15.914  68.624  1.00  0.00    -0.391 C  
BRANCH  33  34
HETATM   34  O   UNL     1     -11.903  16.209  69.929  1.00  0.00    -0.274 OA 
HETATM   35  P   UNL     1     -12.420  14.764  70.730  1.00  0.00    -0.394 P  
HETATM   36  O   UNL     1     -13.601  15.738  71.302  1.00  0.00    -0.561 OA 
HETATM   37  O   UNL     1     -11.275  15.156  71.826  1.00  0.00    -0.389 OA 
HETATM   38  O   UNL     1     -12.882  13.472  71.447  1.00  0.00    -0.350 OA 
ENDBRANCH  33  34
ENDBRANCH  31  33
ENDBRANCH  18  20
ENDBRANCH  14  18
ENDBRANCH   9  11
ENDBRANCH   5   9
BRANCH   7  39
HETATM   39  O   UNL     1      -7.514   4.091  73.788  1.00  0.00    -0.071 OA 
HETATM   40  C   UNL     1      -8.746   3.823  74.436  1.00  0.00    -0.091 C  
ENDBRANCH   7  39
BRANCH   8  41
HETATM   41  O   UNL     1      -7.258   2.398  71.482  1.00  0.00    -0.031 OA 
HETATM   42  C   UNL     1      -6.061   1.671  71.694  1.00  0.00    -0.014 C  
ENDBRANCH   8  41
ENDBRANCH   2   3
TORSDOF 9
ENDMDL
MODEL      169
REMARK 921   NORMALIZED FREE ENERGY PREDICTED BY IDOCK:   -4.77 KCAL/MOL
REMARK 922        TOTAL FREE ENERGY PREDICTED BY IDOCK:   -9.15 KCAL/MOL
REMARK 923 INTER-LIGAND FREE ENERGY PREDICTED BY IDOCK:   -7.73 KCAL/MOL
REMARK 924 INTRA-LIGAND FREE ENERGY PREDICTED BY IDOCK:   -1.42 KCAL/MOL
REMARK 927      BINDING AFFINITY PREDICTED BY RF-SCORE:    0.00 PKD
ROOT
HETATM    1  C   UNL     1     -11.483  15.774  68.649  1.00  0.00    -0.386 C  
HETATM    2  O   UNL     1     -10.880  17.030  68.330  1.00  0.00    -0.367 OA 
ENDROOT
BRANCH   2   3
HETATM    3  C   UNL     1      -9.507  17.008  68.289  1.00  0.00    -0.265 A  
HETATM    4  C   UNL     1      -8.840  15.790  68.062  1.00  0.00    -0.176 A  
HETATM    5  C   UNL     1      -7.457  15.673  68.114  1.00  0.00    -0.124 A  
HETATM    6  C   UNL     1      -6.743  16.847  68.368  1.00  0.00    -0.164 A  
HETATM    7  C   UNL     1      -7.365  18.096  68.533  1.00  0.00    -0.278 A  
HETATM    8  C   UNL     1      -8.771  18.198  68.460  1.00  0.00    -0.296 A  
BRANCH   5   9
HETATM    9  N   UNL     1      -6.777  14.462  67.951  1.00  0.00    -0.150 NA 
HETATM   10  H   UNL     1      -6.037  14.507  67.252  1.00  0.00     0.000 HD 
BRANCH   9  11
HETATM   11  C   UNL     1      -6.898  13.204  68.543  1.00  0.00    -0.099 A  
HETATM   12  N   UNL     1      -5.944  12.932  69.445  1.00  0.00    -0.096 NA 
HETATM   13  N   UNL     1      -7.889  12.340  68.236  1.00  0.00    -0.146 NA 
HETATM   14  C   UNL     1      -7.929  11.132  68.858  1.00  0.00    -0.126 A  
HETATM   15  F   UNL     1      -7.055   9.682  70.547  1.00  0.00    -0.085 F  
HETATM   16  C   UNL     1      -6.024  11.741  70.075  1.00  0.00    -0.158 A  
HETATM   17  C   UNL     1      -7.018  10.820  69.843  1.00  0.00    -0.123 A  
BRANCH  14  18
HETATM   18  N   UNL     1      -8.992  10.295  68.479  1.00  0.00    -0.129 NA 
HETATM   19  H   UNL     1      -9.916  10.690  68.659  1.00  0.00     0.000 HD 
BRANCH  18  20
HETATM   20  C   UNL     1      -9.018   9.009  67.895  1.00  0.00    -0.132 A  
HETATM   21  N   UNL     1      -9.049   7.876  68.630  1.00  0.00    -0.137 NA 
HETATM   22  C   UNL     1      -9.153   6.666  68.001  1.00  0.00    -0.114 A  
HETATM   23  C   UNL     1      -9.133   6.548  66.613  1.00  0.00    -0.147 A  
HETATM   24  O   UNL     1      -9.121   5.354  65.939  1.00  0.00    -0.152 OA 
HETATM   25  C   UNL     1      -9.095   7.707  65.856  1.00  0.00    -0.101 A  
HETATM   26  C   UNL     1      -8.704   4.254  66.744  1.00  0.00    -0.113 C  
HETATM   27  C   UNL     1      -9.034   8.941  66.501  1.00  0.00    -0.187 A  
HETATM   28  C   UNL     1      -9.373   4.236  68.126  1.00  0.00    -0.152 C  
HETATM   29  C   UNL     1      -9.019   2.956  65.994  1.00  0.00    -0.146 C  
HETATM   30  C   UNL     1      -7.178   4.308  67.007  1.00  0.00    -0.068 C  
HETATM   31  N   UNL     1      -9.331   5.472  68.750  1.00  0.00    -0.122 N  
HETATM   32  O   UNL     1      -9.731   3.206  68.695  1.00  0.00    -0.101 OA 
BRANCH  31  33
HETATM   33  C   UNL     1      -9.287   5.458  70.174  1.00  0.00    -0.149 C  
BRANCH  33  34
HETATM   34  O   UNL     1     -10.583   5.451  70.681  1.00  0.00    -0.263 OA 
HETATM   35  P   UNL     1     -10.760   6.705  71.861  1.00  0.00    -0.237 P  
HETATM   36  O   UNL     1     -11.584   5.553  72.676  1.00  0.00    -0.300 OA 
HETATM   37  O   UNL     1     -11.987   7.207  70.908  1.00  0.00    -0.326 OA 
HETATM   38  O   UNL     1     -10.918   7.826  72.916  1.00  0.00    -0.361 OA 
ENDBRANCH  33  34
ENDBRANCH  31  33
ENDBRANCH  18  20
ENDBRANCH  14  18
ENDBRANCH   9  11
ENDBRANCH   5   9
BRANCH   7  39
HETATM   39  O   UNL     1      -6.449  19.081  68.812  1.00  0.00    -0.238 OA 
HETATM   40  C   UNL     1      -6.136  19.405  70.157  1.00  0.00    -0.230 C  
ENDBRANCH   7  39
BRANCH   8  41
HETATM   41  O   UNL     1      -9.282  19.462  68.529  1.00  0.00    -0.350 OA 
HETATM   42  C   UNL     1      -9.649  20.218  67.388  1.00  0.00    -0.432 C  
ENDBRANCH   8  41
ENDBRANCH   2   3
TORSDOF 9
ENDMDL
MODEL      170
REMARK 921   NORMALIZED FREE ENERGY PREDICTED BY IDOCK:   -4.75 KCAL/MOL
REMARK 922        TOTAL FREE ENERGY PREDICTED BY IDOCK:   -9.11 KCAL/MOL
REMARK 923 INTER-LIGAND FREE ENERGY PREDICTED BY IDOCK:   -7.61 KCAL/MOL
REMARK 924 INTRA-LIGAND FREE ENERGY PREDICTED BY IDOCK:   -1.50 KCAL/MOL
REMARK 927      BINDING AFFINITY PREDICTED BY RF-SCORE:    0.00 PKD
ROOT
HETATM    1  C   UNL     1     -12.165  15.265  70.033  1.00  0.00    -0.349 C  
HETATM    2  O   UNL     1     -12.125  16.046  68.837  1.00  0.00    -0.283 OA 
ENDROOT
BRANCH   2   3
HETATM    3  C   UNL     1     -11.037  15.803  68.034  1.00  0.00    -0.337 A  
HETATM    4  C   UNL     1     -10.632  14.476  67.799  1.00  0.00    -0.250 A  
HETATM    5  C   UNL     1      -9.481  14.160  67.088  1.00  0.00    -0.236 A  
HETATM    6  C   UNL     1      -8.751  15.236  66.576  1.00  0.00    -0.314 A  
HETATM    7  C   UNL     1      -9.156  16.573  66.731  1.00  0.00    -0.237 A  
HETATM    8  C   UNL     1     -10.338  16.873  67.442  1.00  0.00    -0.309 A  
BRANCH   5   9
HETATM    9  N   UNL     1      -9.028  12.851  66.894  1.00  0.00    -0.245 NA 
HETATM   10  H   UNL     1      -9.346  12.442  66.016  1.00  0.00     0.000 HD 
BRANCH   9  11
HETATM   11  C   UNL     1      -8.233  11.987  67.647  1.00  0.00    -0.155 A  
HETATM   12  N   UNL     1      -6.965  11.902  67.221  1.00  0.00    -0.134 NA 
HETATM   13  N   UNL     1      -8.699  11.299  68.710  1.00  0.00    -0.139 NA 
HETATM   14  C   UNL     1      -7.857  10.474  69.386  1.00  0.00    -0.147 A  
HETATM   15  F   UNL     1      -5.630   9.665  69.716  1.00  0.00    -0.032 F  
HETATM   16  C   UNL     1      -6.137  11.104  67.928  1.00  0.00    -0.049 A  
HETATM   17  C   UNL     1      -6.526  10.396  69.040  1.00  0.00    -0.052 A  
BRANCH  14  18
HETATM   18  N   UNL     1      -8.425   9.797  70.479  1.00  0.00    -0.351 NA 
HETATM   19  H   UNL     1      -9.093  10.355  71.011  1.00  0.00     0.000 HD 
BRANCH  18  20
HETATM   20  C   UNL     1      -8.241   8.487  70.976  1.00  0.00    -0.140 A  
HETATM   21  N   UNL     1      -8.329   7.392  70.190  1.00  0.00    -0.134 NA 
HETATM   22  C   UNL     1      -8.062   6.159  70.720  1.00  0.00    -0.124 A  
HETATM   23  C   UNL     1      -7.792   5.976  72.074  1.00  0.00    -0.106 A  
HETATM   24  O   UNL     1      -7.630   4.753  72.672  1.00  0.00    -0.087 OA 
HETATM   25  C   UNL     1      -7.708   7.097  72.884  1.00  0.00    -0.095 A  
HETATM   26  C   UNL     1      -8.171   3.676  71.910  1.00  0.00    -0.071 C  
HETATM   27  C   UNL     1      -7.937   8.356  72.332  1.00  0.00    -0.164 A  
HETATM   28  C   UNL     1      -7.801   3.748  70.422  1.00  0.00    -0.047 C  
HETATM   29  C   UNL     1      -7.669   2.358  72.510  1.00  0.00    -0.053 C  
HETATM   30  C   UNL     1      -9.720   3.680  71.968  1.00  0.00    -0.238 C  
HETATM   31  N   UNL     1      -8.006   5.009  69.887  1.00  0.00    -0.073 N  
HETATM   32  O   UNL     1      -7.536   2.761  69.738  1.00  0.00    -0.044 OA 
BRANCH  31  33
HETATM   33  C   UNL     1      -8.341   5.059  68.503  1.00  0.00    -0.088 C  
BRANCH  33  34
HETATM   34  O   UNL     1      -9.721   4.957  68.353  1.00  0.00    -0.142 OA 
HETATM   35  P   UNL     1     -10.323   6.333  67.494  1.00  0.00    -0.276 P  
HETATM   36  O   UNL     1     -11.517   6.261  68.607  1.00  0.00    -0.263 OA 
HETATM   37  O   UNL     1     -10.929   5.222  66.463  1.00  0.00    -0.213 OA 
HETATM   38  O   UNL     1     -10.861   7.564  66.725  1.00  0.00    -0.292 OA 
ENDBRANCH  33  34
ENDBRANCH  31  33
ENDBRANCH  18  20
ENDBRANCH  14  18
ENDBRANCH   9  11
ENDBRANCH   5   9
BRANCH   7  39
HETATM   39  O   UNL     1      -8.248  17.440  66.173  1.00  0.00    -0.419 OA 
HETATM   40  C   UNL     1      -6.865  17.306  66.457  1.00  0.00    -0.257 C  
ENDBRANCH   7  39
BRANCH   8  41
HETATM   41  O   UNL     1     -10.709  18.187  67.453  1.00  0.00    -0.403 OA 
HETATM   42  C   UNL     1     -10.406  19.074  68.516  1.00  0.00    -0.264 C  
ENDBRANCH   8  41
ENDBRANCH   2   3
TORSDOF 9
ENDMDL
MODEL      171
REMARK 921   NORMALIZED FREE ENERGY PREDICTED BY IDOCK:   -4.74 KCAL/MOL
REMARK 922        TOTAL FREE ENERGY PREDICTED BY IDOCK:   -9.10 KCAL/MOL
REMARK 923 INTER-LIGAND FREE ENERGY PREDICTED BY IDOCK:   -7.73 KCAL/MOL
REMARK 924 INTRA-LIGAND FREE ENERGY PREDICTED BY IDOCK:   -1.37 KCAL/MOL
REMARK 927      BINDING AFFINITY PREDICTED BY RF-SCORE:    0.00 PKD
ROOT
HETATM    1  C   UNL     1     -10.470  11.147  63.831  1.00  0.00    -0.381 C  
HETATM    2  O   UNL     1     -10.080  10.136  64.764  1.00  0.00    -0.331 OA 
ENDROOT
BRANCH   2   3
HETATM    3  C   UNL     1      -9.557  10.618  65.939  1.00  0.00    -0.205 A  
HETATM    4  C   UNL     1     -10.414  10.878  67.024  1.00  0.00    -0.291 A  
HETATM    5  C   UNL     1      -9.973  11.465  68.203  1.00  0.00    -0.189 A  
HETATM    6  C   UNL     1      -8.608  11.757  68.279  1.00  0.00    -0.162 A  
HETATM    7  C   UNL     1      -7.706  11.453  67.245  1.00  0.00    -0.145 A  
HETATM    8  C   UNL     1      -8.171  10.840  66.062  1.00  0.00    -0.164 A  
BRANCH   5   9
HETATM    9  N   UNL     1     -10.818  11.786  69.270  1.00  0.00    -0.416 NA 
HETATM   10  H   UNL     1     -10.920  12.791  69.413  1.00  0.00     0.000 HD 
BRANCH   9  11
HETATM   11  C   UNL     1     -11.551  11.024  70.180  1.00  0.00    -0.334 A  
HETATM   12  N   UNL     1     -12.547  11.695  70.775  1.00  0.00    -0.307 NA 
HETATM   13  N   UNL     1     -11.281   9.727  70.437  1.00  0.00    -0.278 NA 
HETATM   14  C   UNL     1     -12.043   9.060  71.342  1.00  0.00    -0.327 A  
HETATM   15  F   UNL     1     -13.959   9.046  72.774  1.00  0.00    -0.473 F  
HETATM   16  C   UNL     1     -13.313  11.003  71.645  1.00  0.00    -0.243 A  
HETATM   17  C   UNL     1     -13.124   9.673  71.937  1.00  0.00    -0.436 A  
BRANCH  14  18
HETATM   18  N   UNL     1     -11.693   7.714  71.549  1.00  0.00    -0.272 NA 
HETATM   19  H   UNL     1     -11.878   7.377  72.493  1.00  0.00     0.000 HD 
BRANCH  18  20
HETATM   20  C   UNL     1     -11.133   6.743  70.689  1.00  0.00    -0.291 A  
HETATM   21  N   UNL     1     -10.348   5.739  71.138  1.00  0.00    -0.217 NA 
HETATM   22  C   UNL     1      -9.903   4.788  70.261  1.00  0.00    -0.242 A  
HETATM   23  C   UNL     1     -10.152   4.865  68.893  1.00  0.00    -0.115 A  
HETATM   24  O   UNL     1      -9.634   4.000  67.963  1.00  0.00    -0.170 OA 
HETATM   25  C   UNL     1     -10.950   5.897  68.428  1.00  0.00    -0.264 A  
HETATM   26  C   UNL     1      -8.496   3.281  68.432  1.00  0.00    -0.084 C  
HETATM   27  C   UNL     1     -11.439   6.841  69.330  1.00  0.00    -0.208 A  
HETATM   28  C   UNL     1      -8.688   2.710  69.844  1.00  0.00    -0.070 C  
HETATM   29  C   UNL     1      -8.198   2.147  67.445  1.00  0.00    -0.073 C  
HETATM   30  C   UNL     1      -7.252   4.202  68.507  1.00  0.00    -0.055 C  
HETATM   31  N   UNL     1      -9.198   3.645  70.728  1.00  0.00    -0.117 N  
HETATM   32  O   UNL     1      -8.261   1.612  70.197  1.00  0.00    -0.041 OA 
BRANCH  31  33
HETATM   33  C   UNL     1      -8.816   3.496  72.093  1.00  0.00    -0.092 C  
BRANCH  33  34
HETATM   34  O   UNL     1      -7.452   3.738  72.225  1.00  0.00    -0.057 OA 
HETATM   35  P   UNL     1      -7.197   5.186  73.139  1.00  0.00    -0.092 P  
HETATM   36  O   UNL     1      -6.046   5.460  72.012  1.00  0.00    -0.031 OA 
HETATM   37  O   UNL     1      -6.311   4.222  74.114  1.00  0.00    -0.042 OA 
HETATM   38  O   UNL     1      -6.969   6.480  73.956  1.00  0.00    -0.081 OA 
ENDBRANCH  33  34
ENDBRANCH  31  33
ENDBRANCH  18  20
ENDBRANCH  14  18
ENDBRANCH   9  11
ENDBRANCH   5   9
BRANCH   7  39
HETATM   39  O   UNL     1      -6.435  11.877  67.548  1.00  0.00    -0.084 OA 
HETATM   40  C   UNL     1      -6.169  13.256  67.744  1.00  0.00    -0.158 C  
ENDBRANCH   7  39
BRANCH   8  41
HETATM   41  O   UNL     1      -7.212  10.488  65.157  1.00  0.00    -0.113 OA 
HETATM   42  C   UNL     1      -6.792   9.151  64.947  1.00  0.00    -0.081 C  
ENDBRANCH   8  41
ENDBRANCH   2   3
TORSDOF 9
ENDMDL
MODEL      172
REMARK 921   NORMALIZED FREE ENERGY PREDICTED BY IDOCK:   -4.72 KCAL/MOL
REMARK 922        TOTAL FREE ENERGY PREDICTED BY IDOCK:   -9.08 KCAL/MOL
REMARK 923 INTER-LIGAND FREE ENERGY PREDICTED BY IDOCK:   -7.45 KCAL/MOL
REMARK 924 INTRA-LIGAND FREE ENERGY PREDICTED BY IDOCK:   -1.63 KCAL/MOL
REMARK 927      BINDING AFFINITY PREDICTED BY RF-SCORE:    0.00 PKD
ROOT
HETATM    1  C   UNL     1      -6.695  18.556  65.941  1.00  0.00    -0.275 C  
HETATM    2  O   UNL     1      -7.976  17.957  65.733  1.00  0.00    -0.540 OA 
ENDROOT
BRANCH   2   3
HETATM    3  C   UNL     1      -8.407  17.160  66.766  1.00  0.00    -0.234 A  
HETATM    4  C   UNL     1      -8.028  15.805  66.800  1.00  0.00    -0.273 A  
HETATM    5  C   UNL     1      -8.512  14.917  67.752  1.00  0.00    -0.154 A  
HETATM    6  C   UNL     1      -9.377  15.446  68.713  1.00  0.00    -0.209 A  
HETATM    7  C   UNL     1      -9.728  16.805  68.755  1.00  0.00    -0.261 A  
HETATM    8  C   UNL     1      -9.212  17.697  67.790  1.00  0.00    -0.251 A  
BRANCH   5   9
HETATM    9  N   UNL     1      -8.196  13.554  67.768  1.00  0.00    -0.161 NA 
HETATM   10  H   UNL     1      -7.192  13.374  67.766  1.00  0.00     0.000 HD 
BRANCH   9  11
HETATM   11  C   UNL     1      -8.963  12.389  67.785  1.00  0.00    -0.182 A  
HETATM   12  N   UNL     1      -9.906  12.342  66.833  1.00  0.00    -0.206 NA 
HETATM   13  N   UNL     1      -8.771  11.397  68.681  1.00  0.00    -0.149 NA 
HETATM   14  C   UNL     1      -9.567  10.297  68.630  1.00  0.00    -0.168 A  
HETATM   15  F   UNL     1     -11.265   9.064  67.481  1.00  0.00    -0.214 F  
HETATM   16  C   UNL     1     -10.661  11.224  66.779  1.00  0.00    -0.260 A  
HETATM   17  C   UNL     1     -10.507  10.158  67.633  1.00  0.00    -0.245 A  
BRANCH  14  18
HETATM   18  N   UNL     1      -9.299   9.314  69.597  1.00  0.00    -0.169 NA 
HETATM   19  H   UNL     1      -9.443   9.626  70.558  1.00  0.00     0.000 HD 
BRANCH  18  20
HETATM   20  C   UNL     1      -8.866   7.973  69.486  1.00  0.00    -0.144 A  
HETATM   21  N   UNL     1      -8.741   7.346  68.296  1.00  0.00    -0.123 NA 
HETATM   22  C   UNL     1      -8.242   6.072  68.255  1.00  0.00    -0.110 A  
HETATM   23  C   UNL     1      -7.942   5.355  69.411  1.00  0.00    -0.089 A  
HETATM   24  O   UNL     1      -7.547   4.042  69.425  1.00  0.00    -0.053 OA 
HETATM   25  C   UNL     1      -8.075   5.994  70.632  1.00  0.00    -0.116 A  
HETATM   26  C   UNL     1      -7.871   3.341  68.227  1.00  0.00    -0.059 C  
HETATM   27  C   UNL     1      -8.542   7.307  70.669  1.00  0.00    -0.142 A  
HETATM   28  C   UNL     1      -7.522   4.132  66.957  1.00  0.00    -0.077 C  
HETATM   29  C   UNL     1      -7.125   2.003  68.231  1.00  0.00    -0.043 C  
HETATM   30  C   UNL     1      -9.392   3.053  68.148  1.00  0.00    -0.254 C  
HETATM   31  N   UNL     1      -7.966   5.442  67.011  1.00  0.00    -0.101 N  
HETATM   32  O   UNL     1      -7.072   3.614  65.936  1.00  0.00    -0.061 OA 
BRANCH  31  33
HETATM   33  C   UNL     1      -8.305   6.044  65.765  1.00  0.00    -0.142 C  
BRANCH  33  34
HETATM   34  O   UNL     1      -7.365   7.019  65.447  1.00  0.00    -0.073 OA 
HETATM   35  P   UNL     1      -8.139   8.345  64.648  1.00  0.00    -0.124 P  
HETATM   36  O   UNL     1      -6.818   8.284  63.689  1.00  0.00    -0.078 OA 
HETATM   37  O   UNL     1      -7.486   9.239  65.848  1.00  0.00    -0.093 OA 
HETATM   38  O   UNL     1      -8.832   9.531  63.934  1.00  0.00    -0.219 OA 
ENDBRANCH  33  34
ENDBRANCH  31  33
ENDBRANCH  18  20
ENDBRANCH  14  18
ENDBRANCH   9  11
ENDBRANCH   5   9
BRANCH   7  39
HETATM   39  O   UNL     1     -10.621  17.063  69.768  1.00  0.00    -0.237 OA 
HETATM   40  C   UNL     1     -11.293  15.995  70.415  1.00  0.00    -0.391 C  
ENDBRANCH   7  39
BRANCH   8  41
HETATM   41  O   UNL     1      -9.522  19.014  67.969  1.00  0.00    -0.299 OA 
HETATM   42  C   UNL     1     -10.590  19.662  67.300  1.00  0.00    -0.472 C  
ENDBRANCH   8  41
ENDBRANCH   2   3
TORSDOF 9
ENDMDL
MODEL      173
REMARK 921   NORMALIZED FREE ENERGY PREDICTED BY IDOCK:   -4.71 KCAL/MOL
REMARK 922        TOTAL FREE ENERGY PREDICTED BY IDOCK:   -9.06 KCAL/MOL
REMARK 923 INTER-LIGAND FREE ENERGY PREDICTED BY IDOCK:   -7.68 KCAL/MOL
REMARK 924 INTRA-LIGAND FREE ENERGY PREDICTED BY IDOCK:   -1.38 KCAL/MOL
REMARK 927      BINDING AFFINITY PREDICTED BY RF-SCORE:    0.00 PKD
ROOT
HETATM    1  C   UNL     1     -11.709  15.985  70.034  1.00  0.00    -0.278 C  
HETATM    2  O   UNL     1     -11.954  16.442  68.701  1.00  0.00    -0.086 OA 
ENDROOT
BRANCH   2   3
HETATM    3  C   UNL     1     -10.963  16.132  67.802  1.00  0.00    -0.293 A  
HETATM    4  C   UNL     1     -10.641  14.783  67.564  1.00  0.00    -0.259 A  
HETATM    5  C   UNL     1      -9.582  14.399  66.752  1.00  0.00    -0.268 A  
HETATM    6  C   UNL     1      -8.861  15.428  66.142  1.00  0.00    -0.222 A  
HETATM    7  C   UNL     1      -9.190  16.785  66.300  1.00  0.00    -0.279 A  
HETATM    8  C   UNL     1     -10.280  17.156  67.115  1.00  0.00    -0.316 A  
BRANCH   5   9
HETATM    9  N   UNL     1      -9.208  13.066  66.549  1.00  0.00    -0.379 NA 
HETATM   10  H   UNL     1      -9.297  12.767  65.578  1.00  0.00     0.000 HD 
BRANCH   9  11
HETATM   11  C   UNL     1      -8.739  12.059  67.393  1.00  0.00    -0.170 A  
HETATM   12  N   UNL     1      -7.403  12.010  67.493  1.00  0.00    -0.126 NA 
HETATM   13  N   UNL     1      -9.557  11.212  68.052  1.00  0.00    -0.171 NA 
HETATM   14  C   UNL     1      -9.016  10.257  68.852  1.00  0.00    -0.164 A  
HETATM   15  F   UNL     1      -7.067   9.333  69.887  1.00  0.00    -0.048 F  
HETATM   16  C   UNL     1      -6.888  11.076  68.320  1.00  0.00    -0.067 A  
HETATM   17  C   UNL     1      -7.654  10.198  69.050  1.00  0.00    -0.096 A  
BRANCH  14  18
HETATM   18  N   UNL     1      -9.940   9.419  69.499  1.00  0.00    -0.181 NA 
HETATM   19  H   UNL     1     -10.762   9.905  69.857  1.00  0.00     0.000 HD 
BRANCH  18  20
HETATM   20  C   UNL     1      -9.940   8.027  69.745  1.00  0.00    -0.191 A  
HETATM   21  N   UNL     1      -9.413   7.486  70.865  1.00  0.00    -0.165 NA 
HETATM   22  C   UNL     1      -9.517   6.139  71.076  1.00  0.00    -0.171 A  
HETATM   23  C   UNL     1     -10.068   5.280  70.128  1.00  0.00    -0.263 A  
HETATM   24  O   UNL     1     -10.094   3.914  70.244  1.00  0.00    -0.077 OA 
HETATM   25  C   UNL     1     -10.604   5.831  68.976  1.00  0.00    -0.351 A  
HETATM   26  C   UNL     1      -9.150   3.409  71.186  1.00  0.00    -0.109 C  
HETATM   27  C   UNL     1     -10.535   7.209  68.783  1.00  0.00    -0.217 A  
HETATM   28  C   UNL     1      -9.143   4.194  72.506  1.00  0.00    -0.110 C  
HETATM   29  C   UNL     1      -9.473   1.936  71.455  1.00  0.00    -0.192 C  
HETATM   30  C   UNL     1      -7.707   3.499  70.627  1.00  0.00    -0.040 C  
HETATM   31  N   UNL     1      -9.101   5.563  72.308  1.00  0.00    -0.142 N  
HETATM   32  O   UNL     1      -8.997   3.668  73.609  1.00  0.00    -0.088 OA 
BRANCH  31  33
HETATM   33  C   UNL     1      -8.451   6.328  73.319  1.00  0.00    -0.119 C  
BRANCH  33  34
HETATM   34  O   UNL     1      -7.076   6.310  73.106  1.00  0.00    -0.082 OA 
HETATM   35  P   UNL     1      -6.396   7.847  73.519  1.00  0.00    -0.091 P  
HETATM   36  O   UNL     1      -5.529   7.610  72.154  1.00  0.00    -0.036 OA 
HETATM   37  O   UNL     1      -5.449   6.977  74.524  1.00  0.00    -0.057 OA 
HETATM   38  O   UNL     1      -5.789   9.222  73.888  1.00  0.00    -0.274 OA 
ENDBRANCH  33  34
ENDBRANCH  31  33
ENDBRANCH  18  20
ENDBRANCH  14  18
ENDBRANCH   9  11
ENDBRANCH   5   9
BRANCH   7  39
HETATM   39  O   UNL     1      -8.305  17.597  65.632  1.00  0.00    -0.467 OA 
HETATM   40  C   UNL     1      -7.383  18.397  66.356  1.00  0.00    -0.247 C  
ENDBRANCH   7  39
BRANCH   8  41
HETATM   41  O   UNL     1     -10.591  18.485  67.128  1.00  0.00    -0.402 OA 
HETATM   42  C   UNL     1     -10.318  19.339  68.225  1.00  0.00    -0.380 C  
ENDBRANCH   8  41
ENDBRANCH   2   3
TORSDOF 9
ENDMDL
MODEL      174
REMARK 921   NORMALIZED FREE ENERGY PREDICTED BY IDOCK:   -4.71 KCAL/MOL
REMARK 922        TOTAL FREE ENERGY PREDICTED BY IDOCK:   -9.05 KCAL/MOL
REMARK 923 INTER-LIGAND FREE ENERGY PREDICTED BY IDOCK:   -7.94 KCAL/MOL
REMARK 924 INTRA-LIGAND FREE ENERGY PREDICTED BY IDOCK:   -1.11 KCAL/MOL
REMARK 927      BINDING AFFINITY PREDICTED BY RF-SCORE:    0.00 PKD
ROOT
HETATM    1  C   UNL     1      -5.466   3.767  68.477  1.00  0.00    -0.013 C  
HETATM    2  O   UNL     1      -5.313   4.771  67.470  1.00  0.00    -0.011 OA 
ENDROOT
BRANCH   2   3
HETATM    3  C   UNL     1      -6.478   5.117  66.830  1.00  0.00    -0.041 A  
HETATM    4  C   UNL     1      -7.231   6.207  67.303  1.00  0.00    -0.075 A  
HETATM    5  C   UNL     1      -8.469   6.547  66.774  1.00  0.00    -0.113 A  
HETATM    6  C   UNL     1      -8.925   5.768  65.707  1.00  0.00    -0.144 A  
HETATM    7  C   UNL     1      -8.175   4.713  65.161  1.00  0.00    -0.118 A  
HETATM    8  C   UNL     1      -6.911   4.393  65.701  1.00  0.00    -0.059 A  
BRANCH   5   9
HETATM    9  N   UNL     1      -9.261   7.589  67.268  1.00  0.00    -0.129 NA 
HETATM   10  H   UNL     1      -9.911   7.290  67.995  1.00  0.00     0.000 HD 
BRANCH   9  11
HETATM   11  C   UNL     1      -9.351   8.951  66.977  1.00  0.00    -0.152 A  
HETATM   12  N   UNL     1      -9.982   9.223  65.827  1.00  0.00    -0.250 NA 
HETATM   13  N   UNL     1      -8.847   9.909  67.784  1.00  0.00    -0.129 NA 
HETATM   14  C   UNL     1      -8.974  11.212  67.423  1.00  0.00    -0.139 A  
HETATM   15  F   UNL     1      -9.902  12.827  65.922  1.00  0.00    -0.253 F  
HETATM   16  C   UNL     1     -10.128  10.526  65.505  1.00  0.00    -0.283 A  
HETATM   17  C   UNL     1      -9.673  11.560  66.287  1.00  0.00    -0.215 A  
BRANCH  14  18
HETATM   18  N   UNL     1      -8.423  12.142  68.320  1.00  0.00    -0.176 NA 
HETATM   19  H   UNL     1      -8.148  11.742  69.217  1.00  0.00     0.000 HD 
BRANCH  18  20
HETATM   20  C   UNL     1      -8.178  13.530  68.208  1.00  0.00    -0.157 A  
HETATM   21  N   UNL     1      -9.113  14.460  68.499  1.00  0.00    -0.192 NA 
HETATM   22  C   UNL     1      -8.785  15.787  68.445  1.00  0.00    -0.177 A  
HETATM   23  C   UNL     1      -7.537  16.225  68.007  1.00  0.00    -0.136 A  
HETATM   24  O   UNL     1      -7.199  17.541  67.829  1.00  0.00    -0.172 OA 
HETATM   25  C   UNL     1      -6.577  15.274  67.702  1.00  0.00    -0.196 A  
HETATM   26  C   UNL     1      -8.327  18.404  67.713  1.00  0.00    -0.262 C  
HETATM   27  C   UNL     1      -6.901  13.922  67.800  1.00  0.00    -0.184 A  
HETATM   28  C   UNL     1      -9.405  18.127  68.771  1.00  0.00    -0.247 C  
HETATM   29  C   UNL     1      -7.844  19.854  67.826  1.00  0.00    -0.329 C  
HETATM   30  C   UNL     1      -9.021  18.227  66.338  1.00  0.00    -0.257 C  
HETATM   31  N   UNL     1      -9.703  16.779  68.882  1.00  0.00    -0.254 N  
HETATM   32  O   UNL     1     -10.063  19.010  69.320  1.00  0.00    -0.319 OA 
BRANCH  31  33
HETATM   33  C   UNL     1     -11.035  16.459  69.275  1.00  0.00    -0.322 C  
BRANCH  33  34
HETATM   34  O   UNL     1     -11.019  15.861  70.531  1.00  0.00    -0.328 OA 
HETATM   35  P   UNL     1     -12.640  15.580  71.069  1.00  0.00    -0.439 P  
HETATM   36  O   UNL     1     -12.050  16.108  72.498  1.00  0.00    -0.485 OA 
HETATM   37  O   UNL     1     -12.155  14.027  71.202  1.00  0.00    -0.342 OA 
HETATM   38  O   UNL     1     -14.090  15.328  71.550  1.00  0.00    -0.479 OA 
ENDBRANCH  33  34
ENDBRANCH  31  33
ENDBRANCH  18  20
ENDBRANCH  14  18
ENDBRANCH   9  11
ENDBRANCH   5   9
BRANCH   7  39
HETATM   39  O   UNL     1      -8.860   4.080  64.152  1.00  0.00    -0.116 OA 
HETATM   40  C   UNL     1     -10.215   3.701  64.336  1.00  0.00    -0.202 C  
ENDBRANCH   7  39
BRANCH   8  41
HETATM   41  O   UNL     1      -6.210   3.424  65.043  1.00  0.00    -0.023 OA 
HETATM   42  C   UNL     1      -6.373   2.039  65.292  1.00  0.00    -0.023 C  
ENDBRANCH   8  41
ENDBRANCH   2   3
TORSDOF 9
ENDMDL
MODEL      175
REMARK 921   NORMALIZED FREE ENERGY PREDICTED BY IDOCK:   -4.58 KCAL/MOL
REMARK 922        TOTAL FREE ENERGY PREDICTED BY IDOCK:   -8.85 KCAL/MOL
REMARK 923 INTER-LIGAND FREE ENERGY PREDICTED BY IDOCK:   -7.82 KCAL/MOL
REMARK 924 INTRA-LIGAND FREE ENERGY PREDICTED BY IDOCK:   -1.04 KCAL/MOL
REMARK 927      BINDING AFFINITY PREDICTED BY RF-SCORE:    0.00 PKD
ROOT
HETATM    1  C   UNL     1     -10.741   7.766  72.227  1.00  0.00    -0.269 C  
HETATM    2  O   UNL     1      -9.584   7.878  71.394  1.00  0.00    -0.150 OA 
ENDROOT
BRANCH   2   3
HETATM    3  C   UNL     1      -9.772   7.459  70.100  1.00  0.00    -0.175 A  
HETATM    4  C   UNL     1     -10.135   8.396  69.114  1.00  0.00    -0.206 A  
HETATM    5  C   UNL     1     -10.446   8.029  67.811  1.00  0.00    -0.214 A  
HETATM    6  C   UNL     1     -10.344   6.669  67.507  1.00  0.00    -0.262 A  
HETATM    7  C   UNL     1      -9.921   5.709  68.442  1.00  0.00    -0.156 A  
HETATM    8  C   UNL     1      -9.593   6.104  69.757  1.00  0.00    -0.150 A  
BRANCH   5   9
HETATM    9  N   UNL     1     -10.867   8.935  66.833  1.00  0.00    -0.228 NA 
HETATM   10  H   UNL     1     -11.502   8.523  66.150  1.00  0.00     0.000 HD 
BRANCH   9  11
HETATM   11  C   UNL     1     -10.602  10.284  66.593  1.00  0.00    -0.162 A  
HETATM   12  N   UNL     1     -10.662  10.630  65.299  1.00  0.00    -0.117 NA 
HETATM   13  N   UNL     1     -10.314  11.162  67.577  1.00  0.00    -0.189 NA 
HETATM   14  C   UNL     1     -10.064  12.458  67.255  1.00  0.00    -0.208 A  
HETATM   15  F   UNL     1     -10.024  14.168  65.583  1.00  0.00    -0.305 F  
HETATM   16  C   UNL     1     -10.446  11.930  65.006  1.00  0.00    -0.289 A  
HETATM   17  C   UNL     1     -10.178  12.890  65.952  1.00  0.00    -0.290 A  
BRANCH  14  18
HETATM   18  N   UNL     1      -9.773  13.303  68.339  1.00  0.00    -0.286 NA 
HETATM   19  H   UNL     1     -10.355  13.140  69.161  1.00  0.00     0.000 HD 
BRANCH  18  20
HETATM   20  C   UNL     1      -8.822  14.336  68.501  1.00  0.00    -0.176 A  
HETATM   21  N   UNL     1      -9.162  15.643  68.509  1.00  0.00    -0.190 NA 
HETATM   22  C   UNL     1      -8.202  16.588  68.749  1.00  0.00    -0.248 A  
HETATM   23  C   UNL     1      -6.857  16.258  68.895  1.00  0.00    -0.165 A  
HETATM   24  O   UNL     1      -5.846  17.175  69.025  1.00  0.00    -0.152 OA 
HETATM   25  C   UNL     1      -6.504  14.919  68.881  1.00  0.00    -0.088 A  
HETATM   26  C   UNL     1      -6.206  18.480  68.578  1.00  0.00    -0.206 C  
HETATM   27  C   UNL     1      -7.491  13.955  68.680  1.00  0.00    -0.122 A  
HETATM   28  C   UNL     1      -7.585  18.928  69.084  1.00  0.00    -0.175 C  
HETATM   29  C   UNL     1      -5.131  19.467  69.047  1.00  0.00    -0.198 C  
HETATM   30  C   UNL     1      -6.279  18.536  67.031  1.00  0.00    -0.188 C  
HETATM   31  N   UNL     1      -8.555  17.956  68.905  1.00  0.00    -0.182 N  
HETATM   32  O   UNL     1      -7.841  20.080  69.431  1.00  0.00    -0.039 OA 
BRANCH  31  33
HETATM   33  C   UNL     1      -9.885  18.423  68.699  1.00  0.00    -0.376 C  
BRANCH  33  34
HETATM   34  O   UNL     1      -9.897  19.356  67.667  1.00  0.00    -0.317 OA 
HETATM   35  P   UNL     1     -10.501  18.622  66.219  1.00  0.00    -0.275 P  
HETATM   36  O   UNL     1      -9.284  19.461  65.521  1.00  0.00    -0.181 OA 
HETATM   37  O   UNL     1     -11.596  19.832  66.256  1.00  0.00     0.473 OA 
HETATM   38  O   UNL     1     -11.041  17.967  64.925  1.00  0.00    -0.782 OA 
ENDBRANCH  33  34
ENDBRANCH  31  33
ENDBRANCH  18  20
ENDBRANCH  14  18
ENDBRANCH   9  11
ENDBRANCH   5   9
BRANCH   7  39
HETATM   39  O   UNL     1      -9.945   4.443  67.909  1.00  0.00    -0.120 OA 
HETATM   40  C   UNL     1      -8.955   4.042  66.977  1.00  0.00    -0.132 C  
ENDBRANCH   7  39
BRANCH   8  41
HETATM   41  O   UNL     1      -9.093   5.124  70.566  1.00  0.00    -0.133 OA 
HETATM   42  C   UNL     1      -9.909   4.238  71.312  1.00  0.00    -0.187 C  
ENDBRANCH   8  41
ENDBRANCH   2   3
TORSDOF 9
ENDMDL
MODEL      176
REMARK 921   NORMALIZED FREE ENERGY PREDICTED BY IDOCK:   -4.52 KCAL/MOL
REMARK 922        TOTAL FREE ENERGY PREDICTED BY IDOCK:   -8.76 KCAL/MOL
REMARK 923 INTER-LIGAND FREE ENERGY PREDICTED BY IDOCK:   -7.41 KCAL/MOL
REMARK 924 INTRA-LIGAND FREE ENERGY PREDICTED BY IDOCK:   -1.35 KCAL/MOL
REMARK 927      BINDING AFFINITY PREDICTED BY RF-SCORE:    0.00 PKD
ROOT
HETATM    1  C   UNL     1     -10.811   6.531  68.093  1.00  0.00    -0.295 C  
HETATM    2  O   UNL     1      -9.400   6.316  68.007  1.00  0.00    -0.117 OA 
ENDROOT
BRANCH   2   3
HETATM    3  C   UNL     1      -8.645   7.460  68.078  1.00  0.00    -0.122 A  
HETATM    4  C   UNL     1      -8.882   8.505  67.166  1.00  0.00    -0.139 A  
HETATM    5  C   UNL     1      -8.088   9.644  67.109  1.00  0.00    -0.110 A  
HETATM    6  C   UNL     1      -7.049   9.724  68.040  1.00  0.00    -0.079 A  
HETATM    7  C   UNL     1      -6.819   8.735  69.011  1.00  0.00    -0.059 A  
HETATM    8  C   UNL     1      -7.647   7.593  69.064  1.00  0.00    -0.104 A  
BRANCH   5   9
HETATM    9  N   UNL     1      -8.269  10.665  66.171  1.00  0.00    -0.151 NA 
HETATM   10  H   UNL     1      -7.420  11.201  65.992  1.00  0.00     0.000 HD 
BRANCH   9  11
HETATM   11  C   UNL     1      -9.365  11.108  65.429  1.00  0.00    -0.219 A  
HETATM   12  N   UNL     1      -9.668  10.325  64.384  1.00  0.00    -0.316 NA 
HETATM   13  N   UNL     1     -10.058  12.224  65.738  1.00  0.00    -0.248 NA 
HETATM   14  C   UNL     1     -11.111  12.585  64.959  1.00  0.00    -0.299 A  
HETATM   15  F   UNL     1     -12.591  12.045  63.159  1.00  0.00    -0.637 F  
HETATM   16  C   UNL     1     -10.738  10.683  63.645  1.00  0.00     0.355 A  
HETATM   17  C   UNL     1     -11.515  11.785  63.912  1.00  0.00    -0.393 A  
BRANCH  14  18
HETATM   18  N   UNL     1     -11.776  13.759  65.351  1.00  0.00    -0.324 NA 
HETATM   19  H   UNL     1     -12.777  13.637  65.508  1.00  0.00     0.000 HD 
BRANCH  18  20
HETATM   20  C   UNL     1     -11.315  15.077  65.570  1.00  0.00    -0.312 A  
HETATM   21  N   UNL     1     -10.842  15.493  66.765  1.00  0.00    -0.310 NA 
HETATM   22  C   UNL     1     -10.339  16.760  66.886  1.00  0.00    -0.294 A  
HETATM   23  C   UNL     1     -10.379  17.677  65.839  1.00  0.00    -0.257 A  
HETATM   24  O   UNL     1      -9.990  18.988  65.944  1.00  0.00    -0.477 OA 
HETATM   25  C   UNL     1     -10.868  17.255  64.614  1.00  0.00     0.884 A  
HETATM   26  C   UNL     1      -9.944  19.458  67.290  1.00  0.00    -0.366 C  
HETATM   27  C   UNL     1     -11.341  15.950  64.482  1.00  0.00    -0.316 A  
HETATM   28  C   UNL     1      -9.250  18.474  68.244  1.00  0.00    -0.321 C  
HETATM   29  C   UNL     1      -9.216  20.806  67.308  1.00  0.00    -0.370 C  
HETATM   30  C   UNL     1     -11.373  19.665  67.853  1.00  0.00     0.590 C  
HETATM   31  N   UNL     1      -9.706  17.176  68.089  1.00  0.00    -0.266 N  
HETATM   32  O   UNL     1      -8.517  18.826  69.167  1.00  0.00    -0.151 OA 
BRANCH  31  33
HETATM   33  C   UNL     1      -9.675  16.354  69.252  1.00  0.00    -0.221 C  
BRANCH  33  34
HETATM   34  O   UNL     1     -10.814  16.586  70.017  1.00  0.00    -0.344 OA 
HETATM   35  P   UNL     1     -11.467  15.082  70.570  1.00  0.00    -0.281 P  
HETATM   36  O   UNL     1     -12.892  15.783  70.183  1.00  0.00    -0.293 OA 
HETATM   37  O   UNL     1     -11.305  15.742  72.055  1.00  0.00    -0.371 OA 
HETATM   38  O   UNL     1     -12.052  13.737  71.065  1.00  0.00    -0.340 OA 
ENDBRANCH  33  34
ENDBRANCH  31  33
ENDBRANCH  18  20
ENDBRANCH  14  18
ENDBRANCH   9  11
ENDBRANCH   5   9
BRANCH   7  39
HETATM   39  O   UNL     1      -5.716   9.029  69.776  1.00  0.00    -0.032 OA 
HETATM   40  C   UNL     1      -5.833   9.890  70.897  1.00  0.00    -0.088 C  
ENDBRANCH   7  39
BRANCH   8  41
HETATM   41  O   UNL     1      -7.416   6.737  70.103  1.00  0.00    -0.089 OA 
HETATM   42  C   UNL     1      -8.414   6.352  71.031  1.00  0.00    -0.127 C  
ENDBRANCH   8  41
ENDBRANCH   2   3
TORSDOF 9
ENDMDL
MODEL      177
REMARK 921   NORMALIZED FREE ENERGY PREDICTED BY IDOCK:   -4.51 KCAL/MOL
REMARK 922        TOTAL FREE ENERGY PREDICTED BY IDOCK:   -8.75 KCAL/MOL
REMARK 923 INTER-LIGAND FREE ENERGY PREDICTED BY IDOCK:   -7.62 KCAL/MOL
REMARK 924 INTRA-LIGAND FREE ENERGY PREDICTED BY IDOCK:   -1.13 KCAL/MOL
REMARK 927      BINDING AFFINITY PREDICTED BY RF-SCORE:    0.00 PKD
ROOT
HETATM    1  C   UNL     1      -5.579   8.558  73.361  1.00  0.00    -0.085 C  
HETATM    2  O   UNL     1      -6.917   8.750  72.894  1.00  0.00    -0.311 OA 
ENDROOT
BRANCH   2   3
HETATM    3  C   UNL     1      -7.319   7.854  71.934  1.00  0.00    -0.075 A  
HETATM    4  C   UNL     1      -6.807   7.962  70.628  1.00  0.00    -0.041 A  
HETATM    5  C   UNL     1      -7.249   7.160  69.583  1.00  0.00    -0.076 A  
HETATM    6  C   UNL     1      -8.213   6.200  69.900  1.00  0.00    -0.120 A  
HETATM    7  C   UNL     1      -8.701   6.014  71.204  1.00  0.00    -0.132 A  
HETATM    8  C   UNL     1      -8.228   6.827  72.257  1.00  0.00    -0.106 A  
BRANCH   5   9
HETATM    9  N   UNL     1      -6.798   7.291  68.265  1.00  0.00    -0.067 NA 
HETATM   10  H   UNL     1      -5.853   6.934  68.127  1.00  0.00     0.000 HD 
BRANCH   9  11
HETATM   11  C   UNL     1      -7.367   7.807  67.101  1.00  0.00    -0.091 A  
HETATM   12  N   UNL     1      -6.752   7.418  65.975  1.00  0.00    -0.052 NA 
HETATM   13  N   UNL     1      -8.441   8.624  67.107  1.00  0.00    -0.114 NA 
HETATM   14  C   UNL     1      -8.929   9.085  65.927  1.00  0.00    -0.190 A  
HETATM   15  F   UNL     1      -8.871   9.022  63.536  1.00  0.00    -0.207 F  
HETATM   16  C   UNL     1      -7.275   7.860  64.811  1.00  0.00    -0.074 A  
HETATM   17  C   UNL     1      -8.384   8.667  64.732  1.00  0.00    -0.157 A  
BRANCH  14  18
HETATM   18  N   UNL     1     -10.048   9.929  66.026  1.00  0.00    -0.261 NA 
HETATM   19  H   UNL     1     -10.692   9.860  65.238  1.00  0.00     0.000 HD 
BRANCH  18  20
HETATM   20  C   UNL     1     -10.447  10.856  67.016  1.00  0.00    -0.244 A  
HETATM   21  N   UNL     1     -10.418  12.191  66.816  1.00  0.00    -0.216 NA 
HETATM   22  C   UNL     1     -10.892  13.029  67.789  1.00  0.00    -0.240 A  
HETATM   23  C   UNL     1     -11.320  12.559  69.028  1.00  0.00    -0.290 A  
HETATM   24  O   UNL     1     -11.697  13.364  70.072  1.00  0.00    -0.282 OA 
HETATM   25  C   UNL     1     -11.345  11.191  69.239  1.00  0.00    -0.349 A  
HETATM   26  C   UNL     1     -11.221  14.703  69.953  1.00  0.00    -0.231 C  
HETATM   27  C   UNL     1     -10.902  10.337  68.229  1.00  0.00    -0.300 A  
HETATM   28  C   UNL     1     -11.425  15.289  68.548  1.00  0.00    -0.342 C  
HETATM   29  C   UNL     1     -11.944  15.569  70.991  1.00  0.00    -0.428 C  
HETATM   30  C   UNL     1      -9.698  14.777  70.232  1.00  0.00     0.683 C  
HETATM   31  N   UNL     1     -11.008  14.425  67.550  1.00  0.00    -0.286 N  
HETATM   32  O   UNL     1     -11.741  16.459  68.339  1.00  0.00    -0.205 OA 
BRANCH  31  33
HETATM   33  C   UNL     1     -10.528  15.031  66.352  1.00  0.00    -0.294 C  
BRANCH  33  34
HETATM   34  O   UNL     1     -11.596  15.576  65.645  1.00  0.00    -0.059 OA 
HETATM   35  P   UNL     1     -12.029  14.530  64.335  1.00  0.00    -0.321 P  
HETATM   36  O   UNL     1     -12.162  15.937  63.515  1.00  0.00    -0.454 OA 
HETATM   37  O   UNL     1     -13.509  14.547  65.023  1.00  0.00    -0.173 OA 
HETATM   38  O   UNL     1     -12.415  13.595  63.164  1.00  0.00    -0.786 OA 
ENDBRANCH  33  34
ENDBRANCH  31  33
ENDBRANCH  18  20
ENDBRANCH  14  18
ENDBRANCH   9  11
ENDBRANCH   5   9
BRANCH   7  39
HETATM   39  O   UNL     1      -9.669   5.039  71.244  1.00  0.00    -0.157 OA 
HETATM   40  C   UNL     1      -9.303   3.676  71.387  1.00  0.00    -0.141 C  
ENDBRANCH   7  39
BRANCH   8  41
HETATM   41  O   UNL     1      -8.679   6.508  73.505  1.00  0.00    -0.123 OA 
HETATM   42  C   UNL     1      -9.731   7.201  74.155  1.00  0.00    -0.223 C  
ENDBRANCH   8  41
ENDBRANCH   2   3
TORSDOF 9
ENDMDL
MODEL      178
REMARK 921   NORMALIZED FREE ENERGY PREDICTED BY IDOCK:   -4.50 KCAL/MOL
REMARK 922        TOTAL FREE ENERGY PREDICTED BY IDOCK:   -8.74 KCAL/MOL
REMARK 923 INTER-LIGAND FREE ENERGY PREDICTED BY IDOCK:   -7.16 KCAL/MOL
REMARK 924 INTRA-LIGAND FREE ENERGY PREDICTED BY IDOCK:   -1.58 KCAL/MOL
REMARK 927      BINDING AFFINITY PREDICTED BY RF-SCORE:    0.00 PKD
ROOT
HETATM    1  C   UNL     1      -6.036  15.699  67.975  1.00  0.00    -0.138 C  
HETATM    2  O   UNL     1      -6.974  15.483  66.917  1.00  0.00    -0.223 OA 
ENDROOT
BRANCH   2   3
HETATM    3  C   UNL     1      -7.988  14.610  67.225  1.00  0.00    -0.197 A  
HETATM    4  C   UNL     1      -7.693  13.250  67.431  1.00  0.00    -0.148 A  
HETATM    5  C   UNL     1      -8.679  12.294  67.639  1.00  0.00    -0.175 A  
HETATM    6  C   UNL     1      -9.997  12.757  67.672  1.00  0.00    -0.217 A  
HETATM    7  C   UNL     1     -10.331  14.115  67.537  1.00  0.00    -0.248 A  
HETATM    8  C   UNL     1      -9.314  15.074  67.344  1.00  0.00    -0.201 A  
BRANCH   5   9
HETATM    9  N   UNL     1      -8.412  10.929  67.787  1.00  0.00    -0.122 NA 
HETATM   10  H   UNL     1      -7.446  10.734  68.046  1.00  0.00     0.000 HD 
BRANCH   9  11
HETATM   11  C   UNL     1      -9.188   9.777  67.654  1.00  0.00    -0.130 A  
HETATM   12  N   UNL     1      -9.141   9.225  66.433  1.00  0.00    -0.151 NA 
HETATM   13  N   UNL     1      -9.920   9.263  68.666  1.00  0.00    -0.173 NA 
HETATM   14  C   UNL     1     -10.651   8.139  68.449  1.00  0.00    -0.099 A  
HETATM   15  F   UNL     1     -11.223   6.333  66.989  1.00  0.00    -0.395 F  
HETATM   16  C   UNL     1      -9.848   8.089  66.250  1.00  0.00    -0.091 A  
HETATM   17  C   UNL     1     -10.591   7.487  67.237  1.00  0.00    -0.324 A  
BRANCH  14  18
HETATM   18  N   UNL     1     -11.382   7.674  69.555  1.00  0.00    -0.445 NA 
HETATM   19  H   UNL     1     -12.282   8.136  69.683  1.00  0.00     0.000 HD 
BRANCH  18  20
HETATM   20  C   UNL     1     -11.100   6.683  70.523  1.00  0.00    -0.307 A  
HETATM   21  N   UNL     1     -10.040   5.852  70.426  1.00  0.00    -0.191 NA 
HETATM   22  C   UNL     1      -9.781   4.968  71.437  1.00  0.00    -0.171 A  
HETATM   23  C   UNL     1     -10.630   4.825  72.532  1.00  0.00    -0.200 A  
HETATM   24  O   UNL     1     -10.474   3.879  73.512  1.00  0.00    -0.148 OA 
HETATM   25  C   UNL     1     -11.722   5.671  72.632  1.00  0.00    -0.256 A  
HETATM   26  C   UNL     1      -9.643   2.789  73.120  1.00  0.00    -0.095 C  
HETATM   27  C   UNL     1     -11.959   6.601  71.620  1.00  0.00    -0.395 A  
HETATM   28  C   UNL     1      -8.355   3.242  72.415  1.00  0.00    -0.079 C  
HETATM   29  C   UNL     1      -9.296   1.969  74.367  1.00  0.00    -0.096 C  
HETATM   30  C   UNL     1     -10.378   1.865  72.116  1.00  0.00    -0.183 C  
HETATM   31  N   UNL     1      -8.595   4.185  71.430  1.00  0.00    -0.099 N  
HETATM   32  O   UNL     1      -7.265   2.694  72.573  1.00  0.00    -0.030 OA 
BRANCH  31  33
HETATM   33  C   UNL     1      -7.693   4.187  70.327  1.00  0.00    -0.048 C  
BRANCH  33  34
HETATM   34  O   UNL     1      -7.897   3.047  69.555  1.00  0.00    -0.046 OA 
HETATM   35  P   UNL     1      -8.281   3.499  67.929  1.00  0.00    -0.086 P  
HETATM   36  O   UNL     1      -9.382   2.299  68.064  1.00  0.00    -0.192 OA 
HETATM   37  O   UNL     1      -6.999   2.566  67.538  1.00  0.00    -0.046 OA 
HETATM   38  O   UNL     1      -8.624   3.903  66.475  1.00  0.00    -0.108 OA 
ENDBRANCH  33  34
ENDBRANCH  31  33
ENDBRANCH  18  20
ENDBRANCH  14  18
ENDBRANCH   9  11
ENDBRANCH   5   9
BRANCH   7  39
HETATM   39  O   UNL     1     -11.692  14.303  67.564  1.00  0.00    -0.345 OA 
HETATM   40  C   UNL     1     -12.357  14.532  68.795  1.00  0.00    -0.029 C  
ENDBRANCH   7  39
BRANCH   8  41
HETATM   41  O   UNL     1      -9.719  16.378  67.327  1.00  0.00    -0.233 OA 
HETATM   42  C   UNL     1     -10.032  17.082  66.138  1.00  0.00    -0.298 C  
ENDBRANCH   8  41
ENDBRANCH   2   3
TORSDOF 9
ENDMDL
MODEL      179
REMARK 921   NORMALIZED FREE ENERGY PREDICTED BY IDOCK:   -4.50 KCAL/MOL
REMARK 922        TOTAL FREE ENERGY PREDICTED BY IDOCK:   -8.73 KCAL/MOL
REMARK 923 INTER-LIGAND FREE ENERGY PREDICTED BY IDOCK:   -7.03 KCAL/MOL
REMARK 924 INTRA-LIGAND FREE ENERGY PREDICTED BY IDOCK:   -1.70 KCAL/MOL
REMARK 927      BINDING AFFINITY PREDICTED BY RF-SCORE:    0.00 PKD
ROOT
HETATM    1  C   UNL     1      -6.787   6.372  74.514  1.00  0.00    -0.089 C  
HETATM    2  O   UNL     1      -7.738   5.852  73.581  1.00  0.00    -0.096 OA 
ENDROOT
BRANCH   2   3
HETATM    3  C   UNL     1      -8.537   6.802  72.994  1.00  0.00    -0.119 A  
HETATM    4  C   UNL     1      -7.960   7.765  72.145  1.00  0.00    -0.130 A  
HETATM    5  C   UNL     1      -8.687   8.817  71.604  1.00  0.00    -0.185 A  
HETATM    6  C   UNL     1     -10.049   8.856  71.914  1.00  0.00    -0.393 A  
HETATM    7  C   UNL     1     -10.679   7.878  72.702  1.00  0.00    -0.347 A  
HETATM    8  C   UNL     1      -9.926   6.807  73.230  1.00  0.00    -0.203 A  
BRANCH   5   9
HETATM    9  N   UNL     1      -8.122   9.818  70.807  1.00  0.00    -0.389 NA 
HETATM   10  H   UNL     1      -7.963  10.690  71.311  1.00  0.00     0.000 HD 
BRANCH   9  11
HETATM   11  C   UNL     1      -7.728   9.876  69.470  1.00  0.00    -0.135 A  
HETATM   12  N   UNL     1      -7.674   8.681  68.865  1.00  0.00    -0.098 NA 
HETATM   13  N   UNL     1      -7.431  11.034  68.842  1.00  0.00    -0.114 NA 
HETATM   14  C   UNL     1      -7.052  10.999  67.538  1.00  0.00    -0.091 A  
HETATM   15  F   UNL     1      -6.758   9.724  65.536  1.00  0.00    -0.074 F  
HETATM   16  C   UNL     1      -7.329   8.675  67.560  1.00  0.00    -0.089 A  
HETATM   17  C   UNL     1      -7.043   9.811  66.841  1.00  0.00    -0.089 A  
BRANCH  14  18
HETATM   18  N   UNL     1      -6.761  12.248  66.962  1.00  0.00    -0.334 NA 
HETATM   19  H   UNL     1      -6.133  12.200  66.160  1.00  0.00     0.000 HD 
BRANCH  18  20
HETATM   20  C   UNL     1      -7.178  13.558  67.290  1.00  0.00     0.013 A  
HETATM   21  N   UNL     1      -8.464  13.865  67.565  1.00  0.00    -0.183 NA 
HETATM   22  C   UNL     1      -8.786  15.137  67.952  1.00  0.00    -0.166 A  
HETATM   23  C   UNL     1      -7.845  16.163  67.984  1.00  0.00    -0.144 A  
HETATM   24  O   UNL     1      -8.140  17.474  68.256  1.00  0.00    -0.248 OA 
HETATM   25  C   UNL     1      -6.526  15.853  67.697  1.00  0.00    -0.192 A  
HETATM   26  C   UNL     1      -9.519  17.791  68.086  1.00  0.00    -0.282 C  
HETATM   27  C   UNL     1      -6.193  14.546  67.345  1.00  0.00     0.169 A  
HETATM   28  C   UNL     1     -10.455  16.749  68.717  1.00  0.00    -0.338 C  
HETATM   29  C   UNL     1      -9.781  19.170  68.701  1.00  0.00    -0.478 C  
HETATM   30  C   UNL     1      -9.893  17.848  66.583  1.00  0.00    -0.342 C  
HETATM   31  N   UNL     1     -10.103  15.452  68.385  1.00  0.00    -0.213 N  
HETATM   32  O   UNL     1     -11.504  17.037  69.290  1.00  0.00     0.244 OA 
BRANCH  31  33
HETATM   33  C   UNL     1     -11.168  14.507  68.320  1.00  0.00    -0.277 C  
BRANCH  33  34
HETATM   34  O   UNL     1     -11.241  13.804  69.519  1.00  0.00    -0.236 OA 
HETATM   35  P   UNL     1     -11.848  12.209  69.229  1.00  0.00    -0.247 P  
HETATM   36  O   UNL     1     -12.705  12.500  70.590  1.00  0.00    -0.182 OA 
HETATM   37  O   UNL     1     -10.465  11.726  69.951  1.00  0.00     0.444 OA 
HETATM   38  O   UNL     1     -12.391  10.783  68.970  1.00  0.00    -0.422 OA 
ENDBRANCH  33  34
ENDBRANCH  31  33
ENDBRANCH  18  20
ENDBRANCH  14  18
ENDBRANCH   9  11
ENDBRANCH   5   9
BRANCH   7  39
HETATM   39  O   UNL     1     -12.009   8.166  72.893  1.00  0.00    -0.313 OA 
HETATM   40  C   UNL     1     -13.002   7.477  72.153  1.00  0.00    -0.075 C  
ENDBRANCH   7  39
BRANCH   8  41
HETATM   41  O   UNL     1     -10.637   5.850  73.895  1.00  0.00    -0.265 OA 
HETATM   42  C   UNL     1     -11.088   4.651  73.289  1.00  0.00    -0.321 C  
ENDBRANCH   8  41
ENDBRANCH   2   3
TORSDOF 9
ENDMDL
MODEL      180
REMARK 921   NORMALIZED FREE ENERGY PREDICTED BY IDOCK:   -4.47 KCAL/MOL
REMARK 922        TOTAL FREE ENERGY PREDICTED BY IDOCK:   -8.69 KCAL/MOL
REMARK 923 INTER-LIGAND FREE ENERGY PREDICTED BY IDOCK:   -7.22 KCAL/MOL
REMARK 924 INTRA-LIGAND FREE ENERGY PREDICTED BY IDOCK:   -1.47 KCAL/MOL
REMARK 927      BINDING AFFINITY PREDICTED BY RF-SCORE:    0.00 PKD
ROOT
HETATM    1  C   UNL     1     -11.274  16.026  68.434  1.00  0.00    -0.364 C  
HETATM    2  O   UNL     1     -10.645  17.067  69.185  1.00  0.00    -0.329 OA 
ENDROOT
BRANCH   2   3
HETATM    3  C   UNL     1      -9.406  17.436  68.721  1.00  0.00    -0.244 A  
HETATM    4  C   UNL     1      -8.324  16.545  68.851  1.00  0.00    -0.241 A  
HETATM    5  C   UNL     1      -7.025  16.891  68.503  1.00  0.00    -0.186 A  
HETATM    6  C   UNL     1      -6.842  18.171  67.975  1.00  0.00    -0.208 A  
HETATM    7  C   UNL     1      -7.904  19.067  67.765  1.00  0.00    -0.251 A  
HETATM    8  C   UNL     1      -9.221  18.692  68.109  1.00  0.00    -0.313 A  
BRANCH   5   9
HETATM    9  N   UNL     1      -5.926  16.043  68.681  1.00  0.00    -0.103 NA 
HETATM   10  H   UNL     1      -5.061  16.420  68.294  1.00  0.00     0.000 HD 
BRANCH   9  11
HETATM   11  C   UNL     1      -5.763  14.791  69.274  1.00  0.00    -0.097 A  
HETATM   12  N   UNL     1      -5.688  14.827  70.612  1.00  0.00    -0.151 NA 
HETATM   13  N   UNL     1      -5.690  13.646  68.563  1.00  0.00    -0.083 NA 
HETATM   14  C   UNL     1      -5.526  12.469  69.221  1.00  0.00    -0.072 A  
HETATM   15  F   UNL     1      -5.433  11.297  71.304  1.00  0.00    -0.112 F  
HETATM   16  C   UNL     1      -5.560  13.642  71.246  1.00  0.00    -0.214 A  
HETATM   17  C   UNL     1      -5.510  12.432  70.598  1.00  0.00    -0.169 A  
BRANCH  14  18
HETATM   18  N   UNL     1      -5.459  11.327  68.404  1.00  0.00    -0.043 NA 
HETATM   19  H   UNL     1      -4.574  11.221  67.909  1.00  0.00     0.000 HD 
BRANCH  18  20
HETATM   20  C   UNL     1      -6.393  10.298  68.144  1.00  0.00    -0.056 A  
HETATM   21  N   UNL     1      -7.318   9.909  69.047  1.00  0.00    -0.076 NA 
HETATM   22  C   UNL     1      -8.242   8.961  68.701  1.00  0.00    -0.116 A  
HETATM   23  C   UNL     1      -8.208   8.307  67.472  1.00  0.00    -0.122 A  
HETATM   24  O   UNL     1      -9.040   7.274  67.122  1.00  0.00    -0.125 OA 
HETATM   25  C   UNL     1      -7.256   8.699  66.545  1.00  0.00    -0.080 A  
HETATM   26  C   UNL     1      -9.651   6.637  68.242  1.00  0.00    -0.125 C  
HETATM   27  C   UNL     1      -6.343   9.696  66.885  1.00  0.00    -0.066 A  
HETATM   28  C   UNL     1     -10.214   7.634  69.265  1.00  0.00    -0.210 C  
HETATM   29  C   UNL     1     -10.771   5.725  67.729  1.00  0.00    -0.306 C  
HETATM   30  C   UNL     1      -8.625   5.766  69.011  1.00  0.00    -0.106 C  
HETATM   31  N   UNL     1      -9.312   8.637  69.578  1.00  0.00    -0.153 N  
HETATM   32  O   UNL     1     -11.266   7.458  69.878  1.00  0.00    -0.228 OA 
BRANCH  31  33
HETATM   33  C   UNL     1      -9.406   9.181  70.892  1.00  0.00    -0.269 C  
BRANCH  33  34
HETATM   34  O   UNL     1      -9.092   8.199  71.827  1.00  0.00    -0.144 OA 
HETATM   35  P   UNL     1      -7.447   8.376  72.335  1.00  0.00     0.005 P  
HETATM   36  O   UNL     1      -7.440   6.746  72.214  1.00  0.00    -0.090 OA 
HETATM   37  O   UNL     1      -8.089   8.472  73.833  1.00  0.00    -0.375 OA 
HETATM   38  O   UNL     1      -5.976   8.533  72.790  1.00  0.00    -0.067 OA 
ENDBRANCH  33  34
ENDBRANCH  31  33
ENDBRANCH  18  20
ENDBRANCH  14  18
ENDBRANCH   9  11
ENDBRANCH   5   9
BRANCH   7  39
HETATM   39  O   UNL     1      -7.457  20.271  67.275  1.00  0.00    -0.270 OA 
HETATM   40  C   UNL     1      -6.306  20.885  67.831  1.00  0.00    -0.343 C  
ENDBRANCH   7  39
BRANCH   8  41
HETATM   41  O   UNL     1     -10.201  19.582  67.776  1.00  0.00    -0.377 OA 
HETATM   42  C   UNL     1     -10.823  19.617  66.503  1.00  0.00    -0.347 C  
ENDBRANCH   8  41
ENDBRANCH   2   3
TORSDOF 9
ENDMDL
MODEL      181
REMARK 921   NORMALIZED FREE ENERGY PREDICTED BY IDOCK:   -4.46 KCAL/MOL
REMARK 922        TOTAL FREE ENERGY PREDICTED BY IDOCK:   -8.67 KCAL/MOL
REMARK 923 INTER-LIGAND FREE ENERGY PREDICTED BY IDOCK:   -7.55 KCAL/MOL
REMARK 924 INTRA-LIGAND FREE ENERGY PREDICTED BY IDOCK:   -1.12 KCAL/MOL
REMARK 927      BINDING AFFINITY PREDICTED BY RF-SCORE:    0.00 PKD
ROOT
HETATM    1  C   UNL     1      -8.296   9.230  64.419  1.00  0.00    -0.171 C  
HETATM    2  O   UNL     1      -7.423   8.134  64.130  1.00  0.00    -0.093 OA 
ENDROOT
BRANCH   2   3
HETATM    3  C   UNL     1      -7.819   6.934  64.668  1.00  0.00    -0.116 A  
HETATM    4  C   UNL     1      -8.498   6.917  65.900  1.00  0.00    -0.147 A  
HETATM    5  C   UNL     1      -8.833   5.738  66.554  1.00  0.00    -0.126 A  
HETATM    6  C   UNL     1      -8.492   4.549  65.905  1.00  0.00    -0.114 A  
HETATM    7  C   UNL     1      -7.874   4.521  64.643  1.00  0.00    -0.086 A  
HETATM    8  C   UNL     1      -7.557   5.729  63.986  1.00  0.00    -0.080 A  
BRANCH   5   9
HETATM    9  N   UNL     1      -9.454   5.699  67.807  1.00  0.00    -0.113 NA 
HETATM   10  H   UNL     1      -9.894   4.802  68.009  1.00  0.00     0.000 HD 
BRANCH   9  11
HETATM   11  C   UNL     1      -9.598   6.627  68.839  1.00  0.00    -0.129 A  
HETATM   12  N   UNL     1      -8.459   6.903  69.488  1.00  0.00    -0.132 NA 
HETATM   13  N   UNL     1     -10.781   7.198  69.153  1.00  0.00    -0.216 NA 
HETATM   14  C   UNL     1     -10.834   8.089  70.176  1.00  0.00    -0.242 A  
HETATM   15  F   UNL     1      -9.660   9.399  71.798  1.00  0.00    -0.314 F  
HETATM   16  C   UNL     1      -8.528   7.818  70.478  1.00  0.00    -0.127 A  
HETATM   17  C   UNL     1      -9.685   8.467  70.837  1.00  0.00    -0.174 A  
BRANCH  14  18
HETATM   18  N   UNL     1     -12.103   8.634  70.436  1.00  0.00    -0.454 NA 
HETATM   19  H   UNL     1     -12.877   8.009  70.212  1.00  0.00     0.000 HD 
BRANCH  18  20
HETATM   20  C   UNL     1     -12.504   9.888  70.949  1.00  0.00    -0.307 A  
HETATM   21  N   UNL     1     -12.154  11.057  70.371  1.00  0.00    -0.343 NA 
HETATM   22  C   UNL     1     -12.642  12.232  70.875  1.00  0.00    -0.241 A  
HETATM   23  C   UNL     1     -13.419  12.277  72.029  1.00  0.00    -0.316 A  
HETATM   24  O   UNL     1     -13.837  13.434  72.635  1.00  0.00    -0.726 OA 
HETATM   25  C   UNL     1     -13.775  11.081  72.629  1.00  0.00     0.972 A  
HETATM   26  C   UNL     1     -13.078  14.579  72.253  1.00  0.00    -0.374 C  
HETATM   27  C   UNL     1     -13.312   9.882  72.088  1.00  0.00    -0.498 A  
HETATM   28  C   UNL     1     -12.842  14.663  70.738  1.00  0.00    -0.358 C  
HETATM   29  C   UNL     1     -13.812  15.833  72.739  1.00  0.00    -0.600 C  
HETATM   30  C   UNL     1     -11.671  14.553  72.904  1.00  0.00     0.266 C  
HETATM   31  N   UNL     1     -12.407  13.462  70.202  1.00  0.00    -0.287 N  
HETATM   32  O   UNL     1     -12.852  15.718  70.106  1.00  0.00    -0.293 OA 
BRANCH  31  33
HETATM   33  C   UNL     1     -11.562  13.551  69.059  1.00  0.00    -0.311 C  
BRANCH  33  34
HETATM   34  O   UNL     1     -10.501  14.410  69.329  1.00  0.00    -0.221 OA 
HETATM   35  P   UNL     1      -9.570  14.664  67.892  1.00  0.00    -0.221 P  
HETATM   36  O   UNL     1      -8.307  14.514  68.919  1.00  0.00    -0.157 OA 
HETATM   37  O   UNL     1      -9.877  16.243  68.166  1.00  0.00    -0.224 OA 
HETATM   38  O   UNL     1      -8.737  14.891  66.607  1.00  0.00    -0.261 OA 
ENDBRANCH  33  34
ENDBRANCH  31  33
ENDBRANCH  18  20
ENDBRANCH  14  18
ENDBRANCH   9  11
ENDBRANCH   5   9
BRANCH   7  39
HETATM   39  O   UNL     1      -7.608   3.233  64.243  1.00  0.00    -0.073 OA 
HETATM   40  C   UNL     1      -8.671   2.354  63.914  1.00  0.00    -0.086 C  
ENDBRANCH   7  39
BRANCH   8  41
HETATM   41  O   UNL     1      -7.055   5.607  62.723  1.00  0.00    -0.042 OA 
HETATM   42  C   UNL     1      -5.668   5.591  62.434  1.00  0.00    -0.014 C  
ENDBRANCH   8  41
ENDBRANCH   2   3
TORSDOF 9
ENDMDL
MODEL      182
REMARK 921   NORMALIZED FREE ENERGY PREDICTED BY IDOCK:   -4.46 KCAL/MOL
REMARK 922        TOTAL FREE ENERGY PREDICTED BY IDOCK:   -8.67 KCAL/MOL
REMARK 923 INTER-LIGAND FREE ENERGY PREDICTED BY IDOCK:   -7.54 KCAL/MOL
REMARK 924 INTRA-LIGAND FREE ENERGY PREDICTED BY IDOCK:   -1.13 KCAL/MOL
REMARK 927      BINDING AFFINITY PREDICTED BY RF-SCORE:    0.00 PKD
ROOT
HETATM    1  C   UNL     1     -13.470  12.293  72.118  1.00  0.00    -0.327 C  
HETATM    2  O   UNL     1     -12.768  13.019  71.105  1.00  0.00    -0.354 OA 
ENDROOT
BRANCH   2   3
HETATM    3  C   UNL     1     -12.116  12.231  70.189  1.00  0.00    -0.287 A  
HETATM    4  C   UNL     1     -12.124  10.833  70.347  1.00  0.00    -0.443 A  
HETATM    5  C   UNL     1     -11.397   9.983  69.522  1.00  0.00    -0.169 A  
HETATM    6  C   UNL     1     -10.676  10.586  68.489  1.00  0.00    -0.259 A  
HETATM    7  C   UNL     1     -10.694  11.971  68.255  1.00  0.00    -0.224 A  
HETATM    8  C   UNL     1     -11.452  12.817  69.093  1.00  0.00    -0.306 A  
BRANCH   5   9
HETATM    9  N   UNL     1     -11.343   8.596  69.698  1.00  0.00    -0.434 NA 
HETATM   10  H   UNL     1     -11.574   8.075  68.853  1.00  0.00     0.000 HD 
BRANCH   9  11
HETATM   11  C   UNL     1     -11.041   7.775  70.785  1.00  0.00    -0.257 A  
HETATM   12  N   UNL     1     -11.091   8.399  71.971  1.00  0.00    -0.303 NA 
HETATM   13  N   UNL     1     -10.727   6.469  70.654  1.00  0.00    -0.235 NA 
HETATM   14  C   UNL     1     -10.441   5.743  71.765  1.00  0.00    -0.228 A  
HETATM   15  F   UNL     1     -10.353   5.624  74.153  1.00  0.00    -0.208 F  
HETATM   16  C   UNL     1     -10.838   7.650  73.064  1.00  0.00    -0.400 A  
HETATM   17  C   UNL     1     -10.543   6.308  73.018  1.00  0.00    -0.239 A  
BRANCH  14  18
HETATM   18  N   UNL     1     -10.125   4.392  71.538  1.00  0.00    -0.178 NA 
HETATM   19  H   UNL     1     -10.490   3.755  72.246  1.00  0.00     0.000 HD 
BRANCH  18  20
HETATM   20  C   UNL     1      -9.395   3.755  70.509  1.00  0.00    -0.158 A  
HETATM   21  N   UNL     1      -8.739   4.442  69.549  1.00  0.00    -0.080 NA 
HETATM   22  C   UNL     1      -7.988   3.763  68.629  1.00  0.00    -0.066 A  
HETATM   23  C   UNL     1      -7.946   2.372  68.585  1.00  0.00    -0.052 A  
HETATM   24  O   UNL     1      -7.300   1.647  67.617  1.00  0.00    -0.052 OA 
HETATM   25  C   UNL     1      -8.623   1.664  69.565  1.00  0.00    -0.093 A  
HETATM   26  C   UNL     1      -7.035   2.396  66.434  1.00  0.00    -0.044 C  
HETATM   27  C   UNL     1      -9.353   2.359  70.527  1.00  0.00    -0.201 A  
HETATM   28  C   UNL     1      -6.460   3.790  66.722  1.00  0.00    -0.041 C  
HETATM   29  C   UNL     1      -6.058   1.598  65.563  1.00  0.00    -0.022 C  
HETATM   30  C   UNL     1      -8.335   2.628  65.622  1.00  0.00    -0.094 C  
HETATM   31  N   UNL     1      -7.174   4.465  67.698  1.00  0.00    -0.067 N  
HETATM   32  O   UNL     1      -5.588   4.322  66.037  1.00  0.00    -0.013 OA 
BRANCH  31  33
HETATM   33  C   UNL     1      -7.195   5.886  67.595  1.00  0.00    -0.076 C  
BRANCH  33  34
HETATM   34  O   UNL     1      -7.915   6.261  66.465  1.00  0.00    -0.105 OA 
HETATM   35  P   UNL     1      -9.591   6.428  66.864  1.00  0.00    -0.159 P  
HETATM   36  O   UNL     1      -9.805   5.670  65.432  1.00  0.00     0.203 OA 
HETATM   37  O   UNL     1      -9.414   7.941  66.276  1.00  0.00    -0.195 OA 
HETATM   38  O   UNL     1     -11.089   6.576  67.221  1.00  0.00    -0.378 OA 
ENDBRANCH  33  34
ENDBRANCH  31  33
ENDBRANCH  18  20
ENDBRANCH  14  18
ENDBRANCH   9  11
ENDBRANCH   5   9
BRANCH   7  39
HETATM   39  O   UNL     1      -9.873  12.314  67.208  1.00  0.00    -0.202 OA 
HETATM   40  C   UNL     1     -10.428  12.662  65.950  1.00  0.00    -0.274 C  
ENDBRANCH   7  39
BRANCH   8  41
HETATM   41  O   UNL     1     -11.495  14.132  68.730  1.00  0.00    -0.262 OA 
HETATM   42  C   UNL     1     -10.556  15.095  69.177  1.00  0.00    -0.256 C  
ENDBRANCH   8  41
ENDBRANCH   2   3
TORSDOF 9
ENDMDL
MODEL      183
REMARK 921   NORMALIZED FREE ENERGY PREDICTED BY IDOCK:   -4.44 KCAL/MOL
REMARK 922        TOTAL FREE ENERGY PREDICTED BY IDOCK:   -8.64 KCAL/MOL
REMARK 923 INTER-LIGAND FREE ENERGY PREDICTED BY IDOCK:   -7.25 KCAL/MOL
REMARK 924 INTRA-LIGAND FREE ENERGY PREDICTED BY IDOCK:   -1.39 KCAL/MOL
REMARK 927      BINDING AFFINITY PREDICTED BY RF-SCORE:    0.00 PKD
ROOT
HETATM    1  C   UNL     1     -11.726  15.783  69.636  1.00  0.00    -0.355 C  
HETATM    2  O   UNL     1     -11.579  16.422  68.365  1.00  0.00    -0.286 OA 
ENDROOT
BRANCH   2   3
HETATM    3  C   UNL     1     -10.322  16.323  67.821  1.00  0.00    -0.287 A  
HETATM    4  C   UNL     1      -9.743  15.054  67.636  1.00  0.00    -0.215 A  
HETATM    5  C   UNL     1      -8.438  14.884  67.193  1.00  0.00    -0.220 A  
HETATM    6  C   UNL     1      -7.725  16.048  66.898  1.00  0.00    -0.279 A  
HETATM    7  C   UNL     1      -8.285  17.332  67.004  1.00  0.00    -0.208 A  
HETATM    8  C   UNL     1      -9.619  17.484  67.440  1.00  0.00    -0.265 A  
BRANCH   5   9
HETATM    9  N   UNL     1      -7.824  13.634  67.060  1.00  0.00    -0.373 NA 
HETATM   10  H   UNL     1      -7.348  13.513  66.167  1.00  0.00     0.000 HD 
BRANCH   9  11
HETATM   11  C   UNL     1      -7.726  12.517  67.890  1.00  0.00    -0.138 A  
HETATM   12  N   UNL     1      -6.596  12.471  68.611  1.00  0.00    -0.077 NA 
HETATM   13  N   UNL     1      -8.683  11.568  67.963  1.00  0.00    -0.145 NA 
HETATM   14  C   UNL     1      -8.505  10.510  68.795  1.00  0.00    -0.141 A  
HETATM   15  F   UNL     1      -7.205   9.467  70.511  1.00  0.00    -0.080 F  
HETATM   16  C   UNL     1      -6.456  11.430  69.458  1.00  0.00    -0.122 A  
HETATM   17  C   UNL     1      -7.398  10.441  69.613  1.00  0.00    -0.156 A  
BRANCH  14  18
HETATM   18  N   UNL     1      -9.550   9.571  68.808  1.00  0.00    -0.155 NA 
HETATM   19  H   UNL     1     -10.461   9.967  69.039  1.00  0.00     0.000 HD 
BRANCH  18  20
HETATM   20  C   UNL     1      -9.571   8.179  68.560  1.00  0.00    -0.148 A  
HETATM   21  N   UNL     1      -9.406   7.264  69.539  1.00  0.00    -0.152 NA 
HETATM   22  C   UNL     1      -9.516   5.933  69.242  1.00  0.00    -0.128 A  
HETATM   23  C   UNL     1      -9.701   5.476  67.939  1.00  0.00    -0.131 A  
HETATM   24  O   UNL     1      -9.706   4.154  67.577  1.00  0.00    -0.179 OA 
HETATM   25  C   UNL     1      -9.865   6.413  66.932  1.00  0.00    -0.202 A  
HETATM   26  C   UNL     1      -9.090   3.301  68.540  1.00  0.00    -0.155 C  
HETATM   27  C   UNL     1      -9.795   7.769  67.245  1.00  0.00    -0.249 A  
HETATM   28  C   UNL     1      -9.535   3.603  69.978  1.00  0.00    -0.190 C  
HETATM   29  C   UNL     1      -9.421   1.848  68.184  1.00  0.00    -0.215 C  
HETATM   30  C   UNL     1      -7.550   3.469  68.524  1.00  0.00    -0.053 C  
HETATM   31  N   UNL     1      -9.489   4.955  70.274  1.00  0.00    -0.156 N  
HETATM   32  O   UNL     1      -9.726   2.734  70.828  1.00  0.00    -0.141 OA 
BRANCH  31  33
HETATM   33  C   UNL     1      -9.226   5.295  71.632  1.00  0.00    -0.146 C  
BRANCH  33  34
HETATM   34  O   UNL     1      -8.026   4.717  72.034  1.00  0.00    -0.096 OA 
HETATM   35  P   UNL     1      -6.747   5.878  71.922  1.00  0.00    -0.066 P  
HETATM   36  O   UNL     1      -5.914   4.611  71.312  1.00  0.00    -0.016 OA 
HETATM   37  O   UNL     1      -6.519   5.539  73.502  1.00  0.00    -0.067 OA 
HETATM   38  O   UNL     1      -5.604   6.917  71.821  1.00  0.00    -0.035 OA 
ENDBRANCH  33  34
ENDBRANCH  31  33
ENDBRANCH  18  20
ENDBRANCH  14  18
ENDBRANCH   9  11
ENDBRANCH   5   9
BRANCH   7  39
HETATM   39  O   UNL     1      -7.368  18.308  66.698  1.00  0.00    -0.204 OA 
HETATM   40  C   UNL     1      -6.487  18.140  65.599  1.00  0.00    -0.252 C  
ENDBRANCH   7  39
BRANCH   8  41
HETATM   41  O   UNL     1     -10.113  18.757  67.414  1.00  0.00    -0.321 OA 
HETATM   42  C   UNL     1     -10.107  19.619  68.538  1.00  0.00    -0.453 C  
ENDBRANCH   8  41
ENDBRANCH   2   3
TORSDOF 9
ENDMDL
MODEL      184
REMARK 921   NORMALIZED FREE ENERGY PREDICTED BY IDOCK:   -4.30 KCAL/MOL
REMARK 922        TOTAL FREE ENERGY PREDICTED BY IDOCK:   -8.43 KCAL/MOL
REMARK 923 INTER-LIGAND FREE ENERGY PREDICTED BY IDOCK:   -7.35 KCAL/MOL
REMARK 924 INTRA-LIGAND FREE ENERGY PREDICTED BY IDOCK:   -1.08 KCAL/MOL
REMARK 927      BINDING AFFINITY PREDICTED BY RF-SCORE:    0.00 PKD
ROOT
HETATM    1  C   UNL     1     -10.275  11.956  64.138  1.00  0.00    -0.330 C  
HETATM    2  O   UNL     1     -10.305  10.634  64.681  1.00  0.00    -0.345 OA 
ENDROOT
BRANCH   2   3
HETATM    3  C   UNL     1      -9.551  10.468  65.817  1.00  0.00    -0.210 A  
HETATM    4  C   UNL     1     -10.129  10.720  67.075  1.00  0.00    -0.249 A  
HETATM    5  C   UNL     1      -9.398  10.677  68.256  1.00  0.00    -0.156 A  
HETATM    6  C   UNL     1      -8.050  10.330  68.141  1.00  0.00    -0.110 A  
HETATM    7  C   UNL     1      -7.450  10.005  66.913  1.00  0.00    -0.095 A  
HETATM    8  C   UNL     1      -8.212  10.038  65.726  1.00  0.00    -0.130 A  
BRANCH   5   9
HETATM    9  N   UNL     1      -9.938  10.983  69.510  1.00  0.00    -0.435 NA 
HETATM   10  H   UNL     1      -9.468  11.761  69.971  1.00  0.00     0.000 HD 
BRANCH   9  11
HETATM   11  C   UNL     1     -10.984  10.449  70.263  1.00  0.00    -0.284 A  
HETATM   12  N   UNL     1     -12.174  11.016  70.024  1.00  0.00    -0.337 NA 
HETATM   13  N   UNL     1     -10.811   9.449  71.153  1.00  0.00    -0.331 NA 
HETATM   14  C   UNL     1     -11.884   8.990  71.849  1.00  0.00    -0.376 A  
HETATM   15  F   UNL     1     -14.251   9.018  72.192  1.00  0.00    -0.421 F  
HETATM   16  C   UNL     1     -13.232  10.521  70.701  1.00  0.00    -0.088 A  
HETATM   17  C   UNL     1     -13.145   9.484  71.599  1.00  0.00    -0.401 A  
BRANCH  14  18
HETATM   18  N   UNL     1     -11.615   7.949  72.754  1.00  0.00    -0.549 NA 
HETATM   19  H   UNL     1     -12.277   7.888  73.527  1.00  0.00     0.000 HD 
BRANCH  18  20
HETATM   20  C   UNL     1     -10.595   6.970  72.789  1.00  0.00    -0.254 A  
HETATM   21  N   UNL     1      -9.691   6.825  71.797  1.00  0.00    -0.161 NA 
HETATM   22  C   UNL     1      -8.683   5.910  71.932  1.00  0.00    -0.138 A  
HETATM   23  C   UNL     1      -8.606   5.047  73.022  1.00  0.00    -0.114 A  
HETATM   24  O   UNL     1      -7.683   4.041  73.148  1.00  0.00    -0.076 OA 
HETATM   25  C   UNL     1      -9.535   5.189  74.039  1.00  0.00    -0.128 A  
HETATM   26  C   UNL     1      -7.084   3.665  71.910  1.00  0.00    -0.045 C  
HETATM   27  C   UNL     1     -10.536   6.152  73.919  1.00  0.00    -0.287 A  
HETATM   28  C   UNL     1      -6.649   4.871  71.065  1.00  0.00    -0.031 C  
HETATM   29  C   UNL     1      -5.875   2.772  72.208  1.00  0.00    -0.009 C  
HETATM   30  C   UNL     1      -8.080   2.864  71.034  1.00  0.00    -0.062 C  
HETATM   31  N   UNL     1      -7.638   5.836  70.971  1.00  0.00    -0.093 N  
HETATM   32  O   UNL     1      -5.619   4.894  70.392  1.00  0.00    -0.014 OA 
BRANCH  31  33
HETATM   33  C   UNL     1      -7.651   6.611  69.776  1.00  0.00    -0.104 C  
BRANCH  33  34
HETATM   34  O   UNL     1      -8.930   6.600  69.228  1.00  0.00    -0.135 OA 
HETATM   35  P   UNL     1      -8.983   5.515  67.880  1.00  0.00    -0.108 P  
HETATM   36  O   UNL     1      -9.867   6.711  67.203  1.00  0.00    -0.135 OA 
HETATM   37  O   UNL     1     -10.195   4.802  68.708  1.00  0.00    -0.117 OA 
HETATM   38  O   UNL     1      -9.030   4.545  66.674  1.00  0.00    -0.111 OA 
ENDBRANCH  33  34
ENDBRANCH  31  33
ENDBRANCH  18  20
ENDBRANCH  14  18
ENDBRANCH   9  11
ENDBRANCH   5   9
BRANCH   7  39
HETATM   39  O   UNL     1      -6.110   9.741  67.063  1.00  0.00    -0.061 OA 
HETATM   40  C   UNL     1      -5.640   8.403  67.048  1.00  0.00    -0.038 C  
ENDBRANCH   7  39
BRANCH   8  41
HETATM   41  O   UNL     1      -7.576   9.608  64.597  1.00  0.00    -0.115 OA 
HETATM   42  C   UNL     1      -8.152   8.700  63.675  1.00  0.00    -0.163 C  
ENDBRANCH   8  41
ENDBRANCH   2   3
TORSDOF 9
ENDMDL
MODEL      185
REMARK 921   NORMALIZED FREE ENERGY PREDICTED BY IDOCK:   -4.29 KCAL/MOL
REMARK 922        TOTAL FREE ENERGY PREDICTED BY IDOCK:   -8.41 KCAL/MOL
REMARK 923 INTER-LIGAND FREE ENERGY PREDICTED BY IDOCK:   -7.26 KCAL/MOL
REMARK 924 INTRA-LIGAND FREE ENERGY PREDICTED BY IDOCK:   -1.15 KCAL/MOL
REMARK 927      BINDING AFFINITY PREDICTED BY RF-SCORE:    0.00 PKD
ROOT
HETATM    1  C   UNL     1     -10.647  17.694  69.116  1.00  0.00    -0.011 C  
HETATM    2  O   UNL     1     -10.080  17.667  67.804  1.00  0.00    -0.307 OA 
ENDROOT
BRANCH   2   3
HETATM    3  C   UNL     1      -9.328  16.551  67.532  1.00  0.00    -0.218 A  
HETATM    4  C   UNL     1      -9.970  15.320  67.305  1.00  0.00    -0.226 A  
HETATM    5  C   UNL     1      -9.271  14.132  67.131  1.00  0.00    -0.231 A  
HETATM    6  C   UNL     1      -7.877  14.221  67.155  1.00  0.00    -0.084 A  
HETATM    7  C   UNL     1      -7.195  15.439  67.313  1.00  0.00    -0.194 A  
HETATM    8  C   UNL     1      -7.922  16.639  67.470  1.00  0.00    -0.168 A  
BRANCH   5   9
HETATM    9  N   UNL     1      -9.891  12.889  66.964  1.00  0.00    -0.228 NA 
HETATM   10  H   UNL     1     -10.654  12.728  67.621  1.00  0.00     0.000 HD 
BRANCH   9  11
HETATM   11  C   UNL     1      -9.686  11.821  66.089  1.00  0.00    -0.229 A  
HETATM   12  N   UNL     1     -10.309  11.955  64.909  1.00  0.00    -0.275 NA 
HETATM   13  N   UNL     1      -8.926  10.751  66.402  1.00  0.00    -0.162 NA 
HETATM   14  C   UNL     1      -8.782   9.753  65.491  1.00  0.00    -0.149 A  
HETATM   15  F   UNL     1      -9.168   8.952  63.271  1.00  0.00    -0.062 F  
HETATM   16  C   UNL     1     -10.124  10.969  64.007  1.00  0.00    -0.350 A  
HETATM   17  C   UNL     1      -9.341   9.863  64.237  1.00  0.00    -0.253 A  
BRANCH  14  18
HETATM   18  N   UNL     1      -7.975   8.677  65.899  1.00  0.00    -0.101 NA 
HETATM   19  H   UNL     1      -6.974   8.860  65.831  1.00  0.00     0.000 HD 
BRANCH  18  20
HETATM   20  C   UNL     1      -8.295   7.389  66.387  1.00  0.00    -0.127 A  
HETATM   21  N   UNL     1      -8.420   7.120  67.704  1.00  0.00    -0.120 NA 
HETATM   22  C   UNL     1      -8.808   5.870  68.103  1.00  0.00    -0.110 A  
HETATM   23  C   UNL     1      -8.992   4.827  67.199  1.00  0.00    -0.112 A  
HETATM   24  O   UNL     1      -9.271   3.533  67.558  1.00  0.00    -0.156 OA 
HETATM   25  C   UNL     1      -8.859   5.098  65.848  1.00  0.00    -0.142 A  
HETATM   26  C   UNL     1      -8.943   3.240  68.914  1.00  0.00    -0.130 C  
HETATM   27  C   UNL     1      -8.505   6.384  65.441  1.00  0.00    -0.126 A  
HETATM   28  C   UNL     1      -9.417   4.324  69.893  1.00  0.00    -0.189 C  
HETATM   29  C   UNL     1      -9.569   1.891  69.284  1.00  0.00    -0.063 C  
HETATM   30  C   UNL     1      -7.408   3.134  69.102  1.00  0.00    -0.048 C  
HETATM   31  N   UNL     1      -9.086   5.600  69.471  1.00  0.00    -0.124 N  
HETATM   32  O   UNL     1      -9.867   4.080  71.012  1.00  0.00    -0.181 OA 
BRANCH  31  33
HETATM   33  C   UNL     1      -8.857   6.564  70.495  1.00  0.00    -0.151 C  
BRANCH  33  34
HETATM   34  O   UNL     1      -9.989   6.668  71.298  1.00  0.00    -0.181 OA 
HETATM   35  P   UNL     1     -10.909   8.061  70.840  1.00  0.00    -0.237 P  
HETATM   36  O   UNL     1     -11.060   8.250  72.456  1.00  0.00    -0.353 OA 
HETATM   37  O   UNL     1     -12.126   6.991  70.638  1.00  0.00    -0.341 OA 
HETATM   38  O   UNL     1     -11.732   9.306  70.430  1.00  0.00    -0.225 OA 
ENDBRANCH  33  34
ENDBRANCH  31  33
ENDBRANCH  18  20
ENDBRANCH  14  18
ENDBRANCH   9  11
ENDBRANCH   5   9
BRANCH   7  39
HETATM   39  O   UNL     1      -5.834  15.253  67.344  1.00  0.00    -0.329 OA 
HETATM   40  C   UNL     1      -5.263  14.306  68.232  1.00  0.00    -0.113 C  
ENDBRANCH   7  39
BRANCH   8  41
HETATM   41  O   UNL     1      -7.181  17.784  67.512  1.00  0.00    -0.185 OA 
HETATM   42  C   UNL     1      -6.787  18.414  68.719  1.00  0.00    -0.271 C  
ENDBRANCH   8  41
ENDBRANCH   2   3
TORSDOF 9
ENDMDL
MODEL      186
REMARK 921   NORMALIZED FREE ENERGY PREDICTED BY IDOCK:   -4.23 KCAL/MOL
REMARK 922        TOTAL FREE ENERGY PREDICTED BY IDOCK:   -8.31 KCAL/MOL
REMARK 923 INTER-LIGAND FREE ENERGY PREDICTED BY IDOCK:   -7.54 KCAL/MOL
REMARK 924 INTRA-LIGAND FREE ENERGY PREDICTED BY IDOCK:   -0.78 KCAL/MOL
REMARK 927      BINDING AFFINITY PREDICTED BY RF-SCORE:    0.00 PKD
ROOT
HETATM    1  C   UNL     1      -8.521   7.580  74.410  1.00  0.00    -0.213 C  
HETATM    2  O   UNL     1      -7.744   7.344  73.233  1.00  0.00    -0.090 OA 
ENDROOT
BRANCH   2   3
HETATM    3  C   UNL     1      -8.432   6.743  72.208  1.00  0.00    -0.106 A  
HETATM    4  C   UNL     1      -8.839   7.512  71.102  1.00  0.00    -0.142 A  
HETATM    5  C   UNL     1      -9.629   6.997  70.082  1.00  0.00    -0.164 A  
HETATM    6  C   UNL     1      -9.977   5.648  70.186  1.00  0.00    -0.270 A  
HETATM    7  C   UNL     1      -9.537   4.827  71.238  1.00  0.00    -0.168 A  
HETATM    8  C   UNL     1      -8.720   5.364  72.256  1.00  0.00    -0.129 A  
BRANCH   5   9
HETATM    9  N   UNL     1     -10.094   7.759  69.005  1.00  0.00    -0.191 NA 
HETATM   10  H   UNL     1     -11.111   7.821  68.966  1.00  0.00     0.000 HD 
BRANCH   9  11
HETATM   11  C   UNL     1      -9.461   8.452  67.972  1.00  0.00    -0.143 A  
HETATM   12  N   UNL     1      -9.674   7.931  66.756  1.00  0.00    -0.215 NA 
HETATM   13  N   UNL     1      -8.704   9.550  68.181  1.00  0.00    -0.120 NA 
HETATM   14  C   UNL     1      -8.120  10.162  67.118  1.00  0.00    -0.120 A  
HETATM   15  F   UNL     1      -7.876  10.324  64.744  1.00  0.00    -0.140 F  
HETATM   16  C   UNL     1      -9.113   8.576  65.711  1.00  0.00    -0.167 A  
HETATM   17  C   UNL     1      -8.356   9.716  65.836  1.00  0.00    -0.120 A  
BRANCH  14  18
HETATM   18  N   UNL     1      -7.349  11.296  67.425  1.00  0.00    -0.108 NA 
HETATM   19  H   UNL     1      -6.346  11.116  67.476  1.00  0.00     0.000 HD 
BRANCH  18  20
HETATM   20  C   UNL     1      -7.708  12.640  67.676  1.00  0.00    -0.155 A  
HETATM   21  N   UNL     1      -8.907  12.990  68.190  1.00  0.00    -0.191 NA 
HETATM   22  C   UNL     1      -9.159  14.302  68.481  1.00  0.00    -0.191 A  
HETATM   23  C   UNL     1      -8.252  15.316  68.179  1.00  0.00    -0.141 A  
HETATM   24  O   UNL     1      -8.504  16.654  68.348  1.00  0.00    -0.199 OA 
HETATM   25  C   UNL     1      -7.024  14.962  67.647  1.00  0.00    -0.207 A  
HETATM   26  C   UNL     1      -9.893  16.959  68.451  1.00  0.00    -0.266 C  
HETATM   27  C   UNL     1      -6.753  13.619  67.391  1.00  0.00    -0.023 A  
HETATM   28  C   UNL     1     -10.647  16.011  69.395  1.00  0.00    -0.275 C  
HETATM   29  C   UNL     1     -10.037  18.405  68.937  1.00  0.00    -0.352 C  
HETATM   30  C   UNL     1     -10.590  16.835  67.072  1.00  0.00    -0.234 C  
HETATM   31  N   UNL     1     -10.353  14.680  69.153  1.00  0.00    -0.236 N  
HETATM   32  O   UNL     1     -11.548  16.376  70.148  1.00  0.00    -0.216 OA 
BRANCH  31  33
HETATM   33  C   UNL     1     -11.388  13.743  69.441  1.00  0.00    -0.250 C  
BRANCH  33  34
HETATM   34  O   UNL     1     -10.944  12.455  69.159  1.00  0.00    -0.225 OA 
HETATM   35  P   UNL     1     -12.019  11.295  69.861  1.00  0.00    -0.370 P  
HETATM   36  O   UNL     1     -10.627  10.534  70.253  1.00  0.00    -0.212 OA 
HETATM   37  O   UNL     1     -12.146  10.729  68.335  1.00  0.00    -0.501 OA 
HETATM   38  O   UNL     1     -12.981  10.258  70.489  1.00  0.00    -0.320 OA 
ENDBRANCH  33  34
ENDBRANCH  31  33
ENDBRANCH  18  20
ENDBRANCH  14  18
ENDBRANCH   9  11
ENDBRANCH   5   9
BRANCH   7  39
HETATM   39  O   UNL     1     -10.049   3.556  71.132  1.00  0.00    -0.094 OA 
HETATM   40  C   UNL     1      -9.411   2.596  70.307  1.00  0.00    -0.131 C  
ENDBRANCH   7  39
BRANCH   8  41
HETATM   41  O   UNL     1      -8.256   4.473  73.180  1.00  0.00    -0.098 OA 
HETATM   42  C   UNL     1      -7.028   3.778  73.045  1.00  0.00    -0.045 C  
ENDBRANCH   8  41
ENDBRANCH   2   3
TORSDOF 9
ENDMDL
MODEL      187
REMARK 921   NORMALIZED FREE ENERGY PREDICTED BY IDOCK:   -4.20 KCAL/MOL
REMARK 922        TOTAL FREE ENERGY PREDICTED BY IDOCK:   -8.28 KCAL/MOL
REMARK 923 INTER-LIGAND FREE ENERGY PREDICTED BY IDOCK:   -6.69 KCAL/MOL
REMARK 924 INTRA-LIGAND FREE ENERGY PREDICTED BY IDOCK:   -1.59 KCAL/MOL
REMARK 927      BINDING AFFINITY PREDICTED BY RF-SCORE:    0.00 PKD
ROOT
HETATM    1  C   UNL     1      -9.770   3.975  69.688  1.00  0.00    -0.175 C  
HETATM    2  O   UNL     1     -10.276   5.150  70.326  1.00  0.00    -0.244 OA 
ENDROOT
BRANCH   2   3
HETATM    3  C   UNL     1      -9.331   6.115  70.575  1.00  0.00    -0.161 A  
HETATM    4  C   UNL     1      -8.455   6.509  69.547  1.00  0.00    -0.131 A  
HETATM    5  C   UNL     1      -7.409   7.398  69.755  1.00  0.00    -0.083 A  
HETATM    6  C   UNL     1      -7.285   7.922  71.045  1.00  0.00    -0.057 A  
HETATM    7  C   UNL     1      -8.178   7.607  72.083  1.00  0.00    -0.106 A  
HETATM    8  C   UNL     1      -9.246   6.714  71.847  1.00  0.00    -0.147 A  
BRANCH   5   9
HETATM    9  N   UNL     1      -6.491   7.757  68.762  1.00  0.00    -0.043 NA 
HETATM   10  H   UNL     1      -5.544   7.429  68.953  1.00  0.00     0.000 HD 
BRANCH   9  11
HETATM   11  C   UNL     1      -6.595   8.469  67.567  1.00  0.00    -0.058 A  
HETATM   12  N   UNL     1      -6.552   7.702  66.469  1.00  0.00    -0.049 NA 
HETATM   13  N   UNL     1      -6.730   9.812  67.522  1.00  0.00    -0.070 NA 
HETATM   14  C   UNL     1      -6.820  10.427  66.314  1.00  0.00    -0.117 A  
HETATM   15  F   UNL     1      -7.020  10.228  63.938  1.00  0.00    -0.131 F  
HETATM   16  C   UNL     1      -6.679   8.330  65.282  1.00  0.00    -0.052 A  
HETATM   17  C   UNL     1      -6.851   9.687  65.152  1.00  0.00    -0.098 A  
BRANCH  14  18
HETATM   18  N   UNL     1      -6.958  11.824  66.358  1.00  0.00    -0.370 NA 
HETATM   19  H   UNL     1      -6.400  12.319  65.662  1.00  0.00     0.000 HD 
BRANCH  18  20
HETATM   20  C   UNL     1      -7.727  12.671  67.190  1.00  0.00    -0.091 A  
HETATM   21  N   UNL     1      -8.999  12.385  67.540  1.00  0.00    -0.174 NA 
HETATM   22  C   UNL     1      -9.660  13.208  68.411  1.00  0.00    -0.186 A  
HETATM   23  C   UNL     1      -9.097  14.392  68.884  1.00  0.00    -0.069 A  
HETATM   24  O   UNL     1      -9.758  15.303  69.667  1.00  0.00    -0.249 OA 
HETATM   25  C   UNL     1      -7.795  14.691  68.521  1.00  0.00    -0.133 A  
HETATM   26  C   UNL     1     -11.177  15.170  69.614  1.00  0.00    -0.272 C  
HETATM   27  C   UNL     1      -7.109  13.828  67.668  1.00  0.00    -0.187 A  
HETATM   28  C   UNL     1     -11.647  13.713  69.739  1.00  0.00    -0.254 C  
HETATM   29  C   UNL     1     -11.786  16.014  70.739  1.00  0.00    -0.410 C  
HETATM   30  C   UNL     1     -11.732  15.685  68.261  1.00  0.00    -0.253 C  
HETATM   31  N   UNL     1     -10.944  12.857  68.908  1.00  0.00    -0.244 N  
HETATM   32  O   UNL     1     -12.654  13.375  70.359  1.00  0.00    -0.259 OA 
BRANCH  31  33
HETATM   33  C   UNL     1     -11.652  11.714  68.437  1.00  0.00    -0.312 C  
BRANCH  33  34
HETATM   34  O   UNL     1     -10.998  10.558  68.851  1.00  0.00    -0.215 OA 
HETATM   35  P   UNL     1     -11.468  10.164  70.470  1.00  0.00    -0.368 P  
HETATM   36  O   UNL     1      -9.876   9.840  70.645  1.00  0.00    -0.244 OA 
HETATM   37  O   UNL     1     -11.905   8.730  69.822  1.00  0.00     0.328 OA 
HETATM   38  O   UNL     1     -11.889   9.812  71.917  1.00  0.00    -0.342 OA 
ENDBRANCH  33  34
ENDBRANCH  31  33
ENDBRANCH  18  20
ENDBRANCH  14  18
ENDBRANCH   9  11
ENDBRANCH   5   9
BRANCH   7  39
HETATM   39  O   UNL     1      -7.815   8.217  73.259  1.00  0.00    -0.196 OA 
HETATM   40  C   UNL     1      -6.558   7.936  73.852  1.00  0.00    -0.102 C  
ENDBRANCH   7  39
BRANCH   8  41
HETATM   41  O   UNL     1     -10.122   6.547  72.881  1.00  0.00    -0.172 OA 
HETATM   42  C   UNL     1     -10.017   5.500  73.830  1.00  0.00    -0.189 C  
ENDBRANCH   8  41
ENDBRANCH   2   3
TORSDOF 9
ENDMDL
MODEL      188
REMARK 921   NORMALIZED FREE ENERGY PREDICTED BY IDOCK:   -4.19 KCAL/MOL
REMARK 922        TOTAL FREE ENERGY PREDICTED BY IDOCK:   -8.26 KCAL/MOL
REMARK 923 INTER-LIGAND FREE ENERGY PREDICTED BY IDOCK:   -7.92 KCAL/MOL
REMARK 924 INTRA-LIGAND FREE ENERGY PREDICTED BY IDOCK:   -0.34 KCAL/MOL
REMARK 927      BINDING AFFINITY PREDICTED BY RF-SCORE:    0.00 PKD
ROOT
HETATM    1  C   UNL     1      -5.378   3.914  69.442  1.00  0.00    -0.012 C  
HETATM    2  O   UNL     1      -5.482   5.304  69.125  1.00  0.00    -0.003 OA 
ENDROOT
BRANCH   2   3
HETATM    3  C   UNL     1      -6.658   5.662  68.513  1.00  0.00    -0.052 A  
HETATM    4  C   UNL     1      -7.662   6.303  69.262  1.00  0.00    -0.100 A  
HETATM    5  C   UNL     1      -8.915   6.596  68.739  1.00  0.00    -0.125 A  
HETATM    6  C   UNL     1      -9.124   6.254  67.400  1.00  0.00    -0.111 A  
HETATM    7  C   UNL     1      -8.128   5.675  66.597  1.00  0.00    -0.105 A  
HETATM    8  C   UNL     1      -6.855   5.400  67.142  1.00  0.00    -0.063 A  
BRANCH   5   9
HETATM    9  N   UNL     1      -9.946   7.178  69.483  1.00  0.00    -0.162 NA 
HETATM   10  H   UNL     1     -10.473   6.502  70.036  1.00  0.00     0.000 HD 
BRANCH   9  11
HETATM   11  C   UNL     1     -10.408   8.486  69.630  1.00  0.00    -0.218 A  
HETATM   12  N   UNL     1     -11.494   8.598  70.407  1.00  0.00    -0.196 NA 
HETATM   13  N   UNL     1      -9.811   9.545  69.043  1.00  0.00    -0.170 NA 
HETATM   14  C   UNL     1     -10.329  10.786  69.235  1.00  0.00    -0.205 A  
HETATM   15  F   UNL     1     -11.906  12.180  70.371  1.00  0.00    -0.393 F  
HETATM   16  C   UNL     1     -11.970   9.844  70.612  1.00  0.00    -0.277 A  
HETATM   17  C   UNL     1     -11.402  10.975  70.078  1.00  0.00    -0.277 A  
BRANCH  14  18
HETATM   18  N   UNL     1      -9.646  11.830  68.588  1.00  0.00    -0.341 NA 
HETATM   19  H   UNL     1      -8.835  11.526  68.050  1.00  0.00     0.000 HD 
BRANCH  18  20
HETATM   20  C   UNL     1      -9.877  13.224  68.545  1.00  0.00    -0.168 A  
HETATM   21  N   UNL     1     -10.044  13.898  67.387  1.00  0.00    -0.242 NA 
HETATM   22  C   UNL     1     -10.342  15.233  67.421  1.00  0.00    -0.256 A  
HETATM   23  C   UNL     1     -10.389  15.953  68.613  1.00  0.00    -0.229 A  
HETATM   24  O   UNL     1     -10.572  17.310  68.690  1.00  0.00    -0.347 OA 
HETATM   25  C   UNL     1     -10.211  15.265  69.802  1.00  0.00    -0.241 A  
HETATM   26  C   UNL     1     -10.289  17.989  67.469  1.00  0.00    -0.385 C  
HETATM   27  C   UNL     1      -9.951  13.896  69.766  1.00  0.00     0.914 A  
HETATM   28  C   UNL     1     -10.904  17.299  66.243  1.00  0.00     0.051 C  
HETATM   29  C   UNL     1     -10.813  19.424  67.579  1.00  0.00    -0.521 C  
HETATM   30  C   UNL     1      -8.762  18.045  67.208  1.00  0.00    -0.243 C  
HETATM   31  N   UNL     1     -10.664  15.935  66.227  1.00  0.00    -0.295 N  
HETATM   32  O   UNL     1     -11.386  17.909  65.290  1.00  0.00     0.052 OA 
BRANCH  31  33
HETATM   33  C   UNL     1     -10.572  15.326  64.942  1.00  0.00    -0.351 C  
BRANCH  33  34
HETATM   34  O   UNL     1     -11.778  14.704  64.634  1.00  0.00    -0.404 OA 
HETATM   35  P   UNL     1     -11.483  13.091  64.079  1.00  0.00    -0.426 P  
HETATM   36  O   UNL     1     -12.632  13.469  62.979  1.00  0.00    -0.716 OA 
HETATM   37  O   UNL     1     -12.487  12.662  65.292  1.00  0.00    -0.566 OA 
HETATM   38  O   UNL     1     -11.219  11.649  63.582  1.00  0.00    -0.402 OA 
ENDBRANCH  33  34
ENDBRANCH  31  33
ENDBRANCH  18  20
ENDBRANCH  14  18
ENDBRANCH   9  11
ENDBRANCH   5   9
BRANCH   7  39
HETATM   39  O   UNL     1      -8.597   5.399  65.335  1.00  0.00    -0.142 OA 
HETATM   40  C   UNL     1      -9.176   4.136  65.050  1.00  0.00    -0.154 C  
ENDBRANCH   7  39
BRANCH   8  41
HETATM   41  O   UNL     1      -5.919   4.934  66.265  1.00  0.00    -0.022 OA 
HETATM   42  C   UNL     1      -5.958   3.635  65.700  1.00  0.00    -0.023 C  
ENDBRANCH   8  41
ENDBRANCH   2   3
TORSDOF 9
ENDMDL
MODEL      189
REMARK 921   NORMALIZED FREE ENERGY PREDICTED BY IDOCK:   -4.15 KCAL/MOL
REMARK 922        TOTAL FREE ENERGY PREDICTED BY IDOCK:   -8.20 KCAL/MOL
REMARK 923 INTER-LIGAND FREE ENERGY PREDICTED BY IDOCK:   -7.30 KCAL/MOL
REMARK 924 INTRA-LIGAND FREE ENERGY PREDICTED BY IDOCK:   -0.89 KCAL/MOL
REMARK 927      BINDING AFFINITY PREDICTED BY RF-SCORE:    0.00 PKD
ROOT
HETATM    1  C   UNL     1      -6.962   4.396  73.501  1.00  0.00    -0.065 C  
HETATM    2  O   UNL     1      -6.558   5.447  72.619  1.00  0.00    -0.060 OA 
ENDROOT
BRANCH   2   3
HETATM    3  C   UNL     1      -7.393   5.643  71.547  1.00  0.00    -0.087 A  
HETATM    4  C   UNL     1      -8.732   6.011  71.770  1.00  0.00    -0.138 A  
HETATM    5  C   UNL     1      -9.660   6.121  70.742  1.00  0.00    -0.169 A  
HETATM    6  C   UNL     1      -9.185   5.884  69.449  1.00  0.00    -0.144 A  
HETATM    7  C   UNL     1      -7.841   5.580  69.175  1.00  0.00    -0.091 A  
HETATM    8  C   UNL     1      -6.910   5.489  70.232  1.00  0.00    -0.052 A  
BRANCH   5   9
HETATM    9  N   UNL     1     -11.009   6.426  70.947  1.00  0.00    -0.264 NA 
HETATM   10  H   UNL     1     -11.617   5.609  70.904  1.00  0.00     0.000 HD 
BRANCH   9  11
HETATM   11  C   UNL     1     -11.700   7.612  71.199  1.00  0.00    -0.290 A  
HETATM   12  N   UNL     1     -12.198   7.700  72.440  1.00  0.00    -0.219 NA 
HETATM   13  N   UNL     1     -11.852   8.584  70.274  1.00  0.00     0.078 NA 
HETATM   14  C   UNL     1     -12.544   9.706  70.602  1.00  0.00    -0.056 A  
HETATM   15  F   UNL     1     -13.638  11.003  72.287  1.00  0.00    -0.505 F  
HETATM   16  C   UNL     1     -12.851   8.839  72.755  1.00  0.00    -0.095 A  
HETATM   17  C   UNL     1     -13.021   9.887  71.882  1.00  0.00    -0.448 A  
BRANCH  14  18
HETATM   18  N   UNL     1     -12.653  10.666  69.581  1.00  0.00    -0.587 NA 
HETATM   19  H   UNL     1     -13.209  10.361  68.782  1.00  0.00     0.000 HD 
BRANCH  18  20
HETATM   20  C   UNL     1     -12.135  11.975  69.457  1.00  0.00    -0.212 A  
HETATM   21  N   UNL     1     -11.212  12.307  68.528  1.00  0.00    -0.249 NA 
HETATM   22  C   UNL     1     -10.812  13.610  68.412  1.00  0.00    -0.256 A  
HETATM   23  C   UNL     1     -11.253  14.602  69.284  1.00  0.00    -0.282 A  
HETATM   24  O   UNL     1     -10.797  15.895  69.279  1.00  0.00    -0.236 OA 
HETATM   25  C   UNL     1     -12.195  14.263  70.242  1.00  0.00    -0.407 A  
HETATM   26  C   UNL     1      -9.547  16.051  68.612  1.00  0.00    -0.222 C  
HETATM   27  C   UNL     1     -12.633  12.943  70.330  1.00  0.00    -0.084 A  
HETATM   28  C   UNL     1      -9.491  15.315  67.265  1.00  0.00    -0.208 C  
HETATM   29  C   UNL     1      -9.291  17.547  68.402  1.00  0.00    -0.287 C  
HETATM   30  C   UNL     1      -8.388  15.472  69.464  1.00  0.00    -0.206 C  
HETATM   31  N   UNL     1      -9.953  14.013  67.354  1.00  0.00    -0.241 N  
HETATM   32  O   UNL     1      -8.926  15.763  66.268  1.00  0.00    -0.296 OA 
BRANCH  31  33
HETATM   33  C   UNL     1      -9.375  13.076  66.449  1.00  0.00    -0.182 C  
BRANCH  33  34
HETATM   34  O   UNL     1      -8.796  12.032  67.165  1.00  0.00    -0.174 OA 
HETATM   35  P   UNL     1      -7.071  12.142  67.075  1.00  0.00     0.087 P  
HETATM   36  O   UNL     1      -7.175  10.523  66.878  1.00  0.00    -0.097 OA 
HETATM   37  O   UNL     1      -7.148  12.160  68.705  1.00  0.00    -0.102 OA 
HETATM   38  O   UNL     1      -5.529  12.240  66.994  1.00  0.00    -0.263 OA 
ENDBRANCH  33  34
ENDBRANCH  31  33
ENDBRANCH  18  20
ENDBRANCH  14  18
ENDBRANCH   9  11
ENDBRANCH   5   9
BRANCH   7  39
HETATM   39  O   UNL     1      -7.641   5.352  67.835  1.00  0.00    -0.085 OA 
HETATM   40  C   UNL     1      -8.325   4.295  67.181  1.00  0.00    -0.100 C  
ENDBRANCH   7  39
BRANCH   8  41
HETATM   41  O   UNL     1      -5.609   5.293  69.865  1.00  0.00    -0.010 OA 
HETATM   42  C   UNL     1      -5.154   4.129  69.198  1.00  0.00     0.000 C  
ENDBRANCH   8  41
ENDBRANCH   2   3
TORSDOF 9
ENDMDL
MODEL      190
REMARK 921   NORMALIZED FREE ENERGY PREDICTED BY IDOCK:   -4.12 KCAL/MOL
REMARK 922        TOTAL FREE ENERGY PREDICTED BY IDOCK:   -8.15 KCAL/MOL
REMARK 923 INTER-LIGAND FREE ENERGY PREDICTED BY IDOCK:   -7.52 KCAL/MOL
REMARK 924 INTRA-LIGAND FREE ENERGY PREDICTED BY IDOCK:   -0.63 KCAL/MOL
REMARK 927      BINDING AFFINITY PREDICTED BY RF-SCORE:    0.00 PKD
ROOT
HETATM    1  C   UNL     1      -9.523   8.313  71.103  1.00  0.00    -0.164 C  
HETATM    2  O   UNL     1      -8.315   8.253  70.339  1.00  0.00    -0.113 OA 
ENDROOT
BRANCH   2   3
HETATM    3  C   UNL     1      -8.382   7.446  69.230  1.00  0.00    -0.132 A  
HETATM    4  C   UNL     1      -8.572   8.024  67.962  1.00  0.00    -0.129 A  
HETATM    5  C   UNL     1      -8.756   7.265  66.813  1.00  0.00    -0.130 A  
HETATM    6  C   UNL     1      -8.705   5.878  66.970  1.00  0.00    -0.109 A  
HETATM    7  C   UNL     1      -8.450   5.260  68.206  1.00  0.00    -0.096 A  
HETATM    8  C   UNL     1      -8.249   6.049  69.360  1.00  0.00    -0.115 A  
BRANCH   5   9
HETATM    9  N   UNL     1      -9.007   7.819  65.554  1.00  0.00    -0.380 NA 
HETATM   10  H   UNL     1      -9.022   7.126  64.806  1.00  0.00     0.000 HD 
BRANCH   9  11
HETATM   11  C   UNL     1      -9.242   9.118  65.103  1.00  0.00    -0.153 A  
HETATM   12  N   UNL     1      -9.057   9.280  63.785  1.00  0.00    -0.051 NA 
HETATM   13  N   UNL     1      -9.624  10.122  65.922  1.00  0.00    -0.201 NA 
HETATM   14  C   UNL     1      -9.827  11.359  65.400  1.00  0.00    -0.236 A  
HETATM   15  F   UNL     1      -9.986  12.750  63.461  1.00  0.00    -0.356 F  
HETATM   16  C   UNL     1      -9.298  10.510  63.284  1.00  0.00    -0.314 A  
HETATM   17  C   UNL     1      -9.720  11.575  64.044  1.00  0.00    -0.223 A  
BRANCH  14  18
HETATM   18  N   UNL     1     -10.222  12.344  66.322  1.00  0.00    -0.234 NA 
HETATM   19  H   UNL     1     -11.124  12.163  66.762  1.00  0.00     0.000 HD 
BRANCH  18  20
HETATM   20  C   UNL     1      -9.600  13.538  66.752  1.00  0.00    -0.267 A  
HETATM   21  N   UNL     1     -10.299  14.600  67.206  1.00  0.00    -0.255 NA 
HETATM   22  C   UNL     1      -9.630  15.695  67.680  1.00  0.00    -0.220 A  
HETATM   23  C   UNL     1      -8.242  15.797  67.626  1.00  0.00    -0.151 A  
HETATM   24  O   UNL     1      -7.534  16.916  67.983  1.00  0.00    -0.165 OA 
HETATM   25  C   UNL     1      -7.522  14.712  67.155  1.00  0.00    -0.035 A  
HETATM   26  C   UNL     1      -8.326  18.101  68.010  1.00  0.00    -0.261 C  
HETATM   27  C   UNL     1      -8.205  13.580  66.713  1.00  0.00     0.183 A  
HETATM   28  C   UNL     1      -9.674  17.906  68.719  1.00  0.00    -0.323 C  
HETATM   29  C   UNL     1      -7.524  19.206  68.706  1.00  0.00    -0.379 C  
HETATM   30  C   UNL     1      -8.663  18.574  66.572  1.00  0.00    -0.296 C  
HETATM   31  N   UNL     1     -10.335  16.765  68.295  1.00  0.00    -0.301 N  
HETATM   32  O   UNL     1     -10.195  18.758  69.437  1.00  0.00    -0.155 OA 
BRANCH  31  33
HETATM   33  C   UNL     1     -11.759  16.810  68.336  1.00  0.00     0.416 C  
BRANCH  33  34
HETATM   34  O   UNL     1     -12.243  15.670  68.971  1.00  0.00    -0.277 OA 
HETATM   35  P   UNL     1     -11.747  15.666  70.630  1.00  0.00    -0.432 P  
HETATM   36  O   UNL     1     -11.472  14.082  70.340  1.00  0.00    -0.185 OA 
HETATM   37  O   UNL     1     -13.345  15.549  70.940  1.00  0.00    -0.492 OA 
HETATM   38  O   UNL     1     -11.303  15.663  72.112  1.00  0.00    -0.390 OA 
ENDBRANCH  33  34
ENDBRANCH  31  33
ENDBRANCH  18  20
ENDBRANCH  14  18
ENDBRANCH   9  11
ENDBRANCH   5   9
BRANCH   7  39
HETATM   39  O   UNL     1      -8.493   3.891  68.102  1.00  0.00    -0.090 OA 
HETATM   40  C   UNL     1      -9.207   3.277  67.041  1.00  0.00    -0.180 C  
ENDBRANCH   7  39
BRANCH   8  41
HETATM   41  O   UNL     1      -7.905   5.370  70.493  1.00  0.00    -0.088 OA 
HETATM   42  C   UNL     1      -6.582   5.312  70.996  1.00  0.00    -0.042 C  
ENDBRANCH   8  41
ENDBRANCH   2   3
TORSDOF 9
ENDMDL
MODEL      191
REMARK 921   NORMALIZED FREE ENERGY PREDICTED BY IDOCK:   -4.06 KCAL/MOL
REMARK 922        TOTAL FREE ENERGY PREDICTED BY IDOCK:   -8.07 KCAL/MOL
REMARK 923 INTER-LIGAND FREE ENERGY PREDICTED BY IDOCK:   -6.73 KCAL/MOL
REMARK 924 INTRA-LIGAND FREE ENERGY PREDICTED BY IDOCK:   -1.34 KCAL/MOL
REMARK 927      BINDING AFFINITY PREDICTED BY RF-SCORE:    0.00 PKD
ROOT
HETATM    1  C   UNL     1      -6.775   2.909  69.077  1.00  0.00    -0.037 C  
HETATM    2  O   UNL     1      -6.371   4.011  68.261  1.00  0.00    -0.035 OA 
ENDROOT
BRANCH   2   3
HETATM    3  C   UNL     1      -7.364   4.523  67.463  1.00  0.00    -0.073 A  
HETATM    4  C   UNL     1      -8.049   5.684  67.866  1.00  0.00    -0.101 A  
HETATM    5  C   UNL     1      -9.133   6.195  67.165  1.00  0.00    -0.114 A  
HETATM    6  C   UNL     1      -9.496   5.514  66.000  1.00  0.00    -0.147 A  
HETATM    7  C   UNL     1      -8.798   4.391  65.525  1.00  0.00    -0.127 A  
HETATM    8  C   UNL     1      -7.688   3.896  66.243  1.00  0.00    -0.089 A  
BRANCH   5   9
HETATM    9  N   UNL     1      -9.865   7.312  67.581  1.00  0.00    -0.144 NA 
HETATM   10  H   UNL     1     -10.549   7.097  68.306  1.00  0.00     0.000 HD 
BRANCH   9  11
HETATM   11  C   UNL     1      -9.859   8.658  67.213  1.00  0.00    -0.197 A  
HETATM   12  N   UNL     1     -10.002   8.864  65.896  1.00  0.00    -0.165 NA 
HETATM   13  N   UNL     1      -9.723   9.662  68.105  1.00  0.00    -0.144 NA 
HETATM   14  C   UNL     1      -9.723  10.945  67.660  1.00  0.00    -0.171 A  
HETATM   15  F   UNL     1     -10.027  12.470  65.842  1.00  0.00    -0.240 F  
HETATM   16  C   UNL     1     -10.035  10.148  65.481  1.00  0.00    -0.293 A  
HETATM   17  C   UNL     1      -9.935  11.226  66.328  1.00  0.00    -0.221 A  
BRANCH  14  18
HETATM   18  N   UNL     1      -9.576  11.927  68.655  1.00  0.00    -0.357 NA 
HETATM   19  H   UNL     1     -10.248  11.849  69.418  1.00  0.00     0.000 HD 
BRANCH  18  20
HETATM   20  C   UNL     1      -8.669  13.002  68.792  1.00  0.00     0.171 A  
HETATM   21  N   UNL     1      -9.004  14.279  68.506  1.00  0.00    -0.191 NA 
HETATM   22  C   UNL     1      -8.102  15.281  68.737  1.00  0.00    -0.165 A  
HETATM   23  C   UNL     1      -6.804  15.025  69.172  1.00  0.00    -0.132 A  
HETATM   24  O   UNL     1      -5.832  15.981  69.310  1.00  0.00    -0.114 OA 
HETATM   25  C   UNL     1      -6.455  13.716  69.461  1.00  0.00    -0.099 A  
HETATM   26  C   UNL     1      -6.106  17.175  68.581  1.00  0.00    -0.153 C  
HETATM   27  C   UNL     1      -7.390  12.701  69.266  1.00  0.00     0.232 A  
HETATM   28  C   UNL     1      -7.553  17.661  68.750  1.00  0.00    -0.253 C  
HETATM   29  C   UNL     1      -5.131  18.263  69.046  1.00  0.00    -0.179 C  
HETATM   30  C   UNL     1      -5.903  16.955  67.061  1.00  0.00    -0.208 C  
HETATM   31  N   UNL     1      -8.476  16.643  68.581  1.00  0.00    -0.243 N  
HETATM   32  O   UNL     1      -7.866  18.848  68.834  1.00  0.00    -0.329 OA 
BRANCH  31  33
HETATM   33  C   UNL     1      -9.748  17.025  68.066  1.00  0.00    -0.260 C  
BRANCH  33  34
HETATM   34  O   UNL     1      -9.667  17.170  66.684  1.00  0.00    -0.253 OA 
HETATM   35  P   UNL     1     -10.301  18.712  66.217  1.00  0.00    -0.353 P  
HETATM   36  O   UNL     1     -10.981  17.846  65.009  1.00  0.00    -0.776 OA 
HETATM   37  O   UNL     1      -8.837  18.923  65.526  1.00  0.00    -0.079 OA 
HETATM   38  O   UNL     1     -10.868  20.090  65.799  1.00  0.00    -0.375 OA 
ENDBRANCH  33  34
ENDBRANCH  31  33
ENDBRANCH  18  20
ENDBRANCH  14  18
ENDBRANCH   9  11
ENDBRANCH   5   9
BRANCH   7  39
HETATM   39  O   UNL     1      -9.378   3.883  64.388  1.00  0.00    -0.136 OA 
HETATM   40  C   UNL     1     -10.772   3.624  64.351  1.00  0.00    -0.115 C  
ENDBRANCH   7  39
BRANCH   8  41
HETATM   41  O   UNL     1      -7.009   2.868  65.655  1.00  0.00    -0.047 OA 
HETATM   42  C   UNL     1      -5.734   3.019  65.054  1.00  0.00    -0.017 C  
ENDBRANCH   8  41
ENDBRANCH   2   3
TORSDOF 9
ENDMDL
MODEL      192
REMARK 921   NORMALIZED FREE ENERGY PREDICTED BY IDOCK:   -4.06 KCAL/MOL
REMARK 922        TOTAL FREE ENERGY PREDICTED BY IDOCK:   -8.06 KCAL/MOL
REMARK 923 INTER-LIGAND FREE ENERGY PREDICTED BY IDOCK:   -6.95 KCAL/MOL
REMARK 924 INTRA-LIGAND FREE ENERGY PREDICTED BY IDOCK:   -1.11 KCAL/MOL
REMARK 927      BINDING AFFINITY PREDICTED BY RF-SCORE:    0.00 PKD
ROOT
HETATM    1  C   UNL     1     -12.090  14.559  70.767  1.00  0.00    -0.329 C  
HETATM    2  O   UNL     1     -12.238  15.365  69.595  1.00  0.00    -0.331 OA 
ENDROOT
BRANCH   2   3
HETATM    3  C   UNL     1     -11.477  14.960  68.526  1.00  0.00    -0.315 A  
HETATM    4  C   UNL     1     -11.258  13.587  68.312  1.00  0.00    -0.305 A  
HETATM    5  C   UNL     1     -10.413  13.110  67.318  1.00  0.00    -0.243 A  
HETATM    6  C   UNL     1      -9.810  14.070  66.502  1.00  0.00    -0.298 A  
HETATM    7  C   UNL     1     -10.053  15.447  66.638  1.00  0.00    -0.265 A  
HETATM    8  C   UNL     1     -10.928  15.912  67.643  1.00  0.00    -0.298 A  
BRANCH   5   9
HETATM    9  N   UNL     1     -10.135  11.753  67.126  1.00  0.00    -0.202 NA 
HETATM   10  H   UNL     1     -10.614  11.354  66.319  1.00  0.00     0.000 HD 
BRANCH   9  11
HETATM   11  C   UNL     1      -9.341  10.828  67.805  1.00  0.00    -0.152 A  
HETATM   12  N   UNL     1      -8.262  10.427  67.118  1.00  0.00    -0.121 NA 
HETATM   13  N   UNL     1      -9.633  10.379  69.044  1.00  0.00    -0.195 NA 
HETATM   14  C   UNL     1      -8.808   9.475  69.632  1.00  0.00    -0.187 A  
HETATM   15  F   UNL     1      -6.753   8.251  69.567  1.00  0.00    -0.036 F  
HETATM   16  C   UNL     1      -7.437   9.555  67.736  1.00  0.00    -0.084 A  
HETATM   17  C   UNL     1      -7.647   9.076  69.006  1.00  0.00    -0.078 A  
BRANCH  14  18
HETATM   18  N   UNL     1      -9.186   9.062  70.921  1.00  0.00    -0.238 NA 
HETATM   19  H   UNL     1      -9.658   9.783  71.466  1.00  0.00     0.000 HD 
BRANCH  18  20
HETATM   20  C   UNL     1      -9.034   7.831  71.600  1.00  0.00    -0.129 A  
HETATM   21  N   UNL     1      -8.622   6.705  70.980  1.00  0.00    -0.136 NA 
HETATM   22  C   UNL     1      -8.421   5.567  71.713  1.00  0.00    -0.127 A  
HETATM   23  C   UNL     1      -8.717   5.499  73.073  1.00  0.00    -0.121 A  
HETATM   24  O   UNL     1      -8.639   4.355  73.824  1.00  0.00    -0.099 OA 
HETATM   25  C   UNL     1      -9.146   6.651  73.710  1.00  0.00    -0.169 A  
HETATM   26  C   UNL     1      -8.646   3.163  73.042  1.00  0.00    -0.081 C  
HETATM   27  C   UNL     1      -9.308   7.821  72.968  1.00  0.00    -0.298 A  
HETATM   28  C   UNL     1      -7.704   3.235  71.832  1.00  0.00    -0.054 C  
HETATM   29  C   UNL     1      -8.252   1.988  73.944  1.00  0.00    -0.054 C  
HETATM   30  C   UNL     1     -10.060   2.885  72.469  1.00  0.00    -0.234 C  
HETATM   31  N   UNL     1      -7.852   4.410  71.115  1.00  0.00    -0.071 N  
HETATM   32  O   UNL     1      -7.035   2.282  71.434  1.00  0.00    -0.030 OA 
BRANCH  31  33
HETATM   33  C   UNL     1      -7.583   4.334  69.718  1.00  0.00    -0.053 C  
BRANCH  33  34
HETATM   34  O   UNL     1      -8.713   3.874  69.049  1.00  0.00    -0.084 OA 
HETATM   35  P   UNL     1      -8.274   2.606  67.956  1.00  0.00    -0.070 P  
HETATM   36  O   UNL     1      -9.313   3.374  66.956  1.00  0.00    -0.183 OA 
HETATM   37  O   UNL     1      -9.382   1.733  68.779  1.00  0.00    -0.141 OA 
HETATM   38  O   UNL     1      -7.881   1.471  66.979  1.00  0.00    -0.063 OA 
ENDBRANCH  33  34
ENDBRANCH  31  33
ENDBRANCH  18  20
ENDBRANCH  14  18
ENDBRANCH   9  11
ENDBRANCH   5   9
BRANCH   7  39
HETATM   39  O   UNL     1      -9.309  16.180  65.745  1.00  0.00    -0.396 OA 
HETATM   40  C   UNL     1      -8.003  16.613  66.089  1.00  0.00    -0.202 C  
ENDBRANCH   7  39
BRANCH   8  41
HETATM   41  O   UNL     1     -11.186  17.252  67.637  1.00  0.00    -0.118 OA 
HETATM   42  C   UNL     1     -10.391  18.203  68.324  1.00  0.00    -0.363 C  
ENDBRANCH   8  41
ENDBRANCH   2   3
TORSDOF 9
ENDMDL
MODEL      193
REMARK 921   NORMALIZED FREE ENERGY PREDICTED BY IDOCK:   -4.06 KCAL/MOL
REMARK 922        TOTAL FREE ENERGY PREDICTED BY IDOCK:   -8.06 KCAL/MOL
REMARK 923 INTER-LIGAND FREE ENERGY PREDICTED BY IDOCK:   -6.67 KCAL/MOL
REMARK 924 INTRA-LIGAND FREE ENERGY PREDICTED BY IDOCK:   -1.40 KCAL/MOL
REMARK 927      BINDING AFFINITY PREDICTED BY RF-SCORE:    0.00 PKD
ROOT
HETATM    1  C   UNL     1      -6.531   7.451  73.323  1.00  0.00    -0.064 C  
HETATM    2  O   UNL     1      -6.417   6.303  72.479  1.00  0.00    -0.057 OA 
ENDROOT
BRANCH   2   3
HETATM    3  C   UNL     1      -7.381   6.215  71.505  1.00  0.00    -0.089 A  
HETATM    4  C   UNL     1      -8.610   6.875  71.684  1.00  0.00    -0.117 A  
HETATM    5  C   UNL     1      -9.668   6.743  70.794  1.00  0.00    -0.179 A  
HETATM    6  C   UNL     1      -9.440   5.941  69.672  1.00  0.00    -0.172 A  
HETATM    7  C   UNL     1      -8.206   5.318  69.420  1.00  0.00    -0.095 A  
HETATM    8  C   UNL     1      -7.138   5.478  70.328  1.00  0.00    -0.062 A  
BRANCH   5   9
HETATM    9  N   UNL     1     -10.918   7.342  70.984  1.00  0.00    -0.247 NA 
HETATM   10  H   UNL     1     -11.578   6.745  71.480  1.00  0.00     0.000 HD 
BRANCH   9  11
HETATM   11  C   UNL     1     -11.452   8.584  70.639  1.00  0.00    -0.228 A  
HETATM   12  N   UNL     1     -12.135   9.178  71.628  1.00  0.00    -0.338 NA 
HETATM   13  N   UNL     1     -11.294   9.138  69.418  1.00  0.00     0.093 NA 
HETATM   14  C   UNL     1     -11.852  10.350  69.164  1.00  0.00    -0.063 A  
HETATM   15  F   UNL     1     -13.007  12.273  69.995  1.00  0.00     0.095 F  
HETATM   16  C   UNL     1     -12.651  10.397  71.365  1.00  0.00    -0.434 A  
HETATM   17  C   UNL     1     -12.507  11.042  70.160  1.00  0.00    -0.269 A  
BRANCH  14  18
HETATM   18  N   UNL     1     -11.639  10.852  67.870  1.00  0.00    -0.591 NA 
HETATM   19  H   UNL     1     -11.814  10.175  67.127  1.00  0.00     0.000 HD 
BRANCH  18  20
HETATM   20  C   UNL     1     -11.227  12.123  67.406  1.00  0.00    -0.302 A  
HETATM   21  N   UNL     1     -10.192  12.796  67.954  1.00  0.00    -0.223 NA 
HETATM   22  C   UNL     1      -9.796  13.985  67.406  1.00  0.00    -0.240 A  
HETATM   23  C   UNL     1     -10.484  14.582  66.352  1.00  0.00    -0.295 A  
HETATM   24  O   UNL     1     -10.195  15.822  65.844  1.00  0.00    -0.307 OA 
HETATM   25  C   UNL     1     -11.550  13.897  65.792  1.00  0.00    -0.343 A  
HETATM   26  C   UNL     1      -9.429  16.633  66.732  1.00  0.00    -0.244 C  
HETATM   27  C   UNL     1     -11.924  12.664  66.325  1.00  0.00    -0.439 A  
HETATM   28  C   UNL     1      -8.252  15.878  67.367  1.00  0.00    -0.168 C  
HETATM   29  C   UNL     1      -8.913  17.849  65.956  1.00  0.00    -0.005 C  
HETATM   30  C   UNL     1     -10.299  17.138  67.911  1.00  0.00    -0.350 C  
HETATM   31  N   UNL     1      -8.625  14.643  67.870  1.00  0.00    -0.158 N  
HETATM   32  O   UNL     1      -7.152  16.387  67.576  1.00  0.00    -0.121 OA 
BRANCH  31  33
HETATM   33  C   UNL     1      -7.885  14.171  68.993  1.00  0.00    -0.010 C  
BRANCH  33  34
HETATM   34  O   UNL     1      -6.723  13.543  68.555  1.00  0.00    -0.080 OA 
HETATM   35  P   UNL     1      -6.865  11.831  68.767  1.00  0.00    -0.107 P  
HETATM   36  O   UNL     1      -5.319  11.963  69.280  1.00  0.00    -0.055 OA 
HETATM   37  O   UNL     1      -6.551  11.769  67.166  1.00  0.00    -0.117 OA 
HETATM   38  O   UNL     1      -6.992  10.300  68.956  1.00  0.00    -0.057 OA 
ENDBRANCH  33  34
ENDBRANCH  31  33
ENDBRANCH  18  20
ENDBRANCH  14  18
ENDBRANCH   9  11
ENDBRANCH   5   9
BRANCH   7  39
HETATM   39  O   UNL     1      -8.253   4.555  68.278  1.00  0.00    -0.089 OA 
HETATM   40  C   UNL     1      -8.630   5.141  67.043  1.00  0.00    -0.105 C  
ENDBRANCH   7  39
BRANCH   8  41
HETATM   41  O   UNL     1      -5.948   4.924  69.952  1.00  0.00    -0.019 OA 
HETATM   42  C   UNL     1      -5.751   3.530  69.798  1.00  0.00    -0.018 C  
ENDBRANCH   8  41
ENDBRANCH   2   3
TORSDOF 9
ENDMDL
MODEL      194
REMARK 921   NORMALIZED FREE ENERGY PREDICTED BY IDOCK:   -4.04 KCAL/MOL
REMARK 922        TOTAL FREE ENERGY PREDICTED BY IDOCK:   -8.02 KCAL/MOL
REMARK 923 INTER-LIGAND FREE ENERGY PREDICTED BY IDOCK:   -7.32 KCAL/MOL
REMARK 924 INTRA-LIGAND FREE ENERGY PREDICTED BY IDOCK:   -0.71 KCAL/MOL
REMARK 927      BINDING AFFINITY PREDICTED BY RF-SCORE:    0.00 PKD
ROOT
HETATM    1  C   UNL     1      -8.992   2.870  64.064  1.00  0.00    -0.103 C  
HETATM    2  O   UNL     1      -8.229   2.862  65.273  1.00  0.00    -0.089 OA 
ENDROOT
BRANCH   2   3
HETATM    3  C   UNL     1      -8.095   4.092  65.869  1.00  0.00    -0.101 A  
HETATM    4  C   UNL     1      -8.185   5.256  65.084  1.00  0.00    -0.135 A  
HETATM    5  C   UNL     1      -7.954   6.526  65.599  1.00  0.00    -0.114 A  
HETATM    6  C   UNL     1      -7.659   6.599  66.963  1.00  0.00    -0.095 A  
HETATM    7  C   UNL     1      -7.626   5.469  67.797  1.00  0.00    -0.088 A  
HETATM    8  C   UNL     1      -7.881   4.189  67.259  1.00  0.00    -0.092 A  
BRANCH   5   9
HETATM    9  N   UNL     1      -7.979   7.690  64.824  1.00  0.00    -0.135 NA 
HETATM   10  H   UNL     1      -7.487   7.592  63.936  1.00  0.00     0.000 HD 
BRANCH   9  11
HETATM   11  C   UNL     1      -8.533   8.957  65.009  1.00  0.00    -0.176 A  
HETATM   12  N   UNL     1      -9.313   9.363  63.997  1.00  0.00     0.033 NA 
HETATM   13  N   UNL     1      -8.304   9.706  66.108  1.00  0.00    -0.118 NA 
HETATM   14  C   UNL     1      -8.881  10.932  66.205  1.00  0.00    -0.179 A  
HETATM   15  F   UNL     1     -10.409  12.539  65.309  1.00  0.00    -0.275 F  
HETATM   16  C   UNL     1      -9.904  10.570  64.131  1.00  0.00    -0.337 A  
HETATM   17  C   UNL     1      -9.748  11.377  65.232  1.00  0.00    -0.241 A  
BRANCH  14  18
HETATM   18  N   UNL     1      -8.590  11.642  67.382  1.00  0.00    -0.144 NA 
HETATM   19  H   UNL     1      -8.766  11.117  68.239  1.00  0.00     0.000 HD 
BRANCH  18  20
HETATM   20  C   UNL     1      -8.099  12.950  67.598  1.00  0.00    -0.167 A  
HETATM   21  N   UNL     1      -8.901  14.037  67.603  1.00  0.00    -0.179 NA 
HETATM   22  C   UNL     1      -8.371  15.264  67.896  1.00  0.00    -0.148 A  
HETATM   23  C   UNL     1      -7.006  15.453  68.099  1.00  0.00    -0.124 A  
HETATM   24  O   UNL     1      -6.415  16.676  68.284  1.00  0.00    -0.128 OA 
HETATM   25  C   UNL     1      -6.180  14.342  68.089  1.00  0.00    -0.138 A  
HETATM   26  C   UNL     1      -7.217  17.766  67.835  1.00  0.00    -0.210 C  
HETATM   27  C   UNL     1      -6.730  13.086  67.833  1.00  0.00    -0.129 A  
HETATM   28  C   UNL     1      -8.682  17.656  68.282  1.00  0.00    -0.276 C  
HETATM   29  C   UNL     1      -6.605  19.069  68.362  1.00  0.00    -0.272 C  
HETATM   30  C   UNL     1      -7.245  17.831  66.286  1.00  0.00    -0.331 C  
HETATM   31  N   UNL     1      -9.213  16.399  68.049  1.00  0.00    -0.203 N  
HETATM   32  O   UNL     1      -9.361  18.621  68.627  1.00  0.00    -0.335 OA 
BRANCH  31  33
HETATM   33  C   UNL     1     -10.613  16.345  67.787  1.00  0.00    -0.321 C  
BRANCH  33  34
HETATM   34  O   UNL     1     -10.865  15.409  66.788  1.00  0.00    -0.310 OA 
HETATM   35  P   UNL     1     -11.200  16.219  65.296  1.00  0.00     0.192 P  
HETATM   36  O   UNL     1     -12.364  15.080  65.166  1.00  0.00    -0.127 OA 
HETATM   37  O   UNL     1      -9.964  15.323  64.718  1.00  0.00    -0.184 OA 
HETATM   38  O   UNL     1     -11.500  16.943  63.961  1.00  0.00    -1.130 OA 
ENDBRANCH  33  34
ENDBRANCH  31  33
ENDBRANCH  18  20
ENDBRANCH  14  18
ENDBRANCH   9  11
ENDBRANCH   5   9
BRANCH   7  39
HETATM   39  O   UNL     1      -7.274   5.803  69.082  1.00  0.00    -0.070 OA 
HETATM   40  C   UNL     1      -8.268   6.190  70.017  1.00  0.00    -0.124 C  
ENDBRANCH   7  39
BRANCH   8  41
HETATM   41  O   UNL     1      -7.929   3.163  68.158  1.00  0.00    -0.065 OA 
HETATM   42  C   UNL     1      -9.136   2.670  68.714  1.00  0.00    -0.151 C  
ENDBRANCH   8  41
ENDBRANCH   2   3
TORSDOF 9
ENDMDL
MODEL      195
REMARK 921   NORMALIZED FREE ENERGY PREDICTED BY IDOCK:   -3.85 KCAL/MOL
REMARK 922        TOTAL FREE ENERGY PREDICTED BY IDOCK:   -7.74 KCAL/MOL
REMARK 923 INTER-LIGAND FREE ENERGY PREDICTED BY IDOCK:   -6.39 KCAL/MOL
REMARK 924 INTRA-LIGAND FREE ENERGY PREDICTED BY IDOCK:   -1.35 KCAL/MOL
REMARK 927      BINDING AFFINITY PREDICTED BY RF-SCORE:    0.00 PKD
ROOT
HETATM    1  C   UNL     1     -10.935   5.780  68.968  1.00  0.00    -0.210 C  
HETATM    2  O   UNL     1     -10.168   4.911  69.805  1.00  0.00    -0.252 OA 
ENDROOT
BRANCH   2   3
HETATM    3  C   UNL     1      -9.287   5.555  70.638  1.00  0.00    -0.158 A  
HETATM    4  C   UNL     1      -8.404   6.512  70.106  1.00  0.00    -0.134 A  
HETATM    5  C   UNL     1      -7.415   7.123  70.867  1.00  0.00    -0.080 A  
HETATM    6  C   UNL     1      -7.360   6.766  72.216  1.00  0.00    -0.088 A  
HETATM    7  C   UNL     1      -8.264   5.865  72.803  1.00  0.00    -0.118 A  
HETATM    8  C   UNL     1      -9.273   5.268  72.018  1.00  0.00    -0.137 A  
BRANCH   5   9
HETATM    9  N   UNL     1      -6.489   8.032  70.344  1.00  0.00    -0.036 NA 
HETATM   10  H   UNL     1      -5.632   8.094  70.894  1.00  0.00     0.000 HD 
BRANCH   9  11
HETATM   11  C   UNL     1      -6.488   8.872  69.230  1.00  0.00    -0.042 A  
HETATM   12  N   UNL     1      -5.290   8.998  68.643  1.00  0.00    -0.034 NA 
HETATM   13  N   UNL     1      -7.596   9.500  68.783  1.00  0.00    -0.075 NA 
HETATM   14  C   UNL     1      -7.506  10.304  67.692  1.00  0.00    -0.089 A  
HETATM   15  F   UNL     1      -6.186  11.132  65.877  1.00  0.00    -0.133 F  
HETATM   16  C   UNL     1      -5.231   9.774  67.540  1.00  0.00    -0.035 A  
HETATM   17  C   UNL     1      -6.318  10.420  67.004  1.00  0.00    -0.072 A  
BRANCH  14  18
HETATM   18  N   UNL     1      -8.706  10.918  67.295  1.00  0.00    -0.131 NA 
HETATM   19  H   UNL     1      -8.890  10.862  66.294  1.00  0.00     0.000 HD 
BRANCH  18  20
HETATM   20  C   UNL     1      -9.706  11.597  68.028  1.00  0.00    -0.182 A  
HETATM   21  N   UNL     1      -9.801  12.944  68.054  1.00  0.00    -0.218 NA 
HETATM   22  C   UNL     1     -10.840  13.534  68.720  1.00  0.00    -0.253 A  
HETATM   23  C   UNL     1     -11.761  12.797  69.459  1.00  0.00    -0.318 A  
HETATM   24  O   UNL     1     -12.750  13.348  70.233  1.00  0.00    -0.160 OA 
HETATM   25  C   UNL     1     -11.663  11.415  69.440  1.00  0.00    -0.406 A  
HETATM   26  C   UNL     1     -12.512  14.713  70.566  1.00  0.00    -0.347 C  
HETATM   27  C   UNL     1     -10.629  10.815  68.725  1.00  0.00    -0.229 A  
HETATM   28  C   UNL     1     -12.055  15.553  69.365  1.00  0.00    -0.277 C  
HETATM   29  C   UNL     1     -13.799  15.301  71.156  1.00  0.00    -0.498 C  
HETATM   30  C   UNL     1     -11.388  14.836  71.627  1.00  0.00    -0.045 C  
HETATM   31  N   UNL     1     -11.045  14.939  68.643  1.00  0.00    -0.251 N  
HETATM   32  O   UNL     1     -12.406  16.716  69.175  1.00  0.00     0.459 OA 
BRANCH  31  33
HETATM   33  C   UNL     1     -10.125  15.804  67.984  1.00  0.00    -0.228 C  
BRANCH  33  34
HETATM   34  O   UNL     1      -9.114  16.169  68.867  1.00  0.00    -0.221 OA 
HETATM   35  P   UNL     1      -7.570  15.798  68.179  1.00  0.00    -0.135 P  
HETATM   36  O   UNL     1      -7.237  15.285  69.695  1.00  0.00    -0.189 OA 
HETATM   37  O   UNL     1      -7.261  17.382  68.421  1.00  0.00    -0.204 OA 
HETATM   38  O   UNL     1      -6.189  15.465  67.564  1.00  0.00    -0.206 OA 
ENDBRANCH  33  34
ENDBRANCH  31  33
ENDBRANCH  18  20
ENDBRANCH  14  18
ENDBRANCH   9  11
ENDBRANCH   5   9
BRANCH   7  39
HETATM   39  O   UNL     1      -7.972   5.652  74.129  1.00  0.00    -0.105 OA 
HETATM   40  C   UNL     1      -7.100   4.599  74.507  1.00  0.00    -0.069 C  
ENDBRANCH   7  39
BRANCH   8  41
HETATM   41  O   UNL     1     -10.169   4.488  72.690  1.00  0.00    -0.167 OA 
HETATM   42  C   UNL     1     -11.375   4.985  73.243  1.00  0.00    -0.317 C  
ENDBRANCH   8  41
ENDBRANCH   2   3
TORSDOF 9
ENDMDL
MODEL      196
REMARK 921   NORMALIZED FREE ENERGY PREDICTED BY IDOCK:   -3.83 KCAL/MOL
REMARK 922        TOTAL FREE ENERGY PREDICTED BY IDOCK:   -7.71 KCAL/MOL
REMARK 923 INTER-LIGAND FREE ENERGY PREDICTED BY IDOCK:   -7.41 KCAL/MOL
REMARK 924 INTRA-LIGAND FREE ENERGY PREDICTED BY IDOCK:   -0.30 KCAL/MOL
REMARK 927      BINDING AFFINITY PREDICTED BY RF-SCORE:    0.00 PKD
ROOT
HETATM    1  C   UNL     1     -11.247  15.902  68.463  1.00  0.00    -0.362 C  
HETATM    2  O   UNL     1     -10.574  16.941  69.178  1.00  0.00    -0.325 OA 
ENDROOT
BRANCH   2   3
HETATM    3  C   UNL     1      -9.362  17.306  68.645  1.00  0.00    -0.267 A  
HETATM    4  C   UNL     1      -8.256  16.447  68.785  1.00  0.00    -0.234 A  
HETATM    5  C   UNL     1      -6.979  16.797  68.367  1.00  0.00    -0.170 A  
HETATM    6  C   UNL     1      -6.845  18.047  67.758  1.00  0.00    -0.201 A  
HETATM    7  C   UNL     1      -7.934  18.907  67.538  1.00  0.00    -0.244 A  
HETATM    8  C   UNL     1      -9.228  18.526  67.954  1.00  0.00    -0.290 A  
BRANCH   5   9
HETATM    9  N   UNL     1      -5.856  15.984  68.551  1.00  0.00    -0.103 NA 
HETATM   10  H   UNL     1      -5.002  16.385  68.165  1.00  0.00     0.000 HD 
BRANCH   9  11
HETATM   11  C   UNL     1      -5.656  14.740  69.151  1.00  0.00    -0.095 A  
HETATM   12  N   UNL     1      -5.599  14.783  70.490  1.00  0.00    -0.136 NA 
HETATM   13  N   UNL     1      -5.534  13.596  68.446  1.00  0.00    -0.089 NA 
HETATM   14  C   UNL     1      -5.337  12.427  69.110  1.00  0.00    -0.068 A  
HETATM   15  F   UNL     1      -5.229  11.266  71.198  1.00  0.00    -0.100 F  
HETATM   16  C   UNL     1      -5.438  13.606  71.130  1.00  0.00    -0.203 A  
HETATM   17  C   UNL     1      -5.337  12.395  70.487  1.00  0.00    -0.145 A  
BRANCH  14  18
HETATM   18  N   UNL     1      -5.220  11.286  68.298  1.00  0.00    -0.040 NA 
HETATM   19  H   UNL     1      -4.271  11.102  67.973  1.00  0.00     0.000 HD 
BRANCH  18  20
HETATM   20  C   UNL     1      -6.175  10.345  67.850  1.00  0.00    -0.059 A  
HETATM   21  N   UNL     1      -7.146   9.856  68.652  1.00  0.00    -0.070 NA 
HETATM   22  C   UNL     1      -8.085   9.008  68.132  1.00  0.00    -0.105 A  
HETATM   23  C   UNL     1      -8.026   8.551  66.817  1.00  0.00    -0.094 A  
HETATM   24  O   UNL     1      -8.877   7.617  66.284  1.00  0.00    -0.144 OA 
HETATM   25  C   UNL     1      -7.028   9.047  65.994  1.00  0.00    -0.085 A  
HETATM   26  C   UNL     1      -9.550   6.837  67.270  1.00  0.00    -0.137 C  
HETATM   27  C   UNL     1      -6.098   9.944  66.515  1.00  0.00    -0.064 A  
HETATM   28  C   UNL     1     -10.119   7.684  68.418  1.00  0.00    -0.186 C  
HETATM   29  C   UNL     1     -10.678   6.058  66.586  1.00  0.00    -0.315 C  
HETATM   30  C   UNL     1      -8.582   5.820  67.927  1.00  0.00    -0.101 C  
HETATM   31  N   UNL     1      -9.198   8.592  68.913  1.00  0.00    -0.146 N  
HETATM   32  O   UNL     1     -11.198   7.455  68.962  1.00  0.00     0.019 OA 
BRANCH  31  33
HETATM   33  C   UNL     1      -9.323   8.929  70.292  1.00  0.00    -0.185 C  
BRANCH  33  34
HETATM   34  O   UNL     1      -9.844  10.214  70.412  1.00  0.00    -0.120 OA 
HETATM   35  P   UNL     1     -10.934  10.531  69.105  1.00  0.00    -0.273 P  
HETATM   36  O   UNL     1     -10.195  11.989  69.102  1.00  0.00    -0.028 OA 
HETATM   37  O   UNL     1     -12.010  10.844  70.293  1.00  0.00    -0.298 OA 
HETATM   38  O   UNL     1     -11.909  10.815  67.937  1.00  0.00    -0.553 OA 
ENDBRANCH  33  34
ENDBRANCH  31  33
ENDBRANCH  18  20
ENDBRANCH  14  18
ENDBRANCH   9  11
ENDBRANCH   5   9
BRANCH   7  39
HETATM   39  O   UNL     1      -7.533  20.088  66.960  1.00  0.00    -0.245 OA 
HETATM   40  C   UNL     1      -6.595  20.923  67.620  1.00  0.00    -0.354 C  
ENDBRANCH   7  39
BRANCH   8  41
HETATM   41  O   UNL     1     -10.239  19.375  67.607  1.00  0.00    -0.363 OA 
HETATM   42  C   UNL     1     -10.747  19.486  66.289  1.00  0.00    -0.429 C  
ENDBRANCH   8  41
ENDBRANCH   2   3
TORSDOF 9
ENDMDL
MODEL      197
REMARK 921   NORMALIZED FREE ENERGY PREDICTED BY IDOCK:   -3.74 KCAL/MOL
REMARK 922        TOTAL FREE ENERGY PREDICTED BY IDOCK:   -7.57 KCAL/MOL
REMARK 923 INTER-LIGAND FREE ENERGY PREDICTED BY IDOCK:   -7.41 KCAL/MOL
REMARK 924 INTRA-LIGAND FREE ENERGY PREDICTED BY IDOCK:   -0.16 KCAL/MOL
REMARK 927      BINDING AFFINITY PREDICTED BY RF-SCORE:    0.00 PKD
ROOT
HETATM    1  C   UNL     1      -9.984   8.478  70.425  1.00  0.00    -0.183 C  
HETATM    2  O   UNL     1      -8.668   8.428  69.869  1.00  0.00    -0.132 OA 
ENDROOT
BRANCH   2   3
HETATM    3  C   UNL     1      -8.588   7.800  68.650  1.00  0.00    -0.129 A  
HETATM    4  C   UNL     1      -8.781   8.545  67.473  1.00  0.00    -0.135 A  
HETATM    5  C   UNL     1      -8.821   7.959  66.214  1.00  0.00    -0.159 A  
HETATM    6  C   UNL     1      -8.620   6.577  66.166  1.00  0.00    -0.146 A  
HETATM    7  C   UNL     1      -8.357   5.805  67.310  1.00  0.00    -0.104 A  
HETATM    8  C   UNL     1      -8.303   6.422  68.578  1.00  0.00    -0.113 A  
BRANCH   5   9
HETATM    9  N   UNL     1      -9.072   8.672  65.037  1.00  0.00    -0.428 NA 
HETATM   10  H   UNL     1      -8.918   8.121  64.193  1.00  0.00     0.000 HD 
BRANCH   9  11
HETATM   11  C   UNL     1      -9.488   9.977  64.773  1.00  0.00    -0.304 A  
HETATM   12  N   UNL     1      -9.700  10.230  63.474  1.00  0.00    -0.268 NA 
HETATM   13  N   UNL     1      -9.664  10.902  65.741  1.00  0.00    -0.212 NA 
HETATM   14  C   UNL     1     -10.067  12.152  65.395  1.00  0.00    -0.255 A  
HETATM   15  F   UNL     1     -10.846  13.643  63.694  1.00  0.00    -0.126 F  
HETATM   16  C   UNL     1     -10.134  11.468  63.158  1.00  0.00    -0.359 A  
HETATM   17  C   UNL     1     -10.367  12.455  64.085  1.00  0.00    -0.382 A  
BRANCH  14  18
HETATM   18  N   UNL     1     -10.225  13.051  66.464  1.00  0.00    -0.263 NA 
HETATM   19  H   UNL     1     -11.196  13.290  66.666  1.00  0.00     0.000 HD 
BRANCH  18  20
HETATM   20  C   UNL     1      -9.287  13.684  67.311  1.00  0.00    -0.233 A  
HETATM   21  N   UNL     1      -9.117  15.024  67.335  1.00  0.00    -0.181 NA 
HETATM   22  C   UNL     1      -8.247  15.577  68.235  1.00  0.00    -0.142 A  
HETATM   23  C   UNL     1      -7.452  14.798  69.072  1.00  0.00    -0.142 A  
HETATM   24  O   UNL     1      -6.487  15.300  69.908  1.00  0.00    -0.157 OA 
HETATM   25  C   UNL     1      -7.618  13.424  69.045  1.00  0.00     0.101 A  
HETATM   26  C   UNL     1      -6.063  16.615  69.557  1.00  0.00    -0.214 C  
HETATM   27  C   UNL     1      -8.537  12.866  68.157  1.00  0.00    -0.188 A  
HETATM   28  C   UNL     1      -7.233  17.558  69.242  1.00  0.00    -0.088 C  
HETATM   29  C   UNL     1      -5.231  17.181  70.713  1.00  0.00    -0.234 C  
HETATM   30  C   UNL     1      -5.178  16.590  68.285  1.00  0.00    -0.105 C  
HETATM   31  N   UNL     1      -8.155  16.988  68.381  1.00  0.00    -0.235 N  
HETATM   32  O   UNL     1      -7.254  18.746  69.561  1.00  0.00    -0.125 OA 
BRANCH  31  33
HETATM   33  C   UNL     1      -8.860  17.885  67.527  1.00  0.00    -0.248 C  
BRANCH  33  34
HETATM   34  O   UNL     1      -8.067  18.999  67.267  1.00  0.00    -0.258 OA 
HETATM   35  P   UNL     1      -7.186  18.763  65.796  1.00  0.00    -0.038 P  
HETATM   36  O   UNL     1      -5.964  19.430  66.651  1.00  0.00    -0.167 OA 
HETATM   37  O   UNL     1      -7.902  20.155  65.333  1.00  0.00    -0.222 OA 
HETATM   38  O   UNL     1      -6.398  18.552  64.481  1.00  0.00    -0.325 OA 
ENDBRANCH  33  34
ENDBRANCH  31  33
ENDBRANCH  18  20
ENDBRANCH  14  18
ENDBRANCH   9  11
ENDBRANCH   5   9
BRANCH   7  39
HETATM   39  O   UNL     1      -8.239   4.472  67.000  1.00  0.00    -0.102 OA 
HETATM   40  C   UNL     1      -9.393   3.701  66.710  1.00  0.00    -0.190 C  
ENDBRANCH   7  39
BRANCH   8  41
HETATM   41  O   UNL     1      -7.940   5.615  69.618  1.00  0.00    -0.092 OA 
HETATM   42  C   UNL     1      -8.853   5.140  70.592  1.00  0.00    -0.128 C  
ENDBRANCH   8  41
ENDBRANCH   2   3
TORSDOF 9
ENDMDL
MODEL      198
REMARK 921   NORMALIZED FREE ENERGY PREDICTED BY IDOCK:   -3.73 KCAL/MOL
REMARK 922        TOTAL FREE ENERGY PREDICTED BY IDOCK:   -7.56 KCAL/MOL
REMARK 923 INTER-LIGAND FREE ENERGY PREDICTED BY IDOCK:   -6.37 KCAL/MOL
REMARK 924 INTRA-LIGAND FREE ENERGY PREDICTED BY IDOCK:   -1.19 KCAL/MOL
REMARK 927      BINDING AFFINITY PREDICTED BY RF-SCORE:    0.00 PKD
ROOT
HETATM    1  C   UNL     1      -9.897  19.861  68.536  1.00  0.00    -0.356 C  
HETATM    2  O   UNL     1      -9.985  19.586  67.136  1.00  0.00    -0.332 OA 
ENDROOT
BRANCH   2   3
HETATM    3  C   UNL     1      -9.065  18.676  66.675  1.00  0.00    -0.306 A  
HETATM    4  C   UNL     1      -9.412  17.314  66.607  1.00  0.00    -0.278 A  
HETATM    5  C   UNL     1      -8.501  16.326  66.255  1.00  0.00    -0.334 A  
HETATM    6  C   UNL     1      -7.212  16.758  65.929  1.00  0.00     0.465 A  
HETATM    7  C   UNL     1      -6.843  18.113  65.918  1.00  0.00    -0.298 A  
HETATM    8  C   UNL     1      -7.787  19.103  66.263  1.00  0.00    -0.293 A  
BRANCH   5   9
HETATM    9  N   UNL     1      -8.808  14.962  66.239  1.00  0.00    -0.479 NA 
HETATM   10  H   UNL     1      -9.441  14.701  65.484  1.00  0.00     0.000 HD 
BRANCH   9  11
HETATM   11  C   UNL     1      -8.431  13.882  67.038  1.00  0.00    -0.134 A  
HETATM   12  N   UNL     1      -7.171  13.951  67.491  1.00  0.00    -0.177 NA 
HETATM   13  N   UNL     1      -9.262  12.859  67.330  1.00  0.00    -0.200 NA 
HETATM   14  C   UNL     1      -8.812  11.844  68.112  1.00  0.00    -0.178 A  
HETATM   15  F   UNL     1      -7.080  10.963  69.507  1.00  0.00    -0.088 F  
HETATM   16  C   UNL     1      -6.757  12.950  68.295  1.00  0.00    -0.093 A  
HETATM   17  C   UNL     1      -7.551  11.891  68.665  1.00  0.00    -0.119 A  
BRANCH  14  18
HETATM   18  N   UNL     1      -9.742  10.821  68.366  1.00  0.00    -0.168 NA 
HETATM   19  H   UNL     1     -10.628  11.151  68.748  1.00  0.00     0.000 HD 
BRANCH  18  20
HETATM   20  C   UNL     1      -9.676   9.420  68.188  1.00  0.00    -0.145 A  
HETATM   21  N   UNL     1      -9.280   8.852  67.029  1.00  0.00    -0.133 NA 
HETATM   22  C   UNL     1      -9.164   7.491  66.951  1.00  0.00    -0.149 A  
HETATM   23  C   UNL     1      -9.530   6.654  68.002  1.00  0.00    -0.118 A  
HETATM   24  O   UNL     1      -9.537   5.284  67.933  1.00  0.00    -0.123 OA 
HETATM   25  C   UNL     1      -9.942   7.233  69.191  1.00  0.00    -0.170 A  
HETATM   26  C   UNL     1      -9.555   4.786  66.598  1.00  0.00    -0.174 C  
HETATM   27  C   UNL     1     -10.018   8.622  69.281  1.00  0.00    -0.195 A  
HETATM   28  C   UNL     1      -8.552   5.497  65.679  1.00  0.00    -0.148 C  
HETATM   29  C   UNL     1      -9.255   3.283  66.637  1.00  0.00    -0.178 C  
HETATM   30  C   UNL     1     -10.948   4.989  65.950  1.00  0.00    -0.015 C  
HETATM   31  N   UNL     1      -8.614   6.875  65.794  1.00  0.00    -0.146 N  
HETATM   32  O   UNL     1      -7.903   4.922  64.806  1.00  0.00    -0.084 OA 
BRANCH  31  33
HETATM   33  C   UNL     1      -8.279   7.621  64.626  1.00  0.00    -0.063 C  
BRANCH  33  34
HETATM   34  O   UNL     1      -6.895   7.722  64.519  1.00  0.00    -0.056 OA 
HETATM   35  P   UNL     1      -6.448   9.364  64.202  1.00  0.00    -0.104 P  
HETATM   36  O   UNL     1      -5.403   8.671  63.154  1.00  0.00    -0.066 OA 
HETATM   37  O   UNL     1      -5.534   9.204  65.546  1.00  0.00    -0.037 OA 
HETATM   38  O   UNL     1      -6.048  10.832  63.919  1.00  0.00     0.007 OA 
ENDBRANCH  33  34
ENDBRANCH  31  33
ENDBRANCH  18  20
ENDBRANCH  14  18
ENDBRANCH   9  11
ENDBRANCH   5   9
BRANCH   7  39
HETATM   39  O   UNL     1      -5.514  18.269  65.605  1.00  0.00    -0.154 OA 
HETATM   40  C   UNL     1      -5.128  18.621  64.287  1.00  0.00    -0.145 C  
ENDBRANCH   7  39
BRANCH   8  41
HETATM   41  O   UNL     1      -7.372  20.397  66.126  1.00  0.00    -0.252 OA 
HETATM   42  C   UNL     1      -6.653  21.095  67.127  1.00  0.00    -0.354 C  
ENDBRANCH   8  41
ENDBRANCH   2   3
TORSDOF 9
ENDMDL
MODEL      199
REMARK 921   NORMALIZED FREE ENERGY PREDICTED BY IDOCK:   -3.70 KCAL/MOL
REMARK 922        TOTAL FREE ENERGY PREDICTED BY IDOCK:   -7.52 KCAL/MOL
REMARK 923 INTER-LIGAND FREE ENERGY PREDICTED BY IDOCK:   -7.54 KCAL/MOL
REMARK 924 INTRA-LIGAND FREE ENERGY PREDICTED BY IDOCK:    0.02 KCAL/MOL
REMARK 927      BINDING AFFINITY PREDICTED BY RF-SCORE:    0.00 PKD
ROOT
HETATM    1  C   UNL     1      -9.222   8.131  71.478  1.00  0.00    -0.161 C  
HETATM    2  O   UNL     1      -7.938   7.620  71.111  1.00  0.00    -0.089 OA 
ENDROOT
BRANCH   2   3
HETATM    3  C   UNL     1      -7.968   6.653  70.137  1.00  0.00    -0.112 A  
HETATM    4  C   UNL     1      -7.637   6.993  68.812  1.00  0.00    -0.105 A  
HETATM    5  C   UNL     1      -7.748   6.094  67.759  1.00  0.00    -0.098 A  
HETATM    6  C   UNL     1      -8.175   4.805  68.085  1.00  0.00    -0.088 A  
HETATM    7  C   UNL     1      -8.451   4.404  69.403  1.00  0.00    -0.073 A  
HETATM    8  C   UNL     1      -8.316   5.327  70.462  1.00  0.00    -0.112 A  
BRANCH   5   9
HETATM    9  N   UNL     1      -7.482   6.429  66.427  1.00  0.00    -0.084 NA 
HETATM   10  H   UNL     1      -7.127   5.646  65.879  1.00  0.00     0.000 HD 
BRANCH   9  11
HETATM   11  C   UNL     1      -7.600   7.607  65.688  1.00  0.00    -0.090 A  
HETATM   12  N   UNL     1      -6.994   7.564  64.493  1.00  0.00    -0.054 NA 
HETATM   13  N   UNL     1      -8.267   8.691  66.138  1.00  0.00    -0.116 NA 
HETATM   14  C   UNL     1      -8.329   9.800  65.355  1.00  0.00    -0.139 A  
HETATM   15  F   UNL     1      -7.885  10.827  63.241  1.00  0.00    -0.125 F  
HETATM   16  C   UNL     1      -7.099   8.664  63.718  1.00  0.00    -0.092 A  
HETATM   17  C   UNL     1      -7.786   9.796  64.089  1.00  0.00    -0.134 A  
BRANCH  14  18
HETATM   18  N   UNL     1      -9.042  10.882  65.899  1.00  0.00    -0.187 NA 
HETATM   19  H   UNL     1     -10.055  10.780  65.847  1.00  0.00     0.000 HD 
BRANCH  18  20
HETATM   20  C   UNL     1      -8.613  12.085  66.505  1.00  0.00    -0.100 A  
HETATM   21  N   UNL     1      -9.225  13.268  66.286  1.00  0.00    -0.123 NA 
HETATM   22  C   UNL     1      -8.807  14.380  66.966  1.00  0.00    -0.237 A  
HETATM   23  C   UNL     1      -7.704  14.358  67.815  1.00  0.00    -0.161 A  
HETATM   24  O   UNL     1      -7.180  15.466  68.430  1.00  0.00    -0.109 OA 
HETATM   25  C   UNL     1      -7.070  13.147  68.038  1.00  0.00    -0.115 A  
HETATM   26  C   UNL     1      -7.571  16.692  67.816  1.00  0.00    -0.159 C  
HETATM   27  C   UNL     1      -7.525  12.008  67.377  1.00  0.00    -0.152 A  
HETATM   28  C   UNL     1      -9.071  16.750  67.495  1.00  0.00    -0.210 C  
HETATM   29  C   UNL     1      -7.189  17.846  68.748  1.00  0.00    -0.275 C  
HETATM   30  C   UNL     1      -6.837  16.893  66.465  1.00  0.00    -0.249 C  
HETATM   31  N   UNL     1      -9.522  15.604  66.863  1.00  0.00    -0.222 N  
HETATM   32  O   UNL     1      -9.753  17.768  67.613  1.00  0.00    -0.271 OA 
BRANCH  31  33
HETATM   33  C   UNL     1     -10.617  15.768  65.966  1.00  0.00    -0.326 C  
BRANCH  33  34
HETATM   34  O   UNL     1     -11.533  14.738  66.154  1.00  0.00    -0.347 OA 
HETATM   35  P   UNL     1     -12.036  14.111  64.621  1.00  0.00    -0.435 P  
HETATM   36  O   UNL     1     -13.510  14.106  65.327  1.00  0.00    -0.606 OA 
HETATM   37  O   UNL     1     -11.513  12.683  65.214  1.00  0.00    -0.308 OA 
HETATM   38  O   UNL     1     -12.486  13.551  63.250  1.00  0.00    -0.763 OA 
ENDBRANCH  33  34
ENDBRANCH  31  33
ENDBRANCH  18  20
ENDBRANCH  14  18
ENDBRANCH   9  11
ENDBRANCH   5   9
BRANCH   7  39
HETATM   39  O   UNL     1      -8.892   3.104  69.451  1.00  0.00    -0.076 OA 
HETATM   40  C   UNL     1      -9.455   2.497  68.299  1.00  0.00    -0.161 C  
ENDBRANCH   7  39
BRANCH   8  41
HETATM   41  O   UNL     1      -8.504   4.824  71.718  1.00  0.00    -0.114 OA 
HETATM   42  C   UNL     1      -9.777   4.712  72.330  1.00  0.00    -0.161 C  
ENDBRANCH   8  41
ENDBRANCH   2   3
TORSDOF 9
ENDMDL
MODEL      200
REMARK 921   NORMALIZED FREE ENERGY PREDICTED BY IDOCK:   -3.69 KCAL/MOL
REMARK 922        TOTAL FREE ENERGY PREDICTED BY IDOCK:   -7.50 KCAL/MOL
REMARK 923 INTER-LIGAND FREE ENERGY PREDICTED BY IDOCK:   -6.74 KCAL/MOL
REMARK 924 INTRA-LIGAND FREE ENERGY PREDICTED BY IDOCK:   -0.77 KCAL/MOL
REMARK 927      BINDING AFFINITY PREDICTED BY RF-SCORE:    0.00 PKD
ROOT
HETATM    1  C   UNL     1     -10.152  19.407  69.356  1.00  0.00    -0.062 C  
HETATM    2  O   UNL     1      -9.475  19.852  68.178  1.00  0.00    -0.346 OA 
ENDROOT
BRANCH   2   3
HETATM    3  C   UNL     1      -8.780  18.870  67.516  1.00  0.00    -0.275 A  
HETATM    4  C   UNL     1      -9.208  17.533  67.612  1.00  0.00    -0.243 A  
HETATM    5  C   UNL     1      -8.495  16.477  67.059  1.00  0.00    -0.197 A  
HETATM    6  C   UNL     1      -7.333  16.811  66.359  1.00  0.00    -0.261 A  
HETATM    7  C   UNL     1      -6.906  18.138  66.181  1.00  0.00    -0.263 A  
HETATM    8  C   UNL     1      -7.653  19.199  66.736  1.00  0.00    -0.239 A  
BRANCH   5   9
HETATM    9  N   UNL     1      -8.870  15.136  67.194  1.00  0.00    -0.202 NA 
HETATM   10  H   UNL     1      -9.867  15.013  67.363  1.00  0.00     0.000 HD 
BRANCH   9  11
HETATM   11  C   UNL     1      -8.168  13.932  67.147  1.00  0.00    -0.109 A  
HETATM   12  N   UNL     1      -6.918  14.009  67.626  1.00  0.00    -0.178 NA 
HETATM   13  N   UNL     1      -8.701  12.789  66.665  1.00  0.00    -0.121 NA 
HETATM   14  C   UNL     1      -7.945  11.660  66.652  1.00  0.00    -0.098 A  
HETATM   15  F   UNL     1      -5.916  10.562  67.283  1.00  0.00    -0.050 F  
HETATM   16  C   UNL     1      -6.198  12.868  67.636  1.00  0.00    -0.157 A  
HETATM   17  C   UNL     1      -6.678  11.659  67.193  1.00  0.00    -0.142 A  
BRANCH  14  18
HETATM   18  N   UNL     1      -8.578  10.518  66.134  1.00  0.00    -0.145 NA 
HETATM   19  H   UNL     1      -8.826  10.592  65.147  1.00  0.00     0.000 HD 
BRANCH  18  20
HETATM   20  C   UNL     1      -8.935   9.286  66.727  1.00  0.00    -0.131 A  
HETATM   21  N   UNL     1      -8.081   8.574  67.495  1.00  0.00    -0.106 NA 
HETATM   22  C   UNL     1      -8.517   7.428  68.103  1.00  0.00    -0.124 A  
HETATM   23  C   UNL     1      -9.791   6.911  67.884  1.00  0.00    -0.135 A  
HETATM   24  O   UNL     1     -10.235   5.712  68.380  1.00  0.00    -0.164 OA 
HETATM   25  C   UNL     1     -10.667   7.635  67.093  1.00  0.00    -0.361 A  
HETATM   26  C   UNL     1      -9.179   4.838  68.774  1.00  0.00    -0.124 C  
HETATM   27  C   UNL     1     -10.234   8.825  66.509  1.00  0.00    -0.314 A  
HETATM   28  C   UNL     1      -8.093   5.544  69.599  1.00  0.00    -0.101 C  
HETATM   29  C   UNL     1      -9.781   3.683  69.581  1.00  0.00    -0.140 C  
HETATM   30  C   UNL     1      -8.459   4.247  67.536  1.00  0.00    -0.100 C  
HETATM   31  N   UNL     1      -7.687   6.739  69.028  1.00  0.00    -0.107 N  
HETATM   32  O   UNL     1      -7.516   5.022  70.551  1.00  0.00    -0.060 OA 
BRANCH  31  33
HETATM   33  C   UNL     1      -6.338   7.127  69.271  1.00  0.00    -0.035 C  
BRANCH  33  34
HETATM   34  O   UNL     1      -6.218   7.609  70.571  1.00  0.00    -0.036 OA 
HETATM   35  P   UNL     1      -6.394   9.331  70.578  1.00  0.00    -0.081 P  
HETATM   36  O   UNL     1      -5.151   9.257  71.637  1.00  0.00    -0.038 OA 
HETATM   37  O   UNL     1      -7.595   9.042  71.645  1.00  0.00    -0.302 OA 
HETATM   38  O   UNL     1      -6.551  10.870  70.585  1.00  0.00    -0.319 OA 
ENDBRANCH  33  34
ENDBRANCH  31  33
ENDBRANCH  18  20
ENDBRANCH  14  18
ENDBRANCH   9  11
ENDBRANCH   5   9
BRANCH   7  39
HETATM   39  O   UNL     1      -5.717  18.196  65.494  1.00  0.00    -0.179 OA 
HETATM   40  C   UNL     1      -5.677  18.729  64.180  1.00  0.00    -0.074 C  
ENDBRANCH   7  39
BRANCH   8  41
HETATM   41  O   UNL     1      -7.223  20.457  66.427  1.00  0.00    -0.263 OA 
HETATM   42  C   UNL     1      -6.365  21.215  67.262  1.00  0.00    -0.355 C  
ENDBRANCH   8  41
ENDBRANCH   2   3
TORSDOF 9
ENDMDL
MODEL      201
REMARK 921   NORMALIZED FREE ENERGY PREDICTED BY IDOCK:   -3.64 KCAL/MOL
REMARK 922        TOTAL FREE ENERGY PREDICTED BY IDOCK:   -7.42 KCAL/MOL
REMARK 923 INTER-LIGAND FREE ENERGY PREDICTED BY IDOCK:   -6.89 KCAL/MOL
REMARK 924 INTRA-LIGAND FREE ENERGY PREDICTED BY IDOCK:   -0.53 KCAL/MOL
REMARK 927      BINDING AFFINITY PREDICTED BY RF-SCORE:    0.00 PKD
ROOT
HETATM    1  C   UNL     1     -11.680  15.956  70.138  1.00  0.00    -0.334 C  
HETATM    2  O   UNL     1     -11.826  16.610  68.875  1.00  0.00     0.006 OA 
ENDROOT
BRANCH   2   3
HETATM    3  C   UNL     1     -10.754  16.462  68.030  1.00  0.00    -0.334 A  
HETATM    4  C   UNL     1     -10.332  15.171  67.665  1.00  0.00    -0.248 A  
HETATM    5  C   UNL     1      -9.193  14.943  66.903  1.00  0.00    -0.246 A  
HETATM    6  C   UNL     1      -8.494  16.075  66.475  1.00  0.00    -0.348 A  
HETATM    7  C   UNL     1      -8.918  17.384  66.760  1.00  0.00    -0.254 A  
HETATM    8  C   UNL     1     -10.088  17.596  67.522  1.00  0.00    -0.337 A  
BRANCH   5   9
HETATM    9  N   UNL     1      -8.722  13.666  66.580  1.00  0.00    -0.445 NA 
HETATM   10  H   UNL     1      -8.689  13.492  65.576  1.00  0.00     0.000 HD 
BRANCH   9  11
HETATM   11  C   UNL     1      -8.288  12.580  67.340  1.00  0.00    -0.182 A  
HETATM   12  N   UNL     1      -6.955  12.488  67.448  1.00  0.00    -0.151 NA 
HETATM   13  N   UNL     1      -9.135  11.702  67.917  1.00  0.00    -0.164 NA 
HETATM   14  C   UNL     1      -8.627  10.669  68.638  1.00  0.00    -0.144 A  
HETATM   15  F   UNL     1      -6.715   9.611  69.610  1.00  0.00    -0.043 F  
HETATM   16  C   UNL     1      -6.474  11.474  68.198  1.00  0.00    -0.053 A  
HETATM   17  C   UNL     1      -7.269  10.558  68.843  1.00  0.00    -0.086 A  
BRANCH  14  18
HETATM   18  N   UNL     1      -9.579   9.803  69.203  1.00  0.00    -0.178 NA 
HETATM   19  H   UNL     1     -10.388  10.279  69.602  1.00  0.00     0.000 HD 
BRANCH  18  20
HETATM   20  C   UNL     1      -9.623   8.395  69.320  1.00  0.00    -0.164 A  
HETATM   21  N   UNL     1      -8.644   7.595  68.845  1.00  0.00    -0.129 NA 
HETATM   22  C   UNL     1      -8.711   6.246  69.061  1.00  0.00    -0.125 A  
HETATM   23  C   UNL     1      -9.807   5.648  69.679  1.00  0.00    -0.184 A  
HETATM   24  O   UNL     1      -9.972   4.294  69.818  1.00  0.00    -0.222 OA 
HETATM   25  C   UNL     1     -10.815   6.465  70.163  1.00  0.00    -0.355 A  
HETATM   26  C   UNL     1      -9.166   3.531  68.923  1.00  0.00    -0.162 C  
HETATM   27  C   UNL     1     -10.723   7.844  69.978  1.00  0.00    -0.244 A  
HETATM   28  C   UNL     1      -7.713   4.026  68.855  1.00  0.00    -0.054 C  
HETATM   29  C   UNL     1      -9.199   2.065  69.369  1.00  0.00    -0.181 C  
HETATM   30  C   UNL     1      -9.715   3.614  67.476  1.00  0.00    -0.105 C  
HETATM   31  N   UNL     1      -7.629   5.399  68.699  1.00  0.00    -0.082 N  
HETATM   32  O   UNL     1      -6.743   3.275  68.758  1.00  0.00    -0.042 OA 
BRANCH  31  33
HETATM   33  C   UNL     1      -6.492   5.884  67.991  1.00  0.00    -0.043 C  
BRANCH  33  34
HETATM   34  O   UNL     1      -6.564   5.481  66.661  1.00  0.00    -0.052 OA 
HETATM   35  P   UNL     1      -7.165   6.778  65.685  1.00  0.00    -0.078 P  
HETATM   36  O   UNL     1      -8.025   5.584  64.975  1.00  0.00    -0.100 OA 
HETATM   37  O   UNL     1      -5.782   6.571  64.843  1.00  0.00    -0.028 OA 
HETATM   38  O   UNL     1      -7.703   7.938  64.813  1.00  0.00    -0.102 OA 
ENDBRANCH  33  34
ENDBRANCH  31  33
ENDBRANCH  18  20
ENDBRANCH  14  18
ENDBRANCH   9  11
ENDBRANCH   5   9
BRANCH   7  39
HETATM   39  O   UNL     1      -8.039  18.316  66.264  1.00  0.00    -0.331 OA 
HETATM   40  C   UNL     1      -8.523  19.506  65.662  1.00  0.00     0.275 C  
ENDBRANCH   7  39
BRANCH   8  41
HETATM   41  O   UNL     1     -10.481  18.896  67.661  1.00  0.00    -0.402 OA 
HETATM   42  C   UNL     1     -10.158  19.691  68.789  1.00  0.00    -0.437 C  
ENDBRANCH   8  41
ENDBRANCH   2   3
TORSDOF 9
ENDMDL
MODEL      202
REMARK 921   NORMALIZED FREE ENERGY PREDICTED BY IDOCK:   -3.60 KCAL/MOL
REMARK 922        TOTAL FREE ENERGY PREDICTED BY IDOCK:   -7.36 KCAL/MOL
REMARK 923 INTER-LIGAND FREE ENERGY PREDICTED BY IDOCK:   -5.72 KCAL/MOL
REMARK 924 INTRA-LIGAND FREE ENERGY PREDICTED BY IDOCK:   -1.64 KCAL/MOL
REMARK 927      BINDING AFFINITY PREDICTED BY RF-SCORE:    0.00 PKD
ROOT
HETATM    1  C   UNL     1      -5.735   8.447  74.258  1.00  0.00    -0.105 C  
HETATM    2  O   UNL     1      -7.076   8.218  73.817  1.00  0.00    -0.130 OA 
ENDROOT
BRANCH   2   3
HETATM    3  C   UNL     1      -7.177   7.507  72.646  1.00  0.00    -0.075 A  
HETATM    4  C   UNL     1      -6.926   8.150  71.420  1.00  0.00    -0.059 A  
HETATM    5  C   UNL     1      -7.113   7.524  70.195  1.00  0.00    -0.060 A  
HETATM    6  C   UNL     1      -7.532   6.192  70.235  1.00  0.00    -0.090 A  
HETATM    7  C   UNL     1      -7.730   5.492  71.437  1.00  0.00    -0.109 A  
HETATM    8  C   UNL     1      -7.518   6.140  72.673  1.00  0.00    -0.094 A  
BRANCH   5   9
HETATM    9  N   UNL     1      -6.927   8.163  68.964  1.00  0.00    -0.060 NA 
HETATM   10  H   UNL     1      -5.963   8.126  68.634  1.00  0.00     0.000 HD 
BRANCH   9  11
HETATM   11  C   UNL     1      -7.781   8.840  68.093  1.00  0.00    -0.101 A  
HETATM   12  N   UNL     1      -7.225   9.146  66.912  1.00  0.00    -0.085 NA 
HETATM   13  N   UNL     1      -9.054   9.157  68.412  1.00  0.00    -0.133 NA 
HETATM   14  C   UNL     1      -9.816   9.822  67.505  1.00  0.00    -0.167 A  
HETATM   15  F   UNL     1     -10.053  10.683  65.286  1.00  0.00    -0.287 F  
HETATM   16  C   UNL     1      -8.012   9.775  66.014  1.00  0.00    -0.111 A  
HETATM   17  C   UNL     1      -9.326  10.104  66.249  1.00  0.00    -0.172 A  
BRANCH  14  18
HETATM   18  N   UNL     1     -11.128  10.112  67.918  1.00  0.00    -0.432 NA 
HETATM   19  H   UNL     1     -11.848   9.609  67.399  1.00  0.00     0.000 HD 
BRANCH  18  20
HETATM   20  C   UNL     1     -11.633  10.972  68.920  1.00  0.00    -0.314 A  
HETATM   21  N   UNL     1     -11.513  12.315  68.854  1.00  0.00    -0.280 NA 
HETATM   22  C   UNL     1     -12.094  13.093  69.819  1.00  0.00    -0.270 A  
HETATM   23  C   UNL     1     -12.732  12.544  70.928  1.00  0.00    -0.182 A  
HETATM   24  O   UNL     1     -13.230  13.276  71.975  1.00  0.00    -0.418 OA 
HETATM   25  C   UNL     1     -12.851  11.166  71.002  1.00  0.00    -0.424 A  
HETATM   26  C   UNL     1     -12.681  14.590  72.057  1.00  0.00    -0.338 C  
HETATM   27  C   UNL     1     -12.296  10.378  69.995  1.00  0.00    -0.229 A  
HETATM   28  C   UNL     1     -12.634  15.306  70.700  1.00  0.00    -0.417 C  
HETATM   29  C   UNL     1     -13.517  15.404  73.051  1.00  0.00    -0.604 C  
HETATM   30  C   UNL     1     -11.218  14.547  72.569  1.00  0.00     1.154 C  
HETATM   31  N   UNL     1     -12.106  14.509  69.699  1.00  0.00    -0.323 N  
HETATM   32  O   UNL     1     -12.860  16.507  70.557  1.00  0.00     0.869 OA 
BRANCH  31  33
HETATM   33  C   UNL     1     -11.418  15.186  68.650  1.00  0.00    -0.325 C  
BRANCH  33  34
HETATM   34  O   UNL     1     -10.159  15.577  69.095  1.00  0.00    -0.210 OA 
HETATM   35  P   UNL     1      -9.048  15.601  67.768  1.00  0.00    -0.182 P  
HETATM   36  O   UNL     1      -8.038  14.917  68.856  1.00  0.00    -0.149 OA 
HETATM   37  O   UNL     1      -8.808  17.155  68.208  1.00  0.00    -0.229 OA 
HETATM   38  O   UNL     1      -8.055  15.623  66.582  1.00  0.00    -0.250 OA 
ENDBRANCH  33  34
ENDBRANCH  31  33
ENDBRANCH  18  20
ENDBRANCH  14  18
ENDBRANCH   9  11
ENDBRANCH   5   9
BRANCH   7  39
HETATM   39  O   UNL     1      -8.181   4.214  71.206  1.00  0.00    -0.074 OA 
HETATM   40  C   UNL     1      -8.345   3.744  69.878  1.00  0.00    -0.055 C  
ENDBRANCH   7  39
BRANCH   8  41
HETATM   41  O   UNL     1      -7.633   5.356  73.784  1.00  0.00    -0.093 OA 
HETATM   42  C   UNL     1      -8.850   5.170  74.485  1.00  0.00    -0.110 C  
ENDBRANCH   8  41
ENDBRANCH   2   3
TORSDOF 9
ENDMDL
MODEL      203
REMARK 921   NORMALIZED FREE ENERGY PREDICTED BY IDOCK:   -3.56 KCAL/MOL
REMARK 922        TOTAL FREE ENERGY PREDICTED BY IDOCK:   -7.29 KCAL/MOL
REMARK 923 INTER-LIGAND FREE ENERGY PREDICTED BY IDOCK:   -6.06 KCAL/MOL
REMARK 924 INTRA-LIGAND FREE ENERGY PREDICTED BY IDOCK:   -1.23 KCAL/MOL
REMARK 927      BINDING AFFINITY PREDICTED BY RF-SCORE:    0.00 PKD
ROOT
HETATM    1  C   UNL     1      -6.893  17.327  66.014  1.00  0.00    -0.100 C  
HETATM    2  O   UNL     1      -8.114  16.668  65.670  1.00  0.00    -0.133 OA 
ENDROOT
BRANCH   2   3
HETATM    3  C   UNL     1      -8.691  15.964  66.699  1.00  0.00    -0.289 A  
HETATM    4  C   UNL     1      -8.296  14.634  66.935  1.00  0.00    -0.159 A  
HETATM    5  C   UNL     1      -8.910  13.829  67.886  1.00  0.00    -0.186 A  
HETATM    6  C   UNL     1      -9.930  14.421  68.636  1.00  0.00    -0.241 A  
HETATM    7  C   UNL     1     -10.310  15.764  68.479  1.00  0.00    -0.229 A  
HETATM    8  C   UNL     1      -9.662  16.572  67.519  1.00  0.00    -0.242 A  
BRANCH   5   9
HETATM    9  N   UNL     1      -8.575  12.487  68.096  1.00  0.00    -0.184 NA 
HETATM   10  H   UNL     1      -7.651  12.364  68.509  1.00  0.00     0.000 HD 
BRANCH   9  11
HETATM   11  C   UNL     1      -9.236  11.282  67.859  1.00  0.00    -0.157 A  
HETATM   12  N   UNL     1      -9.705  11.153  66.610  1.00  0.00    -0.192 NA 
HETATM   13  N   UNL     1      -9.389  10.330  68.804  1.00  0.00    -0.158 NA 
HETATM   14  C   UNL     1     -10.051   9.186  68.490  1.00  0.00    -0.191 A  
HETATM   15  F   UNL     1     -11.082   7.826  66.815  1.00  0.00    -0.365 F  
HETATM   16  C   UNL     1     -10.328   9.993  66.310  1.00  0.00    -0.165 A  
HETATM   17  C   UNL     1     -10.495   8.964  67.205  1.00  0.00    -0.277 A  
BRANCH  14  18
HETATM   18  N   UNL     1     -10.164   8.251  69.533  1.00  0.00    -0.206 NA 
HETATM   19  H   UNL     1     -11.028   8.328  70.069  1.00  0.00     0.000 HD 
BRANCH  18  20
HETATM   20  C   UNL     1      -9.301   7.222  69.975  1.00  0.00    -0.154 A  
HETATM   21  N   UNL     1      -9.171   6.049  69.319  1.00  0.00    -0.127 NA 
HETATM   22  C   UNL     1      -8.259   5.128  69.758  1.00  0.00    -0.089 A  
HETATM   23  C   UNL     1      -7.518   5.315  70.921  1.00  0.00    -0.082 A  
HETATM   24  O   UNL     1      -6.677   4.377  71.462  1.00  0.00    -0.028 OA 
HETATM   25  C   UNL     1      -7.653   6.515  71.600  1.00  0.00    -0.094 A  
HETATM   26  C   UNL     1      -6.932   3.054  70.996  1.00  0.00    -0.033 C  
HETATM   27  C   UNL     1      -8.551   7.470  71.126  1.00  0.00    -0.121 A  
HETATM   28  C   UNL     1      -7.127   2.982  69.474  1.00  0.00    -0.041 C  
HETATM   29  C   UNL     1      -5.763   2.157  71.416  1.00  0.00    -0.012 C  
HETATM   30  C   UNL     1      -8.232   2.488  71.622  1.00  0.00    -0.062 C  
HETATM   31  N   UNL     1      -8.000   3.950  69.006  1.00  0.00    -0.059 N  
HETATM   32  O   UNL     1      -6.710   2.057  68.778  1.00  0.00    -0.029 OA 
BRANCH  31  33
HETATM   33  C   UNL     1      -8.752   3.612  67.844  1.00  0.00    -0.106 C  
BRANCH  33  34
HETATM   34  O   UNL     1      -8.200   4.241  66.732  1.00  0.00    -0.101 OA 
HETATM   35  P   UNL     1      -8.334   3.212  65.347  1.00  0.00    -0.102 P  
HETATM   36  O   UNL     1      -6.812   3.732  65.058  1.00  0.00    -0.047 OA 
HETATM   37  O   UNL     1      -9.119   4.480  64.682  1.00  0.00    -0.149 OA 
HETATM   38  O   UNL     1      -8.454   2.292  64.108  1.00  0.00    -0.081 OA 
ENDBRANCH  33  34
ENDBRANCH  31  33
ENDBRANCH  18  20
ENDBRANCH  14  18
ENDBRANCH   9  11
ENDBRANCH   5   9
BRANCH   7  39
HETATM   39  O   UNL     1     -11.360  16.089  69.303  1.00  0.00    -0.325 OA 
HETATM   40  C   UNL     1     -11.117  16.514  70.635  1.00  0.00    -0.043 C  
ENDBRANCH   7  39
BRANCH   8  41
HETATM   41  O   UNL     1     -10.023  17.888  67.507  1.00  0.00    -0.299 OA 
HETATM   42  C   UNL     1     -10.490  18.558  66.349  1.00  0.00    -0.406 C  
ENDBRANCH   8  41
ENDBRANCH   2   3
TORSDOF 9
ENDMDL
MODEL      204
REMARK 921   NORMALIZED FREE ENERGY PREDICTED BY IDOCK:   -3.46 KCAL/MOL
REMARK 922        TOTAL FREE ENERGY PREDICTED BY IDOCK:   -7.15 KCAL/MOL
REMARK 923 INTER-LIGAND FREE ENERGY PREDICTED BY IDOCK:   -7.07 KCAL/MOL
REMARK 924 INTRA-LIGAND FREE ENERGY PREDICTED BY IDOCK:   -0.08 KCAL/MOL
REMARK 927      BINDING AFFINITY PREDICTED BY RF-SCORE:    0.00 PKD
ROOT
HETATM    1  C   UNL     1      -9.897   4.435  69.209  1.00  0.00    -0.148 C  
HETATM    2  O   UNL     1      -8.492   4.426  68.944  1.00  0.00    -0.082 OA 
ENDROOT
BRANCH   2   3
HETATM    3  C   UNL     1      -7.977   5.639  68.559  1.00  0.00    -0.100 A  
HETATM    4  C   UNL     1      -8.061   6.738  69.434  1.00  0.00    -0.123 A  
HETATM    5  C   UNL     1      -7.660   8.017  69.070  1.00  0.00    -0.098 A  
HETATM    6  C   UNL     1      -7.126   8.160  67.787  1.00  0.00    -0.087 A  
HETATM    7  C   UNL     1      -6.961   7.078  66.906  1.00  0.00    -0.070 A  
HETATM    8  C   UNL     1      -7.359   5.782  67.300  1.00  0.00    -0.077 A  
BRANCH   5   9
HETATM    9  N   UNL     1      -7.791   9.133  69.903  1.00  0.00    -0.080 NA 
HETATM   10  H   UNL     1      -8.480   9.004  70.643  1.00  0.00     0.000 HD 
BRANCH   9  11
HETATM   11  C   UNL     1      -7.178  10.386  69.935  1.00  0.00    -0.153 A  
HETATM   12  N   UNL     1      -6.356  10.565  70.979  1.00  0.00    -0.336 NA 
HETATM   13  N   UNL     1      -7.393  11.334  68.998  1.00  0.00    -0.116 NA 
HETATM   14  C   UNL     1      -6.759  12.529  69.108  1.00  0.00    -0.089 A  
HETATM   15  F   UNL     1      -5.132  13.875  70.234  1.00  0.00    -0.089 F  
HETATM   16  C   UNL     1      -5.709  11.747  71.049  1.00  0.00     0.065 A  
HETATM   17  C   UNL     1      -5.849  12.749  70.119  1.00  0.00    -0.155 A  
BRANCH  14  18
HETATM   18  N   UNL     1      -7.040  13.456  68.090  1.00  0.00    -0.100 NA 
HETATM   19  H   UNL     1      -6.949  13.078  67.147  1.00  0.00     0.000 HD 
BRANCH  18  20
HETATM   20  C   UNL     1      -7.425  14.816  68.132  1.00  0.00    -0.117 A  
HETATM   21  N   UNL     1      -8.241  15.369  67.210  1.00  0.00    -0.179 NA 
HETATM   22  C   UNL     1      -8.637  16.671  67.354  1.00  0.00    -0.189 A  
HETATM   23  C   UNL     1      -8.152  17.485  68.375  1.00  0.00    -0.266 A  
HETATM   24  O   UNL     1      -8.431  18.822  68.497  1.00  0.00    -0.329 OA 
HETATM   25  C   UNL     1      -7.310  16.922  69.320  1.00  0.00    -0.150 A  
HETATM   26  C   UNL     1      -8.897  19.414  67.287  1.00  0.00    -0.296 C  
HETATM   27  C   UNL     1      -6.943  15.583  69.194  1.00  0.00    -0.158 A  
HETATM   28  C   UNL     1      -9.966  18.569  66.578  1.00  0.00    -0.380 C  
HETATM   29  C   UNL     1      -9.459  20.803  67.611  1.00  0.00    -0.355 C  
HETATM   30  C   UNL     1      -7.739  19.581  66.270  1.00  0.00    -0.320 C  
HETATM   31  N   UNL     1      -9.606  17.235  66.481  1.00  0.00    -0.262 N  
HETATM   32  O   UNL     1     -10.937  19.049  65.997  1.00  0.00    -0.243 OA 
BRANCH  31  33
HETATM   33  C   UNL     1     -10.114  16.526  65.353  1.00  0.00    -0.066 C  
BRANCH  33  34
HETATM   34  O   UNL     1     -11.158  15.698  65.754  1.00  0.00    -0.280 OA 
HETATM   35  P   UNL     1     -10.759  14.047  65.422  1.00  0.00    -0.382 P  
HETATM   36  O   UNL     1     -12.316  13.974  64.931  1.00  0.00    -0.416 OA 
HETATM   37  O   UNL     1     -11.031  13.829  67.017  1.00  0.00    -0.285 OA 
HETATM   38  O   UNL     1     -10.402  12.570  65.126  1.00  0.00    -0.280 OA 
ENDBRANCH  33  34
ENDBRANCH  31  33
ENDBRANCH  18  20
ENDBRANCH  14  18
ENDBRANCH   9  11
ENDBRANCH   5   9
BRANCH   7  39
HETATM   39  O   UNL     1      -6.454   7.487  65.697  1.00  0.00    -0.044 OA 
HETATM   40  C   UNL     1      -7.329   7.826  64.633  1.00  0.00    -0.080 C  
ENDBRANCH   7  39
BRANCH   8  41
HETATM   41  O   UNL     1      -7.068   4.777  66.423  1.00  0.00    -0.072 OA 
HETATM   42  C   UNL     1      -7.967   3.727  66.114  1.00  0.00    -0.090 C  
ENDBRANCH   8  41
ENDBRANCH   2   3
TORSDOF 9
ENDMDL
MODEL      205
REMARK 921   NORMALIZED FREE ENERGY PREDICTED BY IDOCK:   -3.41 KCAL/MOL
REMARK 922        TOTAL FREE ENERGY PREDICTED BY IDOCK:   -7.07 KCAL/MOL
REMARK 923 INTER-LIGAND FREE ENERGY PREDICTED BY IDOCK:   -6.13 KCAL/MOL
REMARK 924 INTRA-LIGAND FREE ENERGY PREDICTED BY IDOCK:   -0.94 KCAL/MOL
REMARK 927      BINDING AFFINITY PREDICTED BY RF-SCORE:    0.00 PKD
ROOT
HETATM    1  C   UNL     1     -10.734  19.033  65.520  1.00  0.00    -0.039 C  
HETATM    2  O   UNL     1      -9.513  18.478  66.014  1.00  0.00    -0.492 OA 
ENDROOT
BRANCH   2   3
HETATM    3  C   UNL     1      -9.673  17.371  66.812  1.00  0.00    -0.290 A  
HETATM    4  C   UNL     1      -9.218  16.119  66.359  1.00  0.00    -0.334 A  
HETATM    5  C   UNL     1      -9.442  14.942  67.063  1.00  0.00    -0.229 A  
HETATM    6  C   UNL     1     -10.117  15.065  68.280  1.00  0.00    -0.222 A  
HETATM    7  C   UNL     1     -10.529  16.303  68.801  1.00  0.00    -0.282 A  
HETATM    8  C   UNL     1     -10.278  17.490  68.079  1.00  0.00    -0.354 A  
BRANCH   5   9
HETATM    9  N   UNL     1      -9.052  13.681  66.602  1.00  0.00    -0.399 NA 
HETATM   10  H   UNL     1      -9.511  13.411  65.733  1.00  0.00     0.000 HD 
BRANCH   9  11
HETATM   11  C   UNL     1      -8.168  12.713  67.080  1.00  0.00    -0.159 A  
HETATM   12  N   UNL     1      -7.755  12.925  68.338  1.00  0.00    -0.131 NA 
HETATM   13  N   UNL     1      -7.766  11.657  66.342  1.00  0.00    -0.017 NA 
HETATM   14  C   UNL     1      -6.898  10.763  66.884  1.00  0.00    -0.101 A  
HETATM   15  F   UNL     1      -5.703   9.996  68.809  1.00  0.00    -0.036 F  
HETATM   16  C   UNL     1      -6.921  12.005  68.868  1.00  0.00    -0.104 A  
HETATM   17  C   UNL     1      -6.491  10.887  68.194  1.00  0.00    -0.058 A  
BRANCH  14  18
HETATM   18  N   UNL     1      -6.533   9.695  66.046  1.00  0.00    -0.075 NA 
HETATM   19  H   UNL     1      -5.718   9.885  65.462  1.00  0.00     0.000 HD 
BRANCH  18  20
HETATM   20  C   UNL     1      -7.085   8.407  65.864  1.00  0.00    -0.072 A  
HETATM   21  N   UNL     1      -7.092   7.474  66.840  1.00  0.00    -0.081 NA 
HETATM   22  C   UNL     1      -7.714   6.275  66.622  1.00  0.00    -0.100 A  
HETATM   23  C   UNL     1      -8.265   5.938  65.388  1.00  0.00    -0.139 A  
HETATM   24  O   UNL     1      -8.797   4.711  65.087  1.00  0.00    -0.136 OA 
HETATM   25  C   UNL     1      -8.253   6.891  64.383  1.00  0.00     0.021 A  
HETATM   26  C   UNL     1      -8.370   3.678  65.972  1.00  0.00    -0.106 C  
HETATM   27  C   UNL     1      -7.658   8.128  64.622  1.00  0.00    -0.111 A  
HETATM   28  C   UNL     1      -8.431   4.091  67.450  1.00  0.00    -0.099 C  
HETATM   29  C   UNL     1      -9.248   2.444  65.737  1.00  0.00    -0.035 C  
HETATM   30  C   UNL     1      -6.895   3.288  65.697  1.00  0.00    -0.049 C  
HETATM   31  N   UNL     1      -7.862   5.332  67.676  1.00  0.00    -0.095 N  
HETATM   32  O   UNL     1      -8.772   3.330  68.355  1.00  0.00    -0.088 OA 
BRANCH  31  33
HETATM   33  C   UNL     1      -7.271   5.531  68.958  1.00  0.00    -0.069 C  
BRANCH  33  34
HETATM   34  O   UNL     1      -8.262   5.844  69.884  1.00  0.00    -0.112 OA 
HETATM   35  P   UNL     1      -7.683   7.056  70.976  1.00  0.00    -0.092 P  
HETATM   36  O   UNL     1      -8.435   6.130  72.093  1.00  0.00    -0.117 OA 
HETATM   37  O   UNL     1      -8.993   7.896  70.482  1.00  0.00    -0.143 OA 
HETATM   38  O   UNL     1      -7.166   8.140  71.952  1.00  0.00    -0.073 OA 
ENDBRANCH  33  34
ENDBRANCH  31  33
ENDBRANCH  18  20
ENDBRANCH  14  18
ENDBRANCH   9  11
ENDBRANCH   5   9
BRANCH   7  39
HETATM   39  O   UNL     1     -11.205  16.149  69.987  1.00  0.00    -0.334 OA 
HETATM   40  C   UNL     1     -12.276  15.224  70.084  1.00  0.00    -0.364 C  
ENDBRANCH   7  39
BRANCH   8  41
HETATM   41  O   UNL     1     -10.619  18.653  68.708  1.00  0.00    -0.112 OA 
HETATM   42  C   UNL     1      -9.669  19.603  69.158  1.00  0.00    -0.302 C  
ENDBRANCH   8  41
ENDBRANCH   2   3
TORSDOF 9
ENDMDL
MODEL      206
REMARK 921   NORMALIZED FREE ENERGY PREDICTED BY IDOCK:   -3.40 KCAL/MOL
REMARK 922        TOTAL FREE ENERGY PREDICTED BY IDOCK:   -7.05 KCAL/MOL
REMARK 923 INTER-LIGAND FREE ENERGY PREDICTED BY IDOCK:   -5.94 KCAL/MOL
REMARK 924 INTRA-LIGAND FREE ENERGY PREDICTED BY IDOCK:   -1.12 KCAL/MOL
REMARK 927      BINDING AFFINITY PREDICTED BY RF-SCORE:    0.00 PKD
ROOT
HETATM    1  C   UNL     1      -5.472   2.945  67.520  1.00  0.00    -0.017 C  
HETATM    2  O   UNL     1      -6.889   3.131  67.555  1.00  0.00    -0.044 OA 
ENDROOT
BRANCH   2   3
HETATM    3  C   UNL     1      -7.323   4.024  68.504  1.00  0.00    -0.055 A  
HETATM    4  C   UNL     1      -7.084   5.398  68.323  1.00  0.00    -0.066 A  
HETATM    5  C   UNL     1      -7.398   6.346  69.288  1.00  0.00    -0.092 A  
HETATM    6  C   UNL     1      -8.007   5.870  70.452  1.00  0.00    -0.106 A  
HETATM    7  C   UNL     1      -8.325   4.515  70.645  1.00  0.00    -0.075 A  
HETATM    8  C   UNL     1      -8.013   3.569  69.645  1.00  0.00    -0.049 A  
BRANCH   5   9
HETATM    9  N   UNL     1      -7.114   7.709  69.154  1.00  0.00    -0.075 NA 
HETATM   10  H   UNL     1      -6.261   7.991  69.636  1.00  0.00     0.000 HD 
BRANCH   9  11
HETATM   11  C   UNL     1      -7.750   8.765  68.501  1.00  0.00    -0.099 A  
HETATM   12  N   UNL     1      -9.072   8.598  68.353  1.00  0.00    -0.138 NA 
HETATM   13  N   UNL     1      -7.093   9.858  68.059  1.00  0.00    -0.081 NA 
HETATM   14  C   UNL     1      -7.790  10.839  67.428  1.00  0.00    -0.111 A  
HETATM   15  F   UNL     1      -9.911  11.727  66.769  1.00  0.00    -0.204 F  
HETATM   16  C   UNL     1      -9.750   9.600  67.755  1.00  0.00    -0.146 A  
HETATM   17  C   UNL     1      -9.160  10.758  67.307  1.00  0.00    -0.144 A  
BRANCH  14  18
HETATM   18  N   UNL     1      -7.029  11.940  67.001  1.00  0.00    -0.247 NA 
HETATM   19  H   UNL     1      -6.274  11.699  66.358  1.00  0.00     0.000 HD 
BRANCH  18  20
HETATM   20  C   UNL     1      -7.115  13.319  67.298  1.00  0.00    -0.001 A  
HETATM   21  N   UNL     1      -8.275  13.917  67.646  1.00  0.00    -0.163 NA 
HETATM   22  C   UNL     1      -8.273  15.239  67.997  1.00  0.00    -0.141 A  
HETATM   23  C   UNL     1      -7.126  16.025  67.919  1.00  0.00    -0.136 A  
HETATM   24  O   UNL     1      -7.097  17.377  68.152  1.00  0.00    -0.185 OA 
HETATM   25  C   UNL     1      -5.936  15.417  67.557  1.00  0.00    -0.073 A  
HETATM   26  C   UNL     1      -8.379  17.993  68.062  1.00  0.00    -0.260 C  
HETATM   27  C   UNL     1      -5.933  14.059  67.242  1.00  0.00     0.489 A  
HETATM   28  C   UNL     1      -9.474  17.209  68.801  1.00  0.00    -0.263 C  
HETATM   29  C   UNL     1      -8.277  19.412  68.632  1.00  0.00    -0.399 C  
HETATM   30  C   UNL     1      -8.844  18.091  66.587  1.00  0.00    -0.280 C  
HETATM   31  N   UNL     1      -9.449  15.857  68.504  1.00  0.00    -0.203 N  
HETATM   32  O   UNL     1     -10.385  17.743  69.431  1.00  0.00    -0.253 OA 
BRANCH  31  33
HETATM   33  C   UNL     1     -10.700  15.177  68.553  1.00  0.00    -0.240 C  
BRANCH  33  34
HETATM   34  O   UNL     1     -10.839  14.546  69.786  1.00  0.00    -0.202 OA 
HETATM   35  P   UNL     1     -12.407  14.874  70.441  1.00  0.00    -0.360 P  
HETATM   36  O   UNL     1     -11.571  15.052  71.834  1.00  0.00    -0.391 OA 
HETATM   37  O   UNL     1     -12.550  13.249  70.489  1.00  0.00    -0.274 OA 
HETATM   38  O   UNL     1     -13.809  15.168  71.027  1.00  0.00    -0.422 OA 
ENDBRANCH  33  34
ENDBRANCH  31  33
ENDBRANCH  18  20
ENDBRANCH  14  18
ENDBRANCH   9  11
ENDBRANCH   5   9
BRANCH   7  39
HETATM   39  O   UNL     1      -8.878   4.300  71.884  1.00  0.00    -0.108 OA 
HETATM   40  C   UNL     1     -10.259   4.542  72.102  1.00  0.00    -0.188 C  
ENDBRANCH   7  39
BRANCH   8  41
HETATM   41  O   UNL     1      -8.451   2.296  69.872  1.00  0.00    -0.044 OA 
HETATM   42  C   UNL     1      -9.506   1.692  69.145  1.00  0.00    -0.088 C  
ENDBRANCH   8  41
ENDBRANCH   2   3
TORSDOF 9
ENDMDL
MODEL      207
REMARK 921   NORMALIZED FREE ENERGY PREDICTED BY IDOCK:   -3.22 KCAL/MOL
REMARK 922        TOTAL FREE ENERGY PREDICTED BY IDOCK:   -6.78 KCAL/MOL
REMARK 923 INTER-LIGAND FREE ENERGY PREDICTED BY IDOCK:   -5.76 KCAL/MOL
REMARK 924 INTRA-LIGAND FREE ENERGY PREDICTED BY IDOCK:   -1.03 KCAL/MOL
REMARK 927      BINDING AFFINITY PREDICTED BY RF-SCORE:    0.00 PKD
ROOT
HETATM    1  C   UNL     1     -10.158   4.861  67.938  1.00  0.00    -0.085 C  
HETATM    2  O   UNL     1      -9.070   5.047  67.028  1.00  0.00    -0.115 OA 
ENDROOT
BRANCH   2   3
HETATM    3  C   UNL     1      -8.798   6.359  66.726  1.00  0.00    -0.124 A  
HETATM    4  C   UNL     1      -8.747   7.312  67.761  1.00  0.00    -0.126 A  
HETATM    5  C   UNL     1      -8.584   8.670  67.520  1.00  0.00    -0.135 A  
HETATM    6  C   UNL     1      -8.433   9.050  66.184  1.00  0.00    -0.135 A  
HETATM    7  C   UNL     1      -8.411   8.125  65.127  1.00  0.00    -0.143 A  
HETATM    8  C   UNL     1      -8.560   6.747  65.393  1.00  0.00    -0.047 A  
BRANCH   5   9
HETATM    9  N   UNL     1      -8.591   9.640  68.528  1.00  0.00    -0.118 NA 
HETATM   10  H   UNL     1      -9.360   9.528  69.187  1.00  0.00     0.000 HD 
BRANCH   9  11
HETATM   11  C   UNL     1      -7.768  10.727  68.822  1.00  0.00    -0.121 A  
HETATM   12  N   UNL     1      -7.221  10.682  70.045  1.00  0.00    -0.142 NA 
HETATM   13  N   UNL     1      -7.543  11.735  67.952  1.00  0.00    -0.113 NA 
HETATM   14  C   UNL     1      -6.731  12.759  68.322  1.00  0.00    -0.087 A  
HETATM   15  F   UNL     1      -5.210  13.673  69.925  1.00  0.00    -0.082 F  
HETATM   16  C   UNL     1      -6.389  11.692  70.377  1.00  0.00     0.140 A  
HETATM   17  C   UNL     1      -6.083  12.736  69.538  1.00  0.00    -0.118 A  
BRANCH  14  18
HETATM   18  N   UNL     1      -6.551  13.764  67.356  1.00  0.00    -0.399 NA 
HETATM   19  H   UNL     1      -6.111  13.439  66.495  1.00  0.00     0.000 HD 
BRANCH  18  20
HETATM   20  C   UNL     1      -6.868  15.141  67.358  1.00  0.00    -0.133 A  
HETATM   21  N   UNL     1      -7.986  15.630  67.937  1.00  0.00    -0.138 NA 
HETATM   22  C   UNL     1      -8.192  16.982  67.971  1.00  0.00    -0.206 A  
HETATM   23  C   UNL     1      -7.331  17.879  67.343  1.00  0.00    -0.192 A  
HETATM   24  O   UNL     1      -7.553  19.229  67.253  1.00  0.00    -0.230 OA 
HETATM   25  C   UNL     1      -6.187  17.381  66.742  1.00  0.00    -0.227 A  
HETATM   26  C   UNL     1      -8.914  19.594  67.469  1.00  0.00    -0.317 C  
HETATM   27  C   UNL     1      -5.958  16.006  66.747  1.00  0.00     0.493 A  
HETATM   28  C   UNL     1      -9.537  18.892  68.684  1.00  0.00    -0.391 C  
HETATM   29  C   UNL     1      -8.987  21.114  67.648  1.00  0.00     0.130 C  
HETATM   30  C   UNL     1      -9.792  19.203  66.252  1.00  0.00    -0.437 C  
HETATM   31  N   UNL     1      -9.283  17.531  68.697  1.00  0.00    -0.280 N  
HETATM   32  O   UNL     1     -10.328  19.437  69.453  1.00  0.00    -0.142 OA 
BRANCH  31  33
HETATM   33  C   UNL     1     -10.273  16.711  69.312  1.00  0.00    -0.291 C  
BRANCH  33  34
HETATM   34  O   UNL     1     -10.600  15.658  68.463  1.00  0.00    -0.241 OA 
HETATM   35  P   UNL     1     -11.513  14.468  69.326  1.00  0.00    -0.322 P  
HETATM   36  O   UNL     1     -10.563  13.425  68.501  1.00  0.00    -0.244 OA 
HETATM   37  O   UNL     1     -12.627  14.708  68.157  1.00  0.00     0.132 OA 
HETATM   38  O   UNL     1     -12.329  13.404  70.098  1.00  0.00    -0.306 OA 
ENDBRANCH  33  34
ENDBRANCH  31  33
ENDBRANCH  18  20
ENDBRANCH  14  18
ENDBRANCH   9  11
ENDBRANCH   5   9
BRANCH   7  39
HETATM   39  O   UNL     1      -8.292   8.755  63.911  1.00  0.00    -0.172 OA 
HETATM   40  C   UNL     1      -8.161  10.166  63.847  1.00  0.00    -0.157 C  
ENDBRANCH   7  39
BRANCH   8  41
HETATM   41  O   UNL     1      -8.423   5.915  64.320  1.00  0.00    -0.083 OA 
HETATM   42  C   UNL     1      -7.174   5.408  63.881  1.00  0.00    -0.050 C  
ENDBRANCH   8  41
ENDBRANCH   2   3
TORSDOF 9
ENDMDL
MODEL      208
REMARK 921   NORMALIZED FREE ENERGY PREDICTED BY IDOCK:   -3.12 KCAL/MOL
REMARK 922        TOTAL FREE ENERGY PREDICTED BY IDOCK:   -6.62 KCAL/MOL
REMARK 923 INTER-LIGAND FREE ENERGY PREDICTED BY IDOCK:   -7.27 KCAL/MOL
REMARK 924 INTRA-LIGAND FREE ENERGY PREDICTED BY IDOCK:    0.65 KCAL/MOL
REMARK 927      BINDING AFFINITY PREDICTED BY RF-SCORE:    0.00 PKD
ROOT
HETATM    1  C   UNL     1      -5.209  19.445  71.772  1.00  0.00    -0.370 C  
HETATM    2  O   UNL     1      -5.468  18.085  71.415  1.00  0.00    -0.163 OA 
ENDROOT
BRANCH   2   3
HETATM    3  C   UNL     1      -5.769  17.892  70.090  1.00  0.00    -0.227 A  
HETATM    4  C   UNL     1      -6.334  16.671  69.678  1.00  0.00    -0.217 A  
HETATM    5  C   UNL     1      -6.564  16.365  68.343  1.00  0.00    -0.136 A  
HETATM    6  C   UNL     1      -6.239  17.356  67.413  1.00  0.00    -0.166 A  
HETATM    7  C   UNL     1      -5.737  18.614  67.786  1.00  0.00    -0.174 A  
HETATM    8  C   UNL     1      -5.525  18.913  69.149  1.00  0.00    -0.203 A  
BRANCH   5   9
HETATM    9  N   UNL     1      -7.068  15.135  67.908  1.00  0.00    -0.130 NA 
HETATM   10  H   UNL     1      -6.504  14.340  68.209  1.00  0.00     0.000 HD 
BRANCH   9  11
HETATM   11  C   UNL     1      -8.179  14.764  67.149  1.00  0.00    -0.211 A  
HETATM   12  N   UNL     1      -8.725  15.771  66.454  1.00  0.00    -0.317 NA 
HETATM   13  N   UNL     1      -8.659  13.503  67.118  1.00  0.00    -0.209 NA 
HETATM   14  C   UNL     1      -9.749  13.229  66.355  1.00  0.00    -0.276 A  
HETATM   15  F   UNL     1     -11.337  13.978  64.731  1.00  0.00    -0.318 F  
HETATM   16  C   UNL     1      -9.786  15.469  65.676  1.00  0.00    -0.320 A  
HETATM   17  C   UNL     1     -10.314  14.205  65.564  1.00  0.00    -0.351 A  
BRANCH  14  18
HETATM   18  N   UNL     1     -10.181  11.892  66.381  1.00  0.00    -0.205 NA 
HETATM   19  H   UNL     1     -11.190  11.783  66.490  1.00  0.00     0.000 HD 
BRANCH  18  20
HETATM   20  C   UNL     1      -9.477  10.670  66.282  1.00  0.00    -0.177 A  
HETATM   21  N   UNL     1      -9.359   9.814  67.319  1.00  0.00    -0.137 NA 
HETATM   22  C   UNL     1      -8.730   8.613  67.133  1.00  0.00    -0.128 A  
HETATM   23  C   UNL     1      -8.119   8.274  65.928  1.00  0.00    -0.105 A  
HETATM   24  O   UNL     1      -7.383   7.135  65.728  1.00  0.00    -0.071 OA 
HETATM   25  C   UNL     1      -8.233   9.154  64.865  1.00  0.00    -0.154 A  
HETATM   26  C   UNL     1      -6.931   6.533  66.939  1.00  0.00    -0.067 C  
HETATM   27  C   UNL     1      -8.912  10.358  65.045  1.00  0.00    -0.221 A  
HETATM   28  C   UNL     1      -8.029   6.442  68.009  1.00  0.00    -0.109 C  
HETATM   29  C   UNL     1      -6.398   5.134  66.616  1.00  0.00    -0.040 C  
HETATM   30  C   UNL     1      -5.783   7.359  67.573  1.00  0.00    -0.034 C  
HETATM   31  N   UNL     1      -8.717   7.634  68.164  1.00  0.00    -0.123 N  
HETATM   32  O   UNL     1      -8.158   5.486  68.772  1.00  0.00    -0.097 OA 
BRANCH  31  33
HETATM   33  C   UNL     1      -9.239   7.895  69.464  1.00  0.00    -0.152 C  
BRANCH  33  34
HETATM   34  O   UNL     1     -10.563   7.471  69.529  1.00  0.00    -0.233 OA 
HETATM   35  P   UNL     1     -10.970   7.063  71.161  1.00  0.00    -0.266 P  
HETATM   36  O   UNL     1     -11.724   5.799  70.450  1.00  0.00     0.084 OA 
HETATM   37  O   UNL     1     -12.165   8.158  70.966  1.00  0.00    -0.277 OA 
HETATM   38  O   UNL     1     -11.333   6.698  72.621  1.00  0.00    -0.261 OA 
ENDBRANCH  33  34
ENDBRANCH  31  33
ENDBRANCH  18  20
ENDBRANCH  14  18
ENDBRANCH   9  11
ENDBRANCH   5   9
BRANCH   7  39
HETATM   39  O   UNL     1      -5.460  19.390  66.686  1.00  0.00    -0.163 OA 
HETATM   40  C   UNL     1      -5.770  18.920  65.384  1.00  0.00    -0.200 C  
ENDBRANCH   7  39
BRANCH   8  41
HETATM   41  O   UNL     1      -5.134  20.191  69.425  1.00  0.00    -0.183 OA 
HETATM   42  C   UNL     1      -5.624  21.324  68.730  1.00  0.00    -0.161 C  
ENDBRANCH   8  41
ENDBRANCH   2   3
TORSDOF 9
ENDMDL
MODEL      209
REMARK 921   NORMALIZED FREE ENERGY PREDICTED BY IDOCK:   -3.02 KCAL/MOL
REMARK 922        TOTAL FREE ENERGY PREDICTED BY IDOCK:   -6.48 KCAL/MOL
REMARK 923 INTER-LIGAND FREE ENERGY PREDICTED BY IDOCK:   -5.14 KCAL/MOL
REMARK 924 INTRA-LIGAND FREE ENERGY PREDICTED BY IDOCK:   -1.33 KCAL/MOL
REMARK 927      BINDING AFFINITY PREDICTED BY RF-SCORE:    0.00 PKD
ROOT
HETATM    1  C   UNL     1      -6.205  11.945  68.383  1.00  0.00    -0.050 C  
HETATM    2  O   UNL     1      -7.148  12.400  67.409  1.00  0.00    -0.135 OA 
ENDROOT
BRANCH   2   3
HETATM    3  C   UNL     1      -8.430  12.543  67.882  1.00  0.00    -0.171 A  
HETATM    4  C   UNL     1      -9.142  11.407  68.309  1.00  0.00    -0.179 A  
HETATM    5  C   UNL     1     -10.474  11.462  68.697  1.00  0.00    -0.201 A  
HETATM    6  C   UNL     1     -11.076  12.723  68.679  1.00  0.00    -0.304 A  
HETATM    7  C   UNL     1     -10.383  13.892  68.324  1.00  0.00    -0.249 A  
HETATM    8  C   UNL     1      -9.024  13.819  67.950  1.00  0.00    -0.193 A  
BRANCH   5   9
HETATM    9  N   UNL     1     -11.218  10.336  69.067  1.00  0.00    -0.333 NA 
HETATM   10  H   UNL     1     -12.083  10.568  69.554  1.00  0.00     0.000 HD 
BRANCH   9  11
HETATM   11  C   UNL     1     -11.026   8.963  68.912  1.00  0.00     0.080 A  
HETATM   12  N   UNL     1     -10.699   8.595  67.665  1.00  0.00    -0.189 NA 
HETATM   13  N   UNL     1     -11.157   8.083  69.928  1.00  0.00    -0.170 NA 
HETATM   14  C   UNL     1     -10.957   6.761  69.688  1.00  0.00    -0.288 A  
HETATM   15  F   UNL     1     -10.260   5.051  68.168  1.00  0.00    -0.217 F  
HETATM   16  C   UNL     1     -10.470   7.281  67.458  1.00  0.00    -0.266 A  
HETATM   17  C   UNL     1     -10.551   6.328  68.445  1.00  0.00    -0.260 A  
BRANCH  14  18
HETATM   18  N   UNL     1     -11.114   5.917  70.801  1.00  0.00    -0.282 NA 
HETATM   19  H   UNL     1     -12.057   5.914  71.190  1.00  0.00     0.000 HD 
BRANCH  18  20
HETATM   20  C   UNL     1     -10.207   5.072  71.479  1.00  0.00    -0.204 A  
HETATM   21  N   UNL     1      -8.983   5.486  71.874  1.00  0.00    -0.135 NA 
HETATM   22  C   UNL     1      -8.186   4.640  72.596  1.00  0.00    -0.107 A  
HETATM   23  C   UNL     1      -8.552   3.323  72.862  1.00  0.00    -0.081 A  
HETATM   24  O   UNL     1      -7.742   2.406  73.482  1.00  0.00    -0.044 OA 
HETATM   25  C   UNL     1      -9.803   2.894  72.453  1.00  0.00    -0.228 A  
HETATM   26  C   UNL     1      -6.362   2.761  73.455  1.00  0.00    -0.016 C  
HETATM   27  C   UNL     1     -10.631   3.771  71.756  1.00  0.00     0.301 A  
HETATM   28  C   UNL     1      -6.113   4.231  73.823  1.00  0.00    -0.028 C  
HETATM   29  C   UNL     1      -5.605   1.845  74.422  1.00  0.00     0.000 C  
HETATM   30  C   UNL     1      -5.769   2.569  72.035  1.00  0.00    -0.008 C  
HETATM   31  N   UNL     1      -6.957   5.096  73.146  1.00  0.00    -0.074 N  
HETATM   32  O   UNL     1      -5.154   4.612  74.491  1.00  0.00    -0.008 OA 
BRANCH  31  33
HETATM   33  C   UNL     1      -6.441   6.396  72.874  1.00  0.00    -0.064 C  
BRANCH  33  34
HETATM   34  O   UNL     1      -5.478   6.316  71.873  1.00  0.00    -0.026 OA 
HETATM   35  P   UNL     1      -6.219   6.549  70.326  1.00  0.00    -0.037 P  
HETATM   36  O   UNL     1      -5.231   5.323  69.887  1.00  0.00    -0.003 OA 
HETATM   37  O   UNL     1      -5.134   7.759  70.169  1.00  0.00    -0.023 OA 
HETATM   38  O   UNL     1      -6.880   6.757  68.942  1.00  0.00    -0.060 OA 
ENDBRANCH  33  34
ENDBRANCH  31  33
ENDBRANCH  18  20
ENDBRANCH  14  18
ENDBRANCH   9  11
ENDBRANCH   5   9
BRANCH   7  39
HETATM   39  O   UNL     1     -11.207  14.991  68.348  1.00  0.00    -0.267 OA 
HETATM   40  C   UNL     1     -11.428  15.692  69.560  1.00  0.00    -0.344 C  
ENDBRANCH   7  39
BRANCH   8  41
HETATM   41  O   UNL     1      -8.404  15.014  67.722  1.00  0.00    -0.138 OA 
HETATM   42  C   UNL     1      -7.650  15.701  68.705  1.00  0.00    -0.143 C  
ENDBRANCH   8  41
ENDBRANCH   2   3
TORSDOF 9
ENDMDL
MODEL      210
REMARK 921   NORMALIZED FREE ENERGY PREDICTED BY IDOCK:   -2.78 KCAL/MOL
REMARK 922        TOTAL FREE ENERGY PREDICTED BY IDOCK:   -6.11 KCAL/MOL
REMARK 923 INTER-LIGAND FREE ENERGY PREDICTED BY IDOCK:   -4.81 KCAL/MOL
REMARK 924 INTRA-LIGAND FREE ENERGY PREDICTED BY IDOCK:   -1.30 KCAL/MOL
REMARK 927      BINDING AFFINITY PREDICTED BY RF-SCORE:    0.00 PKD
ROOT
HETATM    1  C   UNL     1      -5.957  13.609  67.556  1.00  0.00     0.017 C  
HETATM    2  O   UNL     1      -6.606  14.747  66.981  1.00  0.00    -0.143 OA 
ENDROOT
BRANCH   2   3
HETATM    3  C   UNL     1      -7.664  15.228  67.711  1.00  0.00    -0.149 A  
HETATM    4  C   UNL     1      -8.718  14.362  68.058  1.00  0.00    -0.170 A  
HETATM    5  C   UNL     1      -9.868  14.803  68.700  1.00  0.00    -0.225 A  
HETATM    6  C   UNL     1      -9.916  16.161  69.026  1.00  0.00    -0.242 A  
HETATM    7  C   UNL     1      -8.859  17.046  68.759  1.00  0.00    -0.244 A  
HETATM    8  C   UNL     1      -7.691  16.576  68.120  1.00  0.00    -0.166 A  
BRANCH   5   9
HETATM    9  N   UNL     1     -10.952  13.972  69.000  1.00  0.00    -0.257 NA 
HETATM   10  H   UNL     1     -11.738  14.470  69.417  1.00  0.00     0.000 HD 
BRANCH   9  11
HETATM   11  C   UNL     1     -11.187  12.605  68.849  1.00  0.00    -0.280 A  
HETATM   12  N   UNL     1     -11.347  12.216  67.576  1.00  0.00    -0.303 NA 
HETATM   13  N   UNL     1     -11.246  11.750  69.892  1.00  0.00    -0.101 NA 
HETATM   14  C   UNL     1     -11.483  10.434  69.656  1.00  0.00    -0.262 A  
HETATM   15  F   UNL     1     -11.741   8.664  68.067  1.00  0.00     0.697 F  
HETATM   16  C   UNL     1     -11.547  10.898  67.363  1.00  0.00     0.063 A  
HETATM   17  C   UNL     1     -11.588   9.960  68.367  1.00  0.00     0.330 A  
BRANCH  14  18
HETATM   18  N   UNL     1     -11.528   9.616  70.798  1.00  0.00    -0.302 NA 
HETATM   19  H   UNL     1     -12.094   9.993  71.558  1.00  0.00     0.000 HD 
BRANCH  18  20
HETATM   20  C   UNL     1     -10.934   8.366  71.088  1.00  0.00    -0.244 A  
HETATM   21  N   UNL     1      -9.629   8.109  70.851  1.00  0.00    -0.160 NA 
HETATM   22  C   UNL     1      -9.101   6.904  71.228  1.00  0.00    -0.149 A  
HETATM   23  C   UNL     1      -9.884   5.887  71.767  1.00  0.00    -0.163 A  
HETATM   24  O   UNL     1      -9.424   4.627  72.055  1.00  0.00    -0.134 OA 
HETATM   25  C   UNL     1     -11.224   6.145  72.005  1.00  0.00    -0.335 A  
HETATM   26  C   UNL     1      -8.213   4.299  71.379  1.00  0.00    -0.083 C  
HETATM   27  C   UNL     1     -11.750   7.389  71.660  1.00  0.00    -0.311 A  
HETATM   28  C   UNL     1      -7.169   5.424  71.440  1.00  0.00    -0.072 C  
HETATM   29  C   UNL     1      -7.641   3.021  72.001  1.00  0.00    -0.053 C  
HETATM   30  C   UNL     1      -8.473   4.037  69.874  1.00  0.00    -0.089 C  
HETATM   31  N   UNL     1      -7.704   6.661  71.122  1.00  0.00    -0.096 N  
HETATM   32  O   UNL     1      -5.962   5.225  71.568  1.00  0.00    -0.022 OA 
BRANCH  31  33
HETATM   33  C   UNL     1      -6.816   7.594  70.514  1.00  0.00    -0.047 C  
BRANCH  33  34
HETATM   34  O   UNL     1      -6.335   7.069  69.318  1.00  0.00    -0.033 OA 
HETATM   35  P   UNL     1      -6.861   8.047  67.991  1.00  0.00    -0.075 P  
HETATM   36  O   UNL     1      -7.118   6.599  67.280  1.00  0.00    -0.075 OA 
HETATM   37  O   UNL     1      -5.268   8.167  67.657  1.00  0.00    -0.031 OA 
HETATM   38  O   UNL     1      -7.332   8.922  66.805  1.00  0.00    -0.081 OA 
ENDBRANCH  33  34
ENDBRANCH  31  33
ENDBRANCH  18  20
ENDBRANCH  14  18
ENDBRANCH   9  11
ENDBRANCH   5   9
BRANCH   7  39
HETATM   39  O   UNL     1      -9.170  18.330  69.138  1.00  0.00    -0.122 OA 
HETATM   40  C   UNL     1      -9.409  19.326  68.158  1.00  0.00    -0.342 C  
ENDBRANCH   7  39
BRANCH   8  41
HETATM   41  O   UNL     1      -6.676  17.481  67.994  1.00  0.00    -0.174 OA 
HETATM   42  C   UNL     1      -6.294  18.057  66.758  1.00  0.00    -0.181 C  
ENDBRANCH   8  41
ENDBRANCH   2   3
TORSDOF 9
ENDMDL
MODEL      211
REMARK 921   NORMALIZED FREE ENERGY PREDICTED BY IDOCK:   -2.69 KCAL/MOL
REMARK 922        TOTAL FREE ENERGY PREDICTED BY IDOCK:   -5.97 KCAL/MOL
REMARK 923 INTER-LIGAND FREE ENERGY PREDICTED BY IDOCK:   -4.63 KCAL/MOL
REMARK 924 INTRA-LIGAND FREE ENERGY PREDICTED BY IDOCK:   -1.34 KCAL/MOL
REMARK 927      BINDING AFFINITY PREDICTED BY RF-SCORE:    0.00 PKD
ROOT
HETATM    1  C   UNL     1      -9.424  17.200  70.282  1.00  0.00     2.131 C  
HETATM    2  O   UNL     1      -8.404  17.180  69.281  1.00  0.00    -0.071 OA 
ENDROOT
BRANCH   2   3
HETATM    3  C   UNL     1      -8.470  16.110  68.422  1.00  0.00    -0.184 A  
HETATM    4  C   UNL     1      -9.635  15.905  67.659  1.00  0.00    -0.221 A  
HETATM    5  C   UNL     1      -9.814  14.788  66.853  1.00  0.00    -0.243 A  
HETATM    6  C   UNL     1      -8.753  13.881  66.803  1.00  0.00    -0.119 A  
HETATM    7  C   UNL     1      -7.547  14.081  67.495  1.00  0.00    -0.180 A  
HETATM    8  C   UNL     1      -7.377  15.231  68.296  1.00  0.00    -0.112 A  
BRANCH   5   9
HETATM    9  N   UNL     1     -10.987  14.535  66.134  1.00  0.00    -0.315 NA 
HETATM   10  H   UNL     1     -11.737  15.194  66.342  1.00  0.00     0.000 HD 
BRANCH   9  11
HETATM   11  C   UNL     1     -11.350  13.570  65.193  1.00  0.00    -0.301 A  
HETATM   12  N   UNL     1     -12.624  13.657  64.786  1.00  0.00    -0.644 NA 
HETATM   13  N   UNL     1     -10.493  12.634  64.733  1.00  0.00    -0.307 NA 
HETATM   14  C   UNL     1     -10.930  11.729  63.820  1.00  0.00    -0.429 A  
HETATM   15  F   UNL     1     -12.670  10.998  62.351  1.00  0.00     0.438 F  
HETATM   16  C   UNL     1     -13.027  12.770  63.852  1.00  0.00     0.093 A  
HETATM   17  C   UNL     1     -12.208  11.809  63.310  1.00  0.00    -0.285 A  
BRANCH  14  18
HETATM   18  N   UNL     1      -9.973  10.792  63.395  1.00  0.00    -0.416 NA 
HETATM   19  H   UNL     1      -9.731  10.863  62.407  1.00  0.00     0.000 HD 
BRANCH  18  20
HETATM   20  C   UNL     1      -9.284   9.768  64.085  1.00  0.00    -0.224 A  
HETATM   21  N   UNL     1      -9.652   9.344  65.313  1.00  0.00    -0.244 NA 
HETATM   22  C   UNL     1      -8.989   8.295  65.891  1.00  0.00    -0.163 A  
HETATM   23  C   UNL     1      -7.878   7.702  65.296  1.00  0.00    -0.122 A  
HETATM   24  O   UNL     1      -7.114   6.727  65.884  1.00  0.00    -0.066 OA 
HETATM   25  C   UNL     1      -7.494   8.140  64.039  1.00  0.00    -0.115 A  
HETATM   26  C   UNL     1      -7.274   6.661  67.299  1.00  0.00    -0.085 C  
HETATM   27  C   UNL     1      -8.198   9.180  63.434  1.00  0.00    -0.178 A  
HETATM   28  C   UNL     1      -8.744   6.718  67.740  1.00  0.00    -0.120 C  
HETATM   29  C   UNL     1      -6.628   5.365  67.801  1.00  0.00    -0.053 C  
HETATM   30  C   UNL     1      -6.573   7.857  67.992  1.00  0.00    -0.056 C  
HETATM   31  N   UNL     1      -9.445   7.736  67.115  1.00  0.00    -0.147 N  
HETATM   32  O   UNL     1      -9.199   6.063  68.676  1.00  0.00    -0.116 OA 
BRANCH  31  33
HETATM   33  C   UNL     1     -10.521   8.307  67.855  1.00  0.00    -0.198 C  
BRANCH  33  34
HETATM   34  O   UNL     1     -10.062   9.409  68.569  1.00  0.00    -0.174 OA 
HETATM   35  P   UNL     1     -10.576   9.298  70.218  1.00  0.00    -0.275 P  
HETATM   36  O   UNL     1     -10.873  10.893  70.029  1.00  0.00    -0.215 OA 
HETATM   37  O   UNL     1      -8.983   9.419  70.554  1.00  0.00    -0.235 OA 
HETATM   38  O   UNL     1     -11.036   9.198  71.692  1.00  0.00    -0.335 OA 
ENDBRANCH  33  34
ENDBRANCH  31  33
ENDBRANCH  18  20
ENDBRANCH  14  18
ENDBRANCH   9  11
ENDBRANCH   5   9
BRANCH   7  39
HETATM   39  O   UNL     1      -6.683  13.028  67.314  1.00  0.00    -0.148 OA 
HETATM   40  C   UNL     1      -7.128  11.841  66.677  1.00  0.00     0.026 C  
ENDBRANCH   7  39
BRANCH   8  41
HETATM   41  O   UNL     1      -6.139  15.395  68.847  1.00  0.00    -0.096 OA 
HETATM   42  C   UNL     1      -5.482  16.648  68.931  1.00  0.00    -0.127 C  
ENDBRANCH   8  41
ENDBRANCH   2   3
TORSDOF 9
ENDMDL
MODEL      212
REMARK 921   NORMALIZED FREE ENERGY PREDICTED BY IDOCK:   -2.59 KCAL/MOL
REMARK 922        TOTAL FREE ENERGY PREDICTED BY IDOCK:   -5.81 KCAL/MOL
REMARK 923 INTER-LIGAND FREE ENERGY PREDICTED BY IDOCK:   -6.05 KCAL/MOL
REMARK 924 INTRA-LIGAND FREE ENERGY PREDICTED BY IDOCK:    0.23 KCAL/MOL
REMARK 927      BINDING AFFINITY PREDICTED BY RF-SCORE:    0.00 PKD
ROOT
HETATM    1  C   UNL     1     -10.550  13.125  66.688  1.00  0.00    -0.279 C  
HETATM    2  O   UNL     1     -11.714  12.433  67.145  1.00  0.00    -0.366 OA 
ENDROOT
BRANCH   2   3
HETATM    3  C   UNL     1     -11.959  12.557  68.491  1.00  0.00    -0.219 A  
HETATM    4  C   UNL     1     -12.559  11.491  69.187  1.00  0.00     0.398 A  
HETATM    5  C   UNL     1     -12.933  11.586  70.521  1.00  0.00     0.119 A  
HETATM    6  C   UNL     1     -12.649  12.794  71.163  1.00  0.00    -0.365 A  
HETATM    7  C   UNL     1     -11.991  13.859  70.524  1.00  0.00    -0.314 A  
HETATM    8  C   UNL     1     -11.603  13.738  69.172  1.00  0.00    -0.317 A  
BRANCH   5   9
HETATM    9  N   UNL     1     -13.585  10.561  71.215  1.00  0.00    -0.043 NA 
HETATM   10  H   UNL     1     -14.532  10.807  71.500  1.00  0.00     0.000 HD 
BRANCH   9  11
HETATM   11  C   UNL     1     -13.213   9.273  71.601  1.00  0.00    -0.388 A  
HETATM   12  N   UNL     1     -14.236   8.410  71.678  1.00  0.00    -0.436 NA 
HETATM   13  N   UNL     1     -11.936   8.926  71.871  1.00  0.00    -0.348 NA 
HETATM   14  C   UNL     1     -11.662   7.649  72.244  1.00  0.00    -0.324 A  
HETATM   15  F   UNL     1     -12.438   5.409  72.556  1.00  0.00    -0.242 F  
HETATM   16  C   UNL     1     -13.935   7.138  72.017  1.00  0.00    -0.119 A  
HETATM   17  C   UNL     1     -12.659   6.699  72.275  1.00  0.00    -0.017 A  
BRANCH  14  18
HETATM   18  N   UNL     1     -10.309   7.376  72.505  1.00  0.00    -0.212 NA 
HETATM   19  H   UNL     1     -10.003   7.647  73.440  1.00  0.00     0.000 HD 
BRANCH  18  20
HETATM   20  C   UNL     1      -9.293   6.795  71.712  1.00  0.00    -0.147 A  
HETATM   21  N   UNL     1      -9.561   6.061  70.611  1.00  0.00    -0.171 NA 
HETATM   22  C   UNL     1      -8.529   5.593  69.844  1.00  0.00    -0.121 A  
HETATM   23  C   UNL     1      -7.196   5.767  70.210  1.00  0.00    -0.075 A  
HETATM   24  O   UNL     1      -6.133   5.223  69.537  1.00  0.00    -0.020 OA 
HETATM   25  C   UNL     1      -6.918   6.514  71.342  1.00  0.00    -0.075 A  
HETATM   26  C   UNL     1      -6.495   4.129  68.697  1.00  0.00    -0.037 C  
HETATM   27  C   UNL     1      -7.972   7.026  72.098  1.00  0.00    -0.093 A  
HETATM   28  C   UNL     1      -7.748   4.410  67.855  1.00  0.00    -0.080 C  
HETATM   29  C   UNL     1      -5.310   3.808  67.781  1.00  0.00    -0.016 C  
HETATM   30  C   UNL     1      -6.818   2.868  69.539  1.00  0.00    -0.034 C  
HETATM   31  N   UNL     1      -8.782   4.943  68.606  1.00  0.00    -0.093 N  
HETATM   32  O   UNL     1      -7.886   4.029  66.693  1.00  0.00    -0.091 OA 
BRANCH  31  33
HETATM   33  C   UNL     1     -10.103   4.638  68.167  1.00  0.00    -0.002 C  
BRANCH  33  34
HETATM   34  O   UNL     1     -10.414   5.413  67.054  1.00  0.00    -0.238 OA 
HETATM   35  P   UNL     1     -10.118   7.083  67.400  1.00  0.00    -0.249 P  
HETATM   36  O   UNL     1     -11.531   7.296  66.606  1.00  0.00     0.562 OA 
HETATM   37  O   UNL     1      -9.148   7.016  66.088  1.00  0.00    -0.162 OA 
HETATM   38  O   UNL     1      -9.854   8.577  67.708  1.00  0.00    -0.159 OA 
ENDBRANCH  33  34
ENDBRANCH  31  33
ENDBRANCH  18  20
ENDBRANCH  14  18
ENDBRANCH   9  11
ENDBRANCH   5   9
BRANCH   7  39
HETATM   39  O   UNL     1     -11.868  14.945  71.356  1.00  0.00    -0.321 OA 
HETATM   40  C   UNL     1     -12.624  15.016  72.554  1.00  0.00    -0.357 C  
ENDBRANCH   7  39
BRANCH   8  41
HETATM   41  O   UNL     1     -10.879  14.778  68.665  1.00  0.00    -0.238 OA 
HETATM   42  C   UNL     1     -11.377  16.101  68.570  1.00  0.00    -0.359 C  
ENDBRANCH   8  41
ENDBRANCH   2   3
TORSDOF 9
ENDMDL
MODEL      213
REMARK 921   NORMALIZED FREE ENERGY PREDICTED BY IDOCK:   -2.46 KCAL/MOL
REMARK 922        TOTAL FREE ENERGY PREDICTED BY IDOCK:   -5.62 KCAL/MOL
REMARK 923 INTER-LIGAND FREE ENERGY PREDICTED BY IDOCK:   -6.25 KCAL/MOL
REMARK 924 INTRA-LIGAND FREE ENERGY PREDICTED BY IDOCK:    0.64 KCAL/MOL
REMARK 927      BINDING AFFINITY PREDICTED BY RF-SCORE:    0.00 PKD
ROOT
HETATM    1  C   UNL     1      -5.306  19.437  71.881  1.00  0.00    -0.312 C  
HETATM    2  O   UNL     1      -5.693  18.094  71.581  1.00  0.00     0.213 OA 
ENDROOT
BRANCH   2   3
HETATM    3  C   UNL     1      -5.979  17.866  70.258  1.00  0.00    -0.044 A  
HETATM    4  C   UNL     1      -6.609  16.665  69.882  1.00  0.00     0.053 A  
HETATM    5  C   UNL     1      -6.831  16.321  68.554  1.00  0.00    -0.137 A  
HETATM    6  C   UNL     1      -6.428  17.253  67.594  1.00  0.00    -0.166 A  
HETATM    7  C   UNL     1      -5.857  18.492  67.929  1.00  0.00    -0.175 A  
HETATM    8  C   UNL     1      -5.655  18.832  69.284  1.00  0.00    -0.210 A  
BRANCH   5   9
HETATM    9  N   UNL     1      -7.401  15.107  68.156  1.00  0.00    -0.105 NA 
HETATM   10  H   UNL     1      -6.995  14.299  68.628  1.00  0.00     0.000 HD 
BRANCH   9  11
HETATM   11  C   UNL     1      -8.405  14.766  67.250  1.00  0.00    -0.212 A  
HETATM   12  N   UNL     1      -8.938  15.815  66.607  1.00  0.00    -0.253 NA 
HETATM   13  N   UNL     1      -8.804  13.494  67.039  1.00  0.00    -0.224 NA 
HETATM   14  C   UNL     1      -9.794  13.251  66.141  1.00  0.00    -0.280 A  
HETATM   15  F   UNL     1     -11.252  14.093  64.442  1.00  0.00    -0.367 F  
HETATM   16  C   UNL     1      -9.895  15.547  65.694  1.00  0.00    -0.342 A  
HETATM   17  C   UNL     1     -10.334  14.278  65.398  1.00  0.00    -0.370 A  
BRANCH  14  18
HETATM   18  N   UNL     1     -10.146  11.900  65.983  1.00  0.00    -0.224 NA 
HETATM   19  H   UNL     1     -11.074  11.669  66.337  1.00  0.00     0.000 HD 
BRANCH  18  20
HETATM   20  C   UNL     1      -9.451  10.803  65.426  1.00  0.00    -0.214 A  
HETATM   21  N   UNL     1      -8.843   9.865  66.185  1.00  0.00    -0.141 NA 
HETATM   22  C   UNL     1      -8.255   8.787  65.581  1.00  0.00    -0.121 A  
HETATM   23  C   UNL     1      -8.177   8.663  64.196  1.00  0.00    -0.155 A  
HETATM   24  O   UNL     1      -7.502   7.662  63.546  1.00  0.00    -0.093 OA 
HETATM   25  C   UNL     1      -8.794   9.626  63.415  1.00  0.00    -0.251 A  
HETATM   26  C   UNL     1      -6.540   7.003  64.366  1.00  0.00    -0.045 C  
HETATM   27  C   UNL     1      -9.430  10.702  64.034  1.00  0.00    -0.329 A  
HETATM   28  C   UNL     1      -7.081   6.652  65.760  1.00  0.00    -0.061 C  
HETATM   29  C   UNL     1      -6.079   5.731  63.648  1.00  0.00    -0.025 C  
HETATM   30  C   UNL     1      -5.303   7.907  64.602  1.00  0.00    -0.033 C  
HETATM   31  N   UNL     1      -7.734   7.716  66.358  1.00  0.00    -0.088 N  
HETATM   32  O   UNL     1      -6.802   5.612  66.355  1.00  0.00    -0.056 OA 
BRANCH  31  33
HETATM   33  C   UNL     1      -7.686   7.767  67.781  1.00  0.00    -0.122 C  
BRANCH  33  34
HETATM   34  O   UNL     1      -6.548   8.459  68.185  1.00  0.00    -0.058 OA 
HETATM   35  P   UNL     1      -6.818   9.181  69.735  1.00  0.00    -0.059 P  
HETATM   36  O   UNL     1      -6.043  10.451  69.060  1.00  0.00    -0.041 OA 
HETATM   37  O   UNL     1      -5.492   8.337  70.178  1.00  0.00    -0.023 OA 
HETATM   38  O   UNL     1      -7.059   9.826  71.121  1.00  0.00    -0.332 OA 
ENDBRANCH  33  34
ENDBRANCH  31  33
ENDBRANCH  18  20
ENDBRANCH  14  18
ENDBRANCH   9  11
ENDBRANCH   5   9
BRANCH   7  39
HETATM   39  O   UNL     1      -5.513  19.206  66.806  1.00  0.00    -0.159 OA 
HETATM   40  C   UNL     1      -5.819  18.700  65.517  1.00  0.00    -0.217 C  
ENDBRANCH   7  39
BRANCH   8  41
HETATM   41  O   UNL     1      -5.192  20.094  69.519  1.00  0.00    -0.196 OA 
HETATM   42  C   UNL     1      -5.410  21.181  68.636  1.00  0.00    -0.279 C  
ENDBRANCH   8  41
ENDBRANCH   2   3
TORSDOF 9
ENDMDL
MODEL      214
REMARK 921   NORMALIZED FREE ENERGY PREDICTED BY IDOCK:   -2.45 KCAL/MOL
REMARK 922        TOTAL FREE ENERGY PREDICTED BY IDOCK:   -5.60 KCAL/MOL
REMARK 923 INTER-LIGAND FREE ENERGY PREDICTED BY IDOCK:   -7.67 KCAL/MOL
REMARK 924 INTRA-LIGAND FREE ENERGY PREDICTED BY IDOCK:    2.07 KCAL/MOL
REMARK 927      BINDING AFFINITY PREDICTED BY RF-SCORE:    0.00 PKD
ROOT
HETATM    1  C   UNL     1      -5.726   4.251  68.699  1.00  0.00    -0.021 C  
HETATM    2  O   UNL     1      -6.248   5.577  68.806  1.00  0.00    -0.030 OA 
ENDROOT
BRANCH   2   3
HETATM    3  C   UNL     1      -7.608   5.669  68.636  1.00  0.00    -0.088 A  
HETATM    4  C   UNL     1      -8.365   6.455  69.524  1.00  0.00    -0.126 A  
HETATM    5  C   UNL     1      -9.753   6.509  69.479  1.00  0.00    -0.151 A  
HETATM    6  C   UNL     1     -10.371   5.763  68.471  1.00  0.00    -0.274 A  
HETATM    7  C   UNL     1      -9.649   5.019  67.523  1.00  0.00    -0.145 A  
HETATM    8  C   UNL     1      -8.239   4.990  67.575  1.00  0.00    -0.106 A  
BRANCH   5   9
HETATM    9  N   UNL     1     -10.528   7.235  70.389  1.00  0.00    -0.216 NA 
HETATM   10  H   UNL     1     -10.763   6.706  71.228  1.00  0.00     0.000 HD 
BRANCH   9  11
HETATM   11  C   UNL     1     -11.047   8.530  70.391  1.00  0.00    -0.231 A  
HETATM   12  N   UNL     1     -12.227   8.643  71.017  1.00  0.00    -0.234 NA 
HETATM   13  N   UNL     1     -10.416   9.576  69.816  1.00  0.00    -0.217 NA 
HETATM   14  C   UNL     1     -10.996  10.803  69.860  1.00  0.00    -0.239 A  
HETATM   15  F   UNL     1     -12.750  12.197  70.697  1.00  0.00    -0.339 F  
HETATM   16  C   UNL     1     -12.767   9.879  71.080  1.00  0.00    -0.366 A  
HETATM   17  C   UNL     1     -12.173  10.998  70.548  1.00  0.00    -0.381 A  
BRANCH  14  18
HETATM   18  N   UNL     1     -10.271  11.834  69.237  1.00  0.00    -0.416 NA 
HETATM   19  H   UNL     1      -9.367  11.541  68.866  1.00  0.00     0.000 HD 
BRANCH  18  20
HETATM   20  C   UNL     1     -10.565  13.201  69.029  1.00  0.00    -0.056 A  
HETATM   21  N   UNL     1      -9.861  13.974  68.174  1.00  0.00    -0.228 NA 
HETATM   22  C   UNL     1     -10.248  15.269  67.962  1.00  0.00    -0.230 A  
HETATM   23  C   UNL     1     -11.294  15.856  68.671  1.00  0.00    -0.376 A  
HETATM   24  O   UNL     1     -11.646  17.178  68.575  1.00  0.00     0.194 OA 
HETATM   25  C   UNL     1     -12.013  15.068  69.553  1.00  0.00    -0.346 A  
HETATM   26  C   UNL     1     -10.615  18.000  68.032  1.00  0.00    -0.347 C  
HETATM   27  C   UNL     1     -11.644  13.736  69.735  1.00  0.00    -0.324 A  
HETATM   28  C   UNL     1      -9.957  17.391  66.786  1.00  0.00    -0.307 C  
HETATM   29  C   UNL     1     -11.215  19.368  67.691  1.00  0.00     0.029 C  
HETATM   30  C   UNL     1      -9.474  18.209  69.061  1.00  0.00    -0.130 C  
HETATM   31  N   UNL     1      -9.617  16.060  66.964  1.00  0.00    -0.217 N  
HETATM   32  O   UNL     1      -9.599  18.053  65.813  1.00  0.00    -0.505 OA 
BRANCH  31  33
HETATM   33  C   UNL     1      -8.485  15.596  66.233  1.00  0.00    -0.152 C  
BRANCH  33  34
HETATM   34  O   UNL     1      -7.344  15.703  67.021  1.00  0.00    -0.212 OA 
HETATM   35  P   UNL     1      -6.552  17.209  66.707  1.00  0.00    -0.251 P  
HETATM   36  O   UNL     1      -5.203  16.288  66.768  1.00  0.00    -0.338 OA 
HETATM   37  O   UNL     1      -6.717  17.446  68.314  1.00  0.00    -0.173 OA 
HETATM   38  O   UNL     1      -5.843  18.556  66.427  1.00  0.00    -0.147 OA 
ENDBRANCH  33  34
ENDBRANCH  31  33
ENDBRANCH  18  20
ENDBRANCH  14  18
ENDBRANCH   9  11
ENDBRANCH   5   9
BRANCH   7  39
HETATM   39  O   UNL     1     -10.489   4.346  66.669  1.00  0.00    -0.111 OA 
HETATM   40  C   UNL     1     -11.079   5.020  65.569  1.00  0.00     0.297 C  
ENDBRANCH   7  39
BRANCH   8  41
HETATM   41  O   UNL     1      -7.619   4.328  66.555  1.00  0.00    -0.087 OA 
HETATM   42  C   UNL     1      -7.352   4.914  65.293  1.00  0.00    -0.072 C  
ENDBRANCH   8  41
ENDBRANCH   2   3
TORSDOF 9
ENDMDL
MODEL      215
REMARK 921   NORMALIZED FREE ENERGY PREDICTED BY IDOCK:   -1.87 KCAL/MOL
REMARK 922        TOTAL FREE ENERGY PREDICTED BY IDOCK:   -4.72 KCAL/MOL
REMARK 923 INTER-LIGAND FREE ENERGY PREDICTED BY IDOCK:   -3.78 KCAL/MOL
REMARK 924 INTRA-LIGAND FREE ENERGY PREDICTED BY IDOCK:   -0.94 KCAL/MOL
REMARK 927      BINDING AFFINITY PREDICTED BY RF-SCORE:    0.00 PKD
ROOT
HETATM    1  C   UNL     1     -10.264   1.912  70.087  1.00  0.00     0.866 C  
HETATM    2  O   UNL     1      -8.856   1.673  70.155  1.00  0.00    -0.051 OA 
ENDROOT
BRANCH   2   3
HETATM    3  C   UNL     1      -8.078   2.781  69.924  1.00  0.00    -0.041 A  
HETATM    4  C   UNL     1      -8.269   3.936  70.704  1.00  0.00    -0.077 A  
HETATM    5  C   UNL     1      -7.595   5.126  70.456  1.00  0.00    -0.071 A  
HETATM    6  C   UNL     1      -6.677   5.112  69.403  1.00  0.00    -0.052 A  
HETATM    7  C   UNL     1      -6.407   3.962  68.643  1.00  0.00    -0.033 A  
HETATM    8  C   UNL     1      -7.089   2.758  68.921  1.00  0.00    -0.044 A  
BRANCH   5   9
HETATM    9  N   UNL     1      -7.814   6.302  71.180  1.00  0.00    -0.109 NA 
HETATM   10  H   UNL     1      -8.551   6.213  71.879  1.00  0.00     0.000 HD 
BRANCH   9  11
HETATM   11  C   UNL     1      -7.237   7.572  71.149  1.00  0.00    -0.063 A  
HETATM   12  N   UNL     1      -6.588   7.904  72.274  1.00  0.00    -0.059 NA 
HETATM   13  N   UNL     1      -7.323   8.392  70.081  1.00  0.00    -0.057 NA 
HETATM   14  C   UNL     1      -6.735   9.616  70.137  1.00  0.00    -0.089 A  
HETATM   15  F   UNL     1      -5.327  11.145  71.319  1.00  0.00    -0.104 F  
HETATM   16  C   UNL     1      -5.981   9.110  72.294  1.00  0.00     0.001 A  
HETATM   17  C   UNL     1      -5.996   9.988  71.238  1.00  0.00     0.032 A  
BRANCH  14  18
HETATM   18  N   UNL     1      -6.874  10.404  68.982  1.00  0.00    -0.060 NA 
HETATM   19  H   UNL     1      -5.993  10.767  68.618  1.00  0.00     0.000 HD 
BRANCH  18  20
HETATM   20  C   UNL     1      -8.010  10.786  68.231  1.00  0.00    -0.118 A  
HETATM   21  N   UNL     1      -8.045  10.723  66.883  1.00  0.00    -0.127 NA 
HETATM   22  C   UNL     1      -9.203  11.034  66.224  1.00  0.00    -0.182 A  
HETATM   23  C   UNL     1     -10.331  11.508  66.890  1.00  0.00    -0.223 A  
HETATM   24  O   UNL     1     -11.474  11.938  66.266  1.00  0.00    -0.350 OA 
HETATM   25  C   UNL     1     -10.296  11.580  68.272  1.00  0.00    -0.211 A  
HETATM   26  C   UNL     1     -11.279  12.266  64.892  1.00  0.00    -0.319 C  
HETATM   27  C   UNL     1      -9.129  11.221  68.944  1.00  0.00    -0.064 A  
HETATM   28  C   UNL     1     -10.458  11.211  64.135  1.00  0.00    -0.377 C  
HETATM   29  C   UNL     1     -12.652  12.432  64.232  1.00  0.00    -0.494 C  
HETATM   30  C   UNL     1     -10.502  13.599  64.746  1.00  0.00    -0.436 C  
HETATM   31  N   UNL     1      -9.314  10.840  64.820  1.00  0.00    -0.213 N  
HETATM   32  O   UNL     1     -10.686  10.877  62.974  1.00  0.00    -0.032 OA 
BRANCH  31  33
HETATM   33  C   UNL     1      -8.204  10.437  64.022  1.00  0.00    -0.117 C  
BRANCH  33  34
HETATM   34  O   UNL     1      -8.262   9.064  63.803  1.00  0.00    -0.156 OA 
HETATM   35  P   UNL     1      -6.803   8.317  64.361  1.00  0.00    -0.070 P  
HETATM   36  O   UNL     1      -6.943   7.460  62.977  1.00  0.00    -0.063 OA 
HETATM   37  O   UNL     1      -7.807   7.410  65.273  1.00  0.00    -0.105 OA 
HETATM   38  O   UNL     1      -5.499   7.650  64.860  1.00  0.00    -0.032 OA 
ENDBRANCH  33  34
ENDBRANCH  31  33
ENDBRANCH  18  20
ENDBRANCH  14  18
ENDBRANCH   9  11
ENDBRANCH   5   9
BRANCH   7  39
HETATM   39  O   UNL     1      -5.498   4.221  67.645  1.00  0.00    -0.015 OA 
HETATM   40  C   UNL     1      -5.937   4.719  66.392  1.00  0.00    -0.023 C  
ENDBRANCH   7  39
BRANCH   8  41
HETATM   41  O   UNL     1      -6.690   1.668  68.202  1.00  0.00    -0.031 OA 
HETATM   42  C   UNL     1      -5.361   1.477  67.749  1.00  0.00    -0.013 C  
ENDBRANCH   8  41
ENDBRANCH   2   3
TORSDOF 9
ENDMDL
MODEL      216
REMARK 921   NORMALIZED FREE ENERGY PREDICTED BY IDOCK:   -1.67 KCAL/MOL
REMARK 922        TOTAL FREE ENERGY PREDICTED BY IDOCK:   -4.42 KCAL/MOL
REMARK 923 INTER-LIGAND FREE ENERGY PREDICTED BY IDOCK:   -3.42 KCAL/MOL
REMARK 924 INTRA-LIGAND FREE ENERGY PREDICTED BY IDOCK:   -1.00 KCAL/MOL
REMARK 927      BINDING AFFINITY PREDICTED BY RF-SCORE:    0.00 PKD
ROOT
HETATM    1  C   UNL     1     -10.852   6.646  66.684  1.00  0.00    -0.114 C  
HETATM    2  O   UNL     1      -9.487   6.412  66.330  1.00  0.00    -0.163 OA 
ENDROOT
BRANCH   2   3
HETATM    3  C   UNL     1      -8.713   7.545  66.269  1.00  0.00    -0.149 A  
HETATM    4  C   UNL     1      -9.139   8.634  65.488  1.00  0.00    -0.190 A  
HETATM    5  C   UNL     1      -8.359   9.767  65.294  1.00  0.00    -0.142 A  
HETATM    6  C   UNL     1      -7.126   9.792  65.952  1.00  0.00    -0.102 A  
HETATM    7  C   UNL     1      -6.691   8.756  66.794  1.00  0.00    -0.069 A  
HETATM    8  C   UNL     1      -7.506   7.621  66.993  1.00  0.00    -0.095 A  
BRANCH   5   9
HETATM    9  N   UNL     1      -8.737  10.835  64.474  1.00  0.00    -0.318 NA 
HETATM   10  H   UNL     1      -8.035  11.071  63.773  1.00  0.00     0.000 HD 
BRANCH   9  11
HETATM   11  C   UNL     1      -9.871  11.645  64.411  1.00  0.00    -0.223 A  
HETATM   12  N   UNL     1     -10.877  11.121  63.697  1.00  0.00    -0.328 NA 
HETATM   13  N   UNL     1      -9.948  12.849  65.017  1.00  0.00    -0.196 NA 
HETATM   14  C   UNL     1     -11.089  13.576  64.901  1.00  0.00    -0.346 A  
HETATM   15  F   UNL     1     -13.360  13.695  64.160  1.00  0.00     0.424 F  
HETATM   16  C   UNL     1     -12.014  11.845  63.625  1.00  0.00    -0.476 A  
HETATM   17  C   UNL     1     -12.183  13.063  64.239  1.00  0.00    -0.396 A  
BRANCH  14  18
HETATM   18  N   UNL     1     -11.083  14.816  65.562  1.00  0.00    -0.333 NA 
HETATM   19  H   UNL     1     -12.010  15.223  65.692  1.00  0.00     0.000 HD 
BRANCH  18  20
HETATM   20  C   UNL     1     -10.030  15.603  66.081  1.00  0.00    -0.312 A  
HETATM   21  N   UNL     1      -9.590  15.483  67.352  1.00  0.00    -0.212 NA 
HETATM   22  C   UNL     1      -8.515  16.222  67.767  1.00  0.00    -0.163 A  
HETATM   23  C   UNL     1      -7.908  17.170  66.948  1.00  0.00    -0.215 A  
HETATM   24  O   UNL     1      -6.903  18.011  67.353  1.00  0.00    -0.185 OA 
HETATM   25  C   UNL     1      -8.360  17.300  65.646  1.00  0.00     0.528 A  
HETATM   26  C   UNL     1      -6.813  18.143  68.769  1.00  0.00    -0.260 C  
HETATM   27  C   UNL     1      -9.428  16.516  65.213  1.00  0.00     0.760 A  
HETATM   28  C   UNL     1      -6.896  16.797  69.503  1.00  0.00    -0.139 C  
HETATM   29  C   UNL     1      -5.492  18.843  69.109  1.00  0.00    -0.209 C  
HETATM   30  C   UNL     1      -7.978  19.004  69.321  1.00  0.00    -0.049 C  
HETATM   31  N   UNL     1      -7.943  16.011  69.050  1.00  0.00    -0.213 N  
HETATM   32  O   UNL     1      -6.234  16.525  70.504  1.00  0.00     0.106 OA 
BRANCH  31  33
HETATM   33  C   UNL     1      -8.525  15.126  70.004  1.00  0.00     0.385 C  
BRANCH  33  34
HETATM   34  O   UNL     1      -9.864  15.455  70.188  1.00  0.00    -0.221 OA 
HETATM   35  P   UNL     1     -10.814  14.012  70.301  1.00  0.00     1.008 P  
HETATM   36  O   UNL     1     -11.848  14.854  69.357  1.00  0.00    -0.298 OA 
HETATM   37  O   UNL     1     -11.288  14.629  71.736  1.00  0.00    -0.097 OA 
HETATM   38  O   UNL     1     -11.663  12.722  70.401  1.00  0.00    -0.210 OA 
ENDBRANCH  33  34
ENDBRANCH  31  33
ENDBRANCH  18  20
ENDBRANCH  14  18
ENDBRANCH   9  11
ENDBRANCH   5   9
BRANCH   7  39
HETATM   39  O   UNL     1      -5.431   9.002  67.285  1.00  0.00    -0.040 OA 
HETATM   40  C   UNL     1      -5.266   9.575  68.572  1.00  0.00    -0.033 C  
ENDBRANCH   7  39
BRANCH   8  41
HETATM   41  O   UNL     1      -7.052   6.713  67.906  1.00  0.00    -0.079 OA 
HETATM   42  C   UNL     1      -6.608   5.413  67.560  1.00  0.00    -0.053 C  
ENDBRANCH   8  41
ENDBRANCH   2   3
TORSDOF 9
ENDMDL
MODEL      217
REMARK 921   NORMALIZED FREE ENERGY PREDICTED BY IDOCK:   -1.48 KCAL/MOL
REMARK 922        TOTAL FREE ENERGY PREDICTED BY IDOCK:   -4.13 KCAL/MOL
REMARK 923 INTER-LIGAND FREE ENERGY PREDICTED BY IDOCK:   -2.71 KCAL/MOL
REMARK 924 INTRA-LIGAND FREE ENERGY PREDICTED BY IDOCK:   -1.41 KCAL/MOL
REMARK 927      BINDING AFFINITY PREDICTED BY RF-SCORE:    0.00 PKD
ROOT
HETATM    1  C   UNL     1     -10.893   5.509  68.499  1.00  0.00    -0.002 C  
HETATM    2  O   UNL     1      -9.831   4.897  69.235  1.00  0.00    -0.172 OA 
ENDROOT
BRANCH   2   3
HETATM    3  C   UNL     1      -9.155   5.749  70.074  1.00  0.00    -0.142 A  
HETATM    4  C   UNL     1      -8.687   6.980  69.581  1.00  0.00    -0.141 A  
HETATM    5  C   UNL     1      -7.905   7.842  70.340  1.00  0.00    -0.090 A  
HETATM    6  C   UNL     1      -7.631   7.441  71.650  1.00  0.00    -0.085 A  
HETATM    7  C   UNL     1      -8.134   6.252  72.204  1.00  0.00    -0.109 A  
HETATM    8  C   UNL     1      -8.941   5.398  71.422  1.00  0.00    -0.138 A  
BRANCH   5   9
HETATM    9  N   UNL     1      -7.379   9.042  69.850  1.00  0.00    -0.055 NA 
HETATM   10  H   UNL     1      -6.587   9.385  70.393  1.00  0.00     0.000 HD 
BRANCH   9  11
HETATM   11  C   UNL     1      -7.708   9.869  68.776  1.00  0.00    -0.086 A  
HETATM   12  N   UNL     1      -6.835   9.818  67.760  1.00  0.00    -0.080 NA 
HETATM   13  N   UNL     1      -8.810  10.650  68.761  1.00  0.00    -0.154 NA 
HETATM   14  C   UNL     1      -9.053  11.429  67.675  1.00  0.00    -0.155 A  
HETATM   15  F   UNL     1      -8.462  12.051  65.442  1.00  0.00     0.249 F  
HETATM   16  C   UNL     1      -7.116  10.574  66.678  1.00  0.00    -0.118 A  
HETATM   17  C   UNL     1      -8.231  11.370  66.571  1.00  0.00    -0.152 A  
BRANCH  14  18
HETATM   18  N   UNL     1     -10.220  12.210  67.743  1.00  0.00    -0.197 NA 
HETATM   19  H   UNL     1     -10.650  12.393  66.837  1.00  0.00     0.000 HD 
BRANCH  18  20
HETATM   20  C   UNL     1     -10.906  12.787  68.836  1.00  0.00    -0.196 A  
HETATM   21  N   UNL     1     -10.641  14.032  69.286  1.00  0.00    -0.136 NA 
HETATM   22  C   UNL     1     -11.396  14.559  70.297  1.00  0.00    -0.171 A  
HETATM   23  C   UNL     1     -12.379  13.820  70.951  1.00  0.00    -0.380 A  
HETATM   24  O   UNL     1     -13.084  14.264  72.040  1.00  0.00    -0.330 OA 
HETATM   25  C   UNL     1     -12.650  12.540  70.496  1.00  0.00    -0.177 A  
HETATM   26  C   UNL     1     -12.456  15.351  72.715  1.00  0.00    -0.401 C  
HETATM   27  C   UNL     1     -11.907  12.021  69.436  1.00  0.00    -0.384 A  
HETATM   28  C   UNL     1     -11.949  16.439  71.757  1.00  0.00    -0.273 C  
HETATM   29  C   UNL     1     -13.460  15.953  73.705  1.00  0.00    -0.231 C  
HETATM   30  C   UNL     1     -11.216  14.868  73.509  1.00  0.00     0.963 C  
HETATM   31  N   UNL     1     -11.235  15.915  70.692  1.00  0.00    -0.363 N  
HETATM   32  O   UNL     1     -12.004  17.642  72.004  1.00  0.00     2.190 OA 
BRANCH  31  33
HETATM   33  C   UNL     1     -10.210  16.744  70.152  1.00  0.00     0.460 C  
BRANCH  33  34
HETATM   34  O   UNL     1     -10.736  17.532  69.133  1.00  0.00    -0.204 OA 
HETATM   35  P   UNL     1      -9.591  17.667  67.843  1.00  0.00    -0.305 P  
HETATM   36  O   UNL     1     -10.074  19.228  67.839  1.00  0.00    -0.350 OA 
HETATM   37  O   UNL     1     -10.800  17.070  66.923  1.00  0.00    -0.176 OA 
HETATM   38  O   UNL     1      -8.566  17.787  66.688  1.00  0.00    -0.241 OA 
ENDBRANCH  33  34
ENDBRANCH  31  33
ENDBRANCH  18  20
ENDBRANCH  14  18
ENDBRANCH   9  11
ENDBRANCH   5   9
BRANCH   7  39
HETATM   39  O   UNL     1      -7.687   6.068  73.490  1.00  0.00    -0.099 OA 
HETATM   40  C   UNL     1      -6.508   5.319  73.736  1.00  0.00    -0.071 C  
ENDBRANCH   7  39
BRANCH   8  41
HETATM   41  O   UNL     1      -9.471   4.319  72.071  1.00  0.00    -0.124 OA 
HETATM   42  C   UNL     1      -8.934   3.012  71.977  1.00  0.00    -0.088 C  
ENDBRANCH   8  41
ENDBRANCH   2   3
TORSDOF 9
ENDMDL
MODEL      218
REMARK 921   NORMALIZED FREE ENERGY PREDICTED BY IDOCK:   -1.20 KCAL/MOL
REMARK 922        TOTAL FREE ENERGY PREDICTED BY IDOCK:   -3.69 KCAL/MOL
REMARK 923 INTER-LIGAND FREE ENERGY PREDICTED BY IDOCK:   -3.71 KCAL/MOL
REMARK 924 INTRA-LIGAND FREE ENERGY PREDICTED BY IDOCK:    0.02 KCAL/MOL
REMARK 927      BINDING AFFINITY PREDICTED BY RF-SCORE:    0.00 PKD
ROOT
HETATM    1  C   UNL     1      -9.292  16.823  70.407  1.00  0.00     2.348 C  
HETATM    2  O   UNL     1      -8.393  16.869  69.297  1.00  0.00    -0.119 OA 
ENDROOT
BRANCH   2   3
HETATM    3  C   UNL     1      -8.095  15.643  68.754  1.00  0.00    -0.169 A  
HETATM    4  C   UNL     1      -9.051  14.986  67.958  1.00  0.00    -0.178 A  
HETATM    5  C   UNL     1      -8.861  13.700  67.467  1.00  0.00    -0.205 A  
HETATM    6  C   UNL     1      -7.641  13.092  67.773  1.00  0.00    -0.155 A  
HETATM    7  C   UNL     1      -6.632  13.738  68.507  1.00  0.00    -0.099 A  
HETATM    8  C   UNL     1      -6.837  15.050  68.983  1.00  0.00    -0.118 A  
BRANCH   5   9
HETATM    9  N   UNL     1      -9.823  13.007  66.725  1.00  0.00    -0.237 NA 
HETATM   10  H   UNL     1     -10.778  13.199  67.027  1.00  0.00     0.000 HD 
BRANCH   9  11
HETATM   11  C   UNL     1      -9.753  12.108  65.661  1.00  0.00    -0.207 A  
HETATM   12  N   UNL     1     -10.595  12.385  64.656  1.00  0.00    -0.293 NA 
HETATM   13  N   UNL     1      -8.910  11.053  65.644  1.00  0.00    -0.190 NA 
HETATM   14  C   UNL     1      -8.909  10.224  64.568  1.00  0.00    -0.203 A  
HETATM   15  F   UNL     1      -9.686   9.762  62.354  1.00  0.00    -0.267 F  
HETATM   16  C   UNL     1     -10.553  11.569  63.582  1.00  0.00    -0.429 A  
HETATM   17  C   UNL     1      -9.702  10.495  63.475  1.00  0.00    -0.319 A  
BRANCH  14  18
HETATM   18  N   UNL     1      -8.002   9.153  64.634  1.00  0.00    -0.118 NA 
HETATM   19  H   UNL     1      -7.070   9.377  64.285  1.00  0.00     0.000 HD 
BRANCH  18  20
HETATM   20  C   UNL     1      -8.142   7.824  65.094  1.00  0.00    -0.137 A  
HETATM   21  N   UNL     1      -8.509   7.528  66.360  1.00  0.00    -0.125 NA 
HETATM   22  C   UNL     1      -8.703   6.221  66.717  1.00  0.00    -0.117 A  
HETATM   23  C   UNL     1      -8.443   5.168  65.844  1.00  0.00    -0.121 A  
HETATM   24  O   UNL     1      -8.514   3.842  66.189  1.00  0.00    -0.108 OA 
HETATM   25  C   UNL     1      -8.060   5.468  64.547  1.00  0.00    -0.127 A  
HETATM   26  C   UNL     1      -8.455   3.621  67.596  1.00  0.00    -0.095 C  
HETATM   27  C   UNL     1      -7.906   6.802  64.174  1.00  0.00    -0.106 A  
HETATM   28  C   UNL     1      -9.365   4.569  68.391  1.00  0.00    -0.142 C  
HETATM   29  C   UNL     1      -8.846   2.166  67.875  1.00  0.00    -0.155 C  
HETATM   30  C   UNL     1      -7.020   3.853  68.134  1.00  0.00    -0.051 C  
HETATM   31  N   UNL     1      -9.226   5.889  67.996  1.00  0.00    -0.113 N  
HETATM   32  O   UNL     1     -10.000   4.227  69.387  1.00  0.00    -0.183 OA 
BRANCH  31  33
HETATM   33  C   UNL     1      -9.455   6.875  69.000  1.00  0.00    -0.137 C  
BRANCH  33  34
HETATM   34  O   UNL     1      -9.294   8.144  68.453  1.00  0.00    -0.136 OA 
HETATM   35  P   UNL     1      -9.987   9.330  69.506  1.00  0.00    -0.212 P  
HETATM   36  O   UNL     1     -10.535   9.968  68.105  1.00  0.00    -0.186 OA 
HETATM   37  O   UNL     1      -8.496   9.996  69.472  1.00  0.00    -0.150 OA 
HETATM   38  O   UNL     1     -10.606  10.391  70.447  1.00  0.00    -0.233 OA 
ENDBRANCH  33  34
ENDBRANCH  31  33
ENDBRANCH  18  20
ENDBRANCH  14  18
ENDBRANCH   9  11
ENDBRANCH   5   9
BRANCH   7  39
HETATM   39  O   UNL     1      -5.550  12.913  68.707  1.00  0.00    -0.068 OA 
HETATM   40  C   UNL     1      -5.516  12.037  69.821  1.00  0.00    -0.089 C  
ENDBRANCH   7  39
BRANCH   8  41
HETATM   41  O   UNL     1      -5.766  15.636  69.596  1.00  0.00    -0.111 OA 
HETATM   42  C   UNL     1      -5.887  16.544  70.677  1.00  0.00     0.151 C  
ENDBRANCH   8  41
ENDBRANCH   2   3
TORSDOF 9
ENDMDL
MODEL      219
REMARK 921   NORMALIZED FREE ENERGY PREDICTED BY IDOCK:   -1.20 KCAL/MOL
REMARK 922        TOTAL FREE ENERGY PREDICTED BY IDOCK:   -3.69 KCAL/MOL
REMARK 923 INTER-LIGAND FREE ENERGY PREDICTED BY IDOCK:   -3.14 KCAL/MOL
REMARK 924 INTRA-LIGAND FREE ENERGY PREDICTED BY IDOCK:   -0.56 KCAL/MOL
REMARK 927      BINDING AFFINITY PREDICTED BY RF-SCORE:    0.00 PKD
ROOT
HETATM    1  C   UNL     1      -7.941  15.855  70.494  1.00  0.00     1.908 C  
HETATM    2  O   UNL     1      -6.888  15.488  69.600  1.00  0.00    -0.172 OA 
ENDROOT
BRANCH   2   3
HETATM    3  C   UNL     1      -6.797  14.141  69.350  1.00  0.00    -0.104 A  
HETATM    4  C   UNL     1      -7.505  13.588  68.267  1.00  0.00    -0.122 A  
HETATM    5  C   UNL     1      -7.546  12.222  68.019  1.00  0.00    -0.126 A  
HETATM    6  C   UNL     1      -6.810  11.410  68.886  1.00  0.00    -0.089 A  
HETATM    7  C   UNL     1      -6.035  11.926  69.938  1.00  0.00    -0.148 A  
HETATM    8  C   UNL     1      -5.992  13.319  70.164  1.00  0.00    -0.139 A  
BRANCH   5   9
HETATM    9  N   UNL     1      -8.292  11.646  66.985  1.00  0.00    -0.163 NA 
HETATM   10  H   UNL     1      -9.105  12.201  66.719  1.00  0.00     0.000 HD 
BRANCH   9  11
HETATM   11  C   UNL     1      -8.160  10.474  66.241  1.00  0.00    -0.142 A  
HETATM   12  N   UNL     1      -8.620  10.570  64.985  1.00  0.00    -0.179 NA 
HETATM   13  N   UNL     1      -7.615   9.344  66.740  1.00  0.00    -0.097 NA 
HETATM   14  C   UNL     1      -7.529   8.245  65.947  1.00  0.00    -0.081 A  
HETATM   15  F   UNL     1      -7.785   7.277  63.774  1.00  0.00    -0.094 F  
HETATM   16  C   UNL     1      -8.491   9.477  64.204  1.00  0.00    -0.186 A  
HETATM   17  C   UNL     1      -7.920   8.300  64.627  1.00  0.00    -0.145 A  
BRANCH  14  18
HETATM   18  N   UNL     1      -6.949   7.113  66.546  1.00  0.00    -0.074 NA 
HETATM   19  H   UNL     1      -5.940   7.043  66.412  1.00  0.00     0.000 HD 
BRANCH  18  20
HETATM   20  C   UNL     1      -7.506   6.056  67.300  1.00  0.00    -0.081 A  
HETATM   21  N   UNL     1      -8.001   6.231  68.545  1.00  0.00    -0.104 NA 
HETATM   22  C   UNL     1      -8.597   5.181  69.188  1.00  0.00    -0.092 A  
HETATM   23  C   UNL     1      -8.631   3.900  68.641  1.00  0.00    -0.094 A  
HETATM   24  O   UNL     1      -9.116   2.795  69.292  1.00  0.00    -0.104 OA 
HETATM   25  C   UNL     1      -8.119   3.715  67.368  1.00  0.00    -0.090 A  
HETATM   26  C   UNL     1      -9.189   2.958  70.707  1.00  0.00    -0.135 C  
HETATM   27  C   UNL     1      -7.551   4.797  66.697  1.00  0.00    -0.087 A  
HETATM   28  C   UNL     1      -9.801   4.303  71.124  1.00  0.00    -0.180 C  
HETATM   29  C   UNL     1     -10.014   1.805  71.287  1.00  0.00    -0.108 C  
HETATM   30  C   UNL     1      -7.776   2.916  71.343  1.00  0.00    -0.047 C  
HETATM   31  N   UNL     1      -9.251   5.371  70.435  1.00  0.00    -0.149 N  
HETATM   32  O   UNL     1     -10.552   4.439  72.088  1.00  0.00    -0.143 OA 
BRANCH  31  33
HETATM   33  C   UNL     1      -9.214   6.616  71.128  1.00  0.00    -0.159 C  
BRANCH  33  34
HETATM   34  O   UNL     1     -10.221   7.448  70.648  1.00  0.00    -0.198 OA 
HETATM   35  P   UNL     1     -11.293   7.877  71.937  1.00  0.00    -0.319 P  
HETATM   36  O   UNL     1     -12.442   7.621  70.803  1.00  0.00    -0.148 OA 
HETATM   37  O   UNL     1     -10.923   9.411  71.518  1.00  0.00    -0.355 OA 
HETATM   38  O   UNL     1     -12.253   8.260  73.089  1.00  0.00    -0.123 OA 
ENDBRANCH  33  34
ENDBRANCH  31  33
ENDBRANCH  18  20
ENDBRANCH  14  18
ENDBRANCH   9  11
ENDBRANCH   5   9
BRANCH   7  39
HETATM   39  O   UNL     1      -5.443  10.922  70.666  1.00  0.00    -0.089 OA 
HETATM   40  C   UNL     1      -5.381   9.604  70.146  1.00  0.00    -0.032 C  
ENDBRANCH   7  39
BRANCH   8  41
HETATM   41  O   UNL     1      -5.135  13.738  71.140  1.00  0.00    -0.111 OA 
HETATM   42  C   UNL     1      -5.400  14.840  71.991  1.00  0.00    -0.036 C  
ENDBRANCH   8  41
ENDBRANCH   2   3
TORSDOF 9
ENDMDL
MODEL      220
REMARK 921   NORMALIZED FREE ENERGY PREDICTED BY IDOCK:   -0.91 KCAL/MOL
REMARK 922        TOTAL FREE ENERGY PREDICTED BY IDOCK:   -3.26 KCAL/MOL
REMARK 923 INTER-LIGAND FREE ENERGY PREDICTED BY IDOCK:   -5.14 KCAL/MOL
REMARK 924 INTRA-LIGAND FREE ENERGY PREDICTED BY IDOCK:    1.88 KCAL/MOL
REMARK 927      BINDING AFFINITY PREDICTED BY RF-SCORE:    0.00 PKD
ROOT
HETATM    1  C   UNL     1      -6.800   5.799  68.648  1.00  0.00    -0.062 C  
HETATM    2  O   UNL     1      -7.019   7.210  68.705  1.00  0.00    -0.076 OA 
ENDROOT
BRANCH   2   3
HETATM    3  C   UNL     1      -8.115   7.587  69.442  1.00  0.00    -0.128 A  
HETATM    4  C   UNL     1      -9.039   8.496  68.895  1.00  0.00    -0.146 A  
HETATM    5  C   UNL     1     -10.110   9.003  69.621  1.00  0.00    -0.197 A  
HETATM    6  C   UNL     1     -10.251   8.533  70.930  1.00  0.00    -0.246 A  
HETATM    7  C   UNL     1      -9.390   7.576  71.492  1.00  0.00    -0.139 A  
HETATM    8  C   UNL     1      -8.318   7.060  70.733  1.00  0.00    -0.129 A  
BRANCH   5   9
HETATM    9  N   UNL     1     -11.005   9.952  69.117  1.00  0.00    -0.299 NA 
HETATM   10  H   UNL     1     -11.344   9.727  68.182  1.00  0.00     0.000 HD 
BRANCH   9  11
HETATM   11  C   UNL     1     -11.532  11.141  69.621  1.00  0.00    -0.310 A  
HETATM   12  N   UNL     1     -12.800  11.039  70.044  1.00  0.00    -0.097 NA 
HETATM   13  N   UNL     1     -10.826  12.290  69.680  1.00  0.00     0.141 NA 
HETATM   14  C   UNL     1     -11.419  13.405  70.183  1.00  0.00     0.013 A  
HETATM   15  F   UNL     1     -13.303  14.391  71.278  1.00  0.00    -0.370 F  
HETATM   16  C   UNL     1     -13.356  12.150  70.572  1.00  0.00     1.046 A  
HETATM   17  C   UNL     1     -12.696  13.349  70.697  1.00  0.00    -0.176 A  
BRANCH  14  18
HETATM   18  N   UNL     1     -10.613  14.556  70.207  1.00  0.00    -0.392 NA 
HETATM   19  H   UNL     1     -10.788  15.169  71.003  1.00  0.00     0.000 HD 
BRANCH  18  20
HETATM   20  C   UNL     1      -9.606  15.021  69.331  1.00  0.00    -0.139 A  
HETATM   21  N   UNL     1      -9.176  16.301  69.331  1.00  0.00    -0.183 NA 
HETATM   22  C   UNL     1      -8.143  16.666  68.511  1.00  0.00    -0.226 A  
HETATM   23  C   UNL     1      -7.572  15.781  67.600  1.00  0.00    -0.156 A  
HETATM   24  O   UNL     1      -6.613  16.127  66.682  1.00  0.00    -0.250 OA 
HETATM   25  C   UNL     1      -8.014  14.468  67.593  1.00  0.00    -0.190 A  
HETATM   26  C   UNL     1      -6.547  17.530  66.437  1.00  0.00    -0.255 C  
HETATM   27  C   UNL     1      -9.038  14.089  68.460  1.00  0.00    -0.163 A  
HETATM   28  C   UNL     1      -6.574  18.366  67.725  1.00  0.00    -0.213 C  
HETATM   29  C   UNL     1      -5.266  17.825  65.649  1.00  0.00    -0.160 C  
HETATM   30  C   UNL     1      -7.758  18.003  65.594  1.00  0.00     0.170 C  
HETATM   31  N   UNL     1      -7.577  17.967  68.593  1.00  0.00    -0.281 N  
HETATM   32  O   UNL     1      -5.912  19.390  67.886  1.00  0.00    -0.205 OA 
BRANCH  31  33
HETATM   33  C   UNL     1      -8.127  18.981  69.430  1.00  0.00     0.157 C  
BRANCH  33  34
HETATM   34  O   UNL     1      -8.756  19.942  68.644  1.00  0.00    -0.232 OA 
HETATM   35  P   UNL     1      -9.956  19.192  67.647  1.00  0.00    -0.409 P  
HETATM   36  O   UNL     1      -9.360  20.203  66.509  1.00  0.00    -0.371 OA 
HETATM   37  O   UNL     1     -10.976  20.252  68.356  1.00  0.00     0.184 OA 
HETATM   38  O   UNL     1     -11.029  18.522  66.755  1.00  0.00    -0.211 OA 
ENDBRANCH  33  34
ENDBRANCH  31  33
ENDBRANCH  18  20
ENDBRANCH  14  18
ENDBRANCH   9  11
ENDBRANCH   5   9
BRANCH   7  39
HETATM   39  O   UNL     1      -9.717   7.314  72.801  1.00  0.00    -0.148 OA 
HETATM   40  C   UNL     1      -9.070   8.013  73.852  1.00  0.00    -0.084 C  
ENDBRANCH   7  39
BRANCH   8  41
HETATM   41  O   UNL     1      -7.598   6.061  71.322  1.00  0.00    -0.090 OA 
HETATM   42  C   UNL     1      -8.191   4.942  71.958  1.00  0.00    -0.115 C  
ENDBRANCH   8  41
ENDBRANCH   2   3
TORSDOF 9
ENDMDL
MODEL      221
REMARK 921   NORMALIZED FREE ENERGY PREDICTED BY IDOCK:    0.46 KCAL/MOL
REMARK 922        TOTAL FREE ENERGY PREDICTED BY IDOCK:   -1.16 KCAL/MOL
REMARK 923 INTER-LIGAND FREE ENERGY PREDICTED BY IDOCK:   -0.50 KCAL/MOL
REMARK 924 INTRA-LIGAND FREE ENERGY PREDICTED BY IDOCK:   -0.66 KCAL/MOL
REMARK 927      BINDING AFFINITY PREDICTED BY RF-SCORE:    0.00 PKD
ROOT
HETATM    1  C   UNL     1     -12.487  16.243  67.717  1.00  0.00     1.925 C  
HETATM    2  O   UNL     1     -12.977  16.327  69.057  1.00  0.00     0.920 OA 
ENDROOT
BRANCH   2   3
HETATM    3  C   UNL     1     -12.708  15.226  69.832  1.00  0.00    -0.095 A  
HETATM    4  C   UNL     1     -12.333  14.019  69.214  1.00  0.00    -0.210 A  
HETATM    5  C   UNL     1     -12.151  12.839  69.924  1.00  0.00    -0.259 A  
HETATM    6  C   UNL     1     -12.324  12.914  71.309  1.00  0.00    -0.179 A  
HETATM    7  C   UNL     1     -12.632  14.113  71.973  1.00  0.00    -0.262 A  
HETATM    8  C   UNL     1     -12.796  15.305  71.236  1.00  0.00    -0.425 A  
BRANCH   5   9
HETATM    9  N   UNL     1     -11.838  11.615  69.323  1.00  0.00    -0.318 NA 
HETATM   10  H   UNL     1     -12.408  10.842  69.664  1.00  0.00     0.000 HD 
BRANCH   9  11
HETATM   11  C   UNL     1     -10.910  11.228  68.356  1.00  0.00    -0.205 A  
HETATM   12  N   UNL     1      -9.957  12.141  68.118  1.00  0.00    -0.197 NA 
HETATM   13  N   UNL     1     -10.966  10.040  67.718  1.00  0.00    -0.284 NA 
HETATM   14  C   UNL     1     -10.024   9.745  66.785  1.00  0.00    -0.218 A  
HETATM   15  F   UNL     1      -7.978  10.342  65.699  1.00  0.00    -0.125 F  
HETATM   16  C   UNL     1      -9.011  11.812  67.214  1.00  0.00    -0.172 A  
HETATM   17  C   UNL     1      -8.979  10.611  66.545  1.00  0.00    -0.156 A  
BRANCH  14  18
HETATM   18  N   UNL     1     -10.157   8.488  66.170  1.00  0.00    -0.448 NA 
HETATM   19  H   UNL     1     -10.734   8.497  65.329  1.00  0.00     0.000 HD 
BRANCH  18  20
HETATM   20  C   UNL     1      -9.641   7.216  66.503  1.00  0.00    -0.144 A  
HETATM   21  N   UNL     1      -9.903   6.609  67.681  1.00  0.00    -0.123 NA 
HETATM   22  C   UNL     1      -9.436   5.343  67.907  1.00  0.00    -0.120 A  
HETATM   23  C   UNL     1      -8.612   4.684  66.997  1.00  0.00    -0.104 A  
HETATM   24  O   UNL     1      -8.029   3.464  67.226  1.00  0.00    -0.078 OA 
HETATM   25  C   UNL     1      -8.336   5.306  65.791  1.00  0.00    -0.123 A  
HETATM   26  C   UNL     1      -7.975   3.113  68.606  1.00  0.00    -0.057 C  
HETATM   27  C   UNL     1      -8.850   6.578  65.546  1.00  0.00    -0.009 A  
HETATM   28  C   UNL     1      -9.297   3.372  69.343  1.00  0.00    -0.166 C  
HETATM   29  C   UNL     1      -7.595   1.633  68.716  1.00  0.00    -0.042 C  
HETATM   30  C   UNL     1      -6.901   3.949  69.348  1.00  0.00    -0.045 C  
HETATM   31  N   UNL     1      -9.816   4.627  69.074  1.00  0.00    -0.174 N  
HETATM   32  O   UNL     1      -9.746   2.630  70.216  1.00  0.00    -0.096 OA 
BRANCH  31  33
HETATM   33  C   UNL     1     -10.588   5.226  70.112  1.00  0.00    -0.227 C  
BRANCH  33  34
HETATM   34  O   UNL     1      -9.799   5.385  71.247  1.00  0.00    -0.166 OA 
HETATM   35  P   UNL     1     -10.591   6.439  72.369  1.00  0.00    -0.234 P  
HETATM   36  O   UNL     1      -9.088   7.055  72.550  1.00  0.00    -0.129 OA 
HETATM   37  O   UNL     1     -10.431   5.188  73.407  1.00  0.00    -0.192 OA 
HETATM   38  O   UNL     1     -11.298   7.381  73.373  1.00  0.00    -0.202 OA 
ENDBRANCH  33  34
ENDBRANCH  31  33
ENDBRANCH  18  20
ENDBRANCH  14  18
ENDBRANCH   9  11
ENDBRANCH   5   9
BRANCH   7  39
HETATM   39  O   UNL     1     -12.790  13.913  73.324  1.00  0.00    -0.328 OA 
HETATM   40  C   UNL     1     -11.686  14.066  74.202  1.00  0.00     2.787 C  
ENDBRANCH   7  39
BRANCH   8  41
HETATM   41  O   UNL     1     -12.991  16.439  71.972  1.00  0.00    -0.018 OA 
HETATM   42  C   UNL     1     -12.049  16.933  72.907  1.00  0.00     0.193 C  
ENDBRANCH   8  41
ENDBRANCH   2   3
TORSDOF 9
ENDMDL
MODEL      222
REMARK 921   NORMALIZED FREE ENERGY PREDICTED BY IDOCK:    0.99 KCAL/MOL
REMARK 922        TOTAL FREE ENERGY PREDICTED BY IDOCK:   -0.36 KCAL/MOL
REMARK 923 INTER-LIGAND FREE ENERGY PREDICTED BY IDOCK:   -1.45 KCAL/MOL
REMARK 924 INTRA-LIGAND FREE ENERGY PREDICTED BY IDOCK:    1.09 KCAL/MOL
REMARK 927      BINDING AFFINITY PREDICTED BY RF-SCORE:    0.00 PKD
ROOT
HETATM    1  C   UNL     1      -7.153  10.433  72.121  1.00  0.00     3.502 C  
HETATM    2  O   UNL     1      -7.225   9.010  72.000  1.00  0.00    -0.315 OA 
ENDROOT
BRANCH   2   3
HETATM    3  C   UNL     1      -8.104   8.564  71.043  1.00  0.00    -0.130 A  
HETATM    4  C   UNL     1      -9.377   9.154  70.941  1.00  0.00    -0.335 A  
HETATM    5  C   UNL     1     -10.352   8.684  70.072  1.00  0.00    -0.207 A  
HETATM    6  C   UNL     1      -9.994   7.604  69.261  1.00  0.00    -0.180 A  
HETATM    7  C   UNL     1      -8.713   7.028  69.283  1.00  0.00    -0.136 A  
HETATM    8  C   UNL     1      -7.729   7.530  70.161  1.00  0.00    -0.089 A  
BRANCH   5   9
HETATM    9  N   UNL     1     -11.643   9.217  69.998  1.00  0.00    -0.455 NA 
HETATM   10  H   UNL     1     -12.228   8.759  69.299  1.00  0.00     0.000 HD 
BRANCH   9  11
HETATM   11  C   UNL     1     -12.301  10.244  70.677  1.00  0.00    -0.325 A  
HETATM   12  N   UNL     1     -13.034   9.826  71.719  1.00  0.00    -0.404 NA 
HETATM   13  N   UNL     1     -12.206  11.541  70.317  1.00  0.00    -0.339 NA 
HETATM   14  C   UNL     1     -12.883  12.477  71.031  1.00  0.00    -0.157 A  
HETATM   15  F   UNL     1     -14.219  13.004  72.944  1.00  0.00    -0.426 F  
HETATM   16  C   UNL     1     -13.670  10.777  72.435  1.00  0.00     0.435 A  
HETATM   17  C   UNL     1     -13.598  12.120  72.154  1.00  0.00    -0.183 A  
BRANCH  14  18
HETATM   18  N   UNL     1     -12.728  13.802  70.589  1.00  0.00    -0.293 NA 
HETATM   19  H   UNL     1     -13.520  14.407  70.804  1.00  0.00     0.000 HD 
BRANCH  18  20
HETATM   20  C   UNL     1     -11.677  14.449  69.900  1.00  0.00    -0.303 A  
HETATM   21  N   UNL     1     -11.413  14.222  68.595  1.00  0.00    -0.278 NA 
HETATM   22  C   UNL     1     -10.431  14.941  67.971  1.00  0.00    -0.246 A  
HETATM   23  C   UNL     1      -9.620  15.842  68.658  1.00  0.00    -0.207 A  
HETATM   24  O   UNL     1      -8.554  16.501  68.103  1.00  0.00    -0.184 OA 
HETATM   25  C   UNL     1      -9.884  16.073  69.998  1.00  0.00     0.143 A  
HETATM   26  C   UNL     1      -8.071  15.891  66.908  1.00  0.00    -0.250 C  
HETATM   27  C   UNL     1     -10.914  15.370  70.621  1.00  0.00    -0.350 A  
HETATM   28  C   UNL     1      -9.196  15.501  65.938  1.00  0.00    -0.270 C  
HETATM   29  C   UNL     1      -7.104  16.862  66.224  1.00  0.00    -0.170 C  
HETATM   30  C   UNL     1      -7.306  14.581  67.226  1.00  0.00    -0.098 C  
HETATM   31  N   UNL     1     -10.228  14.826  66.569  1.00  0.00    -0.269 N  
HETATM   32  O   UNL     1      -9.106  15.603  64.716  1.00  0.00     1.097 OA 
BRANCH  31  33
HETATM   33  C   UNL     1     -10.941  13.881  65.775  1.00  0.00    -0.285 C  
BRANCH  33  34
HETATM   34  O   UNL     1     -11.004  14.330  64.460  1.00  0.00    -0.372 OA 
HETATM   35  P   UNL     1     -12.459  15.235  64.217  1.00  0.00     0.690 P  
HETATM   36  O   UNL     1     -12.504  14.411  62.806  1.00  0.00     0.230 OA 
HETATM   37  O   UNL     1     -11.448  16.423  63.734  1.00  0.00    -1.002 OA 
HETATM   38  O   UNL     1     -13.760  16.045  63.999  1.00  0.00     0.963 OA 
ENDBRANCH  33  34
ENDBRANCH  31  33
ENDBRANCH  18  20
ENDBRANCH  14  18
ENDBRANCH   9  11
ENDBRANCH   5   9
BRANCH   7  39
HETATM   39  O   UNL     1      -8.629   5.958  68.425  1.00  0.00    -0.114 OA 
HETATM   40  C   UNL     1      -8.214   4.689  68.904  1.00  0.00    -0.081 C  
ENDBRANCH   7  39
BRANCH   8  41
HETATM   41  O   UNL     1      -6.486   6.980  70.041  1.00  0.00    -0.035 OA 
HETATM   42  C   UNL     1      -5.801   6.862  68.806  1.00  0.00    -0.018 C  
ENDBRANCH   8  41
ENDBRANCH   2   3
TORSDOF 9
ENDMDL
MODEL      223
REMARK 921   NORMALIZED FREE ENERGY PREDICTED BY IDOCK:    1.15 KCAL/MOL
REMARK 922        TOTAL FREE ENERGY PREDICTED BY IDOCK:   -0.11 KCAL/MOL
REMARK 923 INTER-LIGAND FREE ENERGY PREDICTED BY IDOCK:   -0.73 KCAL/MOL
REMARK 924 INTRA-LIGAND FREE ENERGY PREDICTED BY IDOCK:    0.62 KCAL/MOL
REMARK 927      BINDING AFFINITY PREDICTED BY RF-SCORE:    0.00 PKD
ROOT
HETATM    1  C   UNL     1     -14.404   5.688  71.639  1.00  0.00     2.527 C  
HETATM    2  O   UNL     1     -13.247   5.483  72.454  1.00  0.00     0.550 OA 
ENDROOT
BRANCH   2   3
HETATM    3  C   UNL     1     -12.325   6.499  72.399  1.00  0.00     0.001 A  
HETATM    4  C   UNL     1     -12.768   7.834  72.348  1.00  0.00    -0.057 A  
HETATM    5  C   UNL     1     -11.898   8.905  72.184  1.00  0.00    -0.347 A  
HETATM    6  C   UNL     1     -10.538   8.595  72.109  1.00  0.00    -0.411 A  
HETATM    7  C   UNL     1     -10.048   7.283  72.223  1.00  0.00    -0.189 A  
HETATM    8  C   UNL     1     -10.946   6.209  72.407  1.00  0.00    -0.259 A  
BRANCH   5   9
HETATM    9  N   UNL     1     -12.321  10.233  72.069  1.00  0.00    -0.151 NA 
HETATM   10  H   UNL     1     -12.813  10.571  72.896  1.00  0.00     0.000 HD 
BRANCH   9  11
HETATM   11  C   UNL     1     -12.213  11.194  71.064  1.00  0.00    -0.333 A  
HETATM   12  N   UNL     1     -12.411  10.715  69.827  1.00  0.00    -0.216 NA 
HETATM   13  N   UNL     1     -11.934  12.491  71.314  1.00  0.00     0.404 NA 
HETATM   14  C   UNL     1     -11.842  13.361  70.274  1.00  0.00    -0.245 A  
HETATM   15  F   UNL     1     -12.108  13.769  67.933  1.00  0.00    -0.375 F  
HETATM   16  C   UNL     1     -12.350  11.604  68.813  1.00  0.00     0.242 A  
HETATM   17  C   UNL     1     -12.103  12.944  68.987  1.00  0.00    -0.154 A  
BRANCH  14  18
HETATM   18  N   UNL     1     -11.549  14.690  70.625  1.00  0.00    -0.393 NA 
HETATM   19  H   UNL     1     -11.596  14.875  71.627  1.00  0.00     0.000 HD 
BRANCH  18  20
HETATM   20  C   UNL     1     -11.202  15.816  69.845  1.00  0.00    -0.334 A  
HETATM   21  N   UNL     1     -11.178  15.787  68.495  1.00  0.00    -0.335 NA 
HETATM   22  C   UNL     1     -10.910  16.935  67.801  1.00  0.00    -0.281 A  
HETATM   23  C   UNL     1     -10.565  18.125  68.439  1.00  0.00    -0.197 A  
HETATM   24  O   UNL     1     -10.179  19.268  67.788  1.00  0.00    -0.360 OA 
HETATM   25  C   UNL     1     -10.583  18.156  69.824  1.00  0.00     1.001 A  
HETATM   26  C   UNL     1      -9.748  19.037  66.449  1.00  0.00    -0.367 C  
HETATM   27  C   UNL     1     -10.899  16.995  70.528  1.00  0.00     0.564 A  
HETATM   28  C   UNL     1     -10.687  18.106  65.668  1.00  0.00    -0.032 C  
HETATM   29  C   UNL     1      -9.639  20.389  65.735  1.00  0.00    -0.025 C  
HETATM   30  C   UNL     1      -8.355  18.359  66.425  1.00  0.00    -0.272 C  
HETATM   31  N   UNL     1     -11.018  16.968  66.384  1.00  0.00     0.077 N  
HETATM   32  O   UNL     1     -10.959  18.257  64.478  1.00  0.00    -0.011 OA 
BRANCH  31  33
HETATM   33  C   UNL     1     -11.286  15.797  65.618  1.00  0.00    -0.055 C  
BRANCH  33  34
HETATM   34  O   UNL     1     -10.085  15.211  65.228  1.00  0.00    -0.348 OA 
HETATM   35  P   UNL     1      -9.760  13.825  66.214  1.00  0.00    -0.215 P  
HETATM   36  O   UNL     1      -8.237  14.416  66.199  1.00  0.00     0.718 OA 
HETATM   37  O   UNL     1      -9.691  13.030  64.790  1.00  0.00    -0.052 OA 
HETATM   38  O   UNL     1      -9.469  12.587  67.095  1.00  0.00    -0.197 OA 
ENDBRANCH  33  34
ENDBRANCH  31  33
ENDBRANCH  18  20
ENDBRANCH  14  18
ENDBRANCH   9  11
ENDBRANCH   5   9
BRANCH   7  39
HETATM   39  O   UNL     1      -8.683   7.241  72.075  1.00  0.00    -0.117 OA 
HETATM   40  C   UNL     1      -7.849   8.015  72.922  1.00  0.00    -0.142 C  
ENDBRANCH   7  39
BRANCH   8  41
HETATM   41  O   UNL     1     -10.378   4.985  72.612  1.00  0.00    -0.184 OA 
HETATM   42  C   UNL     1     -10.014   4.109  71.560  1.00  0.00    -0.160 C  
ENDBRANCH   8  41
ENDBRANCH   2   3
TORSDOF 9
ENDMDL
MODEL      224
REMARK 921   NORMALIZED FREE ENERGY PREDICTED BY IDOCK:    1.63 KCAL/MOL
REMARK 922        TOTAL FREE ENERGY PREDICTED BY IDOCK:    0.62 KCAL/MOL
REMARK 923 INTER-LIGAND FREE ENERGY PREDICTED BY IDOCK:    0.68 KCAL/MOL
REMARK 924 INTRA-LIGAND FREE ENERGY PREDICTED BY IDOCK:   -0.05 KCAL/MOL
REMARK 927      BINDING AFFINITY PREDICTED BY RF-SCORE:    0.00 PKD
ROOT
HETATM    1  C   UNL     1      -6.911  14.404  72.760  1.00  0.00     2.789 C  
HETATM    2  O   UNL     1      -5.749  14.176  71.958  1.00  0.00    -0.218 OA 
ENDROOT
BRANCH   2   3
HETATM    3  C   UNL     1      -5.760  12.991  71.264  1.00  0.00     0.049 A  
HETATM    4  C   UNL     1      -5.998  13.002  69.877  1.00  0.00    -0.136 A  
HETATM    5  C   UNL     1      -6.130  11.838  69.131  1.00  0.00    -0.076 A  
HETATM    6  C   UNL     1      -5.976  10.634  69.824  1.00  0.00    -0.062 A  
HETATM    7  C   UNL     1      -5.672  10.579  71.195  1.00  0.00     0.004 A  
HETATM    8  C   UNL     1      -5.524  11.773  71.933  1.00  0.00     0.485 A  
BRANCH   5   9
HETATM    9  N   UNL     1      -6.426  11.826  67.764  1.00  0.00    -0.068 NA 
HETATM   10  H   UNL     1      -6.985  12.624  67.467  1.00  0.00     0.000 HD 
BRANCH   9  11
HETATM   11  C   UNL     1      -6.118  10.952  66.720  1.00  0.00    -0.088 A  
HETATM   12  N   UNL     1      -6.177  11.513  65.504  1.00  0.00     0.463 NA 
HETATM   13  N   UNL     1      -5.788   9.658  66.919  1.00  0.00    -0.051 NA 
HETATM   14  C   UNL     1      -5.507   8.875  65.845  1.00  0.00    -0.041 A  
HETATM   15  F   UNL     1      -5.134   8.710  63.488  1.00  0.00    -0.056 F  
HETATM   16  C   UNL     1      -5.859  10.726  64.455  1.00  0.00     0.099 A  
HETATM   17  C   UNL     1      -5.483   9.409  64.575  1.00  0.00    -0.059 A  
BRANCH  14  18
HETATM   18  N   UNL     1      -5.174   7.543  66.142  1.00  0.00    -0.024 NA 
HETATM   19  H   UNL     1      -4.170   7.367  66.193  1.00  0.00     0.000 HD 
BRANCH  18  20
HETATM   20  C   UNL     1      -5.972   6.402  66.383  1.00  0.00    -0.028 A  
HETATM   21  N   UNL     1      -6.599   6.188  67.560  1.00  0.00    -0.053 NA 
HETATM   22  C   UNL     1      -7.420   5.102  67.699  1.00  0.00    -0.083 A  
HETATM   23  C   UNL     1      -7.564   4.148  66.695  1.00  0.00    -0.089 A  
HETATM   24  O   UNL     1      -8.285   2.989  66.828  1.00  0.00    -0.086 OA 
HETATM   25  C   UNL     1      -6.918   4.361  65.489  1.00  0.00    -0.059 A  
HETATM   26  C   UNL     1      -8.523   2.623  68.185  1.00  0.00    -0.078 C  
HETATM   27  C   UNL     1      -6.116   5.491  65.335  1.00  0.00    -0.026 A  
HETATM   28  C   UNL     1      -8.987   3.804  69.051  1.00  0.00    -0.122 C  
HETATM   29  C   UNL     1      -9.575   1.510  68.211  1.00  0.00    -0.194 C  
HETATM   30  C   UNL     1      -7.228   2.088  68.849  1.00  0.00    -0.043 C  
HETATM   31  N   UNL     1      -8.202   4.931  68.874  1.00  0.00    -0.083 N  
HETATM   32  O   UNL     1      -9.833   3.705  69.938  1.00  0.00    -0.155 OA 
BRANCH  31  33
HETATM   33  C   UNL     1      -8.080   5.797  69.999  1.00  0.00    -0.108 C  
BRANCH  33  34
HETATM   34  O   UNL     1      -9.325   6.332  70.313  1.00  0.00    -0.159 OA 
HETATM   35  P   UNL     1      -9.626   7.732  69.341  1.00  0.00    -0.158 P  
HETATM   36  O   UNL     1     -10.207   8.339  70.743  1.00  0.00    -0.189 OA 
HETATM   37  O   UNL     1     -10.972   6.928  68.887  1.00  0.00    -0.219 OA 
HETATM   38  O   UNL     1      -9.896   8.984  68.473  1.00  0.00    -0.160 OA 
ENDBRANCH  33  34
ENDBRANCH  31  33
ENDBRANCH  18  20
ENDBRANCH  14  18
ENDBRANCH   9  11
ENDBRANCH   5   9
BRANCH   7  39
HETATM   39  O   UNL     1      -5.614   9.282  71.644  1.00  0.00    -0.062 OA 
HETATM   40  C   UNL     1      -6.804   8.526  71.799  1.00  0.00    -0.086 C  
ENDBRANCH   7  39
BRANCH   8  41
HETATM   41  O   UNL     1      -5.128  11.626  73.231  1.00  0.00    -0.324 OA 
HETATM   42  C   UNL     1      -5.181  10.394  73.928  1.00  0.00     0.234 C  
ENDBRANCH   8  41
ENDBRANCH   2   3
TORSDOF 9
ENDMDL
MODEL      225
REMARK 921   NORMALIZED FREE ENERGY PREDICTED BY IDOCK:    2.90 KCAL/MOL
REMARK 922        TOTAL FREE ENERGY PREDICTED BY IDOCK:    2.56 KCAL/MOL
REMARK 923 INTER-LIGAND FREE ENERGY PREDICTED BY IDOCK:   -1.33 KCAL/MOL
REMARK 924 INTRA-LIGAND FREE ENERGY PREDICTED BY IDOCK:    3.89 KCAL/MOL
REMARK 927      BINDING AFFINITY PREDICTED BY RF-SCORE:    0.00 PKD
ROOT
HETATM    1  C   UNL     1      -8.685  13.331  65.650  1.00  0.00     1.355 C  
HETATM    2  O   UNL     1      -8.994  12.125  66.354  1.00  0.00    -0.200 OA 
ENDROOT
BRANCH   2   3
HETATM    3  C   UNL     1      -9.567  12.317  67.587  1.00  0.00    -0.191 A  
HETATM    4  C   UNL     1      -9.639  11.242  68.492  1.00  0.00    -0.199 A  
HETATM    5  C   UNL     1     -10.299  11.333  69.711  1.00  0.00     0.372 A  
HETATM    6  C   UNL     1     -10.866  12.573  70.020  1.00  0.00     0.837 A  
HETATM    7  C   UNL     1     -10.759  13.690  69.175  1.00  0.00    -0.104 A  
HETATM    8  C   UNL     1     -10.070  13.583  67.948  1.00  0.00    -0.248 A  
BRANCH   5   9
HETATM    9  N   UNL     1     -10.434  10.261  70.599  1.00  0.00    -0.365 NA 
HETATM   10  H   UNL     1     -11.313  10.275  71.116  1.00  0.00     0.000 HD 
BRANCH   9  11
HETATM   11  C   UNL     1      -9.622   9.175  70.927  1.00  0.00    -0.279 A  
HETATM   12  N   UNL     1     -10.035   8.489  72.002  1.00  0.00    -0.284 NA 
HETATM   13  N   UNL     1      -8.519   8.844  70.222  1.00  0.00    -0.144 NA 
HETATM   14  C   UNL     1      -7.781   7.772  70.614  1.00  0.00    -0.091 A  
HETATM   15  F   UNL     1      -7.553   5.873  72.050  1.00  0.00    -0.089 F  
HETATM   16  C   UNL     1      -9.307   7.408  72.351  1.00  0.00    -0.144 A  
HETATM   17  C   UNL     1      -8.191   6.987  71.668  1.00  0.00    -0.104 A  
BRANCH  14  18
HETATM   18  N   UNL     1      -6.651   7.499  69.825  1.00  0.00    -0.038 NA 
HETATM   19  H   UNL     1      -5.776   7.847  70.217  1.00  0.00     0.000 HD 
BRANCH  18  20
HETATM   20  C   UNL     1      -6.502   6.831  68.588  1.00  0.00    -0.040 A  
HETATM   21  N   UNL     1      -7.114   5.657  68.318  1.00  0.00    -0.072 NA 
HETATM   22  C   UNL     1      -6.990   5.104  67.072  1.00  0.00    -0.064 A  
HETATM   23  C   UNL     1      -6.174   5.661  66.091  1.00  0.00    -0.034 A  
HETATM   24  O   UNL     1      -5.930   5.086  64.870  1.00  0.00    -0.020 OA 
HETATM   25  C   UNL     1      -5.541   6.861  66.367  1.00  0.00    -0.022 A  
HETATM   26  C   UNL     1      -6.221   3.691  64.834  1.00  0.00    -0.024 C  
HETATM   27  C   UNL     1      -5.703   7.445  67.623  1.00  0.00    -0.034 A  
HETATM   28  C   UNL     1      -7.570   3.344  65.481  1.00  0.00    -0.077 C  
HETATM   29  C   UNL     1      -6.207   3.230  63.373  1.00  0.00    -0.014 C  
HETATM   30  C   UNL     1      -5.152   2.882  65.612  1.00  0.00    -0.008 C  
HETATM   31  N   UNL     1      -7.736   3.948  66.715  1.00  0.00    -0.087 N  
HETATM   32  O   UNL     1      -8.331   2.481  65.045  1.00  0.00    -0.086 OA 
BRANCH  31  33
HETATM   33  C   UNL     1      -8.541   3.245  67.658  1.00  0.00    -0.103 C  
BRANCH  33  34
HETATM   34  O   UNL     1      -9.100   4.147  68.558  1.00  0.00    -0.114 OA 
HETATM   35  P   UNL     1      -9.152   3.444  70.139  1.00  0.00    -0.164 P  
HETATM   36  O   UNL     1     -10.633   4.133  70.183  1.00  0.00     0.556 OA 
HETATM   37  O   UNL     1      -8.294   4.762  70.577  1.00  0.00    -0.091 OA 
HETATM   38  O   UNL     1      -9.198   2.815  71.553  1.00  0.00    -0.094 OA 
ENDBRANCH  33  34
ENDBRANCH  31  33
ENDBRANCH  18  20
ENDBRANCH  14  18
ENDBRANCH   9  11
ENDBRANCH   5   9
BRANCH   7  39
HETATM   39  O   UNL     1     -11.435  14.772  69.686  1.00  0.00    -0.262 OA 
HETATM   40  C   UNL     1     -12.798  14.651  70.061  1.00  0.00    -0.051 C  
ENDBRANCH   7  39
BRANCH   8  41
HETATM   41  O   UNL     1      -9.928  14.742  67.241  1.00  0.00    -0.229 OA 
HETATM   42  C   UNL     1     -11.004  15.399  66.596  1.00  0.00    -0.275 C  
ENDBRANCH   8  41
ENDBRANCH   2   3
TORSDOF 9
ENDMDL
MODEL      226
REMARK 921   NORMALIZED FREE ENERGY PREDICTED BY IDOCK:    3.82 KCAL/MOL
REMARK 922        TOTAL FREE ENERGY PREDICTED BY IDOCK:    3.97 KCAL/MOL
REMARK 923 INTER-LIGAND FREE ENERGY PREDICTED BY IDOCK:    2.94 KCAL/MOL
REMARK 924 INTRA-LIGAND FREE ENERGY PREDICTED BY IDOCK:    1.02 KCAL/MOL
REMARK 927      BINDING AFFINITY PREDICTED BY RF-SCORE:    0.00 PKD
ROOT
HETATM    1  C   UNL     1     -11.458  10.600  64.077  1.00  0.00     1.733 C  
HETATM    2  O   UNL     1     -12.482  11.327  64.761  1.00  0.00     0.517 OA 
ENDROOT
BRANCH   2   3
HETATM    3  C   UNL     1     -12.059  11.976  65.895  1.00  0.00     0.112 A  
HETATM    4  C   UNL     1     -11.642  11.225  67.009  1.00  0.00    -0.059 A  
HETATM    5  C   UNL     1     -11.305  11.810  68.222  1.00  0.00    -0.282 A  
HETATM    6  C   UNL     1     -11.363  13.205  68.277  1.00  0.00    -0.333 A  
HETATM    7  C   UNL     1     -11.708  13.997  67.169  1.00  0.00    -0.393 A  
HETATM    8  C   UNL     1     -12.031  13.385  65.939  1.00  0.00    -0.409 A  
BRANCH   5   9
HETATM    9  N   UNL     1     -10.946  11.079  69.360  1.00  0.00    -0.240 NA 
HETATM   10  H   UNL     1     -10.468  11.640  70.064  1.00  0.00     0.000 HD 
BRANCH   9  11
HETATM   11  C   UNL     1     -11.105   9.745  69.735  1.00  0.00    -0.237 A  
HETATM   12  N   UNL     1     -11.774   9.577  70.884  1.00  0.00    -0.298 NA 
HETATM   13  N   UNL     1     -10.628   8.715  69.004  1.00  0.00    -0.198 NA 
HETATM   14  C   UNL     1     -10.823   7.445  69.445  1.00  0.00    -0.171 A  
HETATM   15  F   UNL     1     -11.857   5.974  71.023  1.00  0.00    -0.348 F  
HETATM   16  C   UNL     1     -11.986   8.306  71.285  1.00  0.00    -0.287 A  
HETATM   17  C   UNL     1     -11.562   7.203  70.583  1.00  0.00    -0.314 A  
BRANCH  14  18
HETATM   18  N   UNL     1     -10.294   6.434  68.624  1.00  0.00    -0.180 NA 
HETATM   19  H   UNL     1     -10.642   5.500  68.839  1.00  0.00     0.000 HD 
BRANCH  18  20
HETATM   20  C   UNL     1      -9.370   6.474  67.555  1.00  0.00    -0.122 A  
HETATM   21  N   UNL     1      -9.011   7.625  66.946  1.00  0.00    -0.132 NA 
HETATM   22  C   UNL     1      -8.053   7.601  65.970  1.00  0.00    -0.118 A  
HETATM   23  C   UNL     1      -7.493   6.412  65.510  1.00  0.00    -0.083 A  
HETATM   24  O   UNL     1      -6.615   6.326  64.460  1.00  0.00    -0.033 OA 
HETATM   25  C   UNL     1      -7.864   5.229  66.128  1.00  0.00    -0.103 A  
HETATM   26  C   UNL     1      -6.639   7.468  63.608  1.00  0.00    -0.053 C  
HETATM   27  C   UNL     1      -8.809   5.261  67.152  1.00  0.00    -0.109 A  
HETATM   28  C   UNL     1      -6.631   8.794  64.382  1.00  0.00    -0.071 C  
HETATM   29  C   UNL     1      -5.428   7.402  62.672  1.00  0.00    -0.045 C  
HETATM   30  C   UNL     1      -7.925   7.486  62.743  1.00  0.00    -0.119 C  
HETATM   31  N   UNL     1      -7.553   8.810  65.415  1.00  0.00    -0.085 N  
HETATM   32  O   UNL     1      -6.016   9.794  64.013  1.00  0.00    -0.097 OA 
BRANCH  31  33
HETATM   33  C   UNL     1      -8.104  10.081  65.749  1.00  0.00    -0.128 C  
BRANCH  33  34
HETATM   34  O   UNL     1      -7.279  11.090  65.259  1.00  0.00     0.144 OA 
HETATM   35  P   UNL     1      -6.582  11.970  66.576  1.00  0.00     0.856 P  
HETATM   36  O   UNL     1      -6.917  13.262  65.633  1.00  0.00     4.437 OA 
HETATM   37  O   UNL     1      -5.161  11.566  65.882  1.00  0.00    -0.318 OA 
HETATM   38  O   UNL     1      -5.958  12.757  67.754  1.00  0.00    -0.102 OA 
ENDBRANCH  33  34
ENDBRANCH  31  33
ENDBRANCH  18  20
ENDBRANCH  14  18
ENDBRANCH   9  11
ENDBRANCH   5   9
BRANCH   7  39
HETATM   39  O   UNL     1     -11.731  15.332  67.493  1.00  0.00    -0.291 OA 
HETATM   40  C   UNL     1     -10.942  16.258  66.764  1.00  0.00    -0.031 C  
ENDBRANCH   7  39
BRANCH   8  41
HETATM   41  O   UNL     1     -12.253  14.232  64.892  1.00  0.00    -0.407 OA 
HETATM   42  C   UNL     1     -13.127  13.932  63.818  1.00  0.00     1.340 C  
ENDBRANCH   8  41
ENDBRANCH   2   3
TORSDOF 9
ENDMDL
MODEL      227
REMARK 921   NORMALIZED FREE ENERGY PREDICTED BY IDOCK:    6.07 KCAL/MOL
REMARK 922        TOTAL FREE ENERGY PREDICTED BY IDOCK:    7.40 KCAL/MOL
REMARK 923 INTER-LIGAND FREE ENERGY PREDICTED BY IDOCK:    3.40 KCAL/MOL
REMARK 924 INTRA-LIGAND FREE ENERGY PREDICTED BY IDOCK:    4.01 KCAL/MOL
REMARK 927      BINDING AFFINITY PREDICTED BY RF-SCORE:    0.00 PKD
ROOT
HETATM    1  C   UNL     1      -5.557  19.870  72.537  1.00  0.00     0.872 C  
HETATM    2  O   UNL     1      -6.506  18.839  72.250  1.00  0.00     1.635 OA 
ENDROOT
BRANCH   2   3
HETATM    3  C   UNL     1      -6.719  18.619  70.911  1.00  0.00     1.671 A  
HETATM    4  C   UNL     1      -7.683  17.676  70.509  1.00  0.00     3.588 A  
HETATM    5  C   UNL     1      -7.876  17.324  69.179  1.00  0.00    -0.050 A  
HETATM    6  C   UNL     1      -7.083  17.988  68.239  1.00  0.00    -0.241 A  
HETATM    7  C   UNL     1      -6.157  18.983  68.592  1.00  0.00    -0.219 A  
HETATM    8  C   UNL     1      -5.986  19.340  69.947  1.00  0.00    -0.262 A  
BRANCH   5   9
HETATM    9  N   UNL     1      -8.786  16.347  68.763  1.00  0.00    -0.236 NA 
HETATM   10  H   UNL     1      -8.968  15.639  69.474  1.00  0.00     0.000 HD 
BRANCH   9  11
HETATM   11  C   UNL     1      -9.496  16.134  67.582  1.00  0.00    -0.220 A  
HETATM   12  N   UNL     1      -9.462  17.169  66.731  1.00  0.00    -0.257 NA 
HETATM   13  N   UNL     1     -10.158  14.987  67.318  1.00  0.00    -0.235 NA 
HETATM   14  C   UNL     1     -10.829  14.866  66.144  1.00  0.00    -0.327 A  
HETATM   15  F   UNL     1     -11.347  15.772  63.992  1.00  0.00    -0.286 F  
HETATM   16  C   UNL     1     -10.106  17.013  65.555  1.00  0.00    -0.010 A  
HETATM   17  C   UNL     1     -10.775  15.866  65.198  1.00  0.00    -0.429 A  
BRANCH  14  18
HETATM   18  N   UNL     1     -11.490  13.640  65.952  1.00  0.00    -0.310 NA 
HETATM   19  H   UNL     1     -12.506  13.716  65.928  1.00  0.00     0.000 HD 
BRANCH  18  20
HETATM   20  C   UNL     1     -11.005  12.323  65.786  1.00  0.00    -0.301 A  
HETATM   21  N   UNL     1     -11.246  11.341  66.681  1.00  0.00    -0.315 NA 
HETATM   22  C   UNL     1     -10.813  10.069  66.420  1.00  0.00     0.113 A  
HETATM   23  C   UNL     1     -10.045   9.763  65.300  1.00  0.00    -0.054 A  
HETATM   24  O   UNL     1      -9.495   8.531  65.053  1.00  0.00     0.268 OA 
HETATM   25  C   UNL     1      -9.790  10.769  64.383  1.00  0.00    -0.374 A  
HETATM   26  C   UNL     1      -9.405   7.709  66.214  1.00  0.00    -0.131 C  
HETATM   27  C   UNL     1     -10.269  12.054  64.630  1.00  0.00    -0.313 A  
HETATM   28  C   UNL     1     -10.691   7.713  67.053  1.00  0.00    -0.270 C  
HETATM   29  C   UNL     1      -9.071   6.280  65.773  1.00  0.00    -0.039 C  
HETATM   30  C   UNL     1      -8.278   8.205  67.156  1.00  0.00    -0.120 C  
HETATM   31  N   UNL     1     -11.176   8.991  67.272  1.00  0.00     0.404 N  
HETATM   32  O   UNL     1     -11.133   6.717  67.623  1.00  0.00    -0.305 OA 
BRANCH  31  33
HETATM   33  C   UNL     1     -11.891   9.194  68.488  1.00  0.00     1.742 C  
BRANCH  33  34
HETATM   34  O   UNL     1     -10.992   9.413  69.527  1.00  0.00    -0.234 OA 
HETATM   35  P   UNL     1     -11.291   8.291  70.810  1.00  0.00    -0.208 P  
HETATM   36  O   UNL     1     -11.043   9.604  71.752  1.00  0.00    -0.298 OA 
HETATM   37  O   UNL     1      -9.724   7.883  70.602  1.00  0.00    -0.173 OA 
HETATM   38  O   UNL     1     -11.558   7.288  71.958  1.00  0.00    -0.260 OA 
ENDBRANCH  33  34
ENDBRANCH  31  33
ENDBRANCH  18  20
ENDBRANCH  14  18
ENDBRANCH   9  11
ENDBRANCH   5   9
BRANCH   7  39
HETATM   39  O   UNL     1      -5.477  19.449  67.492  1.00  0.00    -0.176 OA 
HETATM   40  C   UNL     1      -6.187  19.875  66.341  1.00  0.00    -0.176 C  
ENDBRANCH   7  39
BRANCH   8  41
HETATM   41  O   UNL     1      -5.143  20.386  70.187  1.00  0.00    -0.213 OA 
HETATM   42  C   UNL     1      -5.224  21.204  71.341  1.00  0.00     0.147 C  
ENDBRANCH   8  41
ENDBRANCH   2   3
TORSDOF 9
ENDMDL
MODEL      228
REMARK 921   NORMALIZED FREE ENERGY PREDICTED BY IDOCK:    6.65 KCAL/MOL
REMARK 922        TOTAL FREE ENERGY PREDICTED BY IDOCK:    8.28 KCAL/MOL
REMARK 923 INTER-LIGAND FREE ENERGY PREDICTED BY IDOCK:    5.66 KCAL/MOL
REMARK 924 INTRA-LIGAND FREE ENERGY PREDICTED BY IDOCK:    2.62 KCAL/MOL
REMARK 927      BINDING AFFINITY PREDICTED BY RF-SCORE:    0.00 PKD
ROOT
HETATM    1  C   UNL     1     -12.700  10.305  68.537  1.00  0.00     3.003 C  
HETATM    2  O   UNL     1     -12.607   9.192  69.428  1.00  0.00     1.751 OA 
ENDROOT
BRANCH   2   3
HETATM    3  C   UNL     1     -11.332   8.909  69.855  1.00  0.00     0.017 A  
HETATM    4  C   UNL     1     -10.284   9.794  69.543  1.00  0.00    -0.238 A  
HETATM    5  C   UNL     1      -8.957   9.520  69.848  1.00  0.00    -0.212 A  
HETATM    6  C   UNL     1      -8.709   8.323  70.524  1.00  0.00    -0.140 A  
HETATM    7  C   UNL     1      -9.732   7.443  70.914  1.00  0.00    -0.169 A  
HETATM    8  C   UNL     1     -11.077   7.746  70.610  1.00  0.00    -0.256 A  
BRANCH   5   9
HETATM    9  N   UNL     1      -7.894  10.358  69.493  1.00  0.00    -0.205 NA 
HETATM   10  H   UNL     1      -7.507  10.872  70.284  1.00  0.00     0.000 HD 
BRANCH   9  11
HETATM   11  C   UNL     1      -7.252  10.639  68.287  1.00  0.00    -0.083 A  
HETATM   12  N   UNL     1      -6.970   9.553  67.553  1.00  0.00    -0.083 NA 
HETATM   13  N   UNL     1      -6.943  11.893  67.894  1.00  0.00    -0.078 NA 
HETATM   14  C   UNL     1      -6.313  12.077  66.705  1.00  0.00     0.029 A  
HETATM   15  F   UNL     1      -5.514  11.135  64.657  1.00  0.00    -0.099 F  
HETATM   16  C   UNL     1      -6.376   9.763  66.360  1.00  0.00    -0.070 A  
HETATM   17  C   UNL     1      -6.058  11.009  65.874  1.00  0.00    -0.057 A  
BRANCH  14  18
HETATM   18  N   UNL     1      -6.030  13.414  66.375  1.00  0.00     1.677 NA 
HETATM   19  H   UNL     1      -5.525  13.526  65.496  1.00  0.00     0.000 HD 
BRANCH  18  20
HETATM   20  C   UNL     1      -6.317  14.630  67.035  1.00  0.00     0.982 A  
HETATM   21  N   UNL     1      -7.578  15.041  67.287  1.00  0.00    -0.204 NA 
HETATM   22  C   UNL     1      -7.782  16.191  68.000  1.00  0.00    -0.137 A  
HETATM   23  C   UNL     1      -6.731  17.012  68.400  1.00  0.00    -0.170 A  
HETATM   24  O   UNL     1      -6.890  18.227  69.017  1.00  0.00    -0.254 OA 
HETATM   25  C   UNL     1      -5.436  16.596  68.138  1.00  0.00    -0.119 A  
HETATM   26  C   UNL     1      -8.190  18.784  68.840  1.00  0.00    -0.220 C  
HETATM   27  C   UNL     1      -5.230  15.402  67.449  1.00  0.00     0.160 A  
HETATM   28  C   UNL     1      -9.316  17.765  69.068  1.00  0.00    -0.068 C  
HETATM   29  C   UNL     1      -8.348  19.963  69.807  1.00  0.00     0.700 C  
HETATM   30  C   UNL     1      -8.375  19.310  67.394  1.00  0.00    -0.317 C  
HETATM   31  N   UNL     1      -9.091  16.572  68.403  1.00  0.00    -0.215 N  
HETATM   32  O   UNL     1     -10.381  18.040  69.618  1.00  0.00     0.021 OA 
BRANCH  31  33
HETATM   33  C   UNL     1     -10.250  15.855  67.985  1.00  0.00    -0.238 C  
BRANCH  33  34
HETATM   34  O   UNL     1     -11.001  16.646  67.120  1.00  0.00    -0.183 OA 
HETATM   35  P   UNL     1      -9.955  17.438  65.991  1.00  0.00    -0.089 P  
HETATM   36  O   UNL     1     -10.930  18.716  66.285  1.00  0.00    -0.127 OA 
HETATM   37  O   UNL     1     -10.890  16.715  64.865  1.00  0.00    -0.697 OA 
HETATM   38  O   UNL     1      -9.020  18.147  64.982  1.00  0.00     1.597 OA 
ENDBRANCH  33  34
ENDBRANCH  31  33
ENDBRANCH  18  20
ENDBRANCH  14  18
ENDBRANCH   9  11
ENDBRANCH   5   9
BRANCH   7  39
HETATM   39  O   UNL     1      -9.225   6.321  71.524  1.00  0.00    -0.146 OA 
HETATM   40  C   UNL     1      -7.919   6.338  72.078  1.00  0.00    -0.109 C  
ENDBRANCH   7  39
BRANCH   8  41
HETATM   41  O   UNL     1     -12.011   6.889  71.116  1.00  0.00    -0.329 OA 
HETATM   42  C   UNL     1     -11.902   5.479  71.033  1.00  0.00     1.034 C  
ENDBRANCH   8  41
ENDBRANCH   2   3
TORSDOF 9
ENDMDL
MODEL      229
REMARK 921   NORMALIZED FREE ENERGY PREDICTED BY IDOCK:    7.61 KCAL/MOL
REMARK 922        TOTAL FREE ENERGY PREDICTED BY IDOCK:    9.74 KCAL/MOL
REMARK 923 INTER-LIGAND FREE ENERGY PREDICTED BY IDOCK:    9.47 KCAL/MOL
REMARK 924 INTRA-LIGAND FREE ENERGY PREDICTED BY IDOCK:    0.27 KCAL/MOL
REMARK 927      BINDING AFFINITY PREDICTED BY RF-SCORE:    0.00 PKD
ROOT
HETATM    1  C   UNL     1      -7.192  13.949  73.006  1.00  0.00     5.316 C  
HETATM    2  O   UNL     1      -6.042  13.766  72.177  1.00  0.00    -0.272 OA 
ENDROOT
BRANCH   2   3
HETATM    3  C   UNL     1      -6.122  12.695  71.321  1.00  0.00     0.968 A  
HETATM    4  C   UNL     1      -6.256  12.922  69.939  1.00  0.00    -0.086 A  
HETATM    5  C   UNL     1      -6.450  11.892  69.027  1.00  0.00    -0.086 A  
HETATM    6  C   UNL     1      -6.469  10.596  69.548  1.00  0.00    -0.078 A  
HETATM    7  C   UNL     1      -6.273  10.320  70.912  1.00  0.00    -0.001 A  
HETATM    8  C   UNL     1      -6.060  11.379  71.821  1.00  0.00     1.674 A  
BRANCH   5   9
HETATM    9  N   UNL     1      -6.645  12.099  67.657  1.00  0.00    -0.101 NA 
HETATM   10  H   UNL     1      -7.103  12.985  67.446  1.00  0.00     0.000 HD 
BRANCH   9  11
HETATM   11  C   UNL     1      -6.347  11.350  66.519  1.00  0.00    -0.095 A  
HETATM   12  N   UNL     1      -6.226  12.080  65.401  1.00  0.00     1.976 NA 
HETATM   13  N   UNL     1      -6.193  10.009  66.541  1.00  0.00    -0.067 NA 
HETATM   14  C   UNL     1      -5.908   9.356  65.385  1.00  0.00    -0.058 A  
HETATM   15  F   UNL     1      -5.340   9.480  63.064  1.00  0.00    -0.075 F  
HETATM   16  C   UNL     1      -5.908  11.415  64.271  1.00  0.00     1.703 A  
HETATM   17  C   UNL     1      -5.703  10.058  64.217  1.00  0.00    -0.118 A  
BRANCH  14  18
HETATM   18  N   UNL     1      -5.763   7.963  65.499  1.00  0.00    -0.037 NA 
HETATM   19  H   UNL     1      -4.895   7.671  65.948  1.00  0.00     0.000 HD 
BRANCH  18  20
HETATM   20  C   UNL     1      -6.599   6.893  65.107  1.00  0.00    -0.046 A  
HETATM   21  N   UNL     1      -6.665   5.732  65.794  1.00  0.00    -0.050 NA 
HETATM   22  C   UNL     1      -7.553   4.767  65.404  1.00  0.00    -0.081 A  
HETATM   23  C   UNL     1      -8.336   4.899  64.259  1.00  0.00    -0.130 A  
HETATM   24  O   UNL     1      -9.157   3.917  63.767  1.00  0.00    -0.115 OA 
HETATM   25  C   UNL     1      -8.267   6.086  63.550  1.00  0.00    -0.029 A  
HETATM   26  C   UNL     1      -8.837   2.616  64.255  1.00  0.00    -0.099 C  
HETATM   27  C   UNL     1      -7.392   7.085  63.974  1.00  0.00    -0.084 A  
HETATM   28  C   UNL     1      -8.594   2.587  65.771  1.00  0.00    -0.115 C  
HETATM   29  C   UNL     1      -9.983   1.666  63.891  1.00  0.00    -0.111 C  
HETATM   30  C   UNL     1      -7.536   2.084  63.602  1.00  0.00    -0.059 C  
HETATM   31  N   UNL     1      -7.745   3.598  66.189  1.00  0.00    -0.088 N  
HETATM   32  O   UNL     1      -8.954   1.665  66.500  1.00  0.00    -0.120 OA 
BRANCH  31  33
HETATM   33  C   UNL     1      -6.946   3.316  67.335  1.00  0.00    -0.050 C  
BRANCH  33  34
HETATM   34  O   UNL     1      -6.852   4.455  68.130  1.00  0.00    -0.052 OA 
HETATM   35  P   UNL     1      -7.980   4.354  69.439  1.00  0.00    -0.060 P  
HETATM   36  O   UNL     1      -8.233   5.929  69.085  1.00  0.00    -0.104 OA 
HETATM   37  O   UNL     1      -6.660   4.559  70.378  1.00  0.00    -0.033 OA 
HETATM   38  O   UNL     1      -8.988   4.263  70.610  1.00  0.00    -0.091 OA 
ENDBRANCH  33  34
ENDBRANCH  31  33
ENDBRANCH  18  20
ENDBRANCH  14  18
ENDBRANCH   9  11
ENDBRANCH   5   9
BRANCH   7  39
HETATM   39  O   UNL     1      -6.379   8.976  71.173  1.00  0.00    -0.053 OA 
HETATM   40  C   UNL     1      -5.494   8.056  70.555  1.00  0.00    -0.022 C  
ENDBRANCH   7  39
BRANCH   8  41
HETATM   41  O   UNL     1      -5.775  11.014  73.105  1.00  0.00     0.479 OA 
HETATM   42  C   UNL     1      -5.341   9.715  73.468  1.00  0.00     0.026 C  
ENDBRANCH   8  41
ENDBRANCH   2   3
TORSDOF 9
ENDMDL
MODEL      230
REMARK 921   NORMALIZED FREE ENERGY PREDICTED BY IDOCK:    8.32 KCAL/MOL
REMARK 922        TOTAL FREE ENERGY PREDICTED BY IDOCK:   10.84 KCAL/MOL
REMARK 923 INTER-LIGAND FREE ENERGY PREDICTED BY IDOCK:    9.15 KCAL/MOL
REMARK 924 INTRA-LIGAND FREE ENERGY PREDICTED BY IDOCK:    1.69 KCAL/MOL
REMARK 927      BINDING AFFINITY PREDICTED BY RF-SCORE:    0.00 PKD
ROOT
HETATM    1  C   UNL     1      -5.234   5.120  68.423  1.00  0.00    -0.003 C  
HETATM    2  O   UNL     1      -5.613   6.487  68.248  1.00  0.00    -0.011 OA 
ENDROOT
BRANCH   2   3
HETATM    3  C   UNL     1      -6.904   6.669  67.818  1.00  0.00    -0.080 A  
HETATM    4  C   UNL     1      -7.704   7.656  68.424  1.00  0.00    -0.119 A  
HETATM    5  C   UNL     1      -9.048   7.824  68.116  1.00  0.00    -0.129 A  
HETATM    6  C   UNL     1      -9.570   6.979  67.133  1.00  0.00    -0.187 A  
HETATM    7  C   UNL     1      -8.791   6.026  66.456  1.00  0.00    -0.131 A  
HETATM    8  C   UNL     1      -7.422   5.882  66.771  1.00  0.00    -0.087 A  
BRANCH   5   9
HETATM    9  N   UNL     1      -9.875   8.757  68.749  1.00  0.00    -0.167 NA 
HETATM   10  H   UNL     1     -10.331   8.390  69.583  1.00  0.00     0.000 HD 
BRANCH   9  11
HETATM   11  C   UNL     1     -10.209  10.085  68.480  1.00  0.00    -0.175 A  
HETATM   12  N   UNL     1     -11.413  10.241  67.913  1.00  0.00    -0.314 NA 
HETATM   13  N   UNL     1      -9.391  11.121  68.768  1.00  0.00    -0.175 NA 
HETATM   14  C   UNL     1      -9.793  12.383  68.468  1.00  0.00    -0.151 A  
HETATM   15  F   UNL     1     -11.532  13.840  67.709  1.00  0.00    -0.282 F  
HETATM   16  C   UNL     1     -11.807  11.506  67.657  1.00  0.00    -0.118 A  
HETATM   17  C   UNL     1     -11.048  12.615  67.949  1.00  0.00    -0.247 A  
BRANCH  14  18
HETATM   18  N   UNL     1      -8.882  13.400  68.801  1.00  0.00    -0.382 NA 
HETATM   19  H   UNL     1      -7.914  13.085  68.868  1.00  0.00     0.000 HD 
BRANCH  18  20
HETATM   20  C   UNL     1      -9.059  14.778  69.060  1.00  0.00    -0.136 A  
HETATM   21  N   UNL     1      -8.397  15.737  68.379  1.00  0.00    -0.159 NA 
HETATM   22  C   UNL     1      -8.674  17.054  68.626  1.00  0.00    -0.261 A  
HETATM   23  C   UNL     1      -9.555  17.450  69.630  1.00  0.00     0.515 A  
HETATM   24  O   UNL     1      -9.780  18.754  69.991  1.00  0.00     0.619 OA 
HETATM   25  C   UNL     1     -10.231  16.469  70.335  1.00  0.00     0.694 A  
HETATM   26  C   UNL     1      -8.750  19.644  69.567  1.00  0.00     0.363 C  
HETATM   27  C   UNL     1      -9.979  15.128  70.051  1.00  0.00    -0.052 A  
HETATM   28  C   UNL     1      -8.323  19.416  68.110  1.00  0.00    -0.328 C  
HETATM   29  C   UNL     1      -9.247  21.082  69.748  1.00  0.00     2.620 C  
HETATM   30  C   UNL     1      -7.471  19.457  70.423  1.00  0.00     0.948 C  
HETATM   31  N   UNL     1      -8.099  18.079  67.827  1.00  0.00    -0.233 N  
HETATM   32  O   UNL     1      -8.028  20.327  67.337  1.00  0.00    -0.309 OA 
BRANCH  31  33
HETATM   33  C   UNL     1      -7.125  17.801  66.825  1.00  0.00    -0.201 C  
BRANCH  33  34
HETATM   34  O   UNL     1      -7.710  17.898  65.566  1.00  0.00    -0.505 OA 
HETATM   35  P   UNL     1      -9.321  17.268  65.616  1.00  0.00     0.892 P  
HETATM   36  O   UNL     1      -8.896  16.603  64.185  1.00  0.00     6.031 OA 
HETATM   37  O   UNL     1      -9.742  18.739  65.048  1.00  0.00     1.071 OA 
HETATM   38  O   UNL     1     -10.762  16.704  65.661  1.00  0.00    -0.317 OA 
ENDBRANCH  33  34
ENDBRANCH  31  33
ENDBRANCH  18  20
ENDBRANCH  14  18
ENDBRANCH   9  11
ENDBRANCH   5   9
BRANCH   7  39
HETATM   39  O   UNL     1      -9.547   5.297  65.570  1.00  0.00    -0.112 OA 
HETATM   40  C   UNL     1      -9.428   5.524  64.175  1.00  0.00     0.862 C  
ENDBRANCH   7  39
BRANCH   8  41
HETATM   41  O   UNL     1      -6.721   5.007  65.993  1.00  0.00    -0.050 OA 
HETATM   42  C   UNL     1      -6.654   5.099  64.581  1.00  0.00    -0.043 C  
ENDBRANCH   8  41
ENDBRANCH   2   3
TORSDOF 9
ENDMDL
MODEL      231
REMARK 921   NORMALIZED FREE ENERGY PREDICTED BY IDOCK:   10.88 KCAL/MOL
REMARK 922        TOTAL FREE ENERGY PREDICTED BY IDOCK:   14.73 KCAL/MOL
REMARK 923 INTER-LIGAND FREE ENERGY PREDICTED BY IDOCK:    9.40 KCAL/MOL
REMARK 924 INTRA-LIGAND FREE ENERGY PREDICTED BY IDOCK:    5.34 KCAL/MOL
REMARK 927      BINDING AFFINITY PREDICTED BY RF-SCORE:    0.00 PKD
ROOT
HETATM    1  C   UNL     1      -7.087   5.600  68.712  1.00  0.00    -0.072 C  
HETATM    2  O   UNL     1      -7.749   6.836  68.992  1.00  0.00    -0.105 OA 
ENDROOT
BRANCH   2   3
HETATM    3  C   UNL     1      -8.896   6.711  69.737  1.00  0.00    -0.144 A  
HETATM    4  C   UNL     1      -9.998   7.540  69.457  1.00  0.00    -0.180 A  
HETATM    5  C   UNL     1     -11.148   7.544  70.236  1.00  0.00    -0.248 A  
HETATM    6  C   UNL     1     -11.177   6.647  71.307  1.00  0.00    -0.329 A  
HETATM    7  C   UNL     1     -10.127   5.756  71.581  1.00  0.00    -0.194 A  
HETATM    8  C   UNL     1      -8.973   5.754  70.768  1.00  0.00    -0.148 A  
BRANCH   5   9
HETATM    9  N   UNL     1     -12.230   8.402  70.011  1.00  0.00     0.116 NA 
HETATM   10  H   UNL     1     -12.863   8.069  69.284  1.00  0.00     0.000 HD 
BRANCH   9  11
HETATM   11  C   UNL     1     -12.627   9.617  70.570  1.00  0.00     0.046 A  
HETATM   12  N   UNL     1     -13.916   9.654  70.936  1.00  0.00     0.053 NA 
HETATM   13  N   UNL     1     -11.787  10.662  70.730  1.00  0.00    -0.347 NA 
HETATM   14  C   UNL     1     -12.257  11.811  71.280  1.00  0.00     0.007 A  
HETATM   15  F   UNL     1     -14.052  12.964  72.362  1.00  0.00    -0.542 F  
HETATM   16  C   UNL     1     -14.353  10.793  71.512  1.00  0.00     1.880 A  
HETATM   17  C   UNL     1     -13.554  11.888  71.739  1.00  0.00     0.102 A  
BRANCH  14  18
HETATM   18  N   UNL     1     -11.316  12.846  71.409  1.00  0.00     1.849 NA 
HETATM   19  H   UNL     1     -11.358  13.337  72.302  1.00  0.00     0.000 HD 
BRANCH  18  20
HETATM   20  C   UNL     1     -10.322  13.333  70.530  1.00  0.00     3.281 A  
HETATM   21  N   UNL     1      -9.998  14.642  70.451  1.00  0.00     0.640 NA 
HETATM   22  C   UNL     1      -8.972  15.034  69.635  1.00  0.00     0.022 A  
HETATM   23  C   UNL     1      -8.302  14.140  68.804  1.00  0.00    -0.069 A  
HETATM   24  O   UNL     1      -7.346  14.502  67.890  1.00  0.00    -0.123 OA 
HETATM   25  C   UNL     1      -8.636  12.798  68.878  1.00  0.00     0.316 A  
HETATM   26  C   UNL     1      -7.386  15.885  67.548  1.00  0.00    -0.171 C  
HETATM   27  C   UNL     1      -9.653  12.395  69.742  1.00  0.00     2.114 A  
HETATM   28  C   UNL     1      -7.523  16.802  68.773  1.00  0.00    -0.231 C  
HETATM   29  C   UNL     1      -6.108  16.232  66.776  1.00  0.00     0.185 C  
HETATM   30  C   UNL     1      -8.604  16.197  66.642  1.00  0.00    -0.311 C  
HETATM   31  N   UNL     1      -8.517  16.380  69.640  1.00  0.00     0.231 N  
HETATM   32  O   UNL     1      -6.951  17.886  68.878  1.00  0.00    -0.248 OA 
BRANCH  31  33
HETATM   33  C   UNL     1      -9.174  17.400  70.388  1.00  0.00     3.131 C  
BRANCH  33  34
HETATM   34  O   UNL     1     -10.252  17.891  69.658  1.00  0.00    -0.026 OA 
HETATM   35  P   UNL     1     -10.721  16.740  68.454  1.00  0.00    -0.331 P  
HETATM   36  O   UNL     1     -10.860  18.072  67.516  1.00  0.00    -0.379 OA 
HETATM   37  O   UNL     1     -12.186  16.831  69.167  1.00  0.00     0.540 OA 
HETATM   38  O   UNL     1     -11.139  15.711  67.376  1.00  0.00    -0.316 OA 
ENDBRANCH  33  34
ENDBRANCH  31  33
ENDBRANCH  18  20
ENDBRANCH  14  18
ENDBRANCH   9  11
ENDBRANCH   5   9
BRANCH   7  39
HETATM   39  O   UNL     1     -10.382   5.011  72.708  1.00  0.00    -0.179 OA 
HETATM   40  C   UNL     1     -10.282   5.603  73.993  1.00  0.00    -0.259 C  
ENDBRANCH   7  39
BRANCH   8  41
HETATM   41  O   UNL     1      -8.050   4.786  71.045  1.00  0.00    -0.084 OA 
HETATM   42  C   UNL     1      -7.712   4.385  72.361  1.00  0.00    -0.084 C  
ENDBRANCH   8  41
ENDBRANCH   2   3
TORSDOF 9
ENDMDL
MODEL      232
REMARK 921   NORMALIZED FREE ENERGY PREDICTED BY IDOCK:   11.30 KCAL/MOL
REMARK 922        TOTAL FREE ENERGY PREDICTED BY IDOCK:   15.38 KCAL/MOL
REMARK 923 INTER-LIGAND FREE ENERGY PREDICTED BY IDOCK:    8.06 KCAL/MOL
REMARK 924 INTRA-LIGAND FREE ENERGY PREDICTED BY IDOCK:    7.32 KCAL/MOL
REMARK 927      BINDING AFFINITY PREDICTED BY RF-SCORE:    0.00 PKD
ROOT
HETATM    1  C   UNL     1     -11.509  10.573  64.050  1.00  0.00     2.266 C  
HETATM    2  O   UNL     1     -12.603  11.259  64.664  1.00  0.00     0.553 OA 
ENDROOT
BRANCH   2   3
HETATM    3  C   UNL     1     -12.322  11.786  65.901  1.00  0.00     1.171 A  
HETATM    4  C   UNL     1     -12.146  10.924  66.999  1.00  0.00     1.664 A  
HETATM    5  C   UNL     1     -11.967  11.390  68.295  1.00  0.00    -0.164 A  
HETATM    6  C   UNL     1     -11.932  12.777  68.458  1.00  0.00    -0.265 A  
HETATM    7  C   UNL     1     -12.037  13.673  67.381  1.00  0.00    -0.337 A  
HETATM    8  C   UNL     1     -12.201  13.180  66.068  1.00  0.00    -0.414 A  
BRANCH   5   9
HETATM    9  N   UNL     1     -11.850  10.550  69.408  1.00  0.00    -0.478 NA 
HETATM   10  H   UNL     1     -12.685  10.539  69.992  1.00  0.00     0.000 HD 
BRANCH   9  11
HETATM   11  C   UNL     1     -10.832   9.726  69.889  1.00  0.00    -0.272 A  
HETATM   12  N   UNL     1     -11.214   8.460  70.108  1.00  0.00    -0.193 NA 
HETATM   13  N   UNL     1      -9.575  10.164  70.111  1.00  0.00    -0.087 NA 
HETATM   14  C   UNL     1      -8.645   9.295  70.585  1.00  0.00    -0.225 A  
HETATM   15  F   UNL     1      -8.065   7.044  71.150  1.00  0.00    -0.100 F  
HETATM   16  C   UNL     1     -10.265   7.605  70.544  1.00  0.00    -0.201 A  
HETATM   17  C   UNL     1      -8.957   7.965  70.764  1.00  0.00    -0.140 A  
BRANCH  14  18
HETATM   18  N   UNL     1      -7.364   9.834  70.787  1.00  0.00    -0.318 NA 
HETATM   19  H   UNL     1      -6.641   9.135  70.961  1.00  0.00     0.000 HD 
BRANCH  18  20
HETATM   20  C   UNL     1      -6.892  11.167  70.796  1.00  0.00     1.293 A  
HETATM   21  N   UNL     1      -7.610  12.196  70.297  1.00  0.00     1.810 NA 
HETATM   22  C   UNL     1      -7.127  13.471  70.408  1.00  0.00     1.190 A  
HETATM   23  C   UNL     1      -5.868  13.744  70.938  1.00  0.00    -0.187 A  
HETATM   24  O   UNL     1      -5.295  14.989  70.968  1.00  0.00    -0.133 OA 
HETATM   25  C   UNL     1      -5.126  12.690  71.444  1.00  0.00    -0.146 A  
HETATM   26  C   UNL     1      -5.884  15.905  70.048  1.00  0.00    -0.168 C  
HETATM   27  C   UNL     1      -5.640  11.396  71.369  1.00  0.00     0.208 A  
HETATM   28  C   UNL     1      -7.420  15.873  70.071  1.00  0.00     0.429 C  
HETATM   29  C   UNL     1      -5.385  17.315  70.380  1.00  0.00    -0.253 C  
HETATM   30  C   UNL     1      -5.471  15.571  68.592  1.00  0.00    -0.093 C  
HETATM   31  N   UNL     1      -7.923  14.584  70.023  1.00  0.00     0.443 N  
HETATM   32  O   UNL     1      -8.122  16.876  69.953  1.00  0.00     0.747 OA 
BRANCH  31  33
HETATM   33  C   UNL     1      -9.193  14.426  69.396  1.00  0.00     0.305 C  
BRANCH  33  34
HETATM   34  O   UNL     1      -9.835  15.658  69.328  1.00  0.00    -0.231 OA 
HETATM   35  P   UNL     1     -11.251  15.639  70.323  1.00  0.00    -0.403 P  
HETATM   36  O   UNL     1     -11.914  16.431  69.057  1.00  0.00    -0.136 OA 
HETATM   37  O   UNL     1     -10.565  16.932  71.045  1.00  0.00     0.789 OA 
HETATM   38  O   UNL     1     -12.517  15.621  71.213  1.00  0.00    -0.386 OA 
ENDBRANCH  33  34
ENDBRANCH  31  33
ENDBRANCH  18  20
ENDBRANCH  14  18
ENDBRANCH   9  11
ENDBRANCH   5   9
BRANCH   7  39
HETATM   39  O   UNL     1     -12.015  14.978  67.809  1.00  0.00    -0.289 OA 
HETATM   40  C   UNL     1     -11.686  16.021  66.906  1.00  0.00     0.662 C  
ENDBRANCH   7  39
BRANCH   8  41
HETATM   41  O   UNL     1     -12.190  14.117  65.075  1.00  0.00    -0.402 OA 
HETATM   42  C   UNL     1     -12.902  13.972  63.859  1.00  0.00     0.555 C  
ENDBRANCH   8  41
ENDBRANCH   2   3
TORSDOF 9
ENDMDL
MODEL      233
REMARK 921   NORMALIZED FREE ENERGY PREDICTED BY IDOCK:   11.57 KCAL/MOL
REMARK 922        TOTAL FREE ENERGY PREDICTED BY IDOCK:   15.80 KCAL/MOL
REMARK 923 INTER-LIGAND FREE ENERGY PREDICTED BY IDOCK:   15.48 KCAL/MOL
REMARK 924 INTRA-LIGAND FREE ENERGY PREDICTED BY IDOCK:    0.32 KCAL/MOL
REMARK 927      BINDING AFFINITY PREDICTED BY RF-SCORE:    0.00 PKD
ROOT
HETATM    1  C   UNL     1      -7.536  10.824  72.303  1.00  0.00     6.975 C  
HETATM    2  O   UNL     1      -8.109   9.514  72.309  1.00  0.00     0.468 OA 
ENDROOT
BRANCH   2   3
HETATM    3  C   UNL     1      -9.293   9.407  71.621  1.00  0.00     0.379 A  
HETATM    4  C   UNL     1     -10.259  10.422  71.745  1.00  0.00     3.735 A  
HETATM    5  C   UNL     1     -11.519  10.330  71.166  1.00  0.00    -0.237 A  
HETATM    6  C   UNL     1     -11.774   9.182  70.412  1.00  0.00    -0.124 A  
HETATM    7  C   UNL     1     -10.814   8.177  70.207  1.00  0.00    -0.244 A  
HETATM    8  C   UNL     1      -9.534   8.296  70.789  1.00  0.00    -0.161 A  
BRANCH   5   9
HETATM    9  N   UNL     1     -12.515  11.299  71.326  1.00  0.00    -0.361 NA 
HETATM   10  H   UNL     1     -13.430  10.992  70.998  1.00  0.00     0.000 HD 
BRANCH   9  11
HETATM   11  C   UNL     1     -12.522  12.596  71.839  1.00  0.00     0.263 A  
HETATM   12  N   UNL     1     -13.085  12.701  73.051  1.00  0.00     0.680 NA 
HETATM   13  N   UNL     1     -12.006  13.652  71.174  1.00  0.00    -0.118 NA 
HETATM   14  C   UNL     1     -12.059  14.883  71.745  1.00  0.00    -0.360 A  
HETATM   15  F   UNL     1     -12.567  16.216  73.665  1.00  0.00    -0.489 F  
HETATM   16  C   UNL     1     -13.095  13.927  73.614  1.00  0.00     1.626 A  
HETATM   17  C   UNL     1     -12.562  15.045  73.018  1.00  0.00    -0.437 A  
BRANCH  14  18
HETATM   18  N   UNL     1     -11.499  15.924  70.985  1.00  0.00    -0.393 NA 
HETATM   19  H   UNL     1     -12.000  16.809  71.059  1.00  0.00     0.000 HD 
BRANCH  18  20
HETATM   20  C   UNL     1     -10.369  15.970  70.137  1.00  0.00    -0.115 A  
HETATM   21  N   UNL     1      -9.912  14.886  69.473  1.00  0.00    -0.131 NA 
HETATM   22  C   UNL     1      -8.861  15.019  68.607  1.00  0.00    -0.185 A  
HETATM   23  C   UNL     1      -8.177  16.222  68.451  1.00  0.00    -0.185 A  
HETATM   24  O   UNL     1      -7.052  16.377  67.682  1.00  0.00    -0.118 OA 
HETATM   25  C   UNL     1      -8.639  17.334  69.134  1.00  0.00     0.040 A  
HETATM   26  C   UNL     1      -6.388  15.148  67.397  1.00  0.00     0.029 C  
HETATM   27  C   UNL     1      -9.737  17.206  69.983  1.00  0.00     1.068 A  
HETATM   28  C   UNL     1      -7.351  14.035  66.959  1.00  0.00     0.411 C  
HETATM   29  C   UNL     1      -5.347  15.401  66.302  1.00  0.00     3.333 C  
HETATM   30  C   UNL     1      -5.655  14.610  68.653  1.00  0.00    -0.093 C  
HETATM   31  N   UNL     1      -8.453  13.930  67.791  1.00  0.00    -0.169 N  
HETATM   32  O   UNL     1      -7.084  13.209  66.087  1.00  0.00     1.759 OA 
BRANCH  31  33
HETATM   33  C   UNL     1      -9.024  12.631  67.919  1.00  0.00    -0.189 C  
BRANCH  33  34
HETATM   34  O   UNL     1      -8.738  11.881  66.783  1.00  0.00    -0.186 OA 
HETATM   35  P   UNL     1     -10.148  11.764  65.785  1.00  0.00    -0.254 P  
HETATM   36  O   UNL     1      -9.664  10.212  65.621  1.00  0.00    -0.220 OA 
HETATM   37  O   UNL     1      -9.188  12.407  64.632  1.00  0.00     0.359 OA 
HETATM   38  O   UNL     1     -11.408  11.660  64.893  1.00  0.00    -0.272 OA 
ENDBRANCH  33  34
ENDBRANCH  31  33
ENDBRANCH  18  20
ENDBRANCH  14  18
ENDBRANCH   9  11
ENDBRANCH   5   9
BRANCH   7  39
HETATM   39  O   UNL     1     -11.325   7.138  69.467  1.00  0.00    -0.140 OA 
HETATM   40  C   UNL     1     -10.808   6.860  68.175  1.00  0.00    -0.194 C  
ENDBRANCH   7  39
BRANCH   8  41
HETATM   41  O   UNL     1      -8.634   7.326  70.454  1.00  0.00    -0.141 OA 
HETATM   42  C   UNL     1      -8.616   6.039  71.047  1.00  0.00    -0.131 C  
ENDBRANCH   8  41
ENDBRANCH   2   3
TORSDOF 9
ENDMDL
MODEL      234
REMARK 921   NORMALIZED FREE ENERGY PREDICTED BY IDOCK:   12.59 KCAL/MOL
REMARK 922        TOTAL FREE ENERGY PREDICTED BY IDOCK:   17.35 KCAL/MOL
REMARK 923 INTER-LIGAND FREE ENERGY PREDICTED BY IDOCK:   11.40 KCAL/MOL
REMARK 924 INTRA-LIGAND FREE ENERGY PREDICTED BY IDOCK:    5.95 KCAL/MOL
REMARK 927      BINDING AFFINITY PREDICTED BY RF-SCORE:    0.00 PKD
ROOT
HETATM    1  C   UNL     1      -8.097   2.428  70.273  1.00  0.00    -0.041 C  
HETATM    2  O   UNL     1      -9.088   3.457  70.218  1.00  0.00    -0.102 OA 
ENDROOT
BRANCH   2   3
HETATM    3  C   UNL     1      -9.518   3.767  68.951  1.00  0.00    -0.153 A  
HETATM    4  C   UNL     1     -10.320   4.905  68.750  1.00  0.00    -0.049 A  
HETATM    5  C   UNL     1     -10.877   5.220  67.517  1.00  0.00     0.196 A  
HETATM    6  C   UNL     1     -10.570   4.361  66.459  1.00  0.00     0.275 A  
HETATM    7  C   UNL     1      -9.719   3.252  66.600  1.00  0.00     0.108 A  
HETATM    8  C   UNL     1      -9.148   2.958  67.857  1.00  0.00    -0.180 A  
BRANCH   5   9
HETATM    9  N   UNL     1     -11.726   6.312  67.309  1.00  0.00    -0.258 NA 
HETATM   10  H   UNL     1     -12.710   6.052  67.257  1.00  0.00     0.000 HD 
BRANCH   9  11
HETATM   11  C   UNL     1     -11.511   7.683  67.158  1.00  0.00     1.264 A  
HETATM   12  N   UNL     1     -11.189   8.049  65.909  1.00  0.00     3.475 NA 
HETATM   13  N   UNL     1     -11.619   8.560  68.178  1.00  0.00     1.308 NA 
HETATM   14  C   UNL     1     -11.389   9.878  67.943  1.00  0.00     0.129 A  
HETATM   15  F   UNL     1     -10.966  11.621  66.360  1.00  0.00    -0.288 F  
HETATM   16  C   UNL     1     -10.999   9.368  65.692  1.00  0.00     2.087 A  
HETATM   17  C   UNL     1     -11.122  10.327  66.668  1.00  0.00     0.159 A  
BRANCH  14  18
HETATM   18  N   UNL     1     -11.523  10.721  69.060  1.00  0.00    -0.282 NA 
HETATM   19  H   UNL     1     -11.574  10.226  69.950  1.00  0.00     0.000 HD 
BRANCH  18  20
HETATM   20  C   UNL     1     -11.601  12.127  69.176  1.00  0.00    -0.319 A  
HETATM   21  N   UNL     1     -10.886  12.963  68.392  1.00  0.00    -0.245 NA 
HETATM   22  C   UNL     1     -11.068  14.314  68.505  1.00  0.00    -0.257 A  
HETATM   23  C   UNL     1     -11.901  14.872  69.471  1.00  0.00    -0.325 A  
HETATM   24  O   UNL     1     -12.030  16.219  69.697  1.00  0.00    -0.147 OA 
HETATM   25  C   UNL     1     -12.631  14.018  70.281  1.00  0.00    -0.354 A  
HETATM   26  C   UNL     1     -10.949  16.986  69.173  1.00  0.00    -0.054 C  
HETATM   27  C   UNL     1     -12.476  12.641  70.135  1.00  0.00    -0.099 A  
HETATM   28  C   UNL     1     -10.564  16.580  67.742  1.00  0.00    -0.332 C  
HETATM   29  C   UNL     1     -11.342  18.466  69.209  1.00  0.00     2.698 C  
HETATM   30  C   UNL     1      -9.671  16.798  70.030  1.00  0.00     0.837 C  
HETATM   31  N   UNL     1     -10.438  15.209  67.597  1.00  0.00    -0.249 N  
HETATM   32  O   UNL     1     -10.221  17.383  66.877  1.00  0.00    -0.304 OA 
BRANCH  31  33
HETATM   33  C   UNL     1      -9.502  14.762  66.620  1.00  0.00    -0.273 C  
BRANCH  33  34
HETATM   34  O   UNL     1     -10.133  14.660  65.383  1.00  0.00    -0.349 OA 
HETATM   35  P   UNL     1     -11.580  15.609  65.382  1.00  0.00     0.376 P  
HETATM   36  O   UNL     1     -12.195  14.314  64.598  1.00  0.00    -0.433 OA 
HETATM   37  O   UNL     1     -10.908  16.340  64.086  1.00  0.00    -0.511 OA 
HETATM   38  O   UNL     1     -12.875  16.457  65.381  1.00  0.00     2.809 OA 
ENDBRANCH  33  34
ENDBRANCH  31  33
ENDBRANCH  18  20
ENDBRANCH  14  18
ENDBRANCH   9  11
ENDBRANCH   5   9
BRANCH   7  39
HETATM   39  O   UNL     1      -9.612   2.548  65.425  1.00  0.00    -0.021 OA 
HETATM   40  C   UNL     1     -10.515   1.492  65.140  1.00  0.00     1.401 C  
ENDBRANCH   7  39
BRANCH   8  41
HETATM   41  O   UNL     1      -8.255   1.926  67.879  1.00  0.00    -0.058 OA 
HETATM   42  C   UNL     1      -6.987   2.006  68.505  1.00  0.00    -0.039 C  
ENDBRANCH   8  41
ENDBRANCH   2   3
TORSDOF 9
ENDMDL
MODEL      235
REMARK 921   NORMALIZED FREE ENERGY PREDICTED BY IDOCK:   17.60 KCAL/MOL
REMARK 922        TOTAL FREE ENERGY PREDICTED BY IDOCK:   25.00 KCAL/MOL
REMARK 923 INTER-LIGAND FREE ENERGY PREDICTED BY IDOCK:   21.12 KCAL/MOL
REMARK 924 INTRA-LIGAND FREE ENERGY PREDICTED BY IDOCK:    3.88 KCAL/MOL
REMARK 927      BINDING AFFINITY PREDICTED BY RF-SCORE:    0.00 PKD
ROOT
HETATM    1  C   UNL     1      -7.275   5.534  68.684  1.00  0.00    -0.074 C  
HETATM    2  O   UNL     1      -8.127   6.617  69.067  1.00  0.00    -0.113 OA 
ENDROOT
BRANCH   2   3
HETATM    3  C   UNL     1      -9.317   6.233  69.634  1.00  0.00    -0.143 A  
HETATM    4  C   UNL     1     -10.408   7.121  69.623  1.00  0.00    -0.224 A  
HETATM    5  C   UNL     1     -11.606   6.842  70.270  1.00  0.00    -0.311 A  
HETATM    6  C   UNL     1     -11.692   5.604  70.912  1.00  0.00     0.543 A  
HETATM    7  C   UNL     1     -10.651   4.661  70.890  1.00  0.00     0.180 A  
HETATM    8  C   UNL     1      -9.449   4.955  70.213  1.00  0.00    -0.171 A  
BRANCH   5   9
HETATM    9  N   UNL     1     -12.681   7.735  70.323  1.00  0.00     0.100 NA 
HETATM   10  H   UNL     1     -13.429   7.503  69.670  1.00  0.00     0.000 HD 
BRANCH   9  11
HETATM   11  C   UNL     1     -12.947   8.877  71.080  1.00  0.00    -0.005 A  
HETATM   12  N   UNL     1     -14.052   8.787  71.833  1.00  0.00    -0.425 NA 
HETATM   13  N   UNL     1     -12.160   9.974  71.056  1.00  0.00    -0.344 NA 
HETATM   14  C   UNL     1     -12.496  11.045  71.821  1.00  0.00    -0.089 A  
HETATM   15  F   UNL     1     -13.914  11.979  73.506  1.00  0.00     2.331 F  
HETATM   16  C   UNL     1     -14.347   9.849  72.612  1.00  0.00     0.765 A  
HETATM   17  C   UNL     1     -13.581  10.989  72.669  1.00  0.00     1.023 A  
BRANCH  14  18
HETATM   18  N   UNL     1     -11.622  12.143  71.737  1.00  0.00     1.931 NA 
HETATM   19  H   UNL     1     -11.510  12.652  72.613  1.00  0.00     0.000 HD 
BRANCH  18  20
HETATM   20  C   UNL     1     -10.872  12.670  70.661  1.00  0.00     2.667 A  
HETATM   21  N   UNL     1     -10.804  12.065  69.456  1.00  0.00    -0.000 NA 
HETATM   22  C   UNL     1     -10.123  12.671  68.435  1.00  0.00    -0.222 A  
HETATM   23  C   UNL     1      -9.411  13.854  68.618  1.00  0.00    -0.123 A  
HETATM   24  O   UNL     1      -8.624  14.439  67.659  1.00  0.00    -0.164 OA 
HETATM   25  C   UNL     1      -9.474  14.474  69.855  1.00  0.00     0.665 A  
HETATM   26  C   UNL     1      -8.245  13.544  66.616  1.00  0.00     0.376 C  
HETATM   27  C   UNL     1     -10.204  13.876  70.881  1.00  0.00     3.407 A  
HETATM   28  C   UNL     1      -9.417  12.699  66.097  1.00  0.00    -0.175 C  
HETATM   29  C   UNL     1      -7.642  14.363  65.470  1.00  0.00     6.650 C  
HETATM   30  C   UNL     1      -7.177  12.536  67.112  1.00  0.00    -0.061 C  
HETATM   31  N   UNL     1     -10.155  12.130  67.121  1.00  0.00    -0.206 N  
HETATM   32  O   UNL     1      -9.571  12.404  64.912  1.00  0.00    -0.060 OA 
BRANCH  31  33
HETATM   33  C   UNL     1     -10.782  10.884  66.830  1.00  0.00    -0.264 C  
BRANCH  33  34
HETATM   34  O   UNL     1      -9.840   9.862  66.891  1.00  0.00    -0.180 OA 
HETATM   35  P   UNL     1     -10.558   8.369  66.388  1.00  0.00     1.126 P  
HETATM   36  O   UNL     1      -9.715   7.765  67.651  1.00  0.00    -0.145 OA 
HETATM   37  O   UNL     1      -9.346   8.341  65.294  1.00  0.00     0.115 OA 
HETATM   38  O   UNL     1     -11.200   7.035  65.939  1.00  0.00     2.075 OA 
ENDBRANCH  33  34
ENDBRANCH  31  33
ENDBRANCH  18  20
ENDBRANCH  14  18
ENDBRANCH   9  11
ENDBRANCH   5   9
BRANCH   7  39
HETATM   39  O   UNL     1     -10.969   3.546  71.627  1.00  0.00     0.851 OA 
HETATM   40  C   UNL     1     -10.937   3.593  73.044  1.00  0.00    -0.062 C  
ENDBRANCH   7  39
BRANCH   8  41
HETATM   41  O   UNL     1      -8.534   3.942  70.155  1.00  0.00    -0.059 OA 
HETATM   42  C   UNL     1      -8.301   3.041  71.223  1.00  0.00    -0.063 C  
ENDBRANCH   8  41
ENDBRANCH   2   3
TORSDOF 9
ENDMDL
MODEL      236
REMARK 921   NORMALIZED FREE ENERGY PREDICTED BY IDOCK:   19.49 KCAL/MOL
REMARK 922        TOTAL FREE ENERGY PREDICTED BY IDOCK:   27.88 KCAL/MOL
REMARK 923 INTER-LIGAND FREE ENERGY PREDICTED BY IDOCK:   28.00 KCAL/MOL
REMARK 924 INTRA-LIGAND FREE ENERGY PREDICTED BY IDOCK:   -0.12 KCAL/MOL
REMARK 927      BINDING AFFINITY PREDICTED BY RF-SCORE:    0.00 PKD
ROOT
HETATM    1  C   UNL     1     -11.983   5.253  68.806  1.00  0.00     5.395 C  
HETATM    2  O   UNL     1     -11.014   5.749  69.733  1.00  0.00    -0.357 OA 
ENDROOT
BRANCH   2   3
HETATM    3  C   UNL     1     -10.739   7.088  69.608  1.00  0.00    -0.241 A  
HETATM    4  C   UNL     1      -9.402   7.525  69.616  1.00  0.00    -0.153 A  
HETATM    5  C   UNL     1      -9.053   8.870  69.602  1.00  0.00    -0.151 A  
HETATM    6  C   UNL     1     -10.108   9.785  69.541  1.00  0.00    -0.233 A  
HETATM    7  C   UNL     1     -11.454   9.390  69.464  1.00  0.00     0.161 A  
HETATM    8  C   UNL     1     -11.788   8.019  69.462  1.00  0.00     1.016 A  
BRANCH   5   9
HETATM    9  N   UNL     1      -7.733   9.327  69.670  1.00  0.00    -0.080 NA 
HETATM   10  H   UNL     1      -7.049   8.620  69.401  1.00  0.00     0.000 HD 
BRANCH   9  11
HETATM   11  C   UNL     1      -7.153  10.544  70.028  1.00  0.00    -0.127 A  
HETATM   12  N   UNL     1      -5.823  10.490  70.185  1.00  0.00    -0.068 NA 
HETATM   13  N   UNL     1      -7.869  11.676  70.198  1.00  0.00     1.415 NA 
HETATM   14  C   UNL     1      -7.225  12.819  70.552  1.00  0.00     2.595 A  
HETATM   15  F   UNL     1      -5.154  13.955  70.926  1.00  0.00    -0.094 F  
HETATM   16  C   UNL     1      -5.200  11.645  70.501  1.00  0.00    -0.117 A  
HETATM   17  C   UNL     1      -5.851  12.844  70.661  1.00  0.00    -0.109 A  
BRANCH  14  18
HETATM   18  N   UNL     1      -8.045  13.949  70.708  1.00  0.00     2.553 NA 
HETATM   19  H   UNL     1      -7.904  14.446  71.587  1.00  0.00     0.000 HD 
BRANCH  18  20
HETATM   20  C   UNL     1      -9.029  14.524  69.872  1.00  0.00     0.783 A  
HETATM   21  N   UNL     1      -8.823  14.752  68.557  1.00  0.00    -0.171 NA 
HETATM   22  C   UNL     1      -9.845  15.239  67.788  1.00  0.00    -0.220 A  
HETATM   23  C   UNL     1     -11.076  15.598  68.333  1.00  0.00    -0.326 A  
HETATM   24  O   UNL     1     -12.090  16.192  67.627  1.00  0.00     0.464 OA 
HETATM   25  C   UNL     1     -11.289  15.370  69.682  1.00  0.00    -0.315 A  
HETATM   26  C   UNL     1     -11.653  16.799  66.413  1.00  0.00     1.281 C  
HETATM   27  C   UNL     1     -10.259  14.834  70.454  1.00  0.00     0.406 A  
HETATM   28  C   UNL     1     -10.707  15.904  65.601  1.00  0.00    -0.339 C  
HETATM   29  C   UNL     1     -12.887  17.152  65.575  1.00  0.00     7.654 C  
HETATM   30  C   UNL     1     -10.868  18.105  66.699  1.00  0.00    -0.043 C  
HETATM   31  N   UNL     1      -9.702  15.353  66.379  1.00  0.00    -0.268 N  
HETATM   32  O   UNL     1     -10.723  15.834  64.373  1.00  0.00    -0.356 OA 
BRANCH  31  33
HETATM   33  C   UNL     1      -8.466  15.092  65.720  1.00  0.00     1.440 C  
BRANCH  33  34
HETATM   34  O   UNL     1      -7.409  15.450  66.551  1.00  0.00     0.050 OA 
HETATM   35  P   UNL     1      -6.648  16.883  65.949  1.00  0.00     1.428 P  
HETATM   36  O   UNL     1      -5.278  16.084  66.341  1.00  0.00     0.300 OA 
HETATM   37  O   UNL     1      -6.973  17.484  67.432  1.00  0.00    -0.159 OA 
HETATM   38  O   UNL     1      -5.967  18.165  65.411  1.00  0.00    -0.207 OA 
ENDBRANCH  33  34
ENDBRANCH  31  33
ENDBRANCH  18  20
ENDBRANCH  14  18
ENDBRANCH   9  11
ENDBRANCH   5   9
BRANCH   7  39
HETATM   39  O   UNL     1     -12.296  10.476  69.456  1.00  0.00    -0.191 OA 
HETATM   40  C   UNL     1     -12.029  11.581  68.607  1.00  0.00    -0.246 C  
ENDBRANCH   7  39
BRANCH   8  41
HETATM   41  O   UNL     1     -13.109   7.727  69.280  1.00  0.00     3.940 OA 
HETATM   42  C   UNL     1     -14.046   7.663  70.341  1.00  0.00     1.692 C  
ENDBRANCH   8  41
ENDBRANCH   2   3
TORSDOF 9
ENDMDL
MODEL      237
REMARK 921   NORMALIZED FREE ENERGY PREDICTED BY IDOCK:   20.61 KCAL/MOL
REMARK 922        TOTAL FREE ENERGY PREDICTED BY IDOCK:   29.59 KCAL/MOL
REMARK 923 INTER-LIGAND FREE ENERGY PREDICTED BY IDOCK:   28.83 KCAL/MOL
REMARK 924 INTRA-LIGAND FREE ENERGY PREDICTED BY IDOCK:    0.76 KCAL/MOL
REMARK 927      BINDING AFFINITY PREDICTED BY RF-SCORE:    0.00 PKD
ROOT
HETATM    1  C   UNL     1     -11.981   5.255  68.808  1.00  0.00     5.395 C  
HETATM    2  O   UNL     1     -11.014   5.735  69.745  1.00  0.00    -0.357 OA 
ENDROOT
BRANCH   2   3
HETATM    3  C   UNL     1     -10.736   7.076  69.641  1.00  0.00    -0.241 A  
HETATM    4  C   UNL     1      -9.398   7.510  69.659  1.00  0.00    -0.153 A  
HETATM    5  C   UNL     1      -9.048   8.854  69.665  1.00  0.00    -0.151 A  
HETATM    6  C   UNL     1     -10.100   9.771  69.615  1.00  0.00    -0.250 A  
HETATM    7  C   UNL     1     -11.447   9.380  69.528  1.00  0.00     0.161 A  
HETATM    8  C   UNL     1     -11.783   8.010  69.506  1.00  0.00     0.792 A  
BRANCH   5   9
HETATM    9  N   UNL     1      -7.727   9.307  69.743  1.00  0.00    -0.086 NA 
HETATM   10  H   UNL     1      -7.041   8.586  69.525  1.00  0.00     0.000 HD 
BRANCH   9  11
HETATM   11  C   UNL     1      -7.149  10.538  70.058  1.00  0.00    -0.127 A  
HETATM   12  N   UNL     1      -5.823  10.485  70.247  1.00  0.00    -0.077 NA 
HETATM   13  N   UNL     1      -7.862  11.679  70.160  1.00  0.00     1.415 NA 
HETATM   14  C   UNL     1      -7.220  12.834  70.475  1.00  0.00     2.595 A  
HETATM   15  F   UNL     1      -5.152  13.978  70.842  1.00  0.00    -0.094 F  
HETATM   16  C   UNL     1      -5.201  11.651  70.523  1.00  0.00    -0.117 A  
HETATM   17  C   UNL     1      -5.849  12.859  70.613  1.00  0.00    -0.109 A  
BRANCH  14  18
HETATM   18  N   UNL     1      -8.038  13.974  70.561  1.00  0.00     1.678 NA 
HETATM   19  H   UNL     1      -7.916  14.508  71.421  1.00  0.00     0.000 HD 
BRANCH  18  20
HETATM   20  C   UNL     1      -8.997  14.516  69.675  1.00  0.00     0.474 A  
HETATM   21  N   UNL     1      -9.445  13.848  68.590  1.00  0.00    -0.170 NA 
HETATM   22  C   UNL     1     -10.431  14.399  67.819  1.00  0.00    -0.245 A  
HETATM   23  C   UNL     1     -10.932  15.676  68.057  1.00  0.00    -0.318 A  
HETATM   24  O   UNL     1     -11.838  16.315  67.249  1.00  0.00     0.476 OA 
HETATM   25  C   UNL     1     -10.470  16.367  69.165  1.00  0.00    -0.303 A  
HETATM   26  C   UNL     1     -11.911  15.764  65.936  1.00  0.00     0.719 C  
HETATM   27  C   UNL     1      -9.496  15.785  69.974  1.00  0.00     0.200 A  
HETATM   28  C   UNL     1     -11.975  14.230  65.933  1.00  0.00    -0.391 C  
HETATM   29  C   UNL     1     -13.146  16.341  65.236  1.00  0.00     4.006 C  
HETATM   30  C   UNL     1     -10.657  16.142  65.107  1.00  0.00    -0.366 C  
HETATM   31  N   UNL     1     -11.021  13.659  66.759  1.00  0.00    -0.290 N  
HETATM   32  O   UNL     1     -12.661  13.580  65.146  1.00  0.00    -0.611 OA 
BRANCH  31  33
HETATM   33  C   UNL     1     -10.539  12.375  66.371  1.00  0.00    -0.244 C  
BRANCH  33  34
HETATM   34  O   UNL     1      -9.163  12.314  66.572  1.00  0.00    -0.221 OA 
HETATM   35  P   UNL     1      -8.345  12.335  65.047  1.00  0.00     2.773 P  
HETATM   36  O   UNL     1      -7.417  11.189  65.751  1.00  0.00    -0.002 OA 
HETATM   37  O   UNL     1      -7.574  13.636  65.661  1.00  0.00     3.503 OA 
HETATM   38  O   UNL     1      -7.613  12.353  63.683  1.00  0.00     3.988 OA 
ENDBRANCH  33  34
ENDBRANCH  31  33
ENDBRANCH  18  20
ENDBRANCH  14  18
ENDBRANCH   9  11
ENDBRANCH   5   9
BRANCH   7  39
HETATM   39  O   UNL     1     -12.287  10.468  69.534  1.00  0.00    -0.191 OA 
HETATM   40  C   UNL     1     -11.777  11.766  69.275  1.00  0.00    -0.335 C  
ENDBRANCH   7  39
BRANCH   8  41
HETATM   41  O   UNL     1     -13.104   7.723  69.316  1.00  0.00     3.940 OA 
HETATM   42  C   UNL     1     -14.119   8.076  70.240  1.00  0.00     2.161 C  
ENDBRANCH   8  41
ENDBRANCH   2   3
TORSDOF 9
ENDMDL
MODEL      238
REMARK 921   NORMALIZED FREE ENERGY PREDICTED BY IDOCK:   24.48 KCAL/MOL
REMARK 922        TOTAL FREE ENERGY PREDICTED BY IDOCK:   35.50 KCAL/MOL
REMARK 923 INTER-LIGAND FREE ENERGY PREDICTED BY IDOCK:   34.56 KCAL/MOL
REMARK 924 INTRA-LIGAND FREE ENERGY PREDICTED BY IDOCK:    0.93 KCAL/MOL
REMARK 927      BINDING AFFINITY PREDICTED BY RF-SCORE:    0.00 PKD
ROOT
HETATM    1  C   UNL     1      -7.963  13.848  64.360  1.00  0.00    11.642 C  
HETATM    2  O   UNL     1      -7.971  12.823  65.357  1.00  0.00     2.458 OA 
ENDROOT
BRANCH   2   3
HETATM    3  C   UNL     1      -8.921  12.988  66.335  1.00  0.00     0.011 A  
HETATM    4  C   UNL     1      -8.741  12.371  67.587  1.00  0.00    -0.178 A  
HETATM    5  C   UNL     1      -9.707  12.405  68.584  1.00  0.00    -0.055 A  
HETATM    6  C   UNL     1     -10.871  13.124  68.298  1.00  0.00    -0.274 A  
HETATM    7  C   UNL     1     -11.063  13.811  67.087  1.00  0.00    -0.302 A  
HETATM    8  C   UNL     1     -10.062  13.778  66.093  1.00  0.00    -0.307 A  
BRANCH   5   9
HETATM    9  N   UNL     1      -9.574  11.748  69.812  1.00  0.00     0.722 NA 
HETATM   10  H   UNL     1     -10.384  11.866  70.420  1.00  0.00     0.000 HD 
BRANCH   9  11
HETATM   11  C   UNL     1      -8.569  10.967  70.381  1.00  0.00     2.222 A  
HETATM   12  N   UNL     1      -8.270  11.297  71.645  1.00  0.00     8.333 NA 
HETATM   13  N   UNL     1      -7.952   9.965  69.717  1.00  0.00    -0.158 NA 
HETATM   14  C   UNL     1      -6.979   9.256  70.346  1.00  0.00    -0.085 A  
HETATM   15  F   UNL     1      -5.784   8.785  72.364  1.00  0.00    -0.048 F  
HETATM   16  C   UNL     1      -7.325  10.556  72.261  1.00  0.00     5.111 A  
HETATM   17  C   UNL     1      -6.675   9.502  71.667  1.00  0.00     0.275 A  
BRANCH  14  18
HETATM   18  N   UNL     1      -6.391   8.233  69.582  1.00  0.00    -0.036 NA 
HETATM   19  H   UNL     1      -5.446   8.445  69.262  1.00  0.00     0.000 HD 
BRANCH  18  20
HETATM   20  C   UNL     1      -6.868   6.966  69.177  1.00  0.00    -0.068 A  
HETATM   21  N   UNL     1      -8.133   6.768  68.747  1.00  0.00    -0.119 NA 
HETATM   22  C   UNL     1      -8.506   5.531  68.295  1.00  0.00    -0.097 A  
HETATM   23  C   UNL     1      -7.650   4.434  68.348  1.00  0.00    -0.064 A  
HETATM   24  O   UNL     1      -8.012   3.154  68.012  1.00  0.00    -0.066 OA 
HETATM   25  C   UNL     1      -6.354   4.632  68.793  1.00  0.00    -0.036 A  
HETATM   26  C   UNL     1      -9.423   2.947  68.014  1.00  0.00    -0.157 C  
HETATM   27  C   UNL     1      -5.964   5.903  69.213  1.00  0.00    -0.027 A  
HETATM   28  C   UNL     1     -10.194   4.070  67.304  1.00  0.00     0.399 C  
HETATM   29  C   UNL     1      -9.717   1.603  67.339  1.00  0.00     0.268 C  
HETATM   30  C   UNL     1      -9.974   2.898  69.462  1.00  0.00     0.550 C  
HETATM   31  N   UNL     1      -9.783   5.330  67.706  1.00  0.00    -0.133 N  
HETATM   32  O   UNL     1     -11.188   3.876  66.606  1.00  0.00     2.508 OA 
BRANCH  31  33
HETATM   33  C   UNL     1     -10.771   6.356  67.669  1.00  0.00    -0.311 C  
BRANCH  33  34
HETATM   34  O   UNL     1     -10.419   7.308  66.717  1.00  0.00    -0.286 OA 
HETATM   35  P   UNL     1     -10.842   8.889  67.281  1.00  0.00     0.360 P  
HETATM   36  O   UNL     1     -11.340   9.093  65.738  1.00  0.00     2.544 OA 
HETATM   37  O   UNL     1      -9.263   9.222  67.038  1.00  0.00    -0.134 OA 
HETATM   38  O   UNL     1     -11.220  10.302  67.786  1.00  0.00    -0.306 OA 
ENDBRANCH  33  34
ENDBRANCH  31  33
ENDBRANCH  18  20
ENDBRANCH  14  18
ENDBRANCH   9  11
ENDBRANCH   5   9
BRANCH   7  39
HETATM   39  O   UNL     1     -12.302  14.403  67.036  1.00  0.00    -0.353 OA 
HETATM   40  C   UNL     1     -12.825  15.064  68.177  1.00  0.00     1.583 C  
ENDBRANCH   7  39
BRANCH   8  41
HETATM   41  O   UNL     1     -10.288  14.557  64.994  1.00  0.00    -0.404 OA 
HETATM   42  C   UNL     1     -10.946  15.810  65.049  1.00  0.00    -0.417 C  
ENDBRANCH   8  41
ENDBRANCH   2   3
TORSDOF 9
ENDMDL
MODEL      239
REMARK 921   NORMALIZED FREE ENERGY PREDICTED BY IDOCK:   25.69 KCAL/MOL
REMARK 922        TOTAL FREE ENERGY PREDICTED BY IDOCK:   37.34 KCAL/MOL
REMARK 923 INTER-LIGAND FREE ENERGY PREDICTED BY IDOCK:   37.23 KCAL/MOL
REMARK 924 INTRA-LIGAND FREE ENERGY PREDICTED BY IDOCK:    0.10 KCAL/MOL
REMARK 927      BINDING AFFINITY PREDICTED BY RF-SCORE:    0.00 PKD
ROOT
HETATM    1  C   UNL     1      -8.862   5.213  70.048  1.00  0.00    -0.111 C  
HETATM    2  O   UNL     1      -9.608   6.409  70.287  1.00  0.00    -0.163 OA 
ENDROOT
BRANCH   2   3
HETATM    3  C   UNL     1      -8.842   7.503  70.606  1.00  0.00    -0.146 A  
HETATM    4  C   UNL     1      -8.002   8.070  69.629  1.00  0.00    -0.117 A  
HETATM    5  C   UNL     1      -7.122   9.107  69.910  1.00  0.00    -0.056 A  
HETATM    6  C   UNL     1      -7.135   9.597  71.218  1.00  0.00     0.237 A  
HETATM    7  C   UNL     1      -8.004   9.106  72.207  1.00  0.00     0.668 A  
HETATM    8  C   UNL     1      -8.904   8.063  71.898  1.00  0.00    -0.142 A  
BRANCH   5   9
HETATM    9  N   UNL     1      -6.237   9.644  68.969  1.00  0.00    -0.041 NA 
HETATM   10  H   UNL     1      -5.417   9.059  68.809  1.00  0.00     0.000 HD 
BRANCH   9  11
HETATM   11  C   UNL     1      -6.237  10.811  68.204  1.00  0.00    -0.057 A  
HETATM   12  N   UNL     1      -6.305  10.597  66.883  1.00  0.00    -0.076 NA 
HETATM   13  N   UNL     1      -6.175  12.046  68.747  1.00  0.00    -0.059 NA 
HETATM   14  C   UNL     1      -6.176  13.129  67.928  1.00  0.00    -0.140 A  
HETATM   15  F   UNL     1      -6.402  14.007  65.714  1.00  0.00     4.950 F  
HETATM   16  C   UNL     1      -6.340  11.688  66.090  1.00  0.00     0.379 A  
HETATM   17  C   UNL     1      -6.314  12.977  66.565  1.00  0.00     2.087 A  
BRANCH  14  18
HETATM   18  N   UNL     1      -6.110  14.374  68.576  1.00  0.00    -0.085 NA 
HETATM   19  H   UNL     1      -5.180  14.614  68.921  1.00  0.00     0.000 HD 
BRANCH  18  20
HETATM   20  C   UNL     1      -7.093  15.355  68.837  1.00  0.00    -0.131 A  
HETATM   21  N   UNL     1      -8.301  15.353  68.234  1.00  0.00    -0.147 NA 
HETATM   22  C   UNL     1      -9.235  16.287  68.592  1.00  0.00    -0.227 A  
HETATM   23  C   UNL     1      -8.954  17.308  69.496  1.00  0.00     0.568 A  
HETATM   24  O   UNL     1      -9.817  18.330  69.801  1.00  0.00     0.306 OA 
HETATM   25  C   UNL     1      -7.714  17.317  70.112  1.00  0.00     2.053 A  
HETATM   26  C   UNL     1     -10.841  18.515  68.827  1.00  0.00     0.628 C  
HETATM   27  C   UNL     1      -6.779  16.338  69.777  1.00  0.00    -0.079 A  
HETATM   28  C   UNL     1     -11.493  17.197  68.385  1.00  0.00     0.420 C  
HETATM   29  C   UNL     1     -11.902  19.454  69.410  1.00  0.00     6.308 C  
HETATM   30  C   UNL     1     -10.270  19.163  67.539  1.00  0.00    -0.493 C  
HETATM   31  N   UNL     1     -10.559  16.221  68.080  1.00  0.00    -0.296 N  
HETATM   32  O   UNL     1     -12.694  17.079  68.146  1.00  0.00     2.111 OA 
BRANCH  31  33
HETATM   33  C   UNL     1     -10.942  15.270  67.089  1.00  0.00    -0.331 C  
BRANCH  33  34
HETATM   34  O   UNL     1     -11.013  15.894  65.847  1.00  0.00    -0.264 OA 
HETATM   35  P   UNL     1      -9.442  16.449  65.378  1.00  0.00     1.006 P  
HETATM   36  O   UNL     1     -10.269  17.770  64.890  1.00  0.00     0.317 OA 
HETATM   37  O   UNL     1      -9.696  15.539  64.046  1.00  0.00     2.045 OA 
HETATM   38  O   UNL     1      -8.037  16.945  64.958  1.00  0.00     1.836 OA 
ENDBRANCH  33  34
ENDBRANCH  31  33
ENDBRANCH  18  20
ENDBRANCH  14  18
ENDBRANCH   9  11
ENDBRANCH   5   9
BRANCH   7  39
HETATM   39  O   UNL     1      -7.791   9.723  73.415  1.00  0.00     2.010 OA 
HETATM   40  C   UNL     1      -8.746  10.638  73.928  1.00  0.00    12.977 C  
ENDBRANCH   7  39
BRANCH   8  41
HETATM   41  O   UNL     1      -9.780   7.720  72.887  1.00  0.00    -0.200 OA 
HETATM   42  C   UNL     1     -11.110   7.299  72.639  1.00  0.00    -0.313 C  
ENDBRANCH   8  41
ENDBRANCH   2   3
TORSDOF 9
ENDMDL
MODEL      240
REMARK 921   NORMALIZED FREE ENERGY PREDICTED BY IDOCK:   27.21 KCAL/MOL
REMARK 922        TOTAL FREE ENERGY PREDICTED BY IDOCK:   39.66 KCAL/MOL
REMARK 923 INTER-LIGAND FREE ENERGY PREDICTED BY IDOCK:   38.45 KCAL/MOL
REMARK 924 INTRA-LIGAND FREE ENERGY PREDICTED BY IDOCK:    1.21 KCAL/MOL
REMARK 927      BINDING AFFINITY PREDICTED BY RF-SCORE:    0.00 PKD
ROOT
HETATM    1  C   UNL     1     -11.153   5.790  66.791  1.00  0.00     0.000 C  
HETATM    2  O   UNL     1     -10.499   5.670  68.057  1.00  0.00    -0.205 OA 
ENDROOT
BRANCH   2   3
HETATM    3  C   UNL     1     -10.907   6.583  68.997  1.00  0.00    -0.306 A  
HETATM    4  C   UNL     1     -10.197   7.789  69.147  1.00  0.00    -0.210 A  
HETATM    5  C   UNL     1     -10.486   8.709  70.147  1.00  0.00    -0.217 A  
HETATM    6  C   UNL     1     -11.557   8.396  70.988  1.00  0.00    -0.307 A  
HETATM    7  C   UNL     1     -12.335   7.237  70.832  1.00  0.00    -0.248 A  
HETATM    8  C   UNL     1     -12.036   6.322  69.800  1.00  0.00     0.752 A  
BRANCH   5   9
HETATM    9  N   UNL     1      -9.755   9.883  70.351  1.00  0.00    -0.379 NA 
HETATM   10  H   UNL     1     -10.089  10.433  71.141  1.00  0.00     0.000 HD 
BRANCH   9  11
HETATM   11  C   UNL     1      -8.664  10.463  69.701  1.00  0.00    -0.035 A  
HETATM   12  N   UNL     1      -7.945   9.601  68.968  1.00  0.00    -0.084 NA 
HETATM   13  N   UNL     1      -8.362  11.775  69.802  1.00  0.00     1.314 NA 
HETATM   14  C   UNL     1      -7.278  12.256  69.139  1.00  0.00     0.041 A  
HETATM   15  F   UNL     1      -5.512  11.868  67.573  1.00  0.00    -0.049 F  
HETATM   16  C   UNL     1      -6.894  10.108  68.290  1.00  0.00    -0.062 A  
HETATM   17  C   UNL     1      -6.539  11.436  68.314  1.00  0.00    -0.058 A  
BRANCH  14  18
HETATM   18  N   UNL     1      -7.036  13.631  69.298  1.00  0.00    -0.281 NA 
HETATM   19  H   UNL     1      -6.117  13.849  69.682  1.00  0.00     0.000 HD 
BRANCH  18  20
HETATM   20  C   UNL     1      -7.832  14.767  69.025  1.00  0.00    -0.150 A  
HETATM   21  N   UNL     1      -8.863  14.740  68.153  1.00  0.00    -0.164 NA 
HETATM   22  C   UNL     1      -9.641  15.854  67.994  1.00  0.00    -0.211 A  
HETATM   23  C   UNL     1      -9.353  17.057  68.634  1.00  0.00    -0.270 A  
HETATM   24  O   UNL     1     -10.034  18.228  68.421  1.00  0.00    -0.342 OA 
HETATM   25  C   UNL     1      -8.292  17.090  69.524  1.00  0.00     0.520 A  
HETATM   26  C   UNL     1     -10.773  18.239  67.203  1.00  0.00    -0.305 C  
HETATM   27  C   UNL     1      -7.527  15.940  69.716  1.00  0.00     0.075 A  
HETATM   28  C   UNL     1     -11.573  16.948  66.976  1.00  0.00     1.015 C  
HETATM   29  C   UNL     1     -11.719  19.445  67.219  1.00  0.00     1.271 C  
HETATM   30  C   UNL     1      -9.827  18.377  65.982  1.00  0.00    -0.163 C  
HETATM   31  N   UNL     1     -10.815  15.810  67.194  1.00  0.00    -0.315 N  
HETATM   32  O   UNL     1     -12.696  16.923  66.474  1.00  0.00     4.427 OA 
BRANCH  31  33
HETATM   33  C   UNL     1     -11.168  14.661  66.430  1.00  0.00    -0.336 C  
BRANCH  33  34
HETATM   34  O   UNL     1     -10.853  13.510  67.145  1.00  0.00    -0.279 OA 
HETATM   35  P   UNL     1     -12.061  12.300  66.876  1.00  0.00     0.574 P  
HETATM   36  O   UNL     1     -11.891  12.052  68.482  1.00  0.00    -0.318 OA 
HETATM   37  O   UNL     1     -10.803  11.382  66.386  1.00  0.00    -0.269 OA 
HETATM   38  O   UNL     1     -13.142  11.219  66.635  1.00  0.00     4.675 OA 
ENDBRANCH  33  34
ENDBRANCH  31  33
ENDBRANCH  18  20
ENDBRANCH  14  18
ENDBRANCH   9  11
ENDBRANCH   5   9
BRANCH   7  39
HETATM   39  O   UNL     1     -13.296   7.142  71.809  1.00  0.00    -0.353 OA 
HETATM   40  C   UNL     1     -13.940   5.903  72.059  1.00  0.00     1.208 C  
ENDBRANCH   7  39
BRANCH   8  41
HETATM   41  O   UNL     1     -12.905   5.279  69.658  1.00  0.00     7.659 OA 
HETATM   42  C   UNL     1     -12.561   4.057  69.029  1.00  0.00    20.832 C  
ENDBRANCH   8  41
ENDBRANCH   2   3
TORSDOF 9
ENDMDL
MODEL      241
REMARK 921   NORMALIZED FREE ENERGY PREDICTED BY IDOCK:   37.70 KCAL/MOL
REMARK 922        TOTAL FREE ENERGY PREDICTED BY IDOCK:   55.67 KCAL/MOL
REMARK 923 INTER-LIGAND FREE ENERGY PREDICTED BY IDOCK:   56.00 KCAL/MOL
REMARK 924 INTRA-LIGAND FREE ENERGY PREDICTED BY IDOCK:   -0.33 KCAL/MOL
REMARK 927      BINDING AFFINITY PREDICTED BY RF-SCORE:    0.00 PKD
ROOT
HETATM    1  C   UNL     1     -11.320   5.625  69.352  1.00  0.00     0.456 C  
HETATM    2  O   UNL     1     -10.473   6.026  70.432  1.00  0.00    -0.213 OA 
ENDROOT
BRANCH   2   3
HETATM    3  C   UNL     1     -10.265   7.380  70.520  1.00  0.00    -0.193 A  
HETATM    4  C   UNL     1      -8.981   7.865  70.831  1.00  0.00    -0.147 A  
HETATM    5  C   UNL     1      -8.721   9.213  71.041  1.00  0.00    -0.189 A  
HETATM    6  C   UNL     1      -9.802  10.086  70.892  1.00  0.00     0.432 A  
HETATM    7  C   UNL     1     -11.085   9.651  70.517  1.00  0.00    -0.308 A  
HETATM    8  C   UNL     1     -11.326   8.279  70.290  1.00  0.00    -0.129 A  
BRANCH   5   9
HETATM    9  N   UNL     1      -7.467   9.710  71.410  1.00  0.00    -0.190 NA 
HETATM   10  H   UNL     1      -6.700   9.079  71.176  1.00  0.00     0.000 HD 
BRANCH   9  11
HETATM   11  C   UNL     1      -7.041  10.885  72.030  1.00  0.00     5.142 A  
HETATM   12  N   UNL     1      -5.743  10.886  72.363  1.00  0.00     0.264 NA 
HETATM   13  N   UNL     1      -7.864  11.927  72.272  1.00  0.00    13.134 NA 
HETATM   14  C   UNL     1      -7.368  13.033  72.885  1.00  0.00     9.725 A  
HETATM   15  F   UNL     1      -5.464  14.216  73.720  1.00  0.00    -0.307 F  
HETATM   16  C   UNL     1      -5.263  12.009  72.940  1.00  0.00     0.622 A  
HETATM   17  C   UNL     1      -6.027  13.124  73.190  1.00  0.00     1.604 A  
BRANCH  14  18
HETATM   18  N   UNL     1      -8.292  14.070  73.098  1.00  0.00     7.605 NA 
HETATM   19  H   UNL     1      -8.223  14.507  74.017  1.00  0.00     0.000 HD 
BRANCH  18  20
HETATM   20  C   UNL     1      -9.300  14.619  72.273  1.00  0.00     6.510 A  
HETATM   21  N   UNL     1      -9.127  14.821  70.949  1.00  0.00     2.130 NA 
HETATM   22  C   UNL     1     -10.171  15.282  70.195  1.00  0.00    -0.144 A  
HETATM   23  C   UNL     1     -11.391  15.644  70.761  1.00  0.00    -0.371 A  
HETATM   24  O   UNL     1     -12.427  16.215  70.066  1.00  0.00    -0.152 OA 
HETATM   25  C   UNL     1     -11.570  15.444  72.119  1.00  0.00    -0.554 A  
HETATM   26  C   UNL     1     -12.023  16.800  68.830  1.00  0.00     0.860 C  
HETATM   27  C   UNL     1     -10.518  14.933  72.878  1.00  0.00     3.174 A  
HETATM   28  C   UNL     1     -11.089  15.893  68.015  1.00  0.00    -0.334 C  
HETATM   29  C   UNL     1     -13.279  17.125  68.014  1.00  0.00     6.235 C  
HETATM   30  C   UNL     1     -11.241  18.117  69.068  1.00  0.00     1.574 C  
HETATM   31  N   UNL     1     -10.062  15.368  68.780  1.00  0.00    -0.206 N  
HETATM   32  O   UNL     1     -11.133  15.797  66.789  1.00  0.00    -0.252 OA 
BRANCH  31  33
HETATM   33  C   UNL     1      -8.840  15.101  68.097  1.00  0.00    -0.169 C  
BRANCH  33  34
HETATM   34  O   UNL     1      -7.807  15.819  68.692  1.00  0.00    -0.139 OA 
HETATM   35  P   UNL     1      -7.188  16.990  67.579  1.00  0.00    -0.168 P  
HETATM   36  O   UNL     1      -5.745  16.499  68.168  1.00  0.00    -0.109 OA 
HETATM   37  O   UNL     1      -7.543  18.061  68.759  1.00  0.00    -0.289 OA 
HETATM   38  O   UNL     1      -6.634  18.038  66.583  1.00  0.00    -0.174 OA 
ENDBRANCH  33  34
ENDBRANCH  31  33
ENDBRANCH  18  20
ENDBRANCH  14  18
ENDBRANCH   9  11
ENDBRANCH   5   9
BRANCH   7  39
HETATM   39  O   UNL     1     -11.978  10.695  70.479  1.00  0.00    -0.291 OA 
HETATM   40  C   UNL     1     -11.630  11.909  69.832  1.00  0.00    -0.256 C  
ENDBRANCH   7  39
BRANCH   8  41
HETATM   41  O   UNL     1     -12.571   7.961  69.830  1.00  0.00     1.115 OA 
HETATM   42  C   UNL     1     -13.680   7.728  70.680  1.00  0.00     0.704 C  
ENDBRANCH   8  41
ENDBRANCH   2   3
TORSDOF 9
ENDMDL
MODEL      242
REMARK 921   NORMALIZED FREE ENERGY PREDICTED BY IDOCK:   38.10 KCAL/MOL
REMARK 922        TOTAL FREE ENERGY PREDICTED BY IDOCK:   56.28 KCAL/MOL
REMARK 923 INTER-LIGAND FREE ENERGY PREDICTED BY IDOCK:   52.36 KCAL/MOL
REMARK 924 INTRA-LIGAND FREE ENERGY PREDICTED BY IDOCK:    3.92 KCAL/MOL
REMARK 927      BINDING AFFINITY PREDICTED BY RF-SCORE:    0.00 PKD
ROOT
HETATM    1  C   UNL     1      -8.093   2.422  70.281  1.00  0.00    -0.041 C  
HETATM    2  O   UNL     1      -8.970   3.551  70.296  1.00  0.00    -0.085 OA 
ENDROOT
BRANCH   2   3
HETATM    3  C   UNL     1      -9.393   3.961  69.056  1.00  0.00    -0.169 A  
HETATM    4  C   UNL     1      -9.974   5.233  68.907  1.00  0.00    -0.250 A  
HETATM    5  C   UNL     1     -10.520   5.671  67.707  1.00  0.00    -0.211 A  
HETATM    6  C   UNL     1     -10.432   4.791  66.626  1.00  0.00    -0.216 A  
HETATM    7  C   UNL     1      -9.800   3.539  66.714  1.00  0.00     0.137 A  
HETATM    8  C   UNL     1      -9.235   3.118  67.937  1.00  0.00    -0.196 A  
BRANCH   5   9
HETATM    9  N   UNL     1     -11.156   6.907  67.554  1.00  0.00    -0.565 NA 
HETATM   10  H   UNL     1     -12.173   6.837  67.542  1.00  0.00     0.000 HD 
BRANCH   9  11
HETATM   11  C   UNL     1     -10.694   8.216  67.413  1.00  0.00    -0.177 A  
HETATM   12  N   UNL     1     -10.390   8.554  66.152  1.00  0.00     0.113 NA 
HETATM   13  N   UNL     1     -10.567   9.066  68.454  1.00  0.00    -0.188 NA 
HETATM   14  C   UNL     1     -10.104  10.323  68.228  1.00  0.00    -0.154 A  
HETATM   15  F   UNL     1      -9.460  12.003  66.651  1.00  0.00    -0.193 F  
HETATM   16  C   UNL     1      -9.966   9.819  65.946  1.00  0.00    -0.275 A  
HETATM   17  C   UNL     1      -9.840  10.753  66.946  1.00  0.00    -0.187 A  
BRANCH  14  18
HETATM   18  N   UNL     1     -10.003  11.141  69.366  1.00  0.00    -0.428 NA 
HETATM   19  H   UNL     1     -10.120  10.642  70.248  1.00  0.00     0.000 HD 
BRANCH  18  20
HETATM   20  C   UNL     1      -9.768  12.527  69.514  1.00  0.00     1.309 A  
HETATM   21  N   UNL     1      -8.915  13.209  68.721  1.00  0.00     0.070 NA 
HETATM   22  C   UNL     1      -8.795  14.564  68.868  1.00  0.00    -0.103 A  
HETATM   23  C   UNL     1      -9.454  15.262  69.877  1.00  0.00    -0.006 A  
HETATM   24  O   UNL     1      -9.279  16.598  70.135  1.00  0.00     0.966 OA 
HETATM   25  C   UNL     1     -10.325  14.564  70.697  1.00  0.00     0.941 A  
HETATM   26  C   UNL     1      -8.075  17.126  69.585  1.00  0.00     0.785 C  
HETATM   27  C   UNL     1     -10.479  13.190  70.516  1.00  0.00     3.022 A  
HETATM   28  C   UNL     1      -7.835  16.688  68.133  1.00  0.00    -0.175 C  
HETATM   29  C   UNL     1      -8.135  18.655  69.667  1.00  0.00     0.634 C  
HETATM   30  C   UNL     1      -6.841  16.642  70.388  1.00  0.00     1.204 C  
HETATM   31  N   UNL     1      -8.016  15.326  67.955  1.00  0.00    -0.126 N  
HETATM   32  O   UNL     1      -7.355  17.422  67.272  1.00  0.00    -0.162 OA 
BRANCH  31  33
HETATM   33  C   UNL     1      -7.233  14.715  66.933  1.00  0.00     0.640 C  
BRANCH  33  34
HETATM   34  O   UNL     1      -7.904  14.804  65.717  1.00  0.00     2.093 OA 
HETATM   35  P   UNL     1      -7.358  13.553  64.652  1.00  0.00    16.825 P  
HETATM   36  O   UNL     1      -7.403  14.750  63.541  1.00  0.00    17.873 OA 
HETATM   37  O   UNL     1      -8.938  13.145  64.585  1.00  0.00     1.366 OA 
HETATM   38  O   UNL     1      -6.871  12.435  63.700  1.00  0.00     5.187 OA 
ENDBRANCH  33  34
ENDBRANCH  31  33
ENDBRANCH  18  20
ENDBRANCH  14  18
ENDBRANCH   9  11
ENDBRANCH   5   9
BRANCH   7  39
HETATM   39  O   UNL     1      -9.883   2.850  65.527  1.00  0.00     0.085 OA 
HETATM   40  C   UNL     1     -10.982   1.989  65.278  1.00  0.00     3.128 C  
ENDBRANCH   7  39
BRANCH   8  41
HETATM   41  O   UNL     1      -8.553   1.936  67.903  1.00  0.00    -0.066 OA 
HETATM   42  C   UNL     1      -7.265   1.763  68.469  1.00  0.00    -0.043 C  
ENDBRANCH   8  41
ENDBRANCH   2   3
TORSDOF 9
ENDMDL
MODEL      243
REMARK 921   NORMALIZED FREE ENERGY PREDICTED BY IDOCK:   40.75 KCAL/MOL
REMARK 922        TOTAL FREE ENERGY PREDICTED BY IDOCK:   60.33 KCAL/MOL
REMARK 923 INTER-LIGAND FREE ENERGY PREDICTED BY IDOCK:   58.88 KCAL/MOL
REMARK 924 INTRA-LIGAND FREE ENERGY PREDICTED BY IDOCK:    1.45 KCAL/MOL
REMARK 927      BINDING AFFINITY PREDICTED BY RF-SCORE:    0.00 PKD
ROOT
HETATM    1  C   UNL     1      -6.312  13.677  63.919  1.00  0.00    21.051 C  
HETATM    2  O   UNL     1      -6.549  12.775  65.003  1.00  0.00     6.234 OA 
ENDROOT
BRANCH   2   3
HETATM    3  C   UNL     1      -7.582  13.139  65.832  1.00  0.00     3.312 A  
HETATM    4  C   UNL     1      -7.559  12.745  67.182  1.00  0.00    -0.050 A  
HETATM    5  C   UNL     1      -8.617  12.985  68.050  1.00  0.00    -0.186 A  
HETATM    6  C   UNL     1      -9.708  13.680  67.522  1.00  0.00    -0.227 A  
HETATM    7  C   UNL     1      -9.744  14.151  66.199  1.00  0.00    -0.290 A  
HETATM    8  C   UNL     1      -8.652  13.912  65.337  1.00  0.00     2.617 A  
BRANCH   5   9
HETATM    9  N   UNL     1      -8.641  12.549  69.379  1.00  0.00     0.389 NA 
HETATM   10  H   UNL     1      -9.494  12.810  69.872  1.00  0.00     0.000 HD 
BRANCH   9  11
HETATM   11  C   UNL     1      -7.744  11.834  70.172  1.00  0.00     2.117 A  
HETATM   12  N   UNL     1      -7.517  12.386  71.373  1.00  0.00     6.302 NA 
HETATM   13  N   UNL     1      -7.159  10.686  69.768  1.00  0.00    -0.145 NA 
HETATM   14  C   UNL     1      -6.293  10.055  70.603  1.00  0.00    -0.100 A  
HETATM   15  F   UNL     1      -5.293   9.915  72.772  1.00  0.00    -0.093 F  
HETATM   16  C   UNL     1      -6.681  11.723  72.199  1.00  0.00     5.800 A  
HETATM   17  C   UNL     1      -6.071  10.535  71.875  1.00  0.00     0.934 A  
BRANCH  14  18
HETATM   18  N   UNL     1      -5.730   8.869  70.103  1.00  0.00    -0.030 NA 
HETATM   19  H   UNL     1      -4.710   8.851  70.125  1.00  0.00     0.000 HD 
BRANCH  18  20
HETATM   20  C   UNL     1      -6.316   7.696  69.574  1.00  0.00    -0.031 A  
HETATM   21  N   UNL     1      -7.311   7.728  68.662  1.00  0.00    -0.085 NA 
HETATM   22  C   UNL     1      -7.779   6.556  68.133  1.00  0.00    -0.105 A  
HETATM   23  C   UNL     1      -7.329   5.313  68.572  1.00  0.00    -0.071 A  
HETATM   24  O   UNL     1      -7.845   4.113  68.155  1.00  0.00    -0.074 OA 
HETATM   25  C   UNL     1      -6.312   5.277  69.512  1.00  0.00    -0.034 A  
HETATM   26  C   UNL     1      -9.141   4.226  67.573  1.00  0.00    -0.134 C  
HETATM   27  C   UNL     1      -5.808   6.474  70.017  1.00  0.00    -0.019 A  
HETATM   28  C   UNL     1      -9.250   5.386  66.572  1.00  0.00    -0.138 C  
HETATM   29  C   UNL     1      -9.480   2.903  66.879  1.00  0.00    -0.042 C  
HETATM   30  C   UNL     1     -10.214   4.496  68.659  1.00  0.00     0.076 C  
HETATM   31  N   UNL     1      -8.723   6.566  67.070  1.00  0.00    -0.112 N  
HETATM   32  O   UNL     1      -9.899   5.325  65.529  1.00  0.00    -0.049 OA 
BRANCH  31  33
HETATM   33  C   UNL     1      -9.314   7.771  66.593  1.00  0.00    -0.188 C  
BRANCH  33  34
HETATM   34  O   UNL     1      -8.393   8.465  65.814  1.00  0.00    -0.128 OA 
HETATM   35  P   UNL     1      -7.354   7.348  64.997  1.00  0.00    -0.091 P  
HETATM   36  O   UNL     1      -6.196   8.424  65.412  1.00  0.00    -0.045 OA 
HETATM   37  O   UNL     1      -7.870   8.105  63.646  1.00  0.00    -0.139 OA 
HETATM   38  O   UNL     1      -6.424   6.349  64.266  1.00  0.00    -0.032 OA 
ENDBRANCH  33  34
ENDBRANCH  31  33
ENDBRANCH  18  20
ENDBRANCH  14  18
ENDBRANCH   9  11
ENDBRANCH   5   9
BRANCH   7  39
HETATM   39  O   UNL     1     -10.940  14.765  65.916  1.00  0.00    -0.320 OA 
HETATM   40  C   UNL     1     -12.079  13.989  65.581  1.00  0.00    -0.417 C  
ENDBRANCH   7  39
BRANCH   8  41
HETATM   41  O   UNL     1      -8.728  14.494  64.104  1.00  0.00     5.434 OA 
HETATM   42  C   UNL     1      -9.897  14.475  63.304  1.00  0.00     7.987 C  
ENDBRANCH   8  41
ENDBRANCH   2   3
TORSDOF 9
ENDMDL
MODEL      244
REMARK 921   NORMALIZED FREE ENERGY PREDICTED BY IDOCK:   44.23 KCAL/MOL
REMARK 922        TOTAL FREE ENERGY PREDICTED BY IDOCK:   65.63 KCAL/MOL
REMARK 923 INTER-LIGAND FREE ENERGY PREDICTED BY IDOCK:   62.44 KCAL/MOL
REMARK 924 INTRA-LIGAND FREE ENERGY PREDICTED BY IDOCK:    3.19 KCAL/MOL
REMARK 927      BINDING AFFINITY PREDICTED BY RF-SCORE:    0.00 PKD
ROOT
HETATM    1  C   UNL     1      -6.299  13.724  63.923  1.00  0.00    22.234 C  
HETATM    2  O   UNL     1      -6.636  13.207  65.213  1.00  0.00     6.870 OA 
ENDROOT
BRANCH   2   3
HETATM    3  C   UNL     1      -7.604  13.919  65.877  1.00  0.00     4.168 A  
HETATM    4  C   UNL     1      -7.536  14.041  67.277  1.00  0.00    -0.094 A  
HETATM    5  C   UNL     1      -8.535  14.653  68.024  1.00  0.00    -0.154 A  
HETATM    6  C   UNL     1      -9.610  15.184  67.307  1.00  0.00    -0.211 A  
HETATM    7  C   UNL     1      -9.685  15.143  65.905  1.00  0.00    -0.350 A  
HETATM    8  C   UNL     1      -8.652  14.532  65.162  1.00  0.00     3.678 A  
BRANCH   5   9
HETATM    9  N   UNL     1      -8.516  14.733  69.421  1.00  0.00    -0.397 NA 
HETATM   10  H   UNL     1      -9.316  15.234  69.805  1.00  0.00     0.000 HD 
BRANCH   9  11
HETATM   11  C   UNL     1      -7.635  14.271  70.399  1.00  0.00     1.170 A  
HETATM   12  N   UNL     1      -7.164  15.232  71.206  1.00  0.00     1.719 NA 
HETATM   13  N   UNL     1      -7.289  12.972  70.522  1.00  0.00     1.923 NA 
HETATM   14  C   UNL     1      -6.421  12.609  71.501  1.00  0.00     2.768 A  
HETATM   15  F   UNL     1      -5.162  13.228  73.439  1.00  0.00    -0.141 F  
HETATM   16  C   UNL     1      -6.330  14.843  72.193  1.00  0.00     1.106 A  
HETATM   17  C   UNL     1      -5.955  13.538  72.405  1.00  0.00     0.861 A  
BRANCH  14  18
HETATM   18  N   UNL     1      -6.116  11.238  71.558  1.00  0.00     0.080 NA 
HETATM   19  H   UNL     1      -5.122  11.029  71.463  1.00  0.00     0.000 HD 
BRANCH  18  20
HETATM   20  C   UNL     1      -6.932  10.096  71.722  1.00  0.00     1.703 A  
HETATM   21  N   UNL     1      -7.405   9.384  70.677  1.00  0.00    -0.126 NA 
HETATM   22  C   UNL     1      -8.125   8.243  70.909  1.00  0.00    -0.102 A  
HETATM   23  C   UNL     1      -8.473   7.834  72.194  1.00  0.00    -0.125 A  
HETATM   24  O   UNL     1      -9.284   6.765  72.472  1.00  0.00    -0.138 OA 
HETATM   25  C   UNL     1      -7.995   8.566  73.268  1.00  0.00    -0.070 A  
HETATM   26  C   UNL     1     -10.085   6.360  71.364  1.00  0.00    -0.189 C  
HETATM   27  C   UNL     1      -7.225   9.704  73.029  1.00  0.00     1.912 A  
HETATM   28  C   UNL     1      -9.294   6.277  70.051  1.00  0.00    -0.155 C  
HETATM   29  C   UNL     1     -10.708   4.998  71.687  1.00  0.00    -0.128 C  
HETATM   30  C   UNL     1     -11.231   7.373  71.110  1.00  0.00    -0.279 C  
HETATM   31  N   UNL     1      -8.511   7.398  69.833  1.00  0.00    -0.137 N  
HETATM   32  O   UNL     1      -9.478   5.408  69.200  1.00  0.00    -0.121 OA 
BRANCH  31  33
HETATM   33  C   UNL     1      -8.282   7.752  68.472  1.00  0.00    -0.128 C  
BRANCH  33  34
HETATM   34  O   UNL     1      -9.366   8.480  67.990  1.00  0.00    -0.136 OA 
HETATM   35  P   UNL     1     -10.044   9.437  69.263  1.00  0.00    -0.218 P  
HETATM   36  O   UNL     1     -11.460   8.943  68.615  1.00  0.00     0.464 OA 
HETATM   37  O   UNL     1      -9.773  10.687  68.249  1.00  0.00    -0.152 OA 
HETATM   38  O   UNL     1     -10.650  10.293  70.401  1.00  0.00    -0.278 OA 
ENDBRANCH  33  34
ENDBRANCH  31  33
ENDBRANCH  18  20
ENDBRANCH  14  18
ENDBRANCH   9  11
ENDBRANCH   5   9
BRANCH   7  39
HETATM   39  O   UNL     1     -10.858  15.695  65.448  1.00  0.00    -0.358 OA 
HETATM   40  C   UNL     1     -12.097  15.058  65.713  1.00  0.00     0.130 C  
ENDBRANCH   7  39
BRANCH   8  41
HETATM   41  O   UNL     1      -8.757  14.630  63.804  1.00  0.00     7.938 OA 
HETATM   42  C   UNL     1      -9.964  14.408  63.097  1.00  0.00     7.906 C  
ENDBRANCH   8  41
ENDBRANCH   2   3
TORSDOF 9
ENDMDL
MODEL      245
REMARK 921   NORMALIZED FREE ENERGY PREDICTED BY IDOCK:   52.86 KCAL/MOL
REMARK 922        TOTAL FREE ENERGY PREDICTED BY IDOCK:   78.81 KCAL/MOL
REMARK 923 INTER-LIGAND FREE ENERGY PREDICTED BY IDOCK:   78.43 KCAL/MOL
REMARK 924 INTRA-LIGAND FREE ENERGY PREDICTED BY IDOCK:    0.38 KCAL/MOL
REMARK 927      BINDING AFFINITY PREDICTED BY RF-SCORE:    0.00 PKD
ROOT
HETATM    1  C   UNL     1      -7.162   5.672  68.835  1.00  0.00    -0.077 C  
HETATM    2  O   UNL     1      -7.873   6.909  68.920  1.00  0.00    -0.108 OA 
ENDROOT
BRANCH   2   3
HETATM    3  C   UNL     1      -9.221   6.777  69.147  1.00  0.00    -0.137 A  
HETATM    4  C   UNL     1     -10.083   7.846  68.842  1.00  0.00    -0.203 A  
HETATM    5  C   UNL     1     -11.439   7.823  69.145  1.00  0.00     0.643 A  
HETATM    6  C   UNL     1     -11.923   6.657  69.741  1.00  0.00     0.005 A  
HETATM    7  C   UNL     1     -11.111   5.540  70.001  1.00  0.00     0.031 A  
HETATM    8  C   UNL     1      -9.739   5.576  69.671  1.00  0.00    -0.172 A  
BRANCH   5   9
HETATM    9  N   UNL     1     -12.302   8.898  68.905  1.00  0.00     2.184 NA 
HETATM   10  H   UNL     1     -12.964   8.721  68.150  1.00  0.00     0.000 HD 
BRANCH   9  11
HETATM   11  C   UNL     1     -12.448  10.161  69.480  1.00  0.00     0.447 A  
HETATM   12  N   UNL     1     -13.640  10.361  70.061  1.00  0.00     0.451 NA 
HETATM   13  N   UNL     1     -11.476  11.097  69.456  1.00  0.00    -0.274 NA 
HETATM   14  C   UNL     1     -11.704  12.303  70.036  1.00  0.00    -0.242 A  
HETATM   15  F   UNL     1     -13.132  13.683  71.369  1.00  0.00    -0.388 F  
HETATM   16  C   UNL     1     -13.832  11.554  70.662  1.00  0.00     2.358 A  
HETATM   17  C   UNL     1     -12.882  12.546  70.709  1.00  0.00    -0.017 A  
BRANCH  14  18
HETATM   18  N   UNL     1     -10.639  13.217  69.965  1.00  0.00     0.387 NA 
HETATM   19  H   UNL     1     -10.439  13.692  70.845  1.00  0.00     0.000 HD 
BRANCH  18  20
HETATM   20  C   UNL     1      -9.794  13.599  68.898  1.00  0.00     0.030 A  
HETATM   21  N   UNL     1     -10.009  13.208  67.623  1.00  0.00    -0.215 NA 
HETATM   22  C   UNL     1      -9.197  13.679  66.628  1.00  0.00    -0.212 A  
HETATM   23  C   UNL     1      -8.088  14.480  66.891  1.00  0.00     0.020 A  
HETATM   24  O   UNL     1      -7.183  14.883  65.943  1.00  0.00     2.761 OA 
HETATM   25  C   UNL     1      -7.861  14.877  68.198  1.00  0.00    -0.122 A  
HETATM   26  C   UNL     1      -7.212  14.088  64.760  1.00  0.00    15.210 C  
HETATM   27  C   UNL     1      -8.716  14.431  69.205  1.00  0.00     0.189 A  
HETATM   28  C   UNL     1      -8.636  13.817  64.254  1.00  0.00     6.863 C  
HETATM   29  C   UNL     1      -6.398  14.802  63.676  1.00  0.00    26.069 C  
HETATM   30  C   UNL     1      -6.575  12.697  65.012  1.00  0.00     7.737 C  
HETATM   31  N   UNL     1      -9.486  13.400  65.264  1.00  0.00     0.204 N  
HETATM   32  O   UNL     1      -8.940  13.788  63.062  1.00  0.00     7.097 OA 
BRANCH  31  33
HETATM   33  C   UNL     1     -10.545  12.528  64.877  1.00  0.00    -0.301 C  
BRANCH  33  34
HETATM   34  O   UNL     1     -10.426  11.320  65.557  1.00  0.00    -0.258 OA 
HETATM   35  P   UNL     1      -9.655  10.148  64.543  1.00  0.00    -0.217 P  
HETATM   36  O   UNL     1     -10.793   9.152  65.161  1.00  0.00     2.334 OA 
HETATM   37  O   UNL     1      -8.584  10.030  65.769  1.00  0.00    -0.137 OA 
HETATM   38  O   UNL     1      -8.965   9.100  63.636  1.00  0.00    -0.139 OA 
ENDBRANCH  33  34
ENDBRANCH  31  33
ENDBRANCH  18  20
ENDBRANCH  14  18
ENDBRANCH   9  11
ENDBRANCH   5   9
BRANCH   7  39
HETATM   39  O   UNL     1     -11.815   4.541  70.628  1.00  0.00     3.945 OA 
HETATM   40  C   UNL     1     -12.443   4.784  71.876  1.00  0.00     2.912 C  
ENDBRANCH   7  39
BRANCH   8  41
HETATM   41  O   UNL     1      -9.050   4.413  69.863  1.00  0.00    -0.093 OA 
HETATM   42  C   UNL     1      -9.282   3.540  70.955  1.00  0.00    -0.131 C  
ENDBRANCH   8  41
ENDBRANCH   2   3
TORSDOF 9
ENDMDL
