MODEL        1
REMARK 921   NORMALIZED FREE ENERGY PREDICTED BY IDOCK:   -8.08 KCAL/MOL
REMARK 922        TOTAL FREE ENERGY PREDICTED BY IDOCK:  -15.14 KCAL/MOL
REMARK 923 INTER-LIGAND FREE ENERGY PREDICTED BY IDOCK:  -12.33 KCAL/MOL
REMARK 924 INTRA-LIGAND FREE ENERGY PREDICTED BY IDOCK:   -2.81 KCAL/MOL
REMARK 927      BINDING AFFINITY PREDICTED BY RF-SCORE:    0.00 PKD
ROOT
HETATM    1  N   UNL     1      -9.515  21.216  66.987  1.00  0.00    -0.587 NA 
HETATM    2  C   UNL     1     -10.152  20.024  66.420  1.00  0.00    -0.487 C  
HETATM    3  H1  UNL     1      -9.885  22.108  66.659  1.00  0.00     0.000 HD 
HETATM    4  H2  UNL     1      -8.508  21.179  66.835  1.00  0.00     0.000 HD 
ENDROOT
BRANCH   2   5
HETATM    5  C   UNL     1      -9.588  18.667  66.919  1.00  0.00    -0.310 C  
HETATM    6  O   UNL     1     -10.543  17.576  66.847  1.00  0.00    -0.305 OA 
HETATM    7  C   UNL     1      -9.913  16.333  67.203  1.00  0.00    -0.257 C  
HETATM    8  C   UNL     1      -9.421  16.375  68.687  1.00  0.00    -0.239 C  
HETATM    9  O   UNL     1     -10.235  19.277  69.188  1.00  0.00    -0.573 OA 
HETATM   10  H   UNL     1      -9.948  19.397  70.087  1.00  0.00     0.000 HD 
HETATM   11  N   UNL     1     -10.591  16.414  69.625  1.00  0.00    -0.312 NA 
HETATM   12  C   UNL     1      -8.493  17.568  68.915  1.00  0.00    -0.139 C  
HETATM   13  H2  UNL     1     -11.236  15.640  69.461  1.00  0.00     0.000 HD 
HETATM   14  O   UNL     1      -7.197  17.358  68.340  1.00  0.00    -0.204 OA 
HETATM   15  C   UNL     1      -9.121  18.862  68.383  1.00  0.00    -0.343 C  
HETATM   16  H1  UNL     1     -10.271  16.441  70.593  1.00  0.00     0.000 HD 
HETATM   17  H   UNL     1      -6.620  18.100  68.482  1.00  0.00     0.000 HD 
BRANCH   7  18
HETATM   18  O   UNL     1     -10.795  15.224  67.218  1.00  0.00    -0.305 OA 
BRANCH  18  19
HETATM   19  C   UNL     1     -10.326  13.929  66.868  1.00  0.00    -0.266 C  
HETATM   20  O   UNL     1     -10.676  13.395  69.267  1.00  0.00    -0.428 OA 
HETATM   21  C   UNL     1     -11.427  13.444  65.917  1.00  0.00    -0.321 C  
HETATM   22  C   UNL     1     -11.340  11.805  67.529  1.00  0.00    -0.310 C  
HETATM   23  H   UNL     1     -10.664  12.738  69.953  1.00  0.00     0.000 HD 
HETATM   24  O   UNL     1     -12.225  12.498  66.649  1.00  0.00    -0.552 OA 
HETATM   25  C   UNL     1     -10.306  12.861  67.982  1.00  0.00    -0.227 C  
BRANCH  21  26
HETATM   26  C   UNL     1     -10.901  12.857  64.605  1.00  0.00    -0.342 C  
HETATM   27  H   UNL     1     -11.435  12.769  62.693  1.00  0.00     0.000 HD 
HETATM   28  O   UNL     1     -11.761  13.133  63.507  1.00  0.00    -0.473 OA 
ENDBRANCH  21  26
BRANCH  22  29
HETATM   29  O   UNL     1     -10.724  10.701  66.853  1.00  0.00    -0.257 OA 
BRANCH  29  30
HETATM   30  C   UNL     1      -9.670   9.973  67.570  1.00  0.00    -0.159 C  
HETATM   31  C   UNL     1      -8.318  10.086  66.819  1.00  0.00    -0.125 C  
HETATM   32  O   UNL     1      -7.610  11.247  67.307  1.00  0.00    -0.116 OA 
HETATM   33  C   UNL     1      -7.336   8.904  66.879  1.00  0.00    -0.083 C  
HETATM   34  C   UNL     1      -8.005   7.559  67.097  1.00  0.00    -0.117 C  
HETATM   35  N   UNL     1      -6.554   8.839  65.618  1.00  0.00    -0.063 NA 
HETATM   36  H   UNL     1      -6.782  11.317  66.847  1.00  0.00     0.000 HD 
HETATM   37  H1  UNL     1      -5.902   8.055  65.659  1.00  0.00     0.000 HD 
HETATM   38  H2  UNL     1      -6.082   9.719  65.413  1.00  0.00     0.000 HD 
HETATM   39  C   UNL     1      -8.924   7.621  68.317  1.00  0.00    -0.127 C  
HETATM   40  C   UNL     1     -10.124   8.557  68.024  1.00  0.00    -0.200 C  
HETATM   41  N   UNL     1      -9.372   6.248  68.637  1.00  0.00    -0.123 NA 
HETATM   42  H2  UNL     1      -8.593   5.603  68.766  1.00  0.00     0.000 HD 
HETATM   43  H1  UNL     1      -9.985   6.290  69.452  1.00  0.00     0.000 HD 
BRANCH  40  44
HETATM   44  O   UNL     1     -10.926   8.608  69.230  1.00  0.00    -0.124 OA 
BRANCH  44  45
HETATM   45  C   UNL     1     -10.348   9.326  70.323  1.00  0.00    -0.229 C  
HETATM   46  O   UNL     1     -11.016  10.569  70.551  1.00  0.00    -0.271 OA 
HETATM   47  C   UNL     1     -12.381  10.419  70.966  1.00  0.00    -0.387 C  
HETATM   48  C   UNL     1     -12.493   9.592  72.255  1.00  0.00    -0.227 C  
HETATM   49  H1  UNL     1      -9.677   6.552  72.247  1.00  0.00     0.000 HD 
HETATM   50  O   UNL     1     -13.856   9.388  72.655  1.00  0.00    -0.703 OA 
HETATM   51  H2  UNL     1      -8.718   7.275  71.074  1.00  0.00     0.000 HD 
HETATM   52  C   UNL     1     -11.812   8.229  72.061  1.00  0.00    -0.347 C  
HETATM   53  H   UNL     1     -13.925   8.877  73.452  1.00  0.00     0.000 HD 
HETATM   54  O   UNL     1     -11.831   7.498  73.299  1.00  0.00    -0.554 OA 
HETATM   55  C   UNL     1     -10.359   8.435  71.597  1.00  0.00    -0.243 C  
HETATM   56  N   UNL     1      -9.670   7.136  71.411  1.00  0.00    -0.169 NA 
HETATM   57  H   UNL     1     -11.409   6.655  73.179  1.00  0.00     0.000 HD 
BRANCH  47  58
HETATM   58  C   UNL     1     -13.010  11.825  71.085  1.00  0.00    -0.187 C  
HETATM   59  H1  UNL     1     -13.925  13.090  72.501  1.00  0.00     0.000 HD 
HETATM   60  N   UNL     1     -13.510  12.162  72.423  1.00  0.00    -0.536 NA 
HETATM   61  H2  UNL     1     -12.771  12.044  73.117  1.00  0.00     0.000 HD 
ENDBRANCH  47  58
ENDBRANCH  44  45
ENDBRANCH  40  44
ENDBRANCH  29  30
ENDBRANCH  22  29
ENDBRANCH  18  19
ENDBRANCH   7  18
ENDBRANCH   2   5
TORSDOF 9
ENDMDL
MODEL        2
REMARK 921   NORMALIZED FREE ENERGY PREDICTED BY IDOCK:   -7.93 KCAL/MOL
REMARK 922        TOTAL FREE ENERGY PREDICTED BY IDOCK:  -14.91 KCAL/MOL
REMARK 923 INTER-LIGAND FREE ENERGY PREDICTED BY IDOCK:  -12.26 KCAL/MOL
REMARK 924 INTRA-LIGAND FREE ENERGY PREDICTED BY IDOCK:   -2.65 KCAL/MOL
REMARK 927      BINDING AFFINITY PREDICTED BY RF-SCORE:    0.00 PKD
ROOT
HETATM    1  N   UNL     1      -6.039  16.726  66.458  1.00  0.00    -0.304 NA 
HETATM    2  C   UNL     1      -6.375  17.330  67.751  1.00  0.00    -0.149 C  
HETATM    3  H1  UNL     1      -5.064  16.452  66.343  1.00  0.00     0.000 HD 
HETATM    4  H2  UNL     1      -6.319  17.348  65.700  1.00  0.00     0.000 HD 
ENDROOT
BRANCH   2   5
HETATM    5  C   UNL     1      -7.858  17.748  67.927  1.00  0.00    -0.231 C  
HETATM    6  O   UNL     1      -8.806  16.741  67.486  1.00  0.00    -0.198 OA 
HETATM    7  C   UNL     1     -10.151  17.146  67.795  1.00  0.00    -0.306 C  
HETATM    8  C   UNL     1     -10.521  18.452  67.019  1.00  0.00    -0.399 C  
HETATM    9  O   UNL     1      -7.770  18.831  65.744  1.00  0.00    -0.482 OA 
HETATM   10  H   UNL     1      -7.902  19.636  65.255  1.00  0.00     0.000 HD 
HETATM   11  N   UNL     1     -10.608  18.179  65.547  1.00  0.00    -0.590 NA 
HETATM   12  C   UNL     1      -9.511  19.561  67.314  1.00  0.00    -0.329 C  
HETATM   13  H2  UNL     1     -11.254  17.417  65.339  1.00  0.00     0.000 HD 
HETATM   14  O   UNL     1      -9.690  20.117  68.624  1.00  0.00    -0.239 OA 
HETATM   15  C   UNL     1      -8.074  19.059  67.129  1.00  0.00    -0.264 C  
HETATM   16  H1  UNL     1     -10.849  19.031  65.040  1.00  0.00     0.000 HD 
HETATM   17  H   UNL     1      -9.063  20.806  68.807  1.00  0.00     0.000 HD 
BRANCH   7  18
HETATM   18  O   UNL     1     -11.143  16.243  67.341  1.00  0.00    -0.232 OA 
BRANCH  18  19
HETATM   19  C   UNL     1     -10.774  14.976  66.815  1.00  0.00    -0.308 C  
HETATM   20  O   UNL     1     -11.075  14.169  69.143  1.00  0.00    -0.251 OA 
HETATM   21  C   UNL     1     -11.937  14.683  65.860  1.00  0.00    -0.238 C  
HETATM   22  C   UNL     1     -11.903  12.853  67.253  1.00  0.00    -0.356 C  
HETATM   23  H   UNL     1     -11.083  13.431  69.742  1.00  0.00     0.000 HD 
HETATM   24  O   UNL     1     -12.770  13.704  66.503  1.00  0.00    -0.255 OA 
HETATM   25  C   UNL     1     -10.786  13.777  67.788  1.00  0.00    -0.250 C  
BRANCH  21  26
HETATM   26  C   UNL     1     -11.498  14.233  64.464  1.00  0.00    -0.355 C  
HETATM   27  H   UNL     1     -12.312  13.475  62.818  1.00  0.00     0.000 HD 
HETATM   28  O   UNL     1     -12.585  13.754  63.684  1.00  0.00    -0.742 OA 
ENDBRANCH  21  26
BRANCH  22  29
HETATM   29  O   UNL     1     -11.387  11.806  66.421  1.00  0.00    -0.329 OA 
BRANCH  29  30
HETATM   30  C   UNL     1     -10.223  11.061  66.918  1.00  0.00    -0.222 C  
HETATM   31  C   UNL     1      -8.993  11.292  66.003  1.00  0.00    -0.200 C  
HETATM   32  O   UNL     1      -8.256  12.433  66.493  1.00  0.00    -0.394 OA 
HETATM   33  C   UNL     1      -7.981  10.149  65.820  1.00  0.00    -0.140 C  
HETATM   34  C   UNL     1      -8.576   8.765  66.004  1.00  0.00    -0.166 C  
HETATM   35  N   UNL     1      -7.380  10.224  64.463  1.00  0.00    -0.257 NA 
HETATM   36  H   UNL     1      -7.502  12.575  65.932  1.00  0.00     0.000 HD 
HETATM   37  H1  UNL     1      -6.709   9.465  64.342  1.00  0.00     0.000 HD 
HETATM   38  H2  UNL     1      -6.966  11.137  64.276  1.00  0.00     0.000 HD 
HETATM   39  C   UNL     1      -9.317   8.684  67.338  1.00  0.00    -0.144 C  
HETATM   40  C   UNL     1     -10.571   9.595  67.298  1.00  0.00    -0.247 C  
HETATM   41  N   UNL     1      -9.678   7.272  67.590  1.00  0.00    -0.138 NA 
HETATM   42  H2  UNL     1      -8.872   6.649  67.552  1.00  0.00     0.000 HD 
HETATM   43  H1  UNL     1     -10.172   7.219  68.481  1.00  0.00     0.000 HD 
BRANCH  40  44
HETATM   44  O   UNL     1     -11.198   9.508  68.602  1.00  0.00    -0.053 OA 
BRANCH  44  45
HETATM   45  C   UNL     1     -10.499  10.162  69.665  1.00  0.00    -0.252 C  
HETATM   46  O   UNL     1     -11.198  11.322  70.122  1.00  0.00    -0.224 OA 
HETATM   47  C   UNL     1     -12.467  11.027  70.722  1.00  0.00    -0.396 C  
HETATM   48  C   UNL     1     -12.321  10.075  71.918  1.00  0.00    -0.261 C  
HETATM   49  H1  UNL     1      -9.358   7.280  71.159  1.00  0.00     0.000 HD 
HETATM   50  O   UNL     1     -13.587   9.729  72.496  1.00  0.00    -0.656 OA 
HETATM   51  H2  UNL     1      -8.645   8.184  69.937  1.00  0.00     0.000 HD 
HETATM   52  C   UNL     1     -11.596   8.794  71.479  1.00  0.00    -0.303 C  
HETATM   53  H   UNL     1     -13.497   9.139  73.236  1.00  0.00     0.000 HD 
HETATM   54  O   UNL     1     -11.371   7.950  72.621  1.00  0.00    -0.361 OA 
HETATM   55  C   UNL     1     -10.251   9.157  70.824  1.00  0.00    -0.260 C  
HETATM   56  N   UNL     1      -9.521   7.939  70.398  1.00  0.00    -0.163 NA 
HETATM   57  H   UNL     1     -10.922   7.158  72.349  1.00  0.00     0.000 HD 
BRANCH  47  58
HETATM   58  C   UNL     1     -13.156  12.362  71.083  1.00  0.00    -0.034 C  
HETATM   59  H1  UNL     1     -13.937  13.400  72.744  1.00  0.00     0.000 HD 
HETATM   60  N   UNL     1     -13.481  12.518  72.506  1.00  0.00    -0.581 NA 
HETATM   61  H2  UNL     1     -12.646  12.384  73.077  1.00  0.00     0.000 HD 
ENDBRANCH  47  58
ENDBRANCH  44  45
ENDBRANCH  40  44
ENDBRANCH  29  30
ENDBRANCH  22  29
ENDBRANCH  18  19
ENDBRANCH   7  18
ENDBRANCH   2   5
TORSDOF 9
ENDMDL
MODEL        3
REMARK 921   NORMALIZED FREE ENERGY PREDICTED BY IDOCK:   -7.79 KCAL/MOL
REMARK 922        TOTAL FREE ENERGY PREDICTED BY IDOCK:  -14.70 KCAL/MOL
REMARK 923 INTER-LIGAND FREE ENERGY PREDICTED BY IDOCK:  -12.57 KCAL/MOL
REMARK 924 INTRA-LIGAND FREE ENERGY PREDICTED BY IDOCK:   -2.13 KCAL/MOL
REMARK 927      BINDING AFFINITY PREDICTED BY RF-SCORE:    0.00 PKD
ROOT
HETATM    1  N   UNL     1      -9.820   3.264  71.139  1.00  0.00    -0.140 NA 
HETATM    2  C   UNL     1      -9.192   4.164  70.168  1.00  0.00    -0.140 C  
HETATM    3  H1  UNL     1      -9.326   2.388  71.307  1.00  0.00     0.000 HD 
HETATM    4  H2  UNL     1     -10.784   3.074  70.867  1.00  0.00     0.000 HD 
ENDROOT
BRANCH   2   5
HETATM    5  C   UNL     1      -9.944   5.497  69.913  1.00  0.00    -0.215 C  
HETATM    6  O   UNL     1      -9.072   6.601  69.557  1.00  0.00    -0.143 OA 
HETATM    7  C   UNL     1      -9.846   7.764  69.213  1.00  0.00    -0.173 C  
HETATM    8  C   UNL     1     -10.676   8.252  70.445  1.00  0.00    -0.232 C  
HETATM    9  O   UNL     1      -9.822   5.978  72.299  1.00  0.00    -0.161 OA 
HETATM   10  H   UNL     1     -10.307   6.191  73.089  1.00  0.00     0.000 HD 
HETATM   11  N   UNL     1      -9.764   8.787  71.510  1.00  0.00    -0.264 NA 
HETATM   12  C   UNL     1     -11.553   7.125  70.988  1.00  0.00    -0.309 C  
HETATM   13  H2  UNL     1      -9.149   9.518  71.152  1.00  0.00     0.000 HD 
HETATM   14  O   UNL     1     -12.685   6.871  70.145  1.00  0.00    -0.430 OA 
HETATM   15  C   UNL     1     -10.735   5.844  71.199  1.00  0.00    -0.265 C  
HETATM   16  H1  UNL     1     -10.305   9.105  72.314  1.00  0.00     0.000 HD 
HETATM   17  H   UNL     1     -13.230   6.169  70.483  1.00  0.00     0.000 HD 
BRANCH   7  18
HETATM   18  O   UNL     1      -9.066   8.907  68.912  1.00  0.00    -0.139 OA 
BRANCH  18  19
HETATM   19  C   UNL     1      -9.410   9.743  67.815  1.00  0.00    -0.134 C  
HETATM   20  O   UNL     1      -9.870  11.458  69.549  1.00  0.00    -0.386 OA 
HETATM   21  C   UNL     1      -8.064   9.879  67.093  1.00  0.00    -0.117 C  
HETATM   22  C   UNL     1      -8.693  12.056  67.489  1.00  0.00    -0.166 C  
HETATM   23  H   UNL     1     -10.113  12.355  69.745  1.00  0.00     0.000 HD 
HETATM   24  O   UNL     1      -7.560  11.192  67.392  1.00  0.00    -0.103 OA 
HETATM   25  C   UNL     1      -9.806  11.200  68.134  1.00  0.00    -0.180 C  
BRANCH  21  26
HETATM   26  C   UNL     1      -8.139   9.623  65.585  1.00  0.00    -0.117 C  
HETATM   27  H   UNL     1      -9.517   9.240  64.206  1.00  0.00     0.000 HD 
HETATM   28  O   UNL     1      -9.470   9.399  65.141  1.00  0.00    -0.259 OA 
ENDBRANCH  21  26
BRANCH  22  29
HETATM   29  O   UNL     1      -9.066  12.539  66.192  1.00  0.00    -0.142 OA 
BRANCH  29  30
HETATM   30  C   UNL     1     -10.319  13.297  66.088  1.00  0.00    -0.290 C  
HETATM   31  C   UNL     1     -11.442  12.420  65.476  1.00  0.00    -0.361 C  
HETATM   32  O   UNL     1     -12.139  11.743  66.544  1.00  0.00    -0.498 OA 
HETATM   33  C   UNL     1     -12.510  13.092  64.597  1.00  0.00    -0.400 C  
HETATM   34  C   UNL     1     -12.032  14.355  63.905  1.00  0.00    -0.157 C  
HETATM   35  N   UNL     1     -12.977  12.137  63.559  1.00  0.00    -0.784 NA 
HETATM   36  H   UNL     1     -12.827  11.206  66.169  1.00  0.00     0.000 HD 
HETATM   37  H1  UNL     1     -13.686  12.583  62.976  1.00  0.00     0.000 HD 
HETATM   38  H2  UNL     1     -13.308  11.261  63.963  1.00  0.00     0.000 HD 
HETATM   39  C   UNL     1     -11.424  15.316  64.926  1.00  0.00    -0.343 C  
HETATM   40  C   UNL     1     -10.111  14.718  65.493  1.00  0.00    -0.380 C  
HETATM   41  N   UNL     1     -11.186  16.617  64.263  1.00  0.00    -1.380 NA 
HETATM   42  H2  UNL     1     -12.028  16.992  63.825  1.00  0.00     0.000 HD 
HETATM   43  H1  UNL     1     -10.781  17.258  64.945  1.00  0.00     0.000 HD 
BRANCH  40  44
HETATM   44  O   UNL     1      -9.614  15.652  66.483  1.00  0.00    -0.237 OA 
BRANCH  44  45
HETATM   45  C   UNL     1      -8.518  16.468  66.063  1.00  0.00    -0.171 C  
HETATM   46  O   UNL     1      -8.943  17.791  65.727  1.00  0.00    -0.509 OA 
HETATM   47  C   UNL     1      -9.466  18.525  66.843  1.00  0.00    -0.298 C  
HETATM   48  C   UNL     1      -8.436  18.646  67.975  1.00  0.00    -0.291 C  
HETATM   49  H1  UNL     1      -6.232  15.149  68.271  1.00  0.00     0.000 HD 
HETATM   50  O   UNL     1      -8.962  19.332  69.119  1.00  0.00    -0.286 OA 
HETATM   51  H2  UNL     1      -6.624  14.625  66.725  1.00  0.00     0.000 HD 
HETATM   52  C   UNL     1      -7.960  17.247  68.397  1.00  0.00    -0.253 C  
HETATM   53  H   UNL     1      -8.324  19.407  69.820  1.00  0.00     0.000 HD 
HETATM   54  O   UNL     1      -6.923  17.367  69.386  1.00  0.00    -0.219 OA 
HETATM   55  C   UNL     1      -7.426  16.488  67.169  1.00  0.00    -0.182 C  
HETATM   56  N   UNL     1      -6.948  15.136  67.546  1.00  0.00    -0.187 NA 
HETATM   57  H   UNL     1      -6.628  16.502  69.646  1.00  0.00     0.000 HD 
BRANCH  47  58
HETATM   58  C   UNL     1      -9.973  19.892  66.330  1.00  0.00    -0.486 C  
HETATM   59  H1  UNL     1      -9.683  21.959  66.629  1.00  0.00     0.000 HD 
HETATM   60  N   UNL     1      -9.347  21.056  66.968  1.00  0.00    -0.649 NA 
HETATM   61  H2  UNL     1      -8.332  21.002  66.886  1.00  0.00     0.000 HD 
ENDBRANCH  47  58
ENDBRANCH  44  45
ENDBRANCH  40  44
ENDBRANCH  29  30
ENDBRANCH  22  29
ENDBRANCH  18  19
ENDBRANCH   7  18
ENDBRANCH   2   5
TORSDOF 9
ENDMDL
MODEL        4
REMARK 921   NORMALIZED FREE ENERGY PREDICTED BY IDOCK:   -7.76 KCAL/MOL
REMARK 922        TOTAL FREE ENERGY PREDICTED BY IDOCK:  -14.65 KCAL/MOL
REMARK 923 INTER-LIGAND FREE ENERGY PREDICTED BY IDOCK:  -12.41 KCAL/MOL
REMARK 924 INTRA-LIGAND FREE ENERGY PREDICTED BY IDOCK:   -2.24 KCAL/MOL
REMARK 927      BINDING AFFINITY PREDICTED BY RF-SCORE:    0.00 PKD
ROOT
HETATM    1  N   UNL     1      -5.479  20.021  66.212  1.00  0.00    -0.170 NA 
HETATM    2  C   UNL     1      -6.129  18.765  65.829  1.00  0.00    -0.208 C  
HETATM    3  H1  UNL     1      -4.574  20.197  65.777  1.00  0.00     0.000 HD 
HETATM    4  H2  UNL     1      -5.394  20.075  67.227  1.00  0.00     0.000 HD 
ENDROOT
BRANCH   2   5
HETATM    5  C   UNL     1      -7.506  18.497  66.492  1.00  0.00    -0.242 C  
HETATM    6  O   UNL     1      -8.329  17.547  65.767  1.00  0.00    -0.538 OA 
HETATM    7  C   UNL     1      -9.529  17.255  66.505  1.00  0.00    -0.269 C  
HETATM    8  C   UNL     1     -10.400  18.544  66.664  1.00  0.00    -0.408 C  
HETATM    9  O   UNL     1      -8.411  20.418  65.296  1.00  0.00    -0.329 OA 
HETATM   10  H   UNL     1      -8.865  21.251  65.365  1.00  0.00     0.000 HD 
HETATM   11  N   UNL     1     -10.947  18.972  65.334  1.00  0.00    -0.410 NA 
HETATM   12  C   UNL     1      -9.592  19.666  67.314  1.00  0.00    -0.346 C  
HETATM   13  H2  UNL     1     -11.461  18.221  64.874  1.00  0.00     0.000 HD 
HETATM   14  O   UNL     1      -9.402  19.448  68.718  1.00  0.00    -0.373 OA 
HETATM   15  C   UNL     1      -8.244  19.854  66.606  1.00  0.00    -0.323 C  
HETATM   16  H1  UNL     1     -11.515  19.813  65.437  1.00  0.00     0.000 HD 
HETATM   17  H   UNL     1      -8.899  20.146  69.122  1.00  0.00     0.000 HD 
BRANCH   7  18
HETATM   18  O   UNL     1     -10.418  16.380  65.835  1.00  0.00    -0.338 OA 
BRANCH  18  19
HETATM   19  C   UNL     1     -10.927  15.228  66.495  1.00  0.00    -0.295 C  
HETATM   20  O   UNL     1     -10.341  14.037  64.398  1.00  0.00    -0.592 OA 
HETATM   21  C   UNL     1      -9.929  15.064  67.648  1.00  0.00    -0.225 C  
HETATM   22  C   UNL     1      -9.864  13.029  66.576  1.00  0.00    -0.263 C  
HETATM   23  H   UNL     1     -10.288  13.211  63.933  1.00  0.00     0.000 HD 
HETATM   24  O   UNL     1      -9.068  13.967  67.301  1.00  0.00    -0.207 OA 
HETATM   25  C   UNL     1     -10.841  13.885  65.739  1.00  0.00    -0.289 C  
BRANCH  21  26
HETATM   26  C   UNL     1     -10.588  14.865  69.016  1.00  0.00    -0.245 C  
HETATM   27  H   UNL     1     -12.211  15.470  69.990  1.00  0.00     0.000 HD 
HETATM   28  O   UNL     1     -11.802  15.593  69.142  1.00  0.00    -0.363 OA 
ENDBRANCH  21  26
BRANCH  22  29
HETATM   29  O   UNL     1     -10.550  12.152  67.478  1.00  0.00    -0.208 OA 
BRANCH  29  30
HETATM   30  C   UNL     1      -9.904  10.873  67.799  1.00  0.00    -0.175 C  
HETATM   31  C   UNL     1      -8.595  10.700  66.984  1.00  0.00    -0.128 C  
HETATM   32  O   UNL     1      -7.497  11.251  67.744  1.00  0.00    -0.090 OA 
HETATM   33  C   UNL     1      -8.176   9.286  66.549  1.00  0.00    -0.107 C  
HETATM   34  C   UNL     1      -9.337   8.322  66.388  1.00  0.00    -0.274 C  
HETATM   35  N   UNL     1      -7.443   9.357  65.259  1.00  0.00    -0.098 NA 
HETATM   36  H   UNL     1      -6.696  11.145  67.245  1.00  0.00     0.000 HD 
HETATM   37  H1  UNL     1      -7.165   8.419  64.970  1.00  0.00     0.000 HD 
HETATM   38  H2  UNL     1      -6.650   9.996  65.301  1.00  0.00     0.000 HD 
HETATM   39  C   UNL     1     -10.194   8.316  67.653  1.00  0.00    -0.231 C  
HETATM   40  C   UNL     1     -10.904   9.684  67.814  1.00  0.00    -0.217 C  
HETATM   41  N   UNL     1     -11.168   7.207  67.556  1.00  0.00    -0.565 NA 
HETATM   42  H2  UNL     1     -10.720   6.307  67.382  1.00  0.00     0.000 HD 
HETATM   43  H1  UNL     1     -11.739   7.203  68.400  1.00  0.00     0.000 HD 
BRANCH  40  44
HETATM   44  O   UNL     1     -11.659   9.627  69.049  1.00  0.00     0.107 OA 
BRANCH  44  45
HETATM   45  C   UNL     1     -10.953  10.044  70.221  1.00  0.00    -0.316 C  
HETATM   46  O   UNL     1     -11.556  11.194  70.820  1.00  0.00    -0.239 OA 
HETATM   47  C   UNL     1     -12.876  10.950  71.325  1.00  0.00    -0.433 C  
HETATM   48  C   UNL     1     -12.885   9.825  72.371  1.00  0.00    -0.187 C  
HETATM   49  H1  UNL     1     -10.178   6.873  71.310  1.00  0.00     0.000 HD 
HETATM   50  O   UNL     1     -14.206   9.534  72.848  1.00  0.00    -0.848 OA 
HETATM   51  H2  UNL     1      -9.319   7.864  70.261  1.00  0.00     0.000 HD 
HETATM   52  C   UNL     1     -12.269   8.552  71.773  1.00  0.00    -0.334 C  
HETATM   53  H   UNL     1     -14.211   8.839  73.495  1.00  0.00     0.000 HD 
HETATM   54  O   UNL     1     -12.185   7.533  72.784  1.00  0.00    -0.552 OA 
HETATM   55  C   UNL     1     -10.863   8.862  71.226  1.00  0.00    -0.290 C  
HETATM   56  N   UNL     1     -10.237   7.648  70.650  1.00  0.00    -0.198 NA 
HETATM   57  H   UNL     1     -11.804   6.746  72.414  1.00  0.00     0.000 HD 
BRANCH  47  58
HETATM   58  C   UNL     1     -13.447  12.284  71.857  1.00  0.00    -0.240 C  
HETATM   59  H1  UNL     1     -13.182  14.366  71.662  1.00  0.00     0.000 HD 
HETATM   60  N   UNL     1     -12.805  13.485  71.311  1.00  0.00    -0.351 NA 
HETATM   61  H2  UNL     1     -12.833  13.470  70.291  1.00  0.00     0.000 HD 
ENDBRANCH  47  58
ENDBRANCH  44  45
ENDBRANCH  40  44
ENDBRANCH  29  30
ENDBRANCH  22  29
ENDBRANCH  18  19
ENDBRANCH   7  18
ENDBRANCH   2   5
TORSDOF 9
ENDMDL
MODEL        5
REMARK 921   NORMALIZED FREE ENERGY PREDICTED BY IDOCK:   -7.69 KCAL/MOL
REMARK 922        TOTAL FREE ENERGY PREDICTED BY IDOCK:  -14.56 KCAL/MOL
REMARK 923 INTER-LIGAND FREE ENERGY PREDICTED BY IDOCK:  -12.19 KCAL/MOL
REMARK 924 INTRA-LIGAND FREE ENERGY PREDICTED BY IDOCK:   -2.36 KCAL/MOL
REMARK 927      BINDING AFFINITY PREDICTED BY RF-SCORE:    0.00 PKD
ROOT
HETATM    1  N   UNL     1      -6.245  20.316  69.891  1.00  0.00    -0.345 NA 
HETATM    2  C   UNL     1      -6.721  19.077  69.268  1.00  0.00    -0.296 C  
HETATM    3  H1  UNL     1      -5.312  20.270  70.300  1.00  0.00     0.000 HD 
HETATM    4  H2  UNL     1      -6.916  20.636  70.588  1.00  0.00     0.000 HD 
ENDROOT
BRANCH   2   5
HETATM    5  C   UNL     1      -8.141  19.146  68.647  1.00  0.00    -0.370 C  
HETATM    6  O   UNL     1      -8.880  17.900  68.737  1.00  0.00    -0.279 OA 
HETATM    7  C   UNL     1     -10.224  18.077  68.257  1.00  0.00    -0.395 C  
HETATM    8  C   UNL     1     -10.218  18.464  66.742  1.00  0.00    -0.388 C  
HETATM    9  O   UNL     1      -7.176  18.589  66.479  1.00  0.00    -0.207 OA 
HETATM   10  H   UNL     1      -7.079  18.842  65.568  1.00  0.00     0.000 HD 
HETATM   11  N   UNL     1      -9.738  17.311  65.910  1.00  0.00    -0.532 NA 
HETATM   12  C   UNL     1      -9.362  19.707  66.505  1.00  0.00    -0.384 C  
HETATM   13  H2  UNL     1     -10.280  16.465  66.084  1.00  0.00     0.000 HD 
HETATM   14  O   UNL     1     -10.013  20.902  66.955  1.00  0.00    -0.541 OA 
HETATM   15  C   UNL     1      -7.984  19.559  67.162  1.00  0.00    -0.268 C  
HETATM   16  H1  UNL     1      -9.733  17.563  64.922  1.00  0.00     0.000 HD 
HETATM   17  H   UNL     1      -9.481  21.676  66.807  1.00  0.00     0.000 HD 
BRANCH   7  18
HETATM   18  O   UNL     1     -10.995  16.889  68.254  1.00  0.00    -0.364 OA 
BRANCH  18  19
HETATM   19  C   UNL     1     -10.595  15.771  69.034  1.00  0.00    -0.232 C  
HETATM   20  O   UNL     1     -12.978  15.675  69.721  1.00  0.00    -0.588 OA 
HETATM   21  C   UNL     1     -10.179  14.767  67.952  1.00  0.00    -0.229 C  
HETATM   22  C   UNL     1     -11.758  13.626  69.177  1.00  0.00    -0.329 C  
HETATM   23  H   UNL     1     -13.656  15.219  70.205  1.00  0.00     0.000 HD 
HETATM   24  O   UNL     1     -11.232  13.793  67.859  1.00  0.00    -0.255 OA 
HETATM   25  C   UNL     1     -11.696  15.029  69.822  1.00  0.00    -0.307 C  
BRANCH  21  26
HETATM   26  C   UNL     1      -8.816  14.116  68.199  1.00  0.00    -0.183 C  
HETATM   27  H   UNL     1      -6.987  14.148  67.422  1.00  0.00     0.000 HD 
HETATM   28  O   UNL     1      -7.833  14.552  67.269  1.00  0.00    -0.192 OA 
ENDBRANCH  21  26
BRANCH  22  29
HETATM   29  O   UNL     1     -10.986  12.662  69.905  1.00  0.00     0.176 OA 
BRANCH  29  30
HETATM   30  C   UNL     1     -11.178  11.247  69.566  1.00  0.00    -0.272 C  
HETATM   31  C   UNL     1     -11.980  10.520  70.676  1.00  0.00    -0.357 C  
HETATM   32  O   UNL     1     -13.388  10.609  70.368  1.00  0.00    -0.231 OA 
HETATM   33  C   UNL     1     -11.676   9.041  70.963  1.00  0.00    -0.296 C  
HETATM   34  C   UNL     1     -10.257   8.626  70.617  1.00  0.00    -0.237 C  
HETATM   35  N   UNL     1     -11.911   8.750  72.400  1.00  0.00    -0.339 NA 
HETATM   36  H   UNL     1     -13.880  10.164  71.049  1.00  0.00     0.000 HD 
HETATM   37  H1  UNL     1     -11.710   7.768  72.590  1.00  0.00     0.000 HD 
HETATM   38  H2  UNL     1     -12.851   9.012  72.696  1.00  0.00     0.000 HD 
HETATM   39  C   UNL     1      -9.928   9.025  69.179  1.00  0.00    -0.185 C  
HETATM   40  C   UNL     1      -9.873  10.570  69.062  1.00  0.00    -0.212 C  
HETATM   41  N   UNL     1      -8.639   8.405  68.802  1.00  0.00    -0.134 NA 
HETATM   42  H2  UNL     1      -8.637   7.394  68.939  1.00  0.00     0.000 HD 
HETATM   43  H1  UNL     1      -8.420   8.672  67.843  1.00  0.00     0.000 HD 
BRANCH  40  44
HETATM   44  O   UNL     1      -9.605  10.880  67.672  1.00  0.00    -0.161 OA 
BRANCH  44  45
HETATM   45  C   UNL     1     -10.297  10.070  66.717  1.00  0.00    -0.217 C  
HETATM   46  O   UNL     1     -11.460  10.730  66.210  1.00  0.00     0.022 OA 
HETATM   47  C   UNL     1     -11.165  11.914  65.457  1.00  0.00    -0.299 C  
HETATM   48  C   UNL     1     -10.248  11.611  64.262  1.00  0.00    -0.311 C  
HETATM   49  H1  UNL     1      -7.472   8.714  65.295  1.00  0.00     0.000 HD 
HETATM   50  O   UNL     1      -9.901  12.794  63.528  1.00  0.00    -0.682 OA 
HETATM   51  H2  UNL     1      -8.352   8.165  66.615  1.00  0.00     0.000 HD 
HETATM   52  C   UNL     1      -8.965  10.923  64.751  1.00  0.00    -0.140 C  
HETATM   53  H   UNL     1      -9.334  12.607  62.789  1.00  0.00     0.000 HD 
HETATM   54  O   UNL     1      -8.156  10.550  63.622  1.00  0.00    -0.270 OA 
HETATM   55  C   UNL     1      -9.328   9.670  65.570  1.00  0.00    -0.248 C  
HETATM   56  N   UNL     1      -8.108   8.976  66.048  1.00  0.00    -0.109 NA 
HETATM   57  H   UNL     1      -7.363  10.124  63.924  1.00  0.00     0.000 HD 
BRANCH  47  58
HETATM   58  C   UNL     1     -12.500  12.577  65.050  1.00  0.00    -0.420 C  
HETATM   59  H1  UNL     1     -13.311  14.467  64.586  1.00  0.00     0.000 HD 
HETATM   60  N   UNL     1     -12.429  14.029  64.854  1.00  0.00    -0.588 NA 
HETATM   61  H2  UNL     1     -11.699  14.260  64.180  1.00  0.00     0.000 HD 
ENDBRANCH  47  58
ENDBRANCH  44  45
ENDBRANCH  40  44
ENDBRANCH  29  30
ENDBRANCH  22  29
ENDBRANCH  18  19
ENDBRANCH   7  18
ENDBRANCH   2   5
TORSDOF 9
ENDMDL
MODEL        6
REMARK 921   NORMALIZED FREE ENERGY PREDICTED BY IDOCK:   -7.68 KCAL/MOL
REMARK 922        TOTAL FREE ENERGY PREDICTED BY IDOCK:  -14.54 KCAL/MOL
REMARK 923 INTER-LIGAND FREE ENERGY PREDICTED BY IDOCK:  -11.61 KCAL/MOL
REMARK 924 INTRA-LIGAND FREE ENERGY PREDICTED BY IDOCK:   -2.93 KCAL/MOL
REMARK 927      BINDING AFFINITY PREDICTED BY RF-SCORE:    0.00 PKD
ROOT
HETATM    1  N   UNL     1      -6.304  21.313  67.533  1.00  0.00    -0.458 NA 
HETATM    2  C   UNL     1      -6.456  19.866  67.711  1.00  0.00    -0.228 C  
HETATM    3  H1  UNL     1      -5.356  21.632  67.333  1.00  0.00     0.000 HD 
HETATM    4  H2  UNL     1      -6.673  21.805  68.347  1.00  0.00     0.000 HD 
ENDROOT
BRANCH   2   5
HETATM    5  C   UNL     1      -7.897  19.380  68.016  1.00  0.00    -0.302 C  
HETATM    6  O   UNL     1      -8.174  18.037  67.540  1.00  0.00    -0.231 OA 
HETATM    7  C   UNL     1      -9.479  17.611  67.970  1.00  0.00    -0.282 C  
HETATM    8  C   UNL     1     -10.585  18.524  67.346  1.00  0.00    -0.424 C  
HETATM    9  O   UNL     1      -8.647  20.427  65.946  1.00  0.00    -0.562 OA 
HETATM   10  H   UNL     1      -9.250  21.043  65.545  1.00  0.00     0.000 HD 
HETATM   11  N   UNL     1     -10.660  18.315  65.862  1.00  0.00    -0.507 NA 
HETATM   12  C   UNL     1     -10.328  19.992  67.683  1.00  0.00    -0.370 C  
HETATM   13  H2  UNL     1     -10.799  17.333  65.623  1.00  0.00     0.000 HD 
HETATM   14  O   UNL     1     -10.645  20.294  69.048  1.00  0.00    -0.465 OA 
HETATM   15  C   UNL     1      -8.880  20.384  67.363  1.00  0.00    -0.325 C  
HETATM   16  H1  UNL     1     -11.381  18.911  65.455  1.00  0.00     0.000 HD 
HETATM   17  H   UNL     1     -10.485  21.207  69.258  1.00  0.00     0.000 HD 
BRANCH   7  18
HETATM   18  O   UNL     1      -9.853  16.330  67.493  1.00  0.00    -0.233 OA 
BRANCH  18  19
HETATM   19  C   UNL     1      -9.642  15.176  68.294  1.00  0.00    -0.211 C  
HETATM   20  O   UNL     1     -11.936  14.539  67.593  1.00  0.00    -0.474 OA 
HETATM   21  C   UNL     1      -8.504  14.476  67.541  1.00  0.00    -0.190 C  
HETATM   22  C   UNL     1     -10.147  12.871  67.658  1.00  0.00    -0.221 C  
HETATM   23  H   UNL     1     -12.629  13.890  67.610  1.00  0.00     0.000 HD 
HETATM   24  O   UNL     1      -9.088  13.366  66.839  1.00  0.00    -0.231 OA 
HETATM   25  C   UNL     1     -10.768  14.120  68.323  1.00  0.00    -0.249 C  
BRANCH  21  26
HETATM   26  C   UNL     1      -7.341  14.041  68.437  1.00  0.00    -0.113 C  
HETATM   27  H   UNL     1      -6.486  14.595  70.143  1.00  0.00     0.000 HD 
HETATM   28  O   UNL     1      -7.207  14.865  69.587  1.00  0.00    -0.174 OA 
ENDBRANCH  21  26
BRANCH  22  29
HETATM   29  O   UNL     1      -9.640  11.941  68.624  1.00  0.00    -0.178 OA 
BRANCH  29  30
HETATM   30  C   UNL     1     -10.021  10.531  68.468  1.00  0.00    -0.170 C  
HETATM   31  C   UNL     1     -11.085  10.131  69.523  1.00  0.00    -0.250 C  
HETATM   32  O   UNL     1     -12.399  10.369  68.972  1.00  0.00    -0.730 OA 
HETATM   33  C   UNL     1     -11.081   8.694  70.070  1.00  0.00    -0.157 C  
HETATM   34  C   UNL     1      -9.719   8.025  70.033  1.00  0.00    -0.173 C  
HETATM   35  N   UNL     1     -11.565   8.692  71.475  1.00  0.00    -0.282 NA 
HETATM   36  H   UNL     1     -13.050  10.123  69.619  1.00  0.00     0.000 HD 
HETATM   37  H1  UNL     1     -11.562   7.738  71.837  1.00  0.00     0.000 HD 
HETATM   38  H2  UNL     1     -12.479   9.135  71.567  1.00  0.00     0.000 HD 
HETATM   39  C   UNL     1      -9.126   8.119  68.628  1.00  0.00    -0.143 C  
HETATM   40  C   UNL     1      -8.791   9.596  68.296  1.00  0.00    -0.120 C  
HETATM   41  N   UNL     1      -7.921   7.263  68.568  1.00  0.00    -0.122 NA 
HETATM   42  H2  UNL     1      -8.110   6.301  68.850  1.00  0.00     0.000 HD 
HETATM   43  H1  UNL     1      -7.525   7.326  67.630  1.00  0.00     0.000 HD 
BRANCH  40  44
HETATM   44  O   UNL     1      -8.280   9.620  66.940  1.00  0.00    -0.112 OA 
BRANCH  44  45
HETATM   45  C   UNL     1      -9.065   8.918  65.974  1.00  0.00    -0.214 C  
HETATM   46  O   UNL     1      -9.992   9.785  65.315  1.00  0.00    -0.318 OA 
HETATM   47  C   UNL     1      -9.361  10.801  64.523  1.00  0.00    -0.236 C  
HETATM   48  C   UNL     1      -8.449  10.195  63.445  1.00  0.00    -0.185 C  
HETATM   49  H1  UNL     1      -6.542   6.827  64.923  1.00  0.00     0.000 HD 
HETATM   50  O   UNL     1      -7.771  11.199  62.678  1.00  0.00    -0.399 OA 
HETATM   51  H2  UNL     1      -7.632   6.610  66.182  1.00  0.00     0.000 HD 
HETATM   52  C   UNL     1      -7.413   9.269  64.099  1.00  0.00    -0.110 C  
HETATM   53  H   UNL     1      -7.207  10.824  62.011  1.00  0.00     0.000 HD 
HETATM   54  O   UNL     1      -6.627   8.626  63.081  1.00  0.00    -0.090 OA 
HETATM   55  C   UNL     1      -8.130   8.209  64.954  1.00  0.00    -0.153 C  
HETATM   56  N   UNL     1      -7.155   7.292  65.592  1.00  0.00    -0.063 NA 
HETATM   57  H   UNL     1      -5.987   8.053  63.486  1.00  0.00     0.000 HD 
BRANCH  47  58
HETATM   58  C   UNL     1     -10.461  11.720  63.946  1.00  0.00    -0.390 C  
HETATM   59  H1  UNL     1     -10.838  13.752  63.527  1.00  0.00     0.000 HD 
HETATM   60  N   UNL     1     -10.110  13.145  63.907  1.00  0.00    -0.764 NA 
HETATM   61  H2  UNL     1      -9.235  13.280  63.401  1.00  0.00     0.000 HD 
ENDBRANCH  47  58
ENDBRANCH  44  45
ENDBRANCH  40  44
ENDBRANCH  29  30
ENDBRANCH  22  29
ENDBRANCH  18  19
ENDBRANCH   7  18
ENDBRANCH   2   5
TORSDOF 9
ENDMDL
MODEL        7
REMARK 921   NORMALIZED FREE ENERGY PREDICTED BY IDOCK:   -7.56 KCAL/MOL
REMARK 922        TOTAL FREE ENERGY PREDICTED BY IDOCK:  -14.35 KCAL/MOL
REMARK 923 INTER-LIGAND FREE ENERGY PREDICTED BY IDOCK:  -12.68 KCAL/MOL
REMARK 924 INTRA-LIGAND FREE ENERGY PREDICTED BY IDOCK:   -1.67 KCAL/MOL
REMARK 927      BINDING AFFINITY PREDICTED BY RF-SCORE:    0.00 PKD
ROOT
HETATM    1  N   UNL     1     -11.405   4.493  65.264  1.00  0.00    -1.078 NA 
HETATM    2  C   UNL     1     -10.068   4.524  65.864  1.00  0.00    -0.258 C  
HETATM    3  H1  UNL     1     -11.467   4.039  64.354  1.00  0.00     0.000 HD 
HETATM    4  H2  UNL     1     -11.786   5.437  65.210  1.00  0.00     0.000 HD 
ENDROOT
BRANCH   2   5
HETATM    5  C   UNL     1      -9.975   5.215  67.249  1.00  0.00    -0.186 C  
HETATM    6  O   UNL     1      -9.466   6.574  67.192  1.00  0.00    -0.124 OA 
HETATM    7  C   UNL     1      -9.528   7.189  68.491  1.00  0.00    -0.139 C  
HETATM    8  C   UNL     1      -8.607   6.428  69.501  1.00  0.00    -0.133 C  
HETATM    9  O   UNL     1      -7.759   4.241  67.541  1.00  0.00    -0.083 OA 
HETATM   10  H   UNL     1      -7.196   3.709  68.092  1.00  0.00     0.000 HD 
HETATM   11  N   UNL     1      -7.164   6.614  69.134  1.00  0.00    -0.088 NA 
HETATM   12  C   UNL     1      -8.974   4.946  69.556  1.00  0.00    -0.092 C  
HETATM   13  H2  UNL     1      -6.914   7.600  69.061  1.00  0.00     0.000 HD 
HETATM   14  O   UNL     1     -10.193   4.720  70.276  1.00  0.00    -0.247 OA 
HETATM   15  C   UNL     1      -9.057   4.347  68.146  1.00  0.00    -0.127 C  
HETATM   16  H1  UNL     1      -6.563   6.118  69.792  1.00  0.00     0.000 HD 
HETATM   17  H   UNL     1     -10.422   3.798  70.310  1.00  0.00     0.000 HD 
BRANCH   7  18
HETATM   18  O   UNL     1      -8.991   8.499  68.534  1.00  0.00    -0.139 OA 
BRANCH  18  19
HETATM   19  C   UNL     1      -9.325   9.445  67.527  1.00  0.00    -0.127 C  
HETATM   20  O   UNL     1      -9.985  10.902  69.425  1.00  0.00    -0.386 OA 
HETATM   21  C   UNL     1      -7.952   9.745  66.913  1.00  0.00    -0.105 C  
HETATM   22  C   UNL     1      -8.737  11.817  67.531  1.00  0.00    -0.159 C  
HETATM   23  H   UNL     1     -10.295  11.752  69.714  1.00  0.00     0.000 HD 
HETATM   24  O   UNL     1      -7.549  11.035  67.400  1.00  0.00    -0.102 OA 
HETATM   25  C   UNL     1      -9.828  10.827  67.996  1.00  0.00    -0.165 C  
BRANCH  21  26
HETATM   26  C   UNL     1      -7.928   9.677  65.383  1.00  0.00    -0.120 C  
HETATM   27  H   UNL     1      -9.211   9.458  63.882  1.00  0.00     0.000 HD 
HETATM   28  O   UNL     1      -9.225   9.501  64.830  1.00  0.00    -0.234 OA 
ENDBRANCH  21  26
BRANCH  22  29
HETATM   29  O   UNL     1      -9.067  12.438  66.282  1.00  0.00    -0.194 OA 
BRANCH  29  30
HETATM   30  C   UNL     1     -10.288  13.252  66.234  1.00  0.00    -0.290 C  
HETATM   31  C   UNL     1     -11.476  12.426  65.674  1.00  0.00    -0.367 C  
HETATM   32  O   UNL     1     -12.154  11.779  66.773  1.00  0.00    -0.547 OA 
HETATM   33  C   UNL     1     -12.551  13.146  64.844  1.00  0.00    -0.407 C  
HETATM   34  C   UNL     1     -12.049  14.387  64.130  1.00  0.00    -0.405 C  
HETATM   35  N   UNL     1     -13.107  12.214  63.828  1.00  0.00    -0.755 NA 
HETATM   36  H   UNL     1     -12.881  11.274  66.429  1.00  0.00     0.000 HD 
HETATM   37  H1  UNL     1     -13.820  12.692  63.278  1.00  0.00     0.000 HD 
HETATM   38  H2  UNL     1     -13.458  11.354  64.248  1.00  0.00     0.000 HD 
HETATM   39  C   UNL     1     -11.353  15.318  65.121  1.00  0.00    -0.321 C  
HETATM   40  C   UNL     1     -10.044  14.662  65.629  1.00  0.00    -0.363 C  
HETATM   41  N   UNL     1     -11.088  16.609  64.448  1.00  0.00    -1.251 NA 
HETATM   42  H2  UNL     1     -11.930  17.022  64.048  1.00  0.00     0.000 HD 
HETATM   43  H1  UNL     1     -10.624  17.230  65.111  1.00  0.00     0.000 HD 
BRANCH  40  44
HETATM   44  O   UNL     1      -9.462  15.571  66.596  1.00  0.00    -0.229 OA 
BRANCH  44  45
HETATM   45  C   UNL     1      -8.225  16.174  66.205  1.00  0.00    -0.240 C  
HETATM   46  O   UNL     1      -8.409  17.524  65.772  1.00  0.00    -0.538 OA 
HETATM   47  C   UNL     1      -8.867  18.402  66.810  1.00  0.00    -0.278 C  
HETATM   48  C   UNL     1      -7.896  18.427  68.000  1.00  0.00    -0.274 C  
HETATM   49  H1  UNL     1      -6.312  14.649  68.625  1.00  0.00     0.000 HD 
HETATM   50  O   UNL     1      -8.366  19.260  69.069  1.00  0.00    -0.338 OA 
HETATM   51  H2  UNL     1      -6.698  14.097  67.087  1.00  0.00     0.000 HD 
HETATM   52  C   UNL     1      -7.679  17.000  68.526  1.00  0.00    -0.238 C  
HETATM   53  H   UNL     1      -7.765  19.275  69.805  1.00  0.00     0.000 HD 
HETATM   54  O   UNL     1      -6.693  17.015  69.573  1.00  0.00    -0.235 OA 
HETATM   55  C   UNL     1      -7.208  16.089  67.377  1.00  0.00    -0.187 C  
HETATM   56  N   UNL     1      -6.980  14.705  67.856  1.00  0.00    -0.142 NA 
HETATM   57  H   UNL     1      -6.559  16.132  69.897  1.00  0.00     0.000 HD 
BRANCH  47  58
HETATM   58  C   UNL     1      -9.114  19.797  66.194  1.00  0.00    -0.343 C  
HETATM   59  H1  UNL     1      -9.830  21.710  66.716  1.00  0.00     0.000 HD 
HETATM   60  N   UNL     1      -9.667  20.789  67.123  1.00  0.00    -0.652 NA 
HETATM   61  H2  UNL     1      -9.074  20.867  67.951  1.00  0.00     0.000 HD 
ENDBRANCH  47  58
ENDBRANCH  44  45
ENDBRANCH  40  44
ENDBRANCH  29  30
ENDBRANCH  22  29
ENDBRANCH  18  19
ENDBRANCH   7  18
ENDBRANCH   2   5
TORSDOF 9
ENDMDL
MODEL        8
REMARK 921   NORMALIZED FREE ENERGY PREDICTED BY IDOCK:   -7.50 KCAL/MOL
REMARK 922        TOTAL FREE ENERGY PREDICTED BY IDOCK:  -14.25 KCAL/MOL
REMARK 923 INTER-LIGAND FREE ENERGY PREDICTED BY IDOCK:  -12.08 KCAL/MOL
REMARK 924 INTRA-LIGAND FREE ENERGY PREDICTED BY IDOCK:   -2.18 KCAL/MOL
REMARK 927      BINDING AFFINITY PREDICTED BY RF-SCORE:    0.00 PKD
ROOT
HETATM    1  N   UNL     1      -5.638  19.193  69.604  1.00  0.00    -0.211 NA 
HETATM    2  C   UNL     1      -6.276  19.125  68.286  1.00  0.00    -0.223 C  
HETATM    3  H1  UNL     1      -4.627  19.324  69.595  1.00  0.00     0.000 HD 
HETATM    4  H2  UNL     1      -5.878  18.367  70.151  1.00  0.00     0.000 HD 
ENDROOT
BRANCH   2   5
HETATM    5  C   UNL     1      -7.815  18.925  68.300  1.00  0.00    -0.308 C  
HETATM    6  O   UNL     1      -8.280  17.905  67.378  1.00  0.00    -0.216 OA 
HETATM    7  C   UNL     1      -9.693  17.690  67.538  1.00  0.00    -0.280 C  
HETATM    8  C   UNL     1     -10.488  18.987  67.179  1.00  0.00    -0.441 C  
HETATM    9  O   UNL     1      -8.021  20.714  66.656  1.00  0.00    -0.522 OA 
HETATM   10  H   UNL     1      -8.422  21.549  66.442  1.00  0.00     0.000 HD 
HETATM   11  N   UNL     1     -10.380  19.278  65.710  1.00  0.00    -0.526 NA 
HETATM   12  C   UNL     1      -9.996  20.171  68.011  1.00  0.00    -0.381 C  
HETATM   13  H2  UNL     1     -10.674  18.483  65.143  1.00  0.00     0.000 HD 
HETATM   14  O   UNL     1     -10.448  20.098  69.369  1.00  0.00    -0.586 OA 
HETATM   15  C   UNL     1      -8.468  20.287  67.952  1.00  0.00    -0.143 C  
HETATM   16  H1  UNL     1     -10.898  20.124  65.476  1.00  0.00     0.000 HD 
HETATM   17  H   UNL     1     -10.142  20.834  69.887  1.00  0.00     0.000 HD 
BRANCH   7  18
HETATM   18  O   UNL     1     -10.239  16.750  66.629  1.00  0.00    -0.292 OA 
BRANCH  18  19
HETATM   19  C   UNL     1     -11.052  15.684  67.100  1.00  0.00    -0.218 C  
HETATM   20  O   UNL     1      -9.585  14.243  65.710  1.00  0.00    -0.473 OA 
HETATM   21  C   UNL     1     -10.739  15.692  68.601  1.00  0.00    -0.256 C  
HETATM   22  C   UNL     1     -10.257  13.537  67.954  1.00  0.00    -0.247 C  
HETATM   23  H   UNL     1      -9.352  13.364  65.435  1.00  0.00     0.000 HD 
HETATM   24  O   UNL     1      -9.866  14.578  68.851  1.00  0.00    -0.224 OA 
HETATM   25  C   UNL     1     -10.674  14.256  66.652  1.00  0.00    -0.290 C  
BRANCH  21  26
HETATM   26  C   UNL     1     -11.981  15.659  69.495  1.00  0.00    -0.345 C  
HETATM   27  H   UNL     1     -12.460  16.010  71.391  1.00  0.00     0.000 HD 
HETATM   28  O   UNL     1     -11.690  16.030  70.836  1.00  0.00    -0.388 OA 
ENDBRANCH  21  26
BRANCH  22  29
HETATM   29  O   UNL     1     -11.330  12.770  68.515  1.00  0.00    -0.249 OA 
BRANCH  29  30
HETATM   30  C   UNL     1     -11.168  11.311  68.556  1.00  0.00    -0.252 C  
HETATM   31  C   UNL     1     -11.920  10.710  69.772  1.00  0.00    -0.291 C  
HETATM   32  O   UNL     1     -13.267  10.378  69.368  1.00  0.00    -0.230 OA 
HETATM   33  C   UNL     1     -11.339   9.465  70.461  1.00  0.00    -0.274 C  
HETATM   34  C   UNL     1      -9.833   9.332  70.323  1.00  0.00    -0.265 C  
HETATM   35  N   UNL     1     -11.675   9.489  71.907  1.00  0.00    -0.334 NA 
HETATM   36  H   UNL     1     -13.728  10.010  70.113  1.00  0.00     0.000 HD 
HETATM   37  H1  UNL     1     -11.289   8.663  72.364  1.00  0.00     0.000 HD 
HETATM   38  H2  UNL     1     -12.678   9.582  72.066  1.00  0.00     0.000 HD 
HETATM   39  C   UNL     1      -9.429   9.431  68.852  1.00  0.00    -0.154 C  
HETATM   40  C   UNL     1      -9.696  10.866  68.329  1.00  0.00    -0.165 C  
HETATM   41  N   UNL     1      -8.001   9.067  68.731  1.00  0.00    -0.100 NA 
HETATM   42  H2  UNL     1      -7.795   8.152  69.133  1.00  0.00     0.000 HD 
HETATM   43  H1  UNL     1      -7.732   9.133  67.750  1.00  0.00     0.000 HD 
BRANCH  40  44
HETATM   44  O   UNL     1      -9.338  10.879  66.925  1.00  0.00    -0.165 OA 
BRANCH  44  45
HETATM   45  C   UNL     1     -10.015   9.919  66.109  1.00  0.00    -0.263 C  
HETATM   46  O   UNL     1     -11.092  10.514  65.379  1.00  0.00     0.182 OA 
HETATM   47  C   UNL     1     -10.662  11.489  64.419  1.00  0.00    -0.344 C  
HETATM   48  C   UNL     1      -9.687  10.888  63.396  1.00  0.00    -0.352 C  
HETATM   49  H1  UNL     1      -7.198   8.141  65.248  1.00  0.00     0.000 HD 
HETATM   50  O   UNL     1      -9.208  11.864  62.461  1.00  0.00    -0.407 OA 
HETATM   51  H2  UNL     1      -8.204   7.938  66.576  1.00  0.00     0.000 HD 
HETATM   52  C   UNL     1      -8.493  10.255  64.125  1.00  0.00    -0.179 C  
HETATM   53  H   UNL     1      -8.605  11.492  61.828  1.00  0.00     0.000 HD 
HETATM   54  O   UNL     1      -7.634   9.605  63.173  1.00  0.00    -0.110 OA 
HETATM   55  C   UNL     1      -8.998   9.230  65.158  1.00  0.00    -0.209 C  
HETATM   56  N   UNL     1      -7.866   8.593  65.872  1.00  0.00    -0.100 NA 
HETATM   57  H   UNL     1      -6.895   9.213  63.624  1.00  0.00     0.000 HD 
BRANCH  47  58
HETATM   58  C   UNL     1     -11.917  12.118  63.771  1.00  0.00    -0.513 C  
HETATM   59  H1  UNL     1     -12.634  13.967  63.057  1.00  0.00     0.000 HD 
HETATM   60  N   UNL     1     -11.805  13.553  63.484  1.00  0.00    -0.733 NA 
HETATM   61  H2  UNL     1     -10.981  13.736  62.912  1.00  0.00     0.000 HD 
ENDBRANCH  47  58
ENDBRANCH  44  45
ENDBRANCH  40  44
ENDBRANCH  29  30
ENDBRANCH  22  29
ENDBRANCH  18  19
ENDBRANCH   7  18
ENDBRANCH   2   5
TORSDOF 9
ENDMDL
MODEL        9
REMARK 921   NORMALIZED FREE ENERGY PREDICTED BY IDOCK:   -7.46 KCAL/MOL
REMARK 922        TOTAL FREE ENERGY PREDICTED BY IDOCK:  -14.19 KCAL/MOL
REMARK 923 INTER-LIGAND FREE ENERGY PREDICTED BY IDOCK:  -12.11 KCAL/MOL
REMARK 924 INTRA-LIGAND FREE ENERGY PREDICTED BY IDOCK:   -2.08 KCAL/MOL
REMARK 927      BINDING AFFINITY PREDICTED BY RF-SCORE:    0.00 PKD
ROOT
HETATM    1  N   UNL     1     -11.575   4.494  65.072  1.00  0.00    -1.039 NA 
HETATM    2  C   UNL     1     -10.128   4.466  65.305  1.00  0.00    -0.201 C  
HETATM    3  H1  UNL     1     -11.915   3.856  64.353  1.00  0.00     0.000 HD 
HETATM    4  H2  UNL     1     -11.877   5.446  64.865  1.00  0.00     0.000 HD 
ENDROOT
BRANCH   2   5
HETATM    5  C   UNL     1      -9.610   5.436  66.399  1.00  0.00    -0.159 C  
HETATM    6  O   UNL     1      -8.715   6.461  65.895  1.00  0.00    -0.149 OA 
HETATM    7  C   UNL     1      -8.379   7.393  66.938  1.00  0.00    -0.122 C  
HETATM    8  C   UNL     1      -7.602   6.671  68.087  1.00  0.00    -0.104 C  
HETATM    9  O   UNL     1      -7.798   3.875  66.869  1.00  0.00    -0.087 OA 
HETATM   10  H   UNL     1      -7.354   3.355  67.529  1.00  0.00     0.000 HD 
HETATM   11  N   UNL     1      -6.248   6.236  67.609  1.00  0.00    -0.024 NA 
HETATM   12  C   UNL     1      -8.405   5.486  68.621  1.00  0.00    -0.101 C  
HETATM   13  H2  UNL     1      -5.714   7.012  67.219  1.00  0.00     0.000 HD 
HETATM   14  O   UNL     1      -9.507   5.906  69.435  1.00  0.00    -0.128 OA 
HETATM   15  C   UNL     1      -8.887   4.588  67.475  1.00  0.00    -0.107 C  
HETATM   16  H1  UNL     1      -5.741   5.765  68.358  1.00  0.00     0.000 HD 
HETATM   17  H   UNL     1     -10.006   5.169  69.768  1.00  0.00     0.000 HD 
BRANCH   7  18
HETATM   18  O   UNL     1      -7.457   8.392  66.542  1.00  0.00    -0.080 OA 
BRANCH  18  19
HETATM   19  C   UNL     1      -7.650   9.745  66.934  1.00  0.00    -0.095 C  
HETATM   20  O   UNL     1      -7.338  10.257  64.526  1.00  0.00    -0.194 OA 
HETATM   21  C   UNL     1      -9.104   9.724  67.420  1.00  0.00    -0.134 C  
HETATM   22  C   UNL     1      -9.090  11.374  65.817  1.00  0.00    -0.184 C  
HETATM   23  H   UNL     1      -7.338  10.913  63.838  1.00  0.00     0.000 HD 
HETATM   24  O   UNL     1      -9.897  10.347  66.396  1.00  0.00    -0.196 OA 
HETATM   25  C   UNL     1      -7.651  10.810  65.817  1.00  0.00    -0.079 C  
BRANCH  21  26
HETATM   26  C   UNL     1      -9.312  10.382  68.787  1.00  0.00    -0.175 C  
HETATM   27  H   UNL     1     -10.801  10.753  70.050  1.00  0.00     0.000 HD 
HETATM   28  O   UNL     1     -10.671  10.345  69.202  1.00  0.00    -0.204 OA 
ENDBRANCH  21  26
BRANCH  22  29
HETATM   29  O   UNL     1      -9.196  12.583  66.579  1.00  0.00    -0.232 OA 
BRANCH  29  30
HETATM   30  C   UNL     1     -10.427  13.370  66.429  1.00  0.00    -0.286 C  
HETATM   31  C   UNL     1     -11.591  12.477  65.928  1.00  0.00    -0.405 C  
HETATM   32  O   UNL     1     -12.284  11.928  67.071  1.00  0.00    -0.492 OA 
HETATM   33  C   UNL     1     -12.659  13.097  65.011  1.00  0.00    -0.438 C  
HETATM   34  C   UNL     1     -12.158  14.272  64.191  1.00  0.00    -0.423 C  
HETATM   35  N   UNL     1     -13.180  12.064  64.079  1.00  0.00    -0.677 NA 
HETATM   36  H   UNL     1     -12.997  11.381  66.763  1.00  0.00     0.000 HD 
HETATM   37  H1  UNL     1     -13.888  12.476  63.472  1.00  0.00     0.000 HD 
HETATM   38  H2  UNL     1     -13.529  11.242  64.573  1.00  0.00     0.000 HD 
HETATM   39  C   UNL     1     -11.496  15.304  65.102  1.00  0.00    -0.260 C  
HETATM   40  C   UNL     1     -10.189  14.720  65.696  1.00  0.00    -0.358 C  
HETATM   41  N   UNL     1     -11.233  16.528  64.313  1.00  0.00    -1.353 NA 
HETATM   42  H2  UNL     1     -12.072  16.888  63.859  1.00  0.00     0.000 HD 
HETATM   43  H1  UNL     1     -10.791  17.217  64.922  1.00  0.00     0.000 HD 
BRANCH  40  44
HETATM   44  O   UNL     1      -9.639  15.726  66.582  1.00  0.00    -0.224 OA 
BRANCH  44  45
HETATM   45  C   UNL     1      -8.382  16.278  66.180  1.00  0.00    -0.225 C  
HETATM   46  O   UNL     1      -8.520  17.624  65.718  1.00  0.00    -0.525 OA 
HETATM   47  C   UNL     1      -8.949  18.538  66.738  1.00  0.00    -0.293 C  
HETATM   48  C   UNL     1      -7.978  18.556  67.928  1.00  0.00    -0.255 C  
HETATM   49  H1  UNL     1      -6.523  14.741  68.634  1.00  0.00     0.000 HD 
HETATM   50  O   UNL     1      -8.420  19.426  68.979  1.00  0.00    -0.345 OA 
HETATM   51  H2  UNL     1      -6.926  14.170  67.107  1.00  0.00     0.000 HD 
HETATM   52  C   UNL     1      -7.809  17.134  68.484  1.00  0.00    -0.257 C  
HETATM   53  H   UNL     1      -7.819  19.437  69.715  1.00  0.00     0.000 HD 
HETATM   54  O   UNL     1      -6.824  17.137  69.531  1.00  0.00    -0.215 OA 
HETATM   55  C   UNL     1      -7.369  16.184  67.355  1.00  0.00    -0.176 C  
HETATM   56  N   UNL     1      -7.188  14.803  67.863  1.00  0.00    -0.138 NA 
HETATM   57  H   UNL     1      -6.720  16.258  69.874  1.00  0.00     0.000 HD 
BRANCH  47  58
HETATM   58  C   UNL     1      -9.149  19.928  66.092  1.00  0.00    -0.322 C  
HETATM   59  H1  UNL     1      -9.799  21.875  66.573  1.00  0.00     0.000 HD 
HETATM   60  N   UNL     1      -9.667  20.957  67.000  1.00  0.00    -0.651 NA 
HETATM   61  H2  UNL     1      -9.073  21.033  67.826  1.00  0.00     0.000 HD 
ENDBRANCH  47  58
ENDBRANCH  44  45
ENDBRANCH  40  44
ENDBRANCH  29  30
ENDBRANCH  22  29
ENDBRANCH  18  19
ENDBRANCH   7  18
ENDBRANCH   2   5
TORSDOF 9
ENDMDL
MODEL       10
REMARK 921   NORMALIZED FREE ENERGY PREDICTED BY IDOCK:   -7.45 KCAL/MOL
REMARK 922        TOTAL FREE ENERGY PREDICTED BY IDOCK:  -14.18 KCAL/MOL
REMARK 923 INTER-LIGAND FREE ENERGY PREDICTED BY IDOCK:  -11.61 KCAL/MOL
REMARK 924 INTRA-LIGAND FREE ENERGY PREDICTED BY IDOCK:   -2.58 KCAL/MOL
REMARK 927      BINDING AFFINITY PREDICTED BY RF-SCORE:    0.00 PKD
ROOT
HETATM    1  N   UNL     1      -6.323  16.984  68.393  1.00  0.00    -0.147 NA 
HETATM    2  C   UNL     1      -7.164  18.153  68.665  1.00  0.00    -0.281 C  
HETATM    3  H1  UNL     1      -5.351  17.066  68.690  1.00  0.00     0.000 HD 
HETATM    4  H2  UNL     1      -6.366  16.746  67.403  1.00  0.00     0.000 HD 
ENDROOT
BRANCH   2   5
HETATM    5  C   UNL     1      -8.643  18.029  68.213  1.00  0.00    -0.287 C  
HETATM    6  O   UNL     1      -9.143  16.667  68.215  1.00  0.00    -0.206 OA 
HETATM    7  C   UNL     1     -10.549  16.646  67.909  1.00  0.00    -0.342 C  
HETATM    8  C   UNL     1     -10.802  17.193  66.466  1.00  0.00     0.057 C  
HETATM    9  O   UNL     1      -7.884  17.902  65.900  1.00  0.00    -0.515 OA 
HETATM   10  H   UNL     1      -7.949  18.268  65.025  1.00  0.00     0.000 HD 
HETATM   11  N   UNL     1     -10.245  16.248  65.443  1.00  0.00    -0.568 NA 
HETATM   12  C   UNL     1     -10.206  18.591  66.305  1.00  0.00    -0.418 C  
HETATM   13  H2  UNL     1     -10.610  15.302  65.560  1.00  0.00     0.000 HD 
HETATM   14  O   UNL     1     -10.986  19.589  66.976  1.00  0.00    -0.477 OA 
HETATM   15  C   UNL     1      -8.750  18.626  66.787  1.00  0.00    -0.292 C  
HETATM   16  H1  UNL     1     -10.409  16.605  64.502  1.00  0.00     0.000 HD 
HETATM   17  H   UNL     1     -10.616  20.459  66.876  1.00  0.00     0.000 HD 
BRANCH   7  18
HETATM   18  O   UNL     1     -11.102  15.345  67.831  1.00  0.00    -0.302 OA 
BRANCH  18  19
HETATM   19  C   UNL     1     -10.652  14.319  68.706  1.00  0.00    -0.252 C  
HETATM   20  O   UNL     1     -12.974  14.353  69.582  1.00  0.00    -0.449 OA 
HETATM   21  C   UNL     1     -10.335  13.186  67.723  1.00  0.00    -0.230 C  
HETATM   22  C   UNL     1     -11.822  12.229  69.194  1.00  0.00    -0.301 C  
HETATM   23  H   UNL     1     -13.616  13.970  70.169  1.00  0.00     0.000 HD 
HETATM   24  O   UNL     1     -11.401  12.229  67.829  1.00  0.00    -0.260 OA 
HETATM   25  C   UNL     1     -11.695  13.698  69.660  1.00  0.00    -0.320 C  
BRANCH  21  26
HETATM   26  C   UNL     1      -8.962  12.542  67.938  1.00  0.00    -0.188 C  
HETATM   27  H   UNL     1      -7.187  13.034  68.682  1.00  0.00     0.000 HD 
HETATM   28  O   UNL     1      -8.038  13.433  68.548  1.00  0.00    -0.150 OA 
ENDBRANCH  21  26
BRANCH  22  29
HETATM   29  O   UNL     1     -11.004  11.344  69.970  1.00  0.00    -0.091 OA 
BRANCH  29  30
HETATM   30  C   UNL     1     -11.470   9.961  70.130  1.00  0.00    -0.248 C  
HETATM   31  C   UNL     1     -12.719   9.905  71.048  1.00  0.00    -0.334 C  
HETATM   32  O   UNL     1     -13.903  10.029  70.230  1.00  0.00    -0.279 OA 
HETATM   33  C   UNL     1     -12.921   8.676  71.949  1.00  0.00    -0.372 C  
HETATM   34  C   UNL     1     -11.631   7.974  72.332  1.00  0.00    -0.450 C  
HETATM   35  N   UNL     1     -13.623   9.078  73.195  1.00  0.00    -0.975 NA 
HETATM   36  H   UNL     1     -14.668   9.995  70.793  1.00  0.00     0.000 HD 
HETATM   37  H1  UNL     1     -13.758   8.263  73.792  1.00  0.00     0.000 HD 
HETATM   38  H2  UNL     1     -14.500   9.562  73.003  1.00  0.00     0.000 HD 
HETATM   39  C   UNL     1     -10.815   7.656  71.080  1.00  0.00    -0.235 C  
HETATM   40  C   UNL     1     -10.311   8.971  70.432  1.00  0.00    -0.212 C  
HETATM   41  N   UNL     1      -9.691   6.774  71.464  1.00  0.00    -0.164 NA 
HETATM   42  H2  UNL     1     -10.001   5.935  71.953  1.00  0.00     0.000 HD 
HETATM   43  H1  UNL     1      -9.146   6.562  70.628  1.00  0.00     0.000 HD 
BRANCH  40  44
HETATM   44  O   UNL     1      -9.588   8.601  69.232  1.00  0.00    -0.163 OA 
BRANCH  44  45
HETATM   45  C   UNL     1     -10.359   7.934  68.230  1.00  0.00    -0.197 C  
HETATM   46  O   UNL     1     -10.704   8.812  67.156  1.00  0.00    -0.271 OA 
HETATM   47  C   UNL     1      -9.570   9.280  66.413  1.00  0.00    -0.238 C  
HETATM   48  C   UNL     1      -8.763   8.117  65.817  1.00  0.00    -0.154 C  
HETATM   49  H1  UNL     1      -8.703   4.926  68.460  1.00  0.00     0.000 HD 
HETATM   50  O   UNL     1      -7.597   8.567  65.114  1.00  0.00    -0.087 OA 
HETATM   51  H2  UNL     1     -10.032   5.463  69.333  1.00  0.00     0.000 HD 
HETATM   52  C   UNL     1      -8.342   7.149  66.933  1.00  0.00    -0.118 C  
HETATM   53  H   UNL     1      -7.098   7.847  64.745  1.00  0.00     0.000 HD 
HETATM   54  O   UNL     1      -7.675   6.011  66.361  1.00  0.00    -0.099 OA 
HETATM   55  C   UNL     1      -9.585   6.688  67.717  1.00  0.00    -0.123 C  
HETATM   56  N   UNL     1      -9.211   5.743  68.797  1.00  0.00    -0.118 NA 
HETATM   57  H   UNL     1      -7.415   5.413  67.051  1.00  0.00     0.000 HD 
BRANCH  47  58
HETATM   58  C   UNL     1     -10.068  10.286  65.350  1.00  0.00    -0.284 C  
HETATM   59  H1  UNL     1     -10.119  10.564  63.261  1.00  0.00     0.000 HD 
HETATM   60  N   UNL     1      -9.791   9.899  63.963  1.00  0.00    -0.467 NA 
HETATM   61  H2  UNL     1     -10.165   8.969  63.773  1.00  0.00     0.000 HD 
ENDBRANCH  47  58
ENDBRANCH  44  45
ENDBRANCH  40  44
ENDBRANCH  29  30
ENDBRANCH  22  29
ENDBRANCH  18  19
ENDBRANCH   7  18
ENDBRANCH   2   5
TORSDOF 9
ENDMDL
MODEL       11
REMARK 921   NORMALIZED FREE ENERGY PREDICTED BY IDOCK:   -7.45 KCAL/MOL
REMARK 922        TOTAL FREE ENERGY PREDICTED BY IDOCK:  -14.17 KCAL/MOL
REMARK 923 INTER-LIGAND FREE ENERGY PREDICTED BY IDOCK:  -11.74 KCAL/MOL
REMARK 924 INTRA-LIGAND FREE ENERGY PREDICTED BY IDOCK:   -2.43 KCAL/MOL
REMARK 927      BINDING AFFINITY PREDICTED BY RF-SCORE:    0.00 PKD
ROOT
HETATM    1  N   UNL     1     -12.441  13.230  62.951  1.00  0.00    -0.775 NA 
HETATM    2  C   UNL     1     -11.940  12.284  63.952  1.00  0.00    -0.491 C  
HETATM    3  H1  UNL     1     -12.941  12.814  62.167  1.00  0.00     0.000 HD 
HETATM    4  H2  UNL     1     -11.678  13.813  62.609  1.00  0.00     0.000 HD 
ENDROOT
BRANCH   2   5
HETATM    5  C   UNL     1     -11.177  12.917  65.146  1.00  0.00    -0.288 C  
HETATM    6  O   UNL     1     -11.309  12.172  66.384  1.00  0.00    -0.321 OA 
HETATM    7  C   UNL     1     -10.477  12.747  67.407  1.00  0.00    -0.228 C  
HETATM    8  C   UNL     1     -10.939  14.205  67.732  1.00  0.00    -0.262 C  
HETATM    9  O   UNL     1     -13.128  14.306  65.602  1.00  0.00    -0.571 OA 
HETATM   10  H   UNL     1     -13.459  15.189  65.720  1.00  0.00     0.000 HD 
HETATM   11  N   UNL     1     -12.285  14.191  68.395  1.00  0.00    -0.569 NA 
HETATM   12  C   UNL     1     -10.957  15.061  66.467  1.00  0.00    -0.327 C  
HETATM   13  H2  UNL     1     -12.296  13.596  69.223  1.00  0.00     0.000 HD 
HETATM   14  O   UNL     1      -9.636  15.421  66.042  1.00  0.00    -0.298 OA 
HETATM   15  C   UNL     1     -11.717  14.356  65.337  1.00  0.00    -0.362 C  
HETATM   16  H1  UNL     1     -12.587  15.142  68.607  1.00  0.00     0.000 HD 
HETATM   17  H   UNL     1      -9.647  15.953  65.255  1.00  0.00     0.000 HD 
BRANCH   7  18
HETATM   18  O   UNL     1     -10.595  12.113  68.669  1.00  0.00    -0.223 OA 
BRANCH  18  19
HETATM   19  C   UNL     1     -11.327  10.902  68.799  1.00  0.00    -0.292 C  
HETATM   20  O   UNL     1      -9.319   9.838  67.800  1.00  0.00    -0.134 OA 
HETATM   21  C   UNL     1     -11.453  10.775  70.322  1.00  0.00    -0.319 C  
HETATM   22  C   UNL     1     -10.472   8.792  69.688  1.00  0.00    -0.220 C  
HETATM   23  H   UNL     1      -8.881   9.036  67.541  1.00  0.00     0.000 HD 
HETATM   24  O   UNL     1     -10.519   9.763  70.735  1.00  0.00    -0.303 OA 
HETATM   25  C   UNL     1     -10.616   9.598  68.377  1.00  0.00    -0.225 C  
BRANCH  21  26
HETATM   26  C   UNL     1     -12.874  10.475  70.805  1.00  0.00    -0.367 C  
HETATM   27  H   UNL     1     -13.832  10.179  72.521  1.00  0.00     0.000 HD 
HETATM   28  O   UNL     1     -12.951  10.365  72.221  1.00  0.00    -0.382 OA 
ENDBRANCH  21  26
BRANCH  22  29
HETATM   29  O   UNL     1     -11.523   7.831  69.849  1.00  0.00    -0.070 OA 
BRANCH  29  30
HETATM   30  C   UNL     1     -11.209   6.605  70.595  1.00  0.00    -0.317 C  
HETATM   31  C   UNL     1     -11.475   6.802  72.110  1.00  0.00    -0.282 C  
HETATM   32  O   UNL     1     -12.839   6.423  72.396  1.00  0.00    -0.543 OA 
HETATM   33  C   UNL     1     -10.582   6.063  73.120  1.00  0.00    -0.246 C  
HETATM   34  C   UNL     1      -9.191   5.751  72.599  1.00  0.00    -0.139 C  
HETATM   35  N   UNL     1     -10.447   6.875  74.357  1.00  0.00    -0.506 NA 
HETATM   36  H   UNL     1     -13.001   6.544  73.325  1.00  0.00     0.000 HD 
HETATM   37  H1  UNL     1      -9.854   6.385  75.027  1.00  0.00     0.000 HD 
HETATM   38  H2  UNL     1     -11.352   7.123  74.755  1.00  0.00     0.000 HD 
HETATM   39  C   UNL     1      -9.283   5.025  71.257  1.00  0.00    -0.145 C  
HETATM   40  C   UNL     1      -9.846   5.985  70.178  1.00  0.00    -0.173 C  
HETATM   41  N   UNL     1      -7.936   4.532  70.896  1.00  0.00    -0.071 NA 
HETATM   42  H2  UNL     1      -7.522   3.953  71.627  1.00  0.00     0.000 HD 
HETATM   43  H1  UNL     1      -7.998   4.048  70.001  1.00  0.00     0.000 HD 
BRANCH  40  44
HETATM   44  O   UNL     1      -9.952   5.225  68.949  1.00  0.00    -0.154 OA 
BRANCH  44  45
HETATM   45  C   UNL     1      -9.250   5.768  67.828  1.00  0.00    -0.105 C  
HETATM   46  O   UNL     1      -8.058   5.032  67.542  1.00  0.00    -0.098 OA 
HETATM   47  C   UNL     1      -8.306   3.681  67.128  1.00  0.00    -0.099 C  
HETATM   48  C   UNL     1      -9.193   3.626  65.875  1.00  0.00    -0.161 C  
HETATM   49  H1  UNL     1     -12.061   6.612  66.031  1.00  0.00     0.000 HD 
HETATM   50  O   UNL     1      -9.492   2.280  65.479  1.00  0.00    -0.335 OA 
HETATM   51  H2  UNL     1     -11.233   7.520  67.175  1.00  0.00     0.000 HD 
HETATM   52  C   UNL     1     -10.505   4.382  66.133  1.00  0.00    -0.046 C  
HETATM   53  H   UNL     1     -10.042   2.246  64.704  1.00  0.00     0.000 HD 
HETATM   54  O   UNL     1     -11.289   4.416  64.928  1.00  0.00    -1.015 OA 
HETATM   55  C   UNL     1     -10.194   5.818  66.594  1.00  0.00    -0.212 C  
HETATM   56  N   UNL     1     -11.442   6.579  66.841  1.00  0.00     0.022 NA 
HETATM   57  H   UNL     1     -12.100   4.884  65.087  1.00  0.00     0.000 HD 
BRANCH  47  58
HETATM   58  C   UNL     1      -6.944   2.972  66.944  1.00  0.00    -0.053 C  
HETATM   59  H1  UNL     1      -6.134   1.059  66.590  1.00  0.00     0.000 HD 
HETATM   60  N   UNL     1      -7.033   1.526  66.711  1.00  0.00    -0.038 NA 
HETATM   61  H2  UNL     1      -7.643   1.332  65.916  1.00  0.00     0.000 HD 
ENDBRANCH  47  58
ENDBRANCH  44  45
ENDBRANCH  40  44
ENDBRANCH  29  30
ENDBRANCH  22  29
ENDBRANCH  18  19
ENDBRANCH   7  18
ENDBRANCH   2   5
TORSDOF 9
ENDMDL
MODEL       12
REMARK 921   NORMALIZED FREE ENERGY PREDICTED BY IDOCK:   -7.37 KCAL/MOL
REMARK 922        TOTAL FREE ENERGY PREDICTED BY IDOCK:  -14.07 KCAL/MOL
REMARK 923 INTER-LIGAND FREE ENERGY PREDICTED BY IDOCK:  -12.20 KCAL/MOL
REMARK 924 INTRA-LIGAND FREE ENERGY PREDICTED BY IDOCK:   -1.87 KCAL/MOL
REMARK 927      BINDING AFFINITY PREDICTED BY RF-SCORE:    0.00 PKD
ROOT
HETATM    1  N   UNL     1     -11.049   5.301  65.937  1.00  0.00    -0.800 NA 
HETATM    2  C   UNL     1     -10.728   5.810  67.274  1.00  0.00    -0.261 C  
HETATM    3  H1  UNL     1     -11.997   4.944  65.820  1.00  0.00     0.000 HD 
HETATM    4  H2  UNL     1     -10.372   4.590  65.663  1.00  0.00     0.000 HD 
ENDROOT
BRANCH   2   5
HETATM    5  C   UNL     1      -9.286   6.353  67.452  1.00  0.00    -0.116 C  
HETATM    6  O   UNL     1      -8.850   7.219  66.372  1.00  0.00    -0.138 OA 
HETATM    7  C   UNL     1      -7.560   7.782  66.668  1.00  0.00    -0.097 C  
HETATM    8  C   UNL     1      -6.483   6.654  66.775  1.00  0.00    -0.043 C  
HETATM    9  O   UNL     1      -8.436   4.338  66.376  1.00  0.00    -0.111 OA 
HETATM   10  H   UNL     1      -7.853   3.590  66.446  1.00  0.00     0.000 HD 
HETATM   11  N   UNL     1      -6.249   6.025  65.433  1.00  0.00    -0.036 NA 
HETATM   12  C   UNL     1      -6.897   5.607  67.808  1.00  0.00    -0.060 C  
HETATM   13  H2  UNL     1      -6.005   6.718  64.725  1.00  0.00     0.000 HD 
HETATM   14  O   UNL     1      -6.738   6.084  69.150  1.00  0.00    -0.055 OA 
HETATM   15  C   UNL     1      -8.336   5.135  67.566  1.00  0.00    -0.106 C  
HETATM   16  H1  UNL     1      -5.547   5.289  65.502  1.00  0.00     0.000 HD 
HETATM   17  H   UNL     1      -6.995   5.433  69.793  1.00  0.00     0.000 HD 
BRANCH   7  18
HETATM   18  O   UNL     1      -7.034   8.593  65.632  1.00  0.00    -0.073 OA 
BRANCH  18  19
HETATM   19  C   UNL     1      -7.280   9.993  65.621  1.00  0.00    -0.120 C  
HETATM   20  O   UNL     1      -9.478   9.377  64.648  1.00  0.00    -0.441 OA 
HETATM   21  C   UNL     1      -7.290  10.320  67.119  1.00  0.00    -0.091 C  
HETATM   22  C   UNL     1      -9.323  11.101  66.377  1.00  0.00    -0.188 C  
HETATM   23  H   UNL     1     -10.332   9.665  64.347  1.00  0.00     0.000 HD 
HETATM   24  O   UNL     1      -8.664  10.507  67.496  1.00  0.00    -0.125 OA 
HETATM   25  C   UNL     1      -8.666  10.462  65.132  1.00  0.00    -0.181 C  
BRANCH  21  26
HETATM   26  C   UNL     1      -6.422  11.523  67.498  1.00  0.00    -0.079 C  
HETATM   27  H   UNL     1      -5.046  12.689  66.664  1.00  0.00     0.000 HD 
HETATM   28  O   UNL     1      -5.585  11.943  66.429  1.00  0.00    -0.284 OA 
ENDBRANCH  21  26
BRANCH  22  29
HETATM   29  O   UNL     1      -9.165  12.525  66.400  1.00  0.00    -0.230 OA 
BRANCH  29  30
HETATM   30  C   UNL     1     -10.383  13.342  66.336  1.00  0.00    -0.286 C  
HETATM   31  C   UNL     1     -11.584  12.497  65.836  1.00  0.00    -0.405 C  
HETATM   32  O   UNL     1     -12.244  11.905  66.976  1.00  0.00    -0.492 OA 
HETATM   33  C   UNL     1     -12.671  13.182  64.992  1.00  0.00    -0.392 C  
HETATM   34  C   UNL     1     -12.177  14.387  64.213  1.00  0.00    -0.450 C  
HETATM   35  N   UNL     1     -13.248  12.208  64.031  1.00  0.00    -0.705 NA 
HETATM   36  H   UNL     1     -12.980  11.387  66.668  1.00  0.00     0.000 HD 
HETATM   37  H1  UNL     1     -13.970  12.663  63.472  1.00  0.00     0.000 HD 
HETATM   38  H2  UNL     1     -13.595  11.369  64.496  1.00  0.00     0.000 HD 
HETATM   39  C   UNL     1     -11.460  15.360  65.148  1.00  0.00    -0.208 C  
HETATM   40  C   UNL     1     -10.145  14.722  65.663  1.00  0.00    -0.366 C  
HETATM   41  N   UNL     1     -11.202  16.616  64.411  1.00  0.00    -1.269 NA 
HETATM   42  H2  UNL     1     -12.050  17.015  64.008  1.00  0.00     0.000 HD 
HETATM   43  H1  UNL     1     -10.723  17.265  65.036  1.00  0.00     0.000 HD 
BRANCH  40  44
HETATM   44  O   UNL     1      -9.541  15.672  66.575  1.00  0.00    -0.237 OA 
BRANCH  44  45
HETATM   45  C   UNL     1      -8.565  16.543  65.999  1.00  0.00    -0.206 C  
HETATM   46  O   UNL     1      -9.109  17.835  65.719  1.00  0.00    -0.503 OA 
HETATM   47  C   UNL     1      -9.512  18.554  66.893  1.00  0.00    -0.298 C  
HETATM   48  C   UNL     1      -8.341  18.749  67.868  1.00  0.00    -0.276 C  
HETATM   49  H1  UNL     1      -5.917  15.388  67.870  1.00  0.00     0.000 HD 
HETATM   50  O   UNL     1      -8.740  19.421  69.070  1.00  0.00    -0.347 OA 
HETATM   51  H2  UNL     1      -6.492  14.820  66.398  1.00  0.00     0.000 HD 
HETATM   52  C   UNL     1      -7.730  17.386  68.226  1.00  0.00    -0.241 C  
HETATM   53  H   UNL     1      -8.015  19.541  69.674  1.00  0.00     0.000 HD 
HETATM   54  O   UNL     1      -6.572  17.578  69.058  1.00  0.00    -0.221 OA 
HETATM   55  C   UNL     1      -7.331  16.641  66.939  1.00  0.00    -0.225 C  
HETATM   56  N   UNL     1      -6.727  15.324  67.253  1.00  0.00    -0.283 NA 
HETATM   57  H   UNL     1      -6.194  16.735  69.279  1.00  0.00     0.000 HD 
BRANCH  47  58
HETATM   58  C   UNL     1     -10.165  19.882  66.449  1.00  0.00    -0.500 C  
HETATM   59  H1  UNL     1      -9.971  21.965  66.711  1.00  0.00     0.000 HD 
HETATM   60  N   UNL     1      -9.540  21.088  67.004  1.00  0.00    -0.651 NA 
HETATM   61  H2  UNL     1      -8.541  21.097  66.796  1.00  0.00     0.000 HD 
ENDBRANCH  47  58
ENDBRANCH  44  45
ENDBRANCH  40  44
ENDBRANCH  29  30
ENDBRANCH  22  29
ENDBRANCH  18  19
ENDBRANCH   7  18
ENDBRANCH   2   5
TORSDOF 9
ENDMDL
MODEL       13
REMARK 921   NORMALIZED FREE ENERGY PREDICTED BY IDOCK:   -7.34 KCAL/MOL
REMARK 922        TOTAL FREE ENERGY PREDICTED BY IDOCK:  -14.01 KCAL/MOL
REMARK 923 INTER-LIGAND FREE ENERGY PREDICTED BY IDOCK:  -12.72 KCAL/MOL
REMARK 924 INTRA-LIGAND FREE ENERGY PREDICTED BY IDOCK:   -1.29 KCAL/MOL
REMARK 927      BINDING AFFINITY PREDICTED BY RF-SCORE:    0.00 PKD
ROOT
HETATM    1  N   UNL     1      -6.154  21.108  67.927  1.00  0.00    -0.345 NA 
HETATM    2  C   UNL     1      -6.432  19.672  68.019  1.00  0.00    -0.237 C  
HETATM    3  H1  UNL     1      -5.172  21.358  67.812  1.00  0.00     0.000 HD 
HETATM    4  H2  UNL     1      -6.544  21.591  68.736  1.00  0.00     0.000 HD 
ENDROOT
BRANCH   2   5
HETATM    5  C   UNL     1      -7.926  19.292  68.194  1.00  0.00    -0.308 C  
HETATM    6  O   UNL     1      -8.244  17.950  67.745  1.00  0.00    -0.226 OA 
HETATM    7  C   UNL     1      -9.611  17.627  68.055  1.00  0.00    -0.289 C  
HETATM    8  C   UNL     1     -10.586  18.578  67.287  1.00  0.00    -0.413 C  
HETATM    9  O   UNL     1      -8.393  20.289  66.019  1.00  0.00    -0.544 OA 
HETATM   10  H   UNL     1      -8.911  20.923  65.534  1.00  0.00     0.000 HD 
HETATM   11  N   UNL     1     -10.526  18.307  65.812  1.00  0.00    -0.617 NA 
HETATM   12  C   UNL     1     -10.264  20.041  67.590  1.00  0.00    -0.408 C  
HETATM   13  H2  UNL     1     -10.706  17.326  65.598  1.00  0.00     0.000 HD 
HETATM   14  O   UNL     1     -10.695  20.425  68.903  1.00  0.00    -0.302 OA 
HETATM   15  C   UNL     1      -8.768  20.325  67.405  1.00  0.00    -0.341 C  
HETATM   16  H1  UNL     1     -11.162  18.928  65.311  1.00  0.00     0.000 HD 
HETATM   17  H   UNL     1     -10.495  21.334  69.092  1.00  0.00     0.000 HD 
BRANCH   7  18
HETATM   18  O   UNL     1     -10.021  16.352  67.593  1.00  0.00    -0.244 OA 
BRANCH  18  19
HETATM   19  C   UNL     1      -9.692  15.181  68.329  1.00  0.00    -0.219 C  
HETATM   20  O   UNL     1     -12.053  14.531  67.927  1.00  0.00    -0.550 OA 
HETATM   21  C   UNL     1      -8.659  14.516  67.411  1.00  0.00    -0.201 C  
HETATM   22  C   UNL     1     -10.256  12.886  67.707  1.00  0.00    -0.224 C  
HETATM   23  H   UNL     1     -12.731  13.872  68.020  1.00  0.00     0.000 HD 
HETATM   24  O   UNL     1      -9.321  13.415  66.766  1.00  0.00    -0.246 OA 
HETATM   25  C   UNL     1     -10.793  14.110  68.481  1.00  0.00    -0.252 C  
BRANCH  21  26
HETATM   26  C   UNL     1      -7.382  14.074  68.131  1.00  0.00    -0.128 C  
HETATM   27  H   UNL     1      -5.512  13.579  67.676  1.00  0.00     0.000 HD 
HETATM   28  O   UNL     1      -6.304  13.853  67.231  1.00  0.00    -0.296 OA 
ENDBRANCH  21  26
BRANCH  22  29
HETATM   29  O   UNL     1      -9.613  11.939  68.572  1.00  0.00    -0.200 OA 
BRANCH  29  30
HETATM   30  C   UNL     1      -9.113  10.700  67.964  1.00  0.00    -0.147 C  
HETATM   31  C   UNL     1      -8.394  10.999  66.622  1.00  0.00    -0.155 C  
HETATM   32  O   UNL     1      -6.994  11.235  66.886  1.00  0.00    -0.119 OA 
HETATM   33  C   UNL     1      -8.469   9.958  65.494  1.00  0.00    -0.140 C  
HETATM   34  C   UNL     1      -9.709   9.084  65.546  1.00  0.00    -0.084 C  
HETATM   35  N   UNL     1      -8.435  10.643  64.176  1.00  0.00    -0.330 NA 
HETATM   36  H   UNL     1      -6.554  11.418  66.064  1.00  0.00     0.000 HD 
HETATM   37  H1  UNL     1      -8.484   9.952  63.428  1.00  0.00     0.000 HD 
HETATM   38  H2  UNL     1      -7.623  11.253  64.082  1.00  0.00     0.000 HD 
HETATM   39  C   UNL     1      -9.853   8.458  66.932  1.00  0.00    -0.245 C  
HETATM   40  C   UNL     1     -10.167   9.559  67.976  1.00  0.00    -0.201 C  
HETATM   41  N   UNL     1     -10.925   7.439  66.878  1.00  0.00    -0.572 NA 
HETATM   42  H2  UNL     1     -10.767   6.743  66.149  1.00  0.00     0.000 HD 
HETATM   43  H1  UNL     1     -11.021   7.021  67.804  1.00  0.00     0.000 HD 
BRANCH  40  44
HETATM   44  O   UNL     1     -10.245   8.908  69.268  1.00  0.00    -0.198 OA 
BRANCH  44  45
HETATM   45  C   UNL     1     -10.303   9.785  70.396  1.00  0.00    -0.293 C  
HETATM   46  O   UNL     1     -11.643   9.960  70.862  1.00  0.00    -0.313 OA 
HETATM   47  C   UNL     1     -12.233   8.757  71.374  1.00  0.00    -0.309 C  
HETATM   48  C   UNL     1     -11.413   8.174  72.535  1.00  0.00    -0.404 C  
HETATM   49  H1  UNL     1      -7.366   8.707  71.829  1.00  0.00     0.000 HD 
HETATM   50  O   UNL     1     -11.962   6.942  73.025  1.00  0.00    -0.407 OA 
HETATM   51  H2  UNL     1      -7.597   9.919  70.690  1.00  0.00     0.000 HD 
HETATM   52  C   UNL     1      -9.964   7.941  72.084  1.00  0.00    -0.207 C  
HETATM   53  H   UNL     1     -11.455   6.582  73.743  1.00  0.00     0.000 HD 
HETATM   54  O   UNL     1      -9.176   7.491  73.200  1.00  0.00    -0.155 OA 
HETATM   55  C   UNL     1      -9.377   9.249  71.524  1.00  0.00     0.018 C  
HETATM   56  N   UNL     1      -7.973   9.059  71.089  1.00  0.00    -0.238 NA 
HETATM   57  H   UNL     1      -8.280   7.347  72.921  1.00  0.00     0.000 HD 
BRANCH  47  58
HETATM   58  C   UNL     1     -13.701   9.058  71.753  1.00  0.00    -0.419 C  
HETATM   59  H1  UNL     1     -14.964   9.167  73.437  1.00  0.00     0.000 HD 
HETATM   60  N   UNL     1     -13.994   8.968  73.188  1.00  0.00    -1.215 NA 
HETATM   61  H2  UNL     1     -13.361   9.569  73.717  1.00  0.00     0.000 HD 
ENDBRANCH  47  58
ENDBRANCH  44  45
ENDBRANCH  40  44
ENDBRANCH  29  30
ENDBRANCH  22  29
ENDBRANCH  18  19
ENDBRANCH   7  18
ENDBRANCH   2   5
TORSDOF 9
ENDMDL
MODEL       14
REMARK 921   NORMALIZED FREE ENERGY PREDICTED BY IDOCK:   -7.27 KCAL/MOL
REMARK 922        TOTAL FREE ENERGY PREDICTED BY IDOCK:  -13.91 KCAL/MOL
REMARK 923 INTER-LIGAND FREE ENERGY PREDICTED BY IDOCK:  -11.63 KCAL/MOL
REMARK 924 INTRA-LIGAND FREE ENERGY PREDICTED BY IDOCK:   -2.28 KCAL/MOL
REMARK 927      BINDING AFFINITY PREDICTED BY RF-SCORE:    0.00 PKD
ROOT
HETATM    1  N   UNL     1     -14.328   9.072  73.091  1.00  0.00    -1.133 NA 
HETATM    2  C   UNL     1     -13.217   9.547  72.262  1.00  0.00    -0.421 C  
HETATM    3  H1  UNL     1     -15.085   9.740  73.233  1.00  0.00     0.000 HD 
HETATM    4  H2  UNL     1     -13.978   8.745  73.991  1.00  0.00     0.000 HD 
ENDROOT
BRANCH   2   5
HETATM    5  C   UNL     1     -12.065   8.530  72.047  1.00  0.00    -0.364 C  
HETATM    6  O   UNL     1     -11.214   8.843  70.913  1.00  0.00    -0.256 OA 
HETATM    7  C   UNL     1     -10.101   7.933  70.854  1.00  0.00    -0.190 C  
HETATM    8  C   UNL     1     -10.602   6.470  70.624  1.00  0.00    -0.233 C  
HETATM    9  O   UNL     1     -13.578   7.156  70.719  1.00  0.00    -0.521 OA 
HETATM   10  H   UNL     1     -13.970   6.298  70.602  1.00  0.00     0.000 HD 
HETATM   11  N   UNL     1     -11.194   6.330  69.252  1.00  0.00    -0.446 NA 
HETATM   12  C   UNL     1     -11.608   6.067  71.701  1.00  0.00    -0.199 C  
HETATM   13  H2  UNL     1     -10.543   6.628  68.525  1.00  0.00     0.000 HD 
HETATM   14  O   UNL     1     -10.973   5.805  72.959  1.00  0.00    -0.251 OA 
HETATM   15  C   UNL     1     -12.702   7.131  71.856  1.00  0.00    -0.277 C  
HETATM   16  H1  UNL     1     -11.521   5.376  69.102  1.00  0.00     0.000 HD 
HETATM   17  H   UNL     1     -11.599   5.554  73.629  1.00  0.00     0.000 HD 
BRANCH   7  18
HETATM   18  O   UNL     1      -9.253   8.133  69.737  1.00  0.00    -0.151 OA 
BRANCH  18  19
HETATM   19  C   UNL     1      -9.374   9.305  68.943  1.00  0.00    -0.150 C  
HETATM   20  O   UNL     1      -7.846  10.327  70.611  1.00  0.00    -0.388 OA 
HETATM   21  C   UNL     1      -8.718   8.863  67.630  1.00  0.00    -0.124 C  
HETATM   22  C   UNL     1      -7.540  10.750  68.220  1.00  0.00    -0.098 C  
HETATM   23  H   UNL     1      -7.337  11.084  70.875  1.00  0.00     0.000 HD 
HETATM   24  O   UNL     1      -7.418   9.476  67.586  1.00  0.00    -0.090 OA 
HETATM   25  C   UNL     1      -8.549  10.537  69.372  1.00  0.00    -0.086 C  
BRANCH  21  26
HETATM   26  C   UNL     1      -9.545   9.184  66.382  1.00  0.00    -0.245 C  
HETATM   27  H   UNL     1     -11.157  10.237  65.894  1.00  0.00     0.000 HD 
HETATM   28  O   UNL     1     -10.644  10.038  66.668  1.00  0.00    -0.198 OA 
ENDBRANCH  21  26
BRANCH  22  29
HETATM   29  O   UNL     1      -7.991  11.735  67.282  1.00  0.00    -0.145 OA 
BRANCH  29  30
HETATM   30  C   UNL     1      -7.743  13.144  67.610  1.00  0.00    -0.168 C  
HETATM   31  C   UNL     1      -6.408  13.300  68.384  1.00  0.00    -0.086 C  
HETATM   32  O   UNL     1      -5.341  13.510  67.434  1.00  0.00    -0.343 OA 
HETATM   33  C   UNL     1      -6.291  14.408  69.443  1.00  0.00    -0.122 C  
HETATM   34  C   UNL     1      -7.616  14.801  70.072  1.00  0.00     0.236 C  
HETATM   35  N   UNL     1      -5.371  13.972  70.525  1.00  0.00    -0.107 NA 
HETATM   36  H   UNL     1      -4.523  13.606  67.908  1.00  0.00     0.000 HD 
HETATM   37  H1  UNL     1      -5.294  14.708  71.228  1.00  0.00     0.000 HD 
HETATM   38  H2  UNL     1      -4.461  13.689  70.164  1.00  0.00     0.000 HD 
HETATM   39  C   UNL     1      -8.635  15.135  68.983  1.00  0.00    -0.219 C  
HETATM   40  C   UNL     1      -8.998  13.853  68.192  1.00  0.00    -0.185 C  
HETATM   41  N   UNL     1      -9.827  15.733  69.623  1.00  0.00    -0.286 NA 
HETATM   42  H2  UNL     1      -9.596  16.539  70.204  1.00  0.00     0.000 HD 
HETATM   43  H1  UNL     1     -10.507  15.956  68.897  1.00  0.00     0.000 HD 
BRANCH  40  44
HETATM   44  O   UNL     1      -9.927  14.246  67.152  1.00  0.00    -0.248 OA 
BRANCH  44  45
HETATM   45  C   UNL     1      -9.418  14.186  65.817  1.00  0.00    -0.035 C  
HETATM   46  O   UNL     1      -9.978  13.092  65.086  1.00  0.00    -0.244 OA 
HETATM   47  C   UNL     1     -11.392  13.210  64.873  1.00  0.00    -0.309 C  
HETATM   48  C   UNL     1     -11.746  14.500  64.117  1.00  0.00    -0.201 C  
HETATM   49  H1  UNL     1      -9.274  17.591  65.343  1.00  0.00     0.000 HD 
HETATM   50  O   UNL     1     -13.160  14.658  63.942  1.00  0.00    -0.181 OA 
HETATM   51  H2  UNL     1      -8.110  16.570  65.990  1.00  0.00     0.000 HD 
HETATM   52  C   UNL     1     -11.189  15.716  64.873  1.00  0.00    -0.369 C  
HETATM   53  H   UNL     1     -13.379  15.456  63.474  1.00  0.00     0.000 HD 
HETATM   54  O   UNL     1     -11.433  16.911  64.112  1.00  0.00    -1.323 OA 
HETATM   55  C   UNL     1      -9.676  15.539  65.097  1.00  0.00     0.071 C  
HETATM   56  N   UNL     1      -9.106  16.704  65.816  1.00  0.00    -0.494 NA 
HETATM   57  H   UNL     1     -11.088  17.663  64.579  1.00  0.00     0.000 HD 
BRANCH  47  58
HETATM   58  C   UNL     1     -11.884  11.930  64.161  1.00  0.00    -0.318 C  
HETATM   59  H1  UNL     1     -11.172  10.357  62.951  1.00  0.00     0.000 HD 
HETATM   60  N   UNL     1     -10.847  11.203  63.421  1.00  0.00    -0.732 NA 
HETATM   61  H2  UNL     1     -10.060  10.987  64.034  1.00  0.00     0.000 HD 
ENDBRANCH  47  58
ENDBRANCH  44  45
ENDBRANCH  40  44
ENDBRANCH  29  30
ENDBRANCH  22  29
ENDBRANCH  18  19
ENDBRANCH   7  18
ENDBRANCH   2   5
TORSDOF 9
ENDMDL
MODEL       15
REMARK 921   NORMALIZED FREE ENERGY PREDICTED BY IDOCK:   -7.24 KCAL/MOL
REMARK 922        TOTAL FREE ENERGY PREDICTED BY IDOCK:  -13.86 KCAL/MOL
REMARK 923 INTER-LIGAND FREE ENERGY PREDICTED BY IDOCK:  -11.58 KCAL/MOL
REMARK 924 INTRA-LIGAND FREE ENERGY PREDICTED BY IDOCK:   -2.28 KCAL/MOL
REMARK 927      BINDING AFFINITY PREDICTED BY RF-SCORE:    0.00 PKD
ROOT
HETATM    1  N   UNL     1      -8.394   2.673  70.844  1.00  0.00    -0.052 NA 
HETATM    2  C   UNL     1      -8.364   3.684  71.905  1.00  0.00    -0.078 C  
HETATM    3  H1  UNL     1      -7.679   1.949  70.908  1.00  0.00     0.000 HD 
HETATM    4  H2  UNL     1      -8.352   3.125  69.931  1.00  0.00     0.000 HD 
ENDROOT
BRANCH   2   5
HETATM    5  C   UNL     1      -9.451   4.786  71.807  1.00  0.00    -0.149 C  
HETATM    6  O   UNL     1      -9.038   5.949  71.043  1.00  0.00    -0.144 OA 
HETATM    7  C   UNL     1     -10.136   6.866  70.890  1.00  0.00    -0.194 C  
HETATM    8  C   UNL     1     -10.593   7.409  72.283  1.00  0.00    -0.232 C  
HETATM    9  O   UNL     1      -8.652   5.706  73.918  1.00  0.00    -0.118 OA 
HETATM   10  H   UNL     1      -8.879   5.966  74.804  1.00  0.00     0.000 HD 
HETATM   11  N   UNL     1      -9.531   8.287  72.877  1.00  0.00    -0.266 NA 
HETATM   12  C   UNL     1     -10.942   6.257  73.225  1.00  0.00    -0.194 C  
HETATM   13  H2  UNL     1      -9.264   9.042  72.244  1.00  0.00     0.000 HD 
HETATM   14  O   UNL     1     -12.197   5.649  72.888  1.00  0.00    -0.548 OA 
HETATM   15  C   UNL     1      -9.822   5.209  73.251  1.00  0.00    -0.153 C  
HETATM   16  H1  UNL     1      -9.829   8.641  73.785  1.00  0.00     0.000 HD 
HETATM   17  H   UNL     1     -12.415   4.933  73.474  1.00  0.00     0.000 HD 
BRANCH   7  18
HETATM   18  O   UNL     1      -9.797   8.059  70.207  1.00  0.00    -0.182 OA 
BRANCH  18  19
HETATM   19  C   UNL     1     -10.711   8.647  69.290  1.00  0.00    -0.136 C  
HETATM   20  O   UNL     1     -10.872  10.474  70.962  1.00  0.00    -0.190 OA 
HETATM   21  C   UNL     1      -9.806   8.932  68.086  1.00  0.00    -0.167 C  
HETATM   22  C   UNL     1     -10.729  10.983  68.573  1.00  0.00    -0.202 C  
HETATM   23  H   UNL     1     -11.226  11.327  71.187  1.00  0.00     0.000 HD 
HETATM   24  O   UNL     1      -9.548  10.346  68.084  1.00  0.00    -0.141 OA 
HETATM   25  C   UNL     1     -11.286  10.032  69.656  1.00  0.00    -0.239 C  
BRANCH  21  26
HETATM   26  C   UNL     1     -10.380   8.452  66.750  1.00  0.00    -0.287 C  
HETATM   27  H   UNL     1     -11.090   6.777  65.950  1.00  0.00     0.000 HD 
HETATM   28  O   UNL     1     -10.734   7.075  66.778  1.00  0.00    -0.303 OA 
ENDBRANCH  21  26
BRANCH  22  29
HETATM   29  O   UNL     1     -11.663  11.193  67.506  1.00  0.00    -0.574 OA 
BRANCH  29  30
HETATM   30  C   UNL     1     -11.582  12.466  66.779  1.00  0.00    -0.379 C  
HETATM   31  C   UNL     1     -11.863  12.253  65.268  1.00  0.00    -0.355 C  
HETATM   32  O   UNL     1     -13.280  12.404  65.033  1.00  0.00    -0.607 OA 
HETATM   33  C   UNL     1     -11.140  13.147  64.247  1.00  0.00    -0.396 C  
HETATM   34  C   UNL     1      -9.803  13.677  64.732  1.00  0.00     0.017 C  
HETATM   35  N   UNL     1     -10.915  12.389  62.990  1.00  0.00    -0.628 NA 
HETATM   36  H   UNL     1     -13.452  12.274  64.108  1.00  0.00     0.000 HD 
HETATM   37  H1  UNL     1     -10.435  12.982  62.312  1.00  0.00     0.000 HD 
HETATM   38  H2  UNL     1     -11.780  12.001  62.615  1.00  0.00     0.000 HD 
HETATM   39  C   UNL     1      -9.968  14.355  66.091  1.00  0.00    -0.311 C  
HETATM   40  C   UNL     1     -10.327  13.298  67.166  1.00  0.00    -0.248 C  
HETATM   41  N   UNL     1      -8.710  15.059  66.421  1.00  0.00    -0.460 NA 
HETATM   42  H2  UNL     1      -8.423  15.711  65.691  1.00  0.00     0.000 HD 
HETATM   43  H1  UNL     1      -8.821  15.512  67.329  1.00  0.00     0.000 HD 
BRANCH  40  44
HETATM   44  O   UNL     1     -10.515  14.009  68.414  1.00  0.00    -0.239 OA 
BRANCH  44  45
HETATM   45  C   UNL     1     -11.785  14.646  68.574  1.00  0.00    -0.316 C  
HETATM   46  O   UNL     1     -12.637  13.912  69.457  1.00  0.00    -0.210 OA 
HETATM   47  C   UNL     1     -12.149  13.852  70.805  1.00  0.00    -0.330 C  
HETATM   48  C   UNL     1     -11.961  15.254  71.404  1.00  0.00    -0.368 C  
HETATM   49  H1  UNL     1     -10.573  17.866  68.503  1.00  0.00     0.000 HD 
HETATM   50  O   UNL     1     -11.424  15.211  72.733  1.00  0.00    -0.392 OA 
HETATM   51  H2  UNL     1     -11.056  16.896  67.221  1.00  0.00     0.000 HD 
HETATM   52  C   UNL     1     -11.030  16.083  70.507  1.00  0.00    -0.306 C  
HETATM   53  H   UNL     1     -11.308  16.078  73.104  1.00  0.00     0.000 HD 
HETATM   54  O   UNL     1     -10.938  17.425  71.015  1.00  0.00     0.183 OA 
HETATM   55  C   UNL     1     -11.580  16.106  69.068  1.00  0.00    -0.298 C  
HETATM   56  N   UNL     1     -10.707  16.909  68.179  1.00  0.00    -0.366 NA 
HETATM   57  H   UNL     1     -10.362  17.938  70.460  1.00  0.00     0.000 HD 
BRANCH  47  58
HETATM   58  C   UNL     1     -13.104  12.958  71.628  1.00  0.00    -0.335 C  
HETATM   59  H1  UNL     1     -14.438  13.060  73.257  1.00  0.00     0.000 HD 
HETATM   60  N   UNL     1     -13.807  13.651  72.714  1.00  0.00    -0.687 NA 
HETATM   61  H2  UNL     1     -14.306  14.463  72.351  1.00  0.00     0.000 HD 
ENDBRANCH  47  58
ENDBRANCH  44  45
ENDBRANCH  40  44
ENDBRANCH  29  30
ENDBRANCH  22  29
ENDBRANCH  18  19
ENDBRANCH   7  18
ENDBRANCH   2   5
TORSDOF 9
ENDMDL
MODEL       16
REMARK 921   NORMALIZED FREE ENERGY PREDICTED BY IDOCK:   -7.23 KCAL/MOL
REMARK 922        TOTAL FREE ENERGY PREDICTED BY IDOCK:  -13.85 KCAL/MOL
REMARK 923 INTER-LIGAND FREE ENERGY PREDICTED BY IDOCK:  -11.04 KCAL/MOL
REMARK 924 INTRA-LIGAND FREE ENERGY PREDICTED BY IDOCK:   -2.80 KCAL/MOL
REMARK 927      BINDING AFFINITY PREDICTED BY RF-SCORE:    0.00 PKD
ROOT
HETATM    1  N   UNL     1     -13.947  13.582  72.663  1.00  0.00    -0.754 NA 
HETATM    2  C   UNL     1     -13.135  12.796  71.730  1.00  0.00    -0.356 C  
HETATM    3  H1  UNL     1     -14.346  13.061  73.443  1.00  0.00     0.000 HD 
HETATM    4  H2  UNL     1     -14.685  14.071  72.156  1.00  0.00     0.000 HD 
ENDROOT
BRANCH   2   5
HETATM    5  C   UNL     1     -12.528  13.588  70.543  1.00  0.00    -0.302 C  
HETATM    6  O   UNL     1     -11.314  13.000  70.007  1.00  0.00    -0.081 OA 
HETATM    7  C   UNL     1     -10.884  13.715  68.835  1.00  0.00    -0.235 C  
HETATM    8  C   UNL     1     -10.521  15.192  69.199  1.00  0.00    -0.252 C  
HETATM    9  O   UNL     1     -11.324  14.981  72.140  1.00  0.00    -0.482 OA 
HETATM   10  H   UNL     1     -11.147  15.865  72.443  1.00  0.00     0.000 HD 
HETATM   11  N   UNL     1      -9.292  15.232  70.059  1.00  0.00    -0.398 NA 
HETATM   12  C   UNL     1     -11.697  15.885  69.887  1.00  0.00    -0.322 C  
HETATM   13  H2  UNL     1      -8.508  14.744  69.625  1.00  0.00     0.000 HD 
HETATM   14  O   UNL     1     -12.741  16.217  68.962  1.00  0.00    -0.173 OA 
HETATM   15  C   UNL     1     -12.242  15.028  71.037  1.00  0.00    -0.326 C  
HETATM   16  H1  UNL     1      -9.055  16.195  70.296  1.00  0.00     0.000 HD 
HETATM   17  H   UNL     1     -13.472  16.647  69.390  1.00  0.00     0.000 HD 
BRANCH   7  18
HETATM   18  O   UNL     1      -9.667  13.241  68.285  1.00  0.00    -0.222 OA 
BRANCH  18  19
HETATM   19  C   UNL     1      -9.658  12.095  67.444  1.00  0.00    -0.177 C  
HETATM   20  O   UNL     1      -9.289  10.827  69.546  1.00  0.00    -0.406 OA 
HETATM   21  C   UNL     1     -11.096  12.086  66.912  1.00  0.00    -0.302 C  
HETATM   22  C   UNL     1     -10.850  10.001  67.853  1.00  0.00    -0.271 C  
HETATM   23  H   UNL     1      -9.197   9.980  69.966  1.00  0.00     0.000 HD 
HETATM   24  O   UNL     1     -11.795  11.045  67.615  1.00  0.00    -0.599 OA 
HETATM   25  C   UNL     1      -9.509  10.719  68.127  1.00  0.00    -0.158 C  
BRANCH  21  26
HETATM   26  C   UNL     1     -11.196  11.920  65.394  1.00  0.00    -0.295 C  
HETATM   27  H   UNL     1     -10.894  13.002  63.754  1.00  0.00     0.000 HD 
HETATM   28  O   UNL     1     -10.832  13.104  64.696  1.00  0.00    -0.325 OA 
ENDBRANCH  21  26
BRANCH  22  29
HETATM   29  O   UNL     1     -10.772   9.128  66.718  1.00  0.00    -0.177 OA 
BRANCH  29  30
HETATM   30  C   UNL     1      -9.782   8.045  66.765  1.00  0.00    -0.237 C  
HETATM   31  C   UNL     1      -8.749   8.197  65.618  1.00  0.00    -0.145 C  
HETATM   32  O   UNL     1      -7.644   8.999  66.090  1.00  0.00    -0.093 OA 
HETATM   33  C   UNL     1      -8.148   6.929  64.990  1.00  0.00    -0.117 C  
HETATM   34  C   UNL     1      -9.049   5.711  65.083  1.00  0.00     0.073 C  
HETATM   35  N   UNL     1      -7.841   7.176  63.558  1.00  0.00    -0.165 NA 
HETATM   36  H   UNL     1      -7.011   9.092  65.387  1.00  0.00     0.000 HD 
HETATM   37  H1  UNL     1      -7.442   6.335  63.142  1.00  0.00     0.000 HD 
HETATM   38  H2  UNL     1      -7.240   7.990  63.429  1.00  0.00     0.000 HD 
HETATM   39  C   UNL     1      -9.494   5.495  66.528  1.00  0.00    -0.151 C  
HETATM   40  C   UNL     1     -10.432   6.648  66.967  1.00  0.00    -0.298 C  
HETATM   41  N   UNL     1     -10.169   4.181  66.621  1.00  0.00    -0.318 NA 
HETATM   42  H2  UNL     1      -9.589   3.418  66.272  1.00  0.00     0.000 HD 
HETATM   43  H1  UNL     1     -10.465   4.038  67.586  1.00  0.00     0.000 HD 
BRANCH  40  44
HETATM   44  O   UNL     1     -10.777   6.408  68.354  1.00  0.00    -0.227 OA 
BRANCH  44  45
HETATM   45  C   UNL     1      -9.781   6.780  69.310  1.00  0.00    -0.151 C  
HETATM   46  O   UNL     1     -10.156   7.954  70.034  1.00  0.00    -0.193 OA 
HETATM   47  C   UNL     1     -11.320   7.773  70.854  1.00  0.00    -0.275 C  
HETATM   48  C   UNL     1     -11.123   6.643  71.876  1.00  0.00    -0.253 C  
HETATM   49  H1  UNL     1      -8.920   3.566  70.188  1.00  0.00     0.000 HD 
HETATM   50  O   UNL     1     -12.297   6.415  72.668  1.00  0.00    -0.506 OA 
HETATM   51  H2  UNL     1      -8.301   4.520  68.953  1.00  0.00     0.000 HD 
HETATM   52  C   UNL     1     -10.741   5.345  71.149  1.00  0.00    -0.169 C  
HETATM   53  H   UNL     1     -12.175   5.716  73.300  1.00  0.00     0.000 HD 
HETATM   54  O   UNL     1     -10.460   4.316  72.113  1.00  0.00    -0.157 OA 
HETATM   55  C   UNL     1      -9.503   5.588  70.267  1.00  0.00    -0.165 C  
HETATM   56  N   UNL     1      -9.103   4.348  69.559  1.00  0.00    -0.104 NA 
HETATM   57  H   UNL     1     -10.223   3.513  71.663  1.00  0.00     0.000 HD 
BRANCH  47  58
HETATM   58  C   UNL     1     -11.671   9.130  71.505  1.00  0.00    -0.363 C  
HETATM   59  H1  UNL     1     -13.191  10.054  72.637  1.00  0.00     0.000 HD 
HETATM   60  N   UNL     1     -12.959   9.157  72.208  1.00  0.00    -0.415 NA 
HETATM   61  H2  UNL     1     -12.998   8.411  72.903  1.00  0.00     0.000 HD 
ENDBRANCH  47  58
ENDBRANCH  44  45
ENDBRANCH  40  44
ENDBRANCH  29  30
ENDBRANCH  22  29
ENDBRANCH  18  19
ENDBRANCH   7  18
ENDBRANCH   2   5
TORSDOF 9
ENDMDL
MODEL       17
REMARK 921   NORMALIZED FREE ENERGY PREDICTED BY IDOCK:   -7.22 KCAL/MOL
REMARK 922        TOTAL FREE ENERGY PREDICTED BY IDOCK:  -13.82 KCAL/MOL
REMARK 923 INTER-LIGAND FREE ENERGY PREDICTED BY IDOCK:  -11.57 KCAL/MOL
REMARK 924 INTRA-LIGAND FREE ENERGY PREDICTED BY IDOCK:   -2.26 KCAL/MOL
REMARK 927      BINDING AFFINITY PREDICTED BY RF-SCORE:    0.00 PKD
ROOT
HETATM    1  N   UNL     1     -11.395   4.817  65.453  1.00  0.00    -1.000 NA 
HETATM    2  C   UNL     1     -10.187   5.050  66.250  1.00  0.00    -0.273 C  
HETATM    3  H1  UNL     1     -11.285   4.175  64.668  1.00  0.00     0.000 HD 
HETATM    4  H2  UNL     1     -11.775   5.705  65.127  1.00  0.00     0.000 HD 
ENDROOT
BRANCH   2   5
HETATM    5  C   UNL     1     -10.354   6.026  67.444  1.00  0.00    -0.216 C  
HETATM    6  O   UNL     1      -9.187   6.852  67.692  1.00  0.00    -0.121 OA 
HETATM    7  C   UNL     1      -9.462   7.813  68.726  1.00  0.00    -0.149 C  
HETATM    8  C   UNL     1      -9.771   7.090  70.077  1.00  0.00    -0.170 C  
HETATM    9  O   UNL     1      -9.605   4.257  68.944  1.00  0.00    -0.160 OA 
HETATM   10  H   UNL     1      -9.803   3.737  69.715  1.00  0.00     0.000 HD 
HETATM   11  N   UNL     1      -8.539   6.411  70.601  1.00  0.00    -0.138 NA 
HETATM   12  C   UNL     1     -10.918   6.094  69.908  1.00  0.00    -0.389 C  
HETATM   13  H2  UNL     1      -7.756   7.058  70.687  1.00  0.00     0.000 HD 
HETATM   14  O   UNL     1     -12.188   6.751  69.803  1.00  0.00    -0.610 OA 
HETATM   15  C   UNL     1     -10.678   5.179  68.700  1.00  0.00     0.195 C  
HETATM   16  H1  UNL     1      -8.741   5.938  71.482  1.00  0.00     0.000 HD 
HETATM   17  H   UNL     1     -12.902   6.132  69.697  1.00  0.00     0.000 HD 
BRANCH   7  18
HETATM   18  O   UNL     1      -8.350   8.620  69.072  1.00  0.00    -0.116 OA 
BRANCH  18  19
HETATM   19  C   UNL     1      -8.539   9.970  69.472  1.00  0.00    -0.186 C  
HETATM   20  O   UNL     1      -6.163  10.266  68.819  1.00  0.00    -0.047 OA 
HETATM   21  C   UNL     1      -9.570  10.458  68.448  1.00  0.00    -0.148 C  
HETATM   22  C   UNL     1      -7.834  11.951  68.227  1.00  0.00    -0.141 C  
HETATM   23  H   UNL     1      -5.430  10.860  68.703  1.00  0.00     0.000 HD 
HETATM   24  O   UNL     1      -8.864  11.278  67.502  1.00  0.00    -0.138 OA 
HETATM   25  C   UNL     1      -7.349  10.935  69.285  1.00  0.00    -0.125 C  
BRANCH  21  26
HETATM   26  C   UNL     1     -10.762  11.193  69.067  1.00  0.00    -0.225 C  
HETATM   27  H   UNL     1     -12.663  11.577  68.635  1.00  0.00     0.000 HD 
HETATM   28  O   UNL     1     -11.924  11.121  68.251  1.00  0.00    -0.592 OA 
ENDBRANCH  21  26
BRANCH  22  29
HETATM   29  O   UNL     1      -8.345  13.151  68.823  1.00  0.00    -0.035 OA 
BRANCH  29  30
HETATM   30  C   UNL     1      -8.118  14.412  68.106  1.00  0.00    -0.137 C  
HETATM   31  C   UNL     1      -6.774  15.054  68.538  1.00  0.00    -0.098 C  
HETATM   32  O   UNL     1      -5.726  14.569  67.669  1.00  0.00    -0.303 OA 
HETATM   33  C   UNL     1      -6.661  16.587  68.565  1.00  0.00    -0.139 C  
HETATM   34  C   UNL     1      -7.982  17.297  68.795  1.00  0.00    -0.250 C  
HETATM   35  N   UNL     1      -5.715  17.000  69.634  1.00  0.00    -0.194 NA 
HETATM   36  H   UNL     1      -4.903  14.962  67.934  1.00  0.00     0.000 HD 
HETATM   37  H1  UNL     1      -5.640  18.017  69.652  1.00  0.00     0.000 HD 
HETATM   38  H2  UNL     1      -4.805  16.550  69.537  1.00  0.00     0.000 HD 
HETATM   39  C   UNL     1      -9.025  16.804  67.793  1.00  0.00    -0.216 C  
HETATM   40  C   UNL     1      -9.377  15.323  68.086  1.00  0.00    -0.198 C  
HETATM   41  N   UNL     1     -10.217  17.674  67.889  1.00  0.00    -0.339 NA 
HETATM   42  H2  UNL     1      -9.992  18.661  67.766  1.00  0.00     0.000 HD 
HETATM   43  H1  UNL     1     -10.913  17.345  67.220  1.00  0.00     0.000 HD 
BRANCH  40  44
HETATM   44  O   UNL     1     -10.330  14.906  67.077  1.00  0.00    -0.258 OA 
BRANCH  44  45
HETATM   45  C   UNL     1      -9.806  14.778  65.752  1.00  0.00    -0.342 C  
HETATM   46  O   UNL     1      -9.663  13.407  65.372  1.00  0.00    -0.152 OA 
HETATM   47  C   UNL     1     -10.911  12.704  65.282  1.00  0.00    -0.288 C  
HETATM   48  C   UNL     1     -11.863  13.366  64.274  1.00  0.00    -0.423 C  
HETATM   49  H1  UNL     1     -11.479  17.488  64.450  1.00  0.00     0.000 HD 
HETATM   50  O   UNL     1     -13.134  12.706  64.211  1.00  0.00    -0.741 OA 
HETATM   51  H2  UNL     1      -9.980  17.441  65.204  1.00  0.00     0.000 HD 
HETATM   52  C   UNL     1     -12.075  14.841  64.649  1.00  0.00    -0.427 C  
HETATM   53  H   UNL     1     -13.723  13.115  63.588  1.00  0.00     0.000 HD 
HETATM   54  O   UNL     1     -12.884  15.483  63.649  1.00  0.00    -0.533 OA 
HETATM   55  C   UNL     1     -10.713  15.551  64.754  1.00  0.00    -0.304 C  
HETATM   56  N   UNL     1     -10.885  16.981  65.105  1.00  0.00    -0.601 NA 
HETATM   57  H   UNL     1     -13.015  16.395  63.881  1.00  0.00     0.000 HD 
BRANCH  47  58
HETATM   58  C   UNL     1     -10.612  11.223  64.958  1.00  0.00    -0.289 C  
HETATM   59  H1  UNL     1     -10.380   9.926  63.312  1.00  0.00     0.000 HD 
HETATM   60  N   UNL     1     -10.577  10.904  63.526  1.00  0.00    -0.549 NA 
HETATM   61  H2  UNL     1      -9.916  11.513  63.043  1.00  0.00     0.000 HD 
ENDBRANCH  47  58
ENDBRANCH  44  45
ENDBRANCH  40  44
ENDBRANCH  29  30
ENDBRANCH  22  29
ENDBRANCH  18  19
ENDBRANCH   7  18
ENDBRANCH   2   5
TORSDOF 9
ENDMDL
MODEL       18
REMARK 921   NORMALIZED FREE ENERGY PREDICTED BY IDOCK:   -7.21 KCAL/MOL
REMARK 922        TOTAL FREE ENERGY PREDICTED BY IDOCK:  -13.82 KCAL/MOL
REMARK 923 INTER-LIGAND FREE ENERGY PREDICTED BY IDOCK:  -11.45 KCAL/MOL
REMARK 924 INTRA-LIGAND FREE ENERGY PREDICTED BY IDOCK:   -2.37 KCAL/MOL
REMARK 927      BINDING AFFINITY PREDICTED BY RF-SCORE:    0.00 PKD
ROOT
HETATM    1  N   UNL     1      -8.955   3.704  71.838  1.00  0.00    -0.102 NA 
HETATM    2  C   UNL     1      -8.236   4.850  71.274  1.00  0.00    -0.110 C  
HETATM    3  H1  UNL     1      -8.385   3.046  72.368  1.00  0.00     0.000 HD 
HETATM    4  H2  UNL     1      -9.460   3.212  71.101  1.00  0.00     0.000 HD 
ENDROOT
BRANCH   2   5
HETATM    5  C   UNL     1      -9.103   5.850  70.466  1.00  0.00    -0.148 C  
HETATM    6  O   UNL     1      -8.380   7.028  70.025  1.00  0.00    -0.134 OA 
HETATM    7  C   UNL     1      -9.211   7.842  69.180  1.00  0.00    -0.144 C  
HETATM    8  C   UNL     1     -10.448   8.372  69.976  1.00  0.00    -0.224 C  
HETATM    9  O   UNL     1      -9.797   6.881  72.563  1.00  0.00    -0.157 OA 
HETATM   10  H   UNL     1     -10.528   7.139  73.114  1.00  0.00     0.000 HD 
HETATM   11  N   UNL     1     -10.013   9.352  71.025  1.00  0.00    -0.286 NA 
HETATM   12  C   UNL     1     -11.229   7.214  70.596  1.00  0.00    -0.280 C  
HETATM   13  H2  UNL     1      -9.462  10.114  70.629  1.00  0.00     0.000 HD 
HETATM   14  O   UNL     1     -11.988   6.492  69.617  1.00  0.00    -0.618 OA 
HETATM   15  C   UNL     1     -10.295   6.269  71.363  1.00  0.00    -0.210 C  
HETATM   16  H1  UNL     1     -10.820   9.698  71.545  1.00  0.00     0.000 HD 
HETATM   17  H   UNL     1     -12.473   5.771  70.002  1.00  0.00     0.000 HD 
BRANCH   7  18
HETATM   18  O   UNL     1      -8.598   9.046  68.755  1.00  0.00    -0.129 OA 
BRANCH  18  19
HETATM   19  C   UNL     1      -9.144   9.788  67.673  1.00  0.00    -0.131 C  
HETATM   20  O   UNL     1      -9.110  11.700  69.255  1.00  0.00    -0.359 OA 
HETATM   21  C   UNL     1      -7.995   9.752  66.658  1.00  0.00    -0.112 C  
HETATM   22  C   UNL     1      -8.411  11.998  66.930  1.00  0.00    -0.172 C  
HETATM   23  H   UNL     1      -9.258  12.628  69.396  1.00  0.00     0.000 HD 
HETATM   24  O   UNL     1      -7.374  11.048  66.683  1.00  0.00    -0.131 OA 
HETATM   25  C   UNL     1      -9.385  11.296  67.902  1.00  0.00    -0.161 C  
BRANCH  21  26
HETATM   26  C   UNL     1      -8.427   9.350  65.245  1.00  0.00    -0.149 C  
HETATM   27  H   UNL     1      -7.604   9.081  63.456  1.00  0.00     0.000 HD 
HETATM   28  O   UNL     1      -7.337   9.330  64.333  1.00  0.00    -0.101 OA 
ENDBRANCH  21  26
BRANCH  22  29
HETATM   29  O   UNL     1      -9.049  12.373  65.702  1.00  0.00     0.047 OA 
BRANCH  29  30
HETATM   30  C   UNL     1     -10.285  13.160  65.795  1.00  0.00    -0.289 C  
HETATM   31  C   UNL     1     -11.524  12.272  65.510  1.00  0.00    -0.361 C  
HETATM   32  O   UNL     1     -11.990  11.709  66.756  1.00  0.00    -0.536 OA 
HETATM   33  C   UNL     1     -12.743  12.902  64.818  1.00  0.00    -0.370 C  
HETATM   34  C   UNL     1     -12.404  14.088  63.933  1.00  0.00    -0.280 C  
HETATM   35  N   UNL     1     -13.432  11.881  63.989  1.00  0.00    -0.421 NA 
HETATM   36  H   UNL     1     -12.749  11.165  66.582  1.00  0.00     0.000 HD 
HETATM   37  H1  UNL     1     -14.241  12.299  63.530  1.00  0.00     0.000 HD 
HETATM   38  H2  UNL     1     -13.683  11.053  64.529  1.00  0.00     0.000 HD 
HETATM   39  C   UNL     1     -11.580  15.109  64.716  1.00  0.00    -0.364 C  
HETATM   40  C   UNL     1     -10.186  14.519  65.047  1.00  0.00    -0.365 C  
HETATM   41  N   UNL     1     -11.469  16.343  63.906  1.00  0.00    -1.618 NA 
HETATM   42  H2  UNL     1     -12.378  16.707  63.622  1.00  0.00     0.000 HD 
HETATM   43  H1  UNL     1     -10.919  17.024  64.429  1.00  0.00     0.000 HD 
BRANCH  40  44
HETATM   44  O   UNL     1      -9.478  15.515  65.825  1.00  0.00    -0.333 OA 
BRANCH  44  45
HETATM   45  C   UNL     1     -10.198  16.052  66.938  1.00  0.00    -0.280 C  
HETATM   46  O   UNL     1      -9.833  15.411  68.163  1.00  0.00    -0.210 OA 
HETATM   47  C   UNL     1      -8.467  15.635  68.541  1.00  0.00    -0.175 C  
HETATM   48  C   UNL     1      -8.159  17.132  68.693  1.00  0.00    -0.264 C  
HETATM   49  H1  UNL     1     -10.201  19.305  65.815  1.00  0.00     0.000 HD 
HETATM   50  O   UNL     1      -6.783  17.375  69.019  1.00  0.00    -0.222 OA 
HETATM   51  H2  UNL     1     -11.309  18.083  65.501  1.00  0.00     0.000 HD 
HETATM   52  C   UNL     1      -8.510  17.871  67.392  1.00  0.00    -0.235 C  
HETATM   53  H   UNL     1      -6.593  18.301  69.113  1.00  0.00     0.000 HD 
HETATM   54  O   UNL     1      -8.316  19.284  67.571  1.00  0.00    -0.281 OA 
HETATM   55  C   UNL     1      -9.975  17.588  67.013  1.00  0.00    -0.311 C  
HETATM   56  N   UNL     1     -10.347  18.297  65.766  1.00  0.00    -0.618 NA 
HETATM   57  H   UNL     1      -8.533  19.741  66.767  1.00  0.00     0.000 HD 
BRANCH  47  58
HETATM   58  C   UNL     1      -8.177  14.819  69.820  1.00  0.00     0.239 C  
HETATM   59  H1  UNL     1      -6.753  13.484  70.619  1.00  0.00     0.000 HD 
HETATM   60  N   UNL     1      -6.944  14.024  69.774  1.00  0.00    -0.349 NA 
HETATM   61  H2  UNL     1      -6.148  14.619  69.545  1.00  0.00     0.000 HD 
ENDBRANCH  47  58
ENDBRANCH  44  45
ENDBRANCH  40  44
ENDBRANCH  29  30
ENDBRANCH  22  29
ENDBRANCH  18  19
ENDBRANCH   7  18
ENDBRANCH   2   5
TORSDOF 9
ENDMDL
MODEL       19
REMARK 921   NORMALIZED FREE ENERGY PREDICTED BY IDOCK:   -7.18 KCAL/MOL
REMARK 922        TOTAL FREE ENERGY PREDICTED BY IDOCK:  -13.77 KCAL/MOL
REMARK 923 INTER-LIGAND FREE ENERGY PREDICTED BY IDOCK:  -10.77 KCAL/MOL
REMARK 924 INTRA-LIGAND FREE ENERGY PREDICTED BY IDOCK:   -3.00 KCAL/MOL
REMARK 927      BINDING AFFINITY PREDICTED BY RF-SCORE:    0.00 PKD
ROOT
HETATM    1  N   UNL     1     -11.322  14.841  70.595  1.00  0.00    -0.445 NA 
HETATM    2  C   UNL     1     -11.986  15.428  69.428  1.00  0.00    -0.327 C  
HETATM    3  H1  UNL     1     -11.779  15.010  71.490  1.00  0.00     0.000 HD 
HETATM    4  H2  UNL     1     -10.351  15.148  70.635  1.00  0.00     0.000 HD 
ENDROOT
BRANCH   2   5
HETATM    5  C   UNL     1     -11.291  15.170  68.065  1.00  0.00    -0.337 C  
HETATM    6  O   UNL     1     -10.180  14.239  68.142  1.00  0.00    -0.222 OA 
HETATM    7  C   UNL     1      -9.671  13.954  66.828  1.00  0.00    -0.279 C  
HETATM    8  C   UNL     1      -9.096  15.252  66.171  1.00  0.00    -0.279 C  
HETATM    9  O   UNL     1      -9.877  17.116  68.464  1.00  0.00    -0.268 OA 
HETATM   10  H   UNL     1      -9.573  17.954  68.133  1.00  0.00     0.000 HD 
HETATM   11  N   UNL     1      -7.862  15.702  66.896  1.00  0.00    -0.233 NA 
HETATM   12  C   UNL     1     -10.152  16.357  66.145  1.00  0.00    -0.346 C  
HETATM   13  H2  UNL     1      -7.162  14.963  66.950  1.00  0.00     0.000 HD 
HETATM   14  O   UNL     1     -11.152  16.121  65.145  1.00  0.00    -0.330 OA 
HETATM   15  C   UNL     1     -10.796  16.536  67.525  1.00  0.00    -0.237 C  
HETATM   16  H1  UNL     1      -7.487  16.549  66.468  1.00  0.00     0.000 HD 
HETATM   17  H   UNL     1     -11.808  16.808  65.128  1.00  0.00     0.000 HD 
BRANCH   7  18
HETATM   18  O   UNL     1      -8.542  13.098  66.821  1.00  0.00    -0.155 OA 
BRANCH  18  19
HETATM   19  C   UNL     1      -8.704  11.698  66.636  1.00  0.00    -0.187 C  
HETATM   20  O   UNL     1      -9.339  11.678  69.035  1.00  0.00    -0.406 OA 
HETATM   21  C   UNL     1      -9.872  11.647  65.644  1.00  0.00    -0.240 C  
HETATM   22  C   UNL     1     -10.595  10.355  67.405  1.00  0.00    -0.269 C  
HETATM   23  H   UNL     1      -9.651  11.175  69.779  1.00  0.00     0.000 HD 
HETATM   24  O   UNL     1     -11.037  11.257  66.391  1.00  0.00    -0.276 OA 
HETATM   25  C   UNL     1      -9.210  10.881  67.844  1.00  0.00    -0.152 C  
BRANCH  21  26
HETATM   26  C   UNL     1      -9.627  10.729  64.443  1.00  0.00    -0.279 C  
HETATM   27  H   UNL     1      -8.132   9.701  63.634  1.00  0.00     0.000 HD 
HETATM   28  O   UNL     1      -8.284  10.270  64.379  1.00  0.00    -0.163 OA 
ENDBRANCH  21  26
BRANCH  22  29
HETATM   29  O   UNL     1     -10.528   9.018  66.891  1.00  0.00    -0.260 OA 
BRANCH  29  30
HETATM   30  C   UNL     1      -9.636   8.075  67.577  1.00  0.00    -0.153 C  
HETATM   31  C   UNL     1      -8.413   7.732  66.687  1.00  0.00    -0.129 C  
HETATM   32  O   UNL     1      -7.354   8.673  66.968  1.00  0.00    -0.079 OA 
HETATM   33  C   UNL     1      -7.800   6.325  66.782  1.00  0.00    -0.104 C  
HETATM   34  C   UNL     1      -8.784   5.253  67.216  1.00  0.00    -0.107 C  
HETATM   35  N   UNL     1      -7.234   5.935  65.465  1.00  0.00    -0.072 NA 
HETATM   36  H   UNL     1      -6.605   8.462  66.423  1.00  0.00     0.000 HD 
HETATM   37  H1  UNL     1      -6.828   5.002  65.528  1.00  0.00     0.000 HD 
HETATM   38  H2  UNL     1      -6.566   6.622  65.115  1.00  0.00     0.000 HD 
HETATM   39  C   UNL     1      -9.485   5.675  68.506  1.00  0.00    -0.125 C  
HETATM   40  C   UNL     1     -10.404   6.893  68.231  1.00  0.00    -0.193 C  
HETATM   41  N   UNL     1     -10.253   4.521  69.022  1.00  0.00     0.009 NA 
HETATM   42  H2  UNL     1      -9.675   3.690  69.145  1.00  0.00     0.000 HD 
HETATM   43  H1  UNL     1     -10.721   4.803  69.884  1.00  0.00     0.000 HD 
BRANCH  40  44
HETATM   44  O   UNL     1     -11.000   7.269  69.497  1.00  0.00    -0.230 OA 
BRANCH  44  45
HETATM   45  C   UNL     1     -10.212   8.141  70.312  1.00  0.00    -0.200 C  
HETATM   46  O   UNL     1     -10.813   9.433  70.437  1.00  0.00    -0.232 OA 
HETATM   47  C   UNL     1     -12.070   9.415  71.128  1.00  0.00    -0.328 C  
HETATM   48  C   UNL     1     -11.932   8.831  72.541  1.00  0.00    -0.231 C  
HETATM   49  H1  UNL     1      -9.195   5.720  72.535  1.00  0.00     0.000 HD 
HETATM   50  O   UNL     1     -13.190   8.758  73.226  1.00  0.00    -0.845 OA 
HETATM   51  H2  UNL     1      -8.480   6.186  71.090  1.00  0.00     0.000 HD 
HETATM   52  C   UNL     1     -11.313   7.427  72.467  1.00  0.00    -0.313 C  
HETATM   53  H   UNL     1     -13.105   8.397  74.101  1.00  0.00     0.000 HD 
HETATM   54  O   UNL     1     -11.092   6.925  73.796  1.00  0.00    -0.485 OA 
HETATM   55  C   UNL     1      -9.978   7.488  71.702  1.00  0.00    -0.175 C  
HETATM   56  N   UNL     1      -9.349   6.148  71.623  1.00  0.00    -0.149 NA 
HETATM   57  H   UNL     1     -10.708   6.057  73.750  1.00  0.00     0.000 HD 
BRANCH  47  58
HETATM   58  C   UNL     1     -12.653  10.846  71.111  1.00  0.00    -0.428 C  
HETATM   59  H1  UNL     1     -12.180  12.795  70.462  1.00  0.00     0.000 HD 
HETATM   60  N   UNL     1     -11.795  11.850  70.472  1.00  0.00    -0.510 NA 
HETATM   61  H2  UNL     1     -11.551  11.556  69.526  1.00  0.00     0.000 HD 
ENDBRANCH  47  58
ENDBRANCH  44  45
ENDBRANCH  40  44
ENDBRANCH  29  30
ENDBRANCH  22  29
ENDBRANCH  18  19
ENDBRANCH   7  18
ENDBRANCH   2   5
TORSDOF 9
ENDMDL
MODEL       20
REMARK 921   NORMALIZED FREE ENERGY PREDICTED BY IDOCK:   -7.18 KCAL/MOL
REMARK 922        TOTAL FREE ENERGY PREDICTED BY IDOCK:  -13.77 KCAL/MOL
REMARK 923 INTER-LIGAND FREE ENERGY PREDICTED BY IDOCK:  -11.26 KCAL/MOL
REMARK 924 INTRA-LIGAND FREE ENERGY PREDICTED BY IDOCK:   -2.51 KCAL/MOL
REMARK 927      BINDING AFFINITY PREDICTED BY RF-SCORE:    0.00 PKD
ROOT
HETATM    1  N   UNL     1     -10.493  18.373  65.732  1.00  0.00    -0.623 NA 
HETATM    2  C   UNL     1      -9.428  17.554  66.316  1.00  0.00    -0.219 C  
HETATM    3  H1  UNL     1     -10.225  19.323  65.477  1.00  0.00     0.000 HD 
HETATM    4  H2  UNL     1     -11.299  18.394  66.356  1.00  0.00     0.000 HD 
ENDROOT
BRANCH   2   5
HETATM    5  C   UNL     1      -9.836  16.108  66.705  1.00  0.00    -0.245 C  
HETATM    6  O   UNL     1      -8.761  15.142  66.572  1.00  0.00    -0.278 OA 
HETATM    7  C   UNL     1      -9.176  13.857  67.069  1.00  0.00    -0.250 C  
HETATM    8  C   UNL     1     -10.362  13.299  66.217  1.00  0.00    -0.290 C  
HETATM    9  O   UNL     1     -10.627  15.761  64.426  1.00  0.00    -0.710 OA 
HETATM   10  H   UNL     1     -11.358  15.509  63.872  1.00  0.00     0.000 HD 
HETATM   11  N   UNL     1      -9.898  12.964  64.830  1.00  0.00    -0.523 NA 
HETATM   12  C   UNL     1     -11.520  14.296  66.183  1.00  0.00    -0.355 C  
HETATM   13  H2  UNL     1      -9.103  12.324  64.839  1.00  0.00     0.000 HD 
HETATM   14  O   UNL     1     -12.238  14.329  67.424  1.00  0.00    -0.572 OA 
HETATM   15  C   UNL     1     -11.027  15.698  65.804  1.00  0.00    -0.248 C  
HETATM   16  H1  UNL     1     -10.671  12.600  64.274  1.00  0.00     0.000 HD 
HETATM   17  H   UNL     1     -12.957  14.949  67.403  1.00  0.00     0.000 HD 
BRANCH   7  18
HETATM   18  O   UNL     1      -8.202  12.840  66.918  1.00  0.00    -0.135 OA 
BRANCH  18  19
HETATM   19  C   UNL     1      -8.203  11.710  67.781  1.00  0.00    -0.141 C  
HETATM   20  O   UNL     1      -8.608  10.404  65.710  1.00  0.00    -0.152 OA 
HETATM   21  C   UNL     1      -6.757  11.706  68.292  1.00  0.00    -0.064 C  
HETATM   22  C   UNL     1      -7.025   9.604  67.396  1.00  0.00    -0.084 C  
HETATM   23  H   UNL     1      -8.708   9.549  65.307  1.00  0.00     0.000 HD 
HETATM   24  O   UNL     1      -6.073  10.649  67.599  1.00  0.00    -0.048 OA 
HETATM   25  C   UNL     1      -8.367  10.322  67.127  1.00  0.00    -0.122 C  
BRANCH  21  26
HETATM   26  C   UNL     1      -6.636  11.569  69.812  1.00  0.00    -0.091 C  
HETATM   27  H   UNL     1      -5.725  12.486  71.322  1.00  0.00     0.000 HD 
HETATM   28  O   UNL     1      -5.801  12.570  70.379  1.00  0.00    -0.162 OA 
ENDBRANCH  21  26
BRANCH  22  29
HETATM   29  O   UNL     1      -7.089   8.753  68.547  1.00  0.00    -0.070 OA 
BRANCH  29  30
HETATM   30  C   UNL     1      -7.822   7.488  68.413  1.00  0.00    -0.122 C  
HETATM   31  C   UNL     1      -7.656   6.907  66.985  1.00  0.00    -0.102 C  
HETATM   32  O   UNL     1      -6.500   6.042  66.966  1.00  0.00    -0.046 OA 
HETATM   33  C   UNL     1      -8.821   6.115  66.368  1.00  0.00    -0.141 C  
HETATM   34  C   UNL     1     -10.185   6.508  66.905  1.00  0.00    -0.279 C  
HETATM   35  N   UNL     1      -8.826   6.299  64.894  1.00  0.00    -0.354 NA 
HETATM   36  H   UNL     1      -6.399   5.686  66.091  1.00  0.00     0.000 HD 
HETATM   37  H1  UNL     1      -9.599   5.773  64.485  1.00  0.00     0.000 HD 
HETATM   38  H2  UNL     1      -7.930   6.055  64.473  1.00  0.00     0.000 HD 
HETATM   39  C   UNL     1     -10.184   6.456  68.432  1.00  0.00    -0.175 C  
HETATM   40  C   UNL     1      -9.261   7.566  68.995  1.00  0.00    -0.146 C  
HETATM   41  N   UNL     1     -11.576   6.613  68.908  1.00  0.00    -0.576 NA 
HETATM   42  H2  UNL     1     -12.211   5.931  68.494  1.00  0.00     0.000 HD 
HETATM   43  H1  UNL     1     -11.574   6.578  69.928  1.00  0.00     0.000 HD 
BRANCH  40  44
HETATM   44  O   UNL     1      -9.269   7.432  70.438  1.00  0.00    -0.157 OA 
BRANCH  44  45
HETATM   45  C   UNL     1      -9.282   8.661  71.170  1.00  0.00    -0.213 C  
HETATM   46  O   UNL     1      -9.688   9.760  70.350  1.00  0.00    -0.255 OA 
HETATM   47  C   UNL     1     -11.042   9.660  69.888  1.00  0.00    -0.235 C  
HETATM   48  C   UNL     1     -12.035   9.564  71.056  1.00  0.00    -0.328 C  
HETATM   49  H1  UNL     1     -10.411   7.297  74.121  1.00  0.00     0.000 HD 
HETATM   50  O   UNL     1     -13.389   9.411  70.609  1.00  0.00    -0.549 OA 
HETATM   51  H2  UNL     1      -8.832   7.468  73.578  1.00  0.00     0.000 HD 
HETATM   52  C   UNL     1     -11.662   8.380  71.961  1.00  0.00    -0.352 C  
HETATM   53  H   UNL     1     -14.003   9.352  71.332  1.00  0.00     0.000 HD 
HETATM   54  O   UNL     1     -12.531   8.354  73.107  1.00  0.00    -0.609 OA 
HETATM   55  C   UNL     1     -10.198   8.516  72.418  1.00  0.00    -0.299 C  
HETATM   56  N   UNL     1      -9.811   7.392  73.303  1.00  0.00    -0.243 NA 
HETATM   57  H   UNL     1     -12.300   7.622  73.666  1.00  0.00     0.000 HD 
BRANCH  47  58
HETATM   58  C   UNL     1     -11.322  10.851  68.944  1.00  0.00    -0.288 C  
HETATM   59  H1  UNL     1     -11.815  12.900  69.002  1.00  0.00     0.000 HD 
HETATM   60  N   UNL     1     -11.630  12.113  69.625  1.00  0.00    -0.409 NA 
HETATM   61  H2  UNL     1     -10.888  12.350  70.284  1.00  0.00     0.000 HD 
ENDBRANCH  47  58
ENDBRANCH  44  45
ENDBRANCH  40  44
ENDBRANCH  29  30
ENDBRANCH  22  29
ENDBRANCH  18  19
ENDBRANCH   7  18
ENDBRANCH   2   5
TORSDOF 9
ENDMDL
MODEL       21
REMARK 921   NORMALIZED FREE ENERGY PREDICTED BY IDOCK:   -7.17 KCAL/MOL
REMARK 922        TOTAL FREE ENERGY PREDICTED BY IDOCK:  -13.76 KCAL/MOL
REMARK 923 INTER-LIGAND FREE ENERGY PREDICTED BY IDOCK:  -10.74 KCAL/MOL
REMARK 924 INTRA-LIGAND FREE ENERGY PREDICTED BY IDOCK:   -3.02 KCAL/MOL
REMARK 927      BINDING AFFINITY PREDICTED BY RF-SCORE:    0.00 PKD
ROOT
HETATM    1  N   UNL     1      -9.696  20.799  66.647  1.00  0.00    -0.624 NA 
HETATM    2  C   UNL     1     -10.465  19.636  66.195  1.00  0.00    -0.524 C  
HETATM    3  H1  UNL     1     -10.185  21.692  66.601  1.00  0.00     0.000 HD 
HETATM    4  H2  UNL     1      -8.816  20.856  66.135  1.00  0.00     0.000 HD 
ENDROOT
BRANCH   2   5
HETATM    5  C   UNL     1      -9.721  18.276  66.264  1.00  0.00    -0.291 C  
HETATM    6  O   UNL     1     -10.574  17.161  66.633  1.00  0.00    -0.277 OA 
HETATM    7  C   UNL     1      -9.846  15.923  66.553  1.00  0.00    -0.261 C  
HETATM    8  C   UNL     1      -8.664  15.917  67.577  1.00  0.00    -0.178 C  
HETATM    9  O   UNL     1      -9.118  18.770  68.574  1.00  0.00    -0.324 OA 
HETATM   10  H   UNL     1      -8.412  18.859  69.205  1.00  0.00     0.000 HD 
HETATM   11  N   UNL     1      -9.190  15.880  68.982  1.00  0.00    -0.227 NA 
HETATM   12  C   UNL     1      -7.755  17.126  67.361  1.00  0.00    -0.171 C  
HETATM   13  H2  UNL     1      -9.825  15.096  69.130  1.00  0.00     0.000 HD 
HETATM   14  O   UNL     1      -6.935  16.980  66.194  1.00  0.00    -0.220 OA 
HETATM   15  C   UNL     1      -8.571  18.422  67.292  1.00  0.00    -0.258 C  
HETATM   16  H1  UNL     1      -8.419  15.876  69.650  1.00  0.00     0.000 HD 
HETATM   17  H   UNL     1      -6.369  17.732  66.060  1.00  0.00     0.000 HD 
BRANCH   7  18
HETATM   18  O   UNL     1     -10.592  14.789  66.958  1.00  0.00    -0.280 OA 
BRANCH  18  19
HETATM   19  C   UNL     1     -10.358  13.523  66.357  1.00  0.00    -0.289 C  
HETATM   20  O   UNL     1      -9.821  12.774  68.661  1.00  0.00    -0.361 OA 
HETATM   21  C   UNL     1     -11.758  13.153  65.852  1.00  0.00    -0.384 C  
HETATM   22  C   UNL     1     -11.167  11.368  67.179  1.00  0.00    -0.296 C  
HETATM   23  H   UNL     1      -9.591  12.055  69.238  1.00  0.00     0.000 HD 
HETATM   24  O   UNL     1     -12.277  12.160  66.752  1.00  0.00    -0.553 OA 
HETATM   25  C   UNL     1      -9.983  12.355  67.294  1.00  0.00    -0.206 C  
BRANCH  21  26
HETATM   26  C   UNL     1     -11.789  12.681  64.396  1.00  0.00    -0.387 C  
HETATM   27  H   UNL     1     -13.125  12.075  63.056  1.00  0.00     0.000 HD 
HETATM   28  O   UNL     1     -13.105  12.368  63.959  1.00  0.00    -0.763 OA 
ENDBRANCH  21  26
BRANCH  22  29
HETATM   29  O   UNL     1     -10.908  10.320  66.236  1.00  0.00    -0.068 OA 
BRANCH  29  30
HETATM   30  C   UNL     1      -9.564   9.728  66.237  1.00  0.00    -0.213 C  
HETATM   31  C   UNL     1      -8.898   9.877  64.845  1.00  0.00    -0.193 C  
HETATM   32  O   UNL     1      -8.164  11.120  64.810  1.00  0.00    -0.363 OA 
HETATM   33  C   UNL     1      -7.940   8.776  64.361  1.00  0.00    -0.144 C  
HETATM   34  C   UNL     1      -8.223   7.409  64.957  1.00  0.00    -0.101 C  
HETATM   35  N   UNL     1      -8.010   8.665  62.881  1.00  0.00    -0.155 NA 
HETATM   36  H   UNL     1      -7.756  11.211  63.957  1.00  0.00     0.000 HD 
HETATM   37  H1  UNL     1      -7.374   7.935  62.561  1.00  0.00     0.000 HD 
HETATM   38  H2  UNL     1      -7.833   9.558  62.421  1.00  0.00     0.000 HD 
HETATM   39  C   UNL     1      -8.287   7.502  66.480  1.00  0.00    -0.126 C  
HETATM   40  C   UNL     1      -9.530   8.325  66.905  1.00  0.00    -0.186 C  
HETATM   41  N   UNL     1      -8.328   6.131  67.034  1.00  0.00    -0.106 NA 
HETATM   42  H2  UNL     1      -7.552   5.555  66.710  1.00  0.00     0.000 HD 
HETATM   43  H1  UNL     1      -8.371   6.194  68.051  1.00  0.00     0.000 HD 
BRANCH  40  44
HETATM   44  O   UNL     1      -9.505   8.414  68.351  1.00  0.00    -0.139 OA 
BRANCH  44  45
HETATM   45  C   UNL     1     -10.716   8.035  69.011  1.00  0.00    -0.088 C  
HETATM   46  O   UNL     1     -10.838   6.615  69.116  1.00  0.00    -0.241 OA 
HETATM   47  C   UNL     1      -9.832   6.013  69.944  1.00  0.00    -0.170 C  
HETATM   48  C   UNL     1      -9.854   6.585  71.369  1.00  0.00    -0.176 C  
HETATM   49  H1  UNL     1     -10.715  10.637  71.264  1.00  0.00     0.000 HD 
HETATM   50  O   UNL     1      -8.820   6.030  72.194  1.00  0.00    -0.135 OA 
HETATM   51  H2  UNL     1     -11.369  10.584  69.719  1.00  0.00     0.000 HD 
HETATM   52  C   UNL     1      -9.701   8.112  71.320  1.00  0.00    -0.164 C  
HETATM   53  H   UNL     1      -8.834   6.384  73.076  1.00  0.00     0.000 HD 
HETATM   54  O   UNL     1      -9.823   8.654  72.646  1.00  0.00    -0.250 OA 
HETATM   55  C   UNL     1     -10.785   8.714  70.408  1.00  0.00    -0.224 C  
HETATM   56  N   UNL     1     -10.669  10.191  70.348  1.00  0.00    -0.295 NA 
HETATM   57  H   UNL     1      -9.728   9.598  72.616  1.00  0.00     0.000 HD 
BRANCH  47  58
HETATM   58  C   UNL     1     -10.019   4.479  69.897  1.00  0.00    -0.203 C  
HETATM   59  H1  UNL     1      -9.165   2.756  69.034  1.00  0.00     0.000 HD 
HETATM   60  N   UNL     1      -9.042   3.769  69.065  1.00  0.00    -0.124 NA 
HETATM   61  H2  UNL     1      -8.092   4.001  69.356  1.00  0.00     0.000 HD 
ENDBRANCH  47  58
ENDBRANCH  44  45
ENDBRANCH  40  44
ENDBRANCH  29  30
ENDBRANCH  22  29
ENDBRANCH  18  19
ENDBRANCH   7  18
ENDBRANCH   2   5
TORSDOF 9
ENDMDL
MODEL       22
REMARK 921   NORMALIZED FREE ENERGY PREDICTED BY IDOCK:   -7.14 KCAL/MOL
REMARK 922        TOTAL FREE ENERGY PREDICTED BY IDOCK:  -13.71 KCAL/MOL
REMARK 923 INTER-LIGAND FREE ENERGY PREDICTED BY IDOCK:  -11.17 KCAL/MOL
REMARK 924 INTRA-LIGAND FREE ENERGY PREDICTED BY IDOCK:   -2.54 KCAL/MOL
REMARK 927      BINDING AFFINITY PREDICTED BY RF-SCORE:    0.00 PKD
ROOT
HETATM    1  N   UNL     1     -14.199   8.501  71.165  1.00  0.00    -0.637 NA 
HETATM    2  C   UNL     1     -13.208   9.233  71.959  1.00  0.00    -0.447 C  
HETATM    3  H1  UNL     1     -15.150   8.866  71.206  1.00  0.00     0.000 HD 
HETATM    4  H2  UNL     1     -14.193   7.514  71.422  1.00  0.00     0.000 HD 
ENDROOT
BRANCH   2   5
HETATM    5  C   UNL     1     -11.762   8.676  71.897  1.00  0.00    -0.352 C  
HETATM    6  O   UNL     1     -11.305   8.382  70.551  1.00  0.00    -0.263 OA 
HETATM    7  C   UNL     1      -9.921   7.993  70.563  1.00  0.00    -0.190 C  
HETATM    8  C   UNL     1      -9.730   6.673  71.378  1.00  0.00    -0.172 C  
HETATM    9  O   UNL     1     -12.652   6.433  72.244  1.00  0.00    -0.547 OA 
HETATM   10  H   UNL     1     -12.623   5.645  72.774  1.00  0.00     0.000 HD 
HETATM   11  N   UNL     1     -10.373   5.520  70.664  1.00  0.00    -0.244 NA 
HETATM   12  C   UNL     1     -10.290   6.825  72.792  1.00  0.00    -0.209 C  
HETATM   13  H2  UNL     1     -10.032   5.428  69.707  1.00  0.00     0.000 HD 
HETATM   14  O   UNL     1      -9.442   7.629  73.622  1.00  0.00    -0.262 OA 
HETATM   15  C   UNL     1     -11.715   7.391  72.761  1.00  0.00    -0.139 C  
HETATM   16  H1  UNL     1     -10.249   4.659  71.196  1.00  0.00     0.000 HD 
HETATM   17  H   UNL     1      -9.790   7.724  74.502  1.00  0.00     0.000 HD 
BRANCH   7  18
HETATM   18  O   UNL     1      -9.414   7.629  69.291  1.00  0.00    -0.158 OA 
BRANCH  18  19
HETATM   19  C   UNL     1      -8.706   8.575  68.502  1.00  0.00    -0.139 C  
HETATM   20  O   UNL     1     -10.935   9.597  68.121  1.00  0.00    -0.419 OA 
HETATM   21  C   UNL     1      -7.833   9.269  69.555  1.00  0.00    -0.086 C  
HETATM   22  C   UNL     1      -8.984  11.002  68.572  1.00  0.00    -0.163 C  
HETATM   23  H   UNL     1     -11.438  10.307  67.739  1.00  0.00     0.000 HD 
HETATM   24  O   UNL     1      -8.426  10.554  69.808  1.00  0.00    -0.076 OA 
HETATM   25  C   UNL     1      -9.522   9.729  67.881  1.00  0.00    -0.130 C  
BRANCH  21  26
HETATM   26  C   UNL     1      -6.358   9.386  69.160  1.00  0.00    -0.042 C  
HETATM   27  H   UNL     1      -5.188   8.930  67.621  1.00  0.00     0.000 HD 
HETATM   28  O   UNL     1      -6.102   8.858  67.866  1.00  0.00    -0.049 OA 
ENDBRANCH  21  26
BRANCH  22  29
HETATM   29  O   UNL     1      -7.986  11.664  67.783  1.00  0.00    -0.119 OA 
BRANCH  29  30
HETATM   30  C   UNL     1      -8.099  13.120  67.634  1.00  0.00    -0.176 C  
HETATM   31  C   UNL     1      -6.955  13.839  68.395  1.00  0.00    -0.103 C  
HETATM   32  O   UNL     1      -5.833  14.005  67.501  1.00  0.00    -0.338 OA 
HETATM   33  C   UNL     1      -7.234  15.213  69.026  1.00  0.00    -0.149 C  
HETATM   34  C   UNL     1      -8.688  15.435  69.399  1.00  0.00    -0.252 C  
HETATM   35  N   UNL     1      -6.407  15.381  70.248  1.00  0.00    -0.084 NA 
HETATM   36  H   UNL     1      -5.132  14.446  67.967  1.00  0.00     0.000 HD 
HETATM   37  H1  UNL     1      -6.592  16.293  70.666  1.00  0.00     0.000 HD 
HETATM   38  H2  UNL     1      -5.414  15.238  70.063  1.00  0.00     0.000 HD 
HETATM   39  C   UNL     1      -9.588  15.147  68.198  1.00  0.00    -0.205 C  
HETATM   40  C   UNL     1      -9.548  13.634  67.861  1.00  0.00    -0.223 C  
HETATM   41  N   UNL     1     -10.961  15.594  68.521  1.00  0.00    -0.286 NA 
HETATM   42  H2  UNL     1     -10.996  16.571  68.811  1.00  0.00     0.000 HD 
HETATM   43  H1  UNL     1     -11.561  15.401  67.719  1.00  0.00     0.000 HD 
BRANCH  40  44
HETATM   44  O   UNL     1     -10.380  13.438  66.692  1.00  0.00    -0.262 OA 
BRANCH  44  45
HETATM   45  C   UNL     1      -9.753  13.713  65.436  1.00  0.00    -0.025 C  
HETATM   46  O   UNL     1      -9.313  12.516  64.792  1.00  0.00     0.239 OA 
HETATM   47  C   UNL     1     -10.386  11.640  64.416  1.00  0.00    -0.313 C  
HETATM   48  C   UNL     1     -11.380  12.335  63.473  1.00  0.00    -0.470 C  
HETATM   49  H1  UNL     1     -11.841  16.306  64.563  1.00  0.00     0.000 HD 
HETATM   50  O   UNL     1     -12.486  11.489  63.130  1.00  0.00    -0.936 OA 
HETATM   51  H2  UNL     1     -10.417  16.356  65.452  1.00  0.00     0.000 HD 
HETATM   52  C   UNL     1     -11.907  13.620  64.127  1.00  0.00    -0.422 C  
HETATM   53  H   UNL     1     -13.101  11.918  62.546  1.00  0.00     0.000 HD 
HETATM   54  O   UNL     1     -12.758  14.319  63.202  1.00  0.00    -0.873 OA 
HETATM   55  C   UNL     1     -10.725  14.520  64.531  1.00  0.00    -0.174 C  
HETATM   56  N   UNL     1     -11.203  15.776  65.157  1.00  0.00    -0.290 NA 
HETATM   57  H   UNL     1     -13.084  15.115  63.606  1.00  0.00     0.000 HD 
BRANCH  47  58
HETATM   58  C   UNL     1      -9.776  10.352  63.820  1.00  0.00    -0.290 C  
HETATM   59  H1  UNL     1      -9.265   9.494  61.963  1.00  0.00     0.000 HD 
HETATM   60  N   UNL     1      -9.668  10.345  62.356  1.00  0.00    -0.691 NA 
HETATM   61  H2  UNL     1      -9.150  11.164  62.036  1.00  0.00     0.000 HD 
ENDBRANCH  47  58
ENDBRANCH  44  45
ENDBRANCH  40  44
ENDBRANCH  29  30
ENDBRANCH  22  29
ENDBRANCH  18  19
ENDBRANCH   7  18
ENDBRANCH   2   5
TORSDOF 9
ENDMDL
MODEL       23
REMARK 921   NORMALIZED FREE ENERGY PREDICTED BY IDOCK:   -6.95 KCAL/MOL
REMARK 922        TOTAL FREE ENERGY PREDICTED BY IDOCK:  -13.42 KCAL/MOL
REMARK 923 INTER-LIGAND FREE ENERGY PREDICTED BY IDOCK:  -11.03 KCAL/MOL
REMARK 924 INTRA-LIGAND FREE ENERGY PREDICTED BY IDOCK:   -2.39 KCAL/MOL
REMARK 927      BINDING AFFINITY PREDICTED BY RF-SCORE:    0.00 PKD
ROOT
HETATM    1  N   UNL     1      -9.367  16.881  66.162  1.00  0.00    -0.424 NA 
HETATM    2  C   UNL     1     -10.466  16.245  66.894  1.00  0.00    -0.302 C  
HETATM    3  H1  UNL     1      -9.130  17.826  66.461  1.00  0.00     0.000 HD 
HETATM    4  H2  UNL     1      -9.562  16.870  65.161  1.00  0.00     0.000 HD 
ENDROOT
BRANCH   2   5
HETATM    5  C   UNL     1     -10.828  14.807  66.439  1.00  0.00    -0.322 C  
HETATM    6  O   UNL     1      -9.675  13.943  66.261  1.00  0.00    -0.287 OA 
HETATM    7  C   UNL     1     -10.095  12.600  65.964  1.00  0.00    -0.262 C  
HETATM    8  C   UNL     1     -10.875  12.558  64.609  1.00  0.00    -0.310 C  
HETATM    9  O   UNL     1     -10.793  15.574  64.125  1.00  0.00    -0.587 OA 
HETATM   10  H   UNL     1     -11.273  15.643  63.307  1.00  0.00     0.000 HD 
HETATM   11  N   UNL     1      -9.951  12.858  63.465  1.00  0.00    -0.636 NA 
HETATM   12  C   UNL     1     -12.054  13.530  64.633  1.00  0.00    -0.409 C  
HETATM   13  H2  UNL     1      -9.142  12.238  63.457  1.00  0.00     0.000 HD 
HETATM   14  O   UNL     1     -13.136  13.041  65.437  1.00  0.00    -0.607 OA 
HETATM   15  C   UNL     1     -11.611  14.920  65.107  1.00  0.00    -0.330 C  
HETATM   16  H1  UNL     1     -10.460  12.832  62.581  1.00  0.00     0.000 HD 
HETATM   17  H   UNL     1     -13.870  13.645  65.452  1.00  0.00     0.000 HD 
BRANCH   7  18
HETATM   18  O   UNL     1      -9.026  11.704  65.715  1.00  0.00    -0.170 OA 
BRANCH  18  19
HETATM   19  C   UNL     1      -8.729  10.666  66.639  1.00  0.00    -0.140 C  
HETATM   20  O   UNL     1      -9.556   9.146  64.860  1.00  0.00    -0.434 OA 
HETATM   21  C   UNL     1      -7.204  10.778  66.755  1.00  0.00    -0.128 C  
HETATM   22  C   UNL     1      -7.545   8.588  66.136  1.00  0.00    -0.089 C  
HETATM   23  H   UNL     1      -9.696   8.253  64.569  1.00  0.00     0.000 HD 
HETATM   24  O   UNL     1      -6.647   9.690  65.998  1.00  0.00    -0.075 OA 
HETATM   25  C   UNL     1      -8.957   9.214  66.167  1.00  0.00    -0.173 C  
BRANCH  21  26
HETATM   26  C   UNL     1      -6.690  10.796  68.197  1.00  0.00    -0.063 C  
HETATM   27  H   UNL     1      -7.268  11.465  69.976  1.00  0.00     0.000 HD 
HETATM   28  O   UNL     1      -7.587  11.454  69.081  1.00  0.00    -0.113 OA 
ENDBRANCH  21  26
BRANCH  22  29
HETATM   29  O   UNL     1      -7.253   7.852  67.331  1.00  0.00    -0.083 OA 
BRANCH  29  30
HETATM   30  C   UNL     1      -8.093   6.685  67.627  1.00  0.00    -0.119 C  
HETATM   31  C   UNL     1      -8.213   5.766  66.384  1.00  0.00    -0.107 C  
HETATM   32  O   UNL     1      -7.146   4.793  66.419  1.00  0.00    -0.072 OA 
HETATM   33  C   UNL     1      -9.521   4.989  66.160  1.00  0.00    -0.160 C  
HETATM   34  C   UNL     1     -10.743   5.654  66.769  1.00  0.00    -0.358 C  
HETATM   35  N   UNL     1      -9.759   4.817  64.704  1.00  0.00    -0.366 NA 
HETATM   36  H   UNL     1      -7.220   4.230  65.657  1.00  0.00     0.000 HD 
HETATM   37  H1  UNL     1     -10.627   4.302  64.556  1.00  0.00     0.000 HD 
HETATM   38  H2  UNL     1      -8.967   4.378  64.235  1.00  0.00     0.000 HD 
HETATM   39  C   UNL     1     -10.491   5.967  68.243  1.00  0.00    -0.236 C  
HETATM   40  C   UNL     1      -9.405   7.065  68.370  1.00  0.00    -0.130 C  
HETATM   41  N   UNL     1     -11.768   6.392  68.858  1.00  0.00    -0.388 NA 
HETATM   42  H2  UNL     1     -12.513   5.709  68.724  1.00  0.00     0.000 HD 
HETATM   43  H1  UNL     1     -11.599   6.601  69.842  1.00  0.00     0.000 HD 
BRANCH  40  44
HETATM   44  O   UNL     1      -9.182   7.279  69.785  1.00  0.00    -0.142 OA 
BRANCH  44  45
HETATM   45  C   UNL     1      -9.449   8.603  70.257  1.00  0.00    -0.167 C  
HETATM   46  O   UNL     1     -10.831   8.780  70.577  1.00  0.00    -0.221 OA 
HETATM   47  C   UNL     1     -11.275   7.966  71.672  1.00  0.00    -0.251 C  
HETATM   48  C   UNL     1     -10.466   8.243  72.948  1.00  0.00    -0.161 C  
HETATM   49  H1  UNL     1      -6.499   8.960  71.991  1.00  0.00     0.000 HD 
HETATM   50  O   UNL     1     -10.863   7.399  74.038  1.00  0.00    -0.558 OA 
HETATM   51  H2  UNL     1      -6.821   9.310  70.381  1.00  0.00     0.000 HD 
HETATM   52  C   UNL     1      -8.969   8.042  72.669  1.00  0.00    -0.218 C  
HETATM   53  H   UNL     1     -10.362   7.571  74.827  1.00  0.00     0.000 HD 
HETATM   54  O   UNL     1      -8.208   8.399  73.836  1.00  0.00    -0.320 OA 
HETATM   55  C   UNL     1      -8.540   8.917  71.477  1.00  0.00    -0.135 C  
HETATM   56  N   UNL     1      -7.095   8.753  71.190  1.00  0.00    -0.081 NA 
HETATM   57  H   UNL     1      -7.282   8.275  73.663  1.00  0.00     0.000 HD 
BRANCH  47  58
HETATM   58  C   UNL     1     -12.794   8.181  71.852  1.00  0.00    -0.335 C  
HETATM   59  H1  UNL     1     -14.369   9.390  71.142  1.00  0.00     0.000 HD 
HETATM   60  N   UNL     1     -13.365   9.248  71.022  1.00  0.00    -0.564 NA 
HETATM   61  H2  UNL     1     -13.145   9.088  70.039  1.00  0.00     0.000 HD 
ENDBRANCH  47  58
ENDBRANCH  44  45
ENDBRANCH  40  44
ENDBRANCH  29  30
ENDBRANCH  22  29
ENDBRANCH  18  19
ENDBRANCH   7  18
ENDBRANCH   2   5
TORSDOF 9
ENDMDL
MODEL       24
REMARK 921   NORMALIZED FREE ENERGY PREDICTED BY IDOCK:   -6.93 KCAL/MOL
REMARK 922        TOTAL FREE ENERGY PREDICTED BY IDOCK:  -13.39 KCAL/MOL
REMARK 923 INTER-LIGAND FREE ENERGY PREDICTED BY IDOCK:  -10.91 KCAL/MOL
REMARK 924 INTRA-LIGAND FREE ENERGY PREDICTED BY IDOCK:   -2.48 KCAL/MOL
REMARK 927      BINDING AFFINITY PREDICTED BY RF-SCORE:    0.00 PKD
ROOT
HETATM    1  N   UNL     1     -12.768  14.572  66.140  1.00  0.00    -0.320 NA 
HETATM    2  C   UNL     1     -11.792  13.562  66.558  1.00  0.00    -0.399 C  
HETATM    3  H1  UNL     1     -12.912  15.340  66.794  1.00  0.00     0.000 HD 
HETATM    4  H2  UNL     1     -13.659  14.128  65.923  1.00  0.00     0.000 HD 
ENDROOT
BRANCH   2   5
HETATM    5  C   UNL     1     -11.573  12.393  65.562  1.00  0.00    -0.385 C  
HETATM    6  O   UNL     1     -10.467  11.523  65.915  1.00  0.00    -0.241 OA 
HETATM    7  C   UNL     1     -10.406  10.398  65.021  1.00  0.00    -0.179 C  
HETATM    8  C   UNL     1     -10.126  10.876  63.559  1.00  0.00    -0.347 C  
HETATM    9  O   UNL     1     -10.178  13.862  64.206  1.00  0.00    -0.694 OA 
HETATM   10  H   UNL     1     -10.030  14.240  63.347  1.00  0.00     0.000 HD 
HETATM   11  N   UNL     1      -8.740  11.438  63.449  1.00  0.00    -0.434 NA 
HETATM   12  C   UNL     1     -11.171  11.899  63.115  1.00  0.00    -0.161 C  
HETATM   13  H2  UNL     1      -8.034  10.777  63.774  1.00  0.00     0.000 HD 
HETATM   14  O   UNL     1     -12.435  11.286  62.826  1.00  0.00    -0.905 OA 
HETATM   15  C   UNL     1     -11.333  13.009  64.161  1.00  0.00    -0.397 C  
HETATM   16  H1  UNL     1      -8.557  11.750  62.495  1.00  0.00     0.000 HD 
HETATM   17  H   UNL     1     -13.085  11.923  62.550  1.00  0.00     0.000 HD 
BRANCH   7  18
HETATM   18  O   UNL     1      -9.313   9.531  65.261  1.00  0.00    -0.233 OA 
BRANCH  18  19
HETATM   19  C   UNL     1      -8.650   9.541  66.518  1.00  0.00    -0.134 C  
HETATM   20  O   UNL     1     -10.541   8.125  67.280  1.00  0.00    -0.335 OA 
HETATM   21  C   UNL     1      -7.352   8.790  66.193  1.00  0.00    -0.086 C  
HETATM   22  C   UNL     1      -8.246   7.600  67.948  1.00  0.00    -0.123 C  
HETATM   23  H   UNL     1     -10.929   7.614  67.980  1.00  0.00     0.000 HD 
HETATM   24  O   UNL     1      -7.484   7.470  66.747  1.00  0.00    -0.089 OA 
HETATM   25  C   UNL     1      -9.281   8.711  67.656  1.00  0.00    -0.134 C  
BRANCH  21  26
HETATM   26  C   UNL     1      -6.086   9.495  66.686  1.00  0.00    -0.064 C  
HETATM   27  H   UNL     1      -5.578  11.204  67.564  1.00  0.00     0.000 HD 
HETATM   28  O   UNL     1      -6.364  10.766  67.258  1.00  0.00    -0.060 OA 
ENDBRANCH  21  26
BRANCH  22  29
HETATM   29  O   UNL     1      -7.392   7.933  69.049  1.00  0.00    -0.083 OA 
BRANCH  29  30
HETATM   30  C   UNL     1      -7.663   7.280  70.336  1.00  0.00    -0.094 C  
HETATM   31  C   UNL     1      -6.403   6.538  70.851  1.00  0.00    -0.048 C  
HETATM   32  O   UNL     1      -5.629   7.444  71.668  1.00  0.00    -0.035 OA 
HETATM   33  C   UNL     1      -6.586   5.245  71.664  1.00  0.00    -0.040 C  
HETATM   34  C   UNL     1      -7.867   4.496  71.348  1.00  0.00    -0.086 C  
HETATM   35  N   UNL     1      -5.438   4.334  71.420  1.00  0.00    -0.007 NA 
HETATM   36  H   UNL     1      -4.857   6.988  71.983  1.00  0.00     0.000 HD 
HETATM   37  H1  UNL     1      -5.560   3.476  71.959  1.00  0.00     0.000 HD 
HETATM   38  H2  UNL     1      -4.543   4.783  71.610  1.00  0.00     0.000 HD 
HETATM   39  C   UNL     1      -9.067   5.435  71.463  1.00  0.00    -0.142 C  
HETATM   40  C   UNL     1      -9.009   6.502  70.340  1.00  0.00    -0.152 C  
HETATM   41  N   UNL     1     -10.305   4.629  71.382  1.00  0.00    -0.141 NA 
HETATM   42  H2  UNL     1     -10.328   3.877  72.071  1.00  0.00     0.000 HD 
HETATM   43  H1  UNL     1     -11.105   5.256  71.458  1.00  0.00     0.000 HD 
BRANCH  40  44
HETATM   44  O   UNL     1     -10.143   7.383  70.534  1.00  0.00    -0.191 OA 
BRANCH  44  45
HETATM   45  C   UNL     1      -9.910   8.507  71.387  1.00  0.00    -0.228 C  
HETATM   46  O   UNL     1     -10.051   9.743  70.683  1.00  0.00    -0.272 OA 
HETATM   47  C   UNL     1     -11.384   9.984  70.211  1.00  0.00    -0.308 C  
HETATM   48  C   UNL     1     -12.401   9.989  71.362  1.00  0.00    -0.415 C  
HETATM   49  H1  UNL     1     -11.372   7.134  74.183  1.00  0.00     0.000 HD 
HETATM   50  O   UNL     1     -13.746  10.177  70.900  1.00  0.00    -0.274 OA 
HETATM   51  H2  UNL     1      -9.781   7.013  73.662  1.00  0.00     0.000 HD 
HETATM   52  C   UNL     1     -12.312   8.669  72.142  1.00  0.00    -0.386 C  
HETATM   53  H   UNL     1     -14.375  10.180  71.613  1.00  0.00     0.000 HD 
HETATM   54  O   UNL     1     -13.192   8.718  73.278  1.00  0.00    -0.845 OA 
HETATM   55  C   UNL     1     -10.863   8.441  72.612  1.00  0.00    -0.238 C  
HETATM   56  N   UNL     1     -10.746   7.177  73.379  1.00  0.00    -0.373 NA 
HETATM   57  H   UNL     1     -13.136   7.902  73.761  1.00  0.00     0.000 HD 
BRANCH  47  58
HETATM   58  C   UNL     1     -11.381  11.295  69.392  1.00  0.00    -0.292 C  
HETATM   59  H1  UNL     1     -11.686  13.368  69.627  1.00  0.00     0.000 HD 
HETATM   60  N   UNL     1     -11.688  12.502  70.168  1.00  0.00    -0.537 NA 
HETATM   61  H2  UNL     1     -11.057  12.581  70.966  1.00  0.00     0.000 HD 
ENDBRANCH  47  58
ENDBRANCH  44  45
ENDBRANCH  40  44
ENDBRANCH  29  30
ENDBRANCH  22  29
ENDBRANCH  18  19
ENDBRANCH   7  18
ENDBRANCH   2   5
TORSDOF 9
ENDMDL
MODEL       25
REMARK 921   NORMALIZED FREE ENERGY PREDICTED BY IDOCK:   -6.87 KCAL/MOL
REMARK 922        TOTAL FREE ENERGY PREDICTED BY IDOCK:  -13.30 KCAL/MOL
REMARK 923 INTER-LIGAND FREE ENERGY PREDICTED BY IDOCK:  -10.64 KCAL/MOL
REMARK 924 INTRA-LIGAND FREE ENERGY PREDICTED BY IDOCK:   -2.66 KCAL/MOL
REMARK 927      BINDING AFFINITY PREDICTED BY RF-SCORE:    0.00 PKD
ROOT
HETATM    1  N   UNL     1      -9.473   2.185  70.942  1.00  0.00    -0.138 NA 
HETATM    2  C   UNL     1      -9.307   3.474  70.266  1.00  0.00    -0.172 C  
HETATM    3  H1  UNL     1      -8.981   1.400  70.517  1.00  0.00     0.000 HD 
HETATM    4  H2  UNL     1     -10.465   1.965  71.035  1.00  0.00     0.000 HD 
ENDROOT
BRANCH   2   5
HETATM    5  C   UNL     1     -10.057   4.668  70.912  1.00  0.00    -0.187 C  
HETATM    6  O   UNL     1      -9.494   5.963  70.578  1.00  0.00    -0.163 OA 
HETATM    7  C   UNL     1     -10.314   7.020  71.107  1.00  0.00    -0.206 C  
HETATM    8  C   UNL     1     -10.346   6.957  72.669  1.00  0.00    -0.203 C  
HETATM    9  O   UNL     1      -8.669   4.413  72.900  1.00  0.00    -0.107 OA 
HETATM   10  H   UNL     1      -8.652   4.287  73.842  1.00  0.00     0.000 HD 
HETATM   11  N   UNL     1      -8.998   7.294  73.234  1.00  0.00    -0.140 NA 
HETATM   12  C   UNL     1     -10.814   5.582  73.145  1.00  0.00    -0.285 C  
HETATM   13  H2  UNL     1      -8.659   8.195  72.898  1.00  0.00     0.000 HD 
HETATM   14  O   UNL     1     -12.225   5.403  72.965  1.00  0.00    -0.533 OA 
HETATM   15  C   UNL     1     -10.031   4.463  72.448  1.00  0.00    -0.173 C  
HETATM   16  H1  UNL     1      -9.019   7.252  74.253  1.00  0.00     0.000 HD 
HETATM   17  H   UNL     1     -12.516   4.548  73.261  1.00  0.00     0.000 HD 
BRANCH   7  18
HETATM   18  O   UNL     1      -9.798   8.319  70.876  1.00  0.00    -0.177 OA 
BRANCH  18  19
HETATM   19  C   UNL     1      -9.579   8.780  69.550  1.00  0.00    -0.167 C  
HETATM   20  O   UNL     1     -10.895  10.763  70.257  1.00  0.00    -0.458 OA 
HETATM   21  C   UNL     1      -8.058   8.970  69.532  1.00  0.00    -0.105 C  
HETATM   22  C   UNL     1      -8.872  11.030  68.907  1.00  0.00    -0.113 C  
HETATM   23  H   UNL     1     -11.233  11.622  70.034  1.00  0.00     0.000 HD 
HETATM   24  O   UNL     1      -7.812  10.384  69.615  1.00  0.00    -0.156 OA 
HETATM   25  C   UNL     1     -10.129  10.176  69.188  1.00  0.00    -0.213 C  
BRANCH  21  26
HETATM   26  C   UNL     1      -7.366   8.339  68.321  1.00  0.00    -0.095 C  
HETATM   27  H   UNL     1      -7.676   6.856  67.035  1.00  0.00     0.000 HD 
HETATM   28  O   UNL     1      -8.105   7.248  67.786  1.00  0.00    -0.113 OA 
ENDBRANCH  21  26
BRANCH  22  29
HETATM   29  O   UNL     1      -8.568  11.100  67.508  1.00  0.00    -0.127 OA 
BRANCH  29  30
HETATM   30  C   UNL     1      -9.699  11.164  66.574  1.00  0.00    -0.198 C  
HETATM   31  C   UNL     1      -9.581  10.056  65.495  1.00  0.00    -0.266 C  
HETATM   32  O   UNL     1     -10.259   8.871  65.967  1.00  0.00    -0.397 OA 
HETATM   33  C   UNL     1     -10.111  10.342  64.080  1.00  0.00    -0.145 C  
HETATM   34  C   UNL     1     -10.098  11.812  63.703  1.00  0.00    -0.445 C  
HETATM   35  N   UNL     1      -9.301   9.597  63.082  1.00  0.00    -0.506 NA 
HETATM   36  H   UNL     1     -10.187   8.193  65.306  1.00  0.00     0.000 HD 
HETATM   37  H1  UNL     1      -9.653   9.786  62.143  1.00  0.00     0.000 HD 
HETATM   38  H2  UNL     1      -9.266   8.598  63.284  1.00  0.00     0.000 HD 
HETATM   39  C   UNL     1     -10.814  12.635  64.774  1.00  0.00    -0.302 C  
HETATM   40  C   UNL     1      -9.994  12.611  66.090  1.00  0.00    -0.261 C  
HETATM   41  N   UNL     1     -10.988  14.014  64.269  1.00  0.00    -0.598 NA 
HETATM   42  H2  UNL     1     -11.467  14.043  63.368  1.00  0.00     0.000 HD 
HETATM   43  H1  UNL     1     -11.466  14.563  64.984  1.00  0.00     0.000 HD 
BRANCH  40  44
HETATM   44  O   UNL     1     -10.747  13.366  67.071  1.00  0.00    -0.266 OA 
BRANCH  44  45
HETATM   45  C   UNL     1     -10.001  13.814  68.207  1.00  0.00    -0.243 C  
HETATM   46  O   UNL     1      -9.004  14.770  67.840  1.00  0.00    -0.165 OA 
HETATM   47  C   UNL     1      -9.547  15.994  67.324  1.00  0.00    -0.225 C  
HETATM   48  C   UNL     1     -10.485  16.669  68.336  1.00  0.00    -0.323 C  
HETATM   49  H1  UNL     1     -12.657  13.804  70.395  1.00  0.00     0.000 HD 
HETATM   50  O   UNL     1     -11.077  17.867  67.814  1.00  0.00    -0.205 OA 
HETATM   51  H2  UNL     1     -11.604  12.553  70.014  1.00  0.00     0.000 HD 
HETATM   52  C   UNL     1     -11.597  15.692  68.748  1.00  0.00    -0.384 C  
HETATM   53  H   UNL     1     -11.657  18.285  68.440  1.00  0.00     0.000 HD 
HETATM   54  O   UNL     1     -12.413  16.291  69.769  1.00  0.00    -0.390 OA 
HETATM   55  C   UNL     1     -10.972  14.388  69.276  1.00  0.00    -0.255 C  
HETATM   56  N   UNL     1     -12.021  13.427  69.693  1.00  0.00    -0.324 NA 
HETATM   57  H   UNL     1     -13.100  15.687  70.025  1.00  0.00     0.000 HD 
BRANCH  47  58
HETATM   58  C   UNL     1      -8.374  16.897  66.881  1.00  0.00    -0.213 C  
HETATM   59  H1  UNL     1      -7.950  18.507  65.588  1.00  0.00     0.000 HD 
HETATM   60  N   UNL     1      -8.725  17.911  65.880  1.00  0.00    -0.501 NA 
HETATM   61  H2  UNL     1      -9.505  18.480  66.211  1.00  0.00     0.000 HD 
ENDBRANCH  47  58
ENDBRANCH  44  45
ENDBRANCH  40  44
ENDBRANCH  29  30
ENDBRANCH  22  29
ENDBRANCH  18  19
ENDBRANCH   7  18
ENDBRANCH   2   5
TORSDOF 9
ENDMDL
MODEL       26
REMARK 921   NORMALIZED FREE ENERGY PREDICTED BY IDOCK:   -6.86 KCAL/MOL
REMARK 922        TOTAL FREE ENERGY PREDICTED BY IDOCK:  -13.28 KCAL/MOL
REMARK 923 INTER-LIGAND FREE ENERGY PREDICTED BY IDOCK:  -10.58 KCAL/MOL
REMARK 924 INTRA-LIGAND FREE ENERGY PREDICTED BY IDOCK:   -2.69 KCAL/MOL
REMARK 927      BINDING AFFINITY PREDICTED BY RF-SCORE:    0.00 PKD
ROOT
HETATM    1  N   UNL     1     -10.276  19.583  69.286  1.00  0.00    -0.608 NA 
HETATM    2  C   UNL     1     -10.268  20.216  67.964  1.00  0.00    -0.353 C  
HETATM    3  H1  UNL     1     -10.917  19.994  69.964  1.00  0.00     0.000 HD 
HETATM    4  H2  UNL     1      -9.331  19.561  69.668  1.00  0.00     0.000 HD 
ENDROOT
BRANCH   2   5
HETATM    5  C   UNL     1      -9.292  19.591  66.932  1.00  0.00    -0.346 C  
HETATM    6  O   UNL     1      -9.138  18.154  67.069  1.00  0.00    -0.252 OA 
HETATM    7  C   UNL     1      -8.322  17.633  66.005  1.00  0.00    -0.064 C  
HETATM    8  C   UNL     1      -6.878  18.228  66.080  1.00  0.00    -0.256 C  
HETATM    9  O   UNL     1      -7.443  20.081  68.444  1.00  0.00    -0.298 OA 
HETATM   10  H   UNL     1      -6.600  20.507  68.550  1.00  0.00     0.000 HD 
HETATM   11  N   UNL     1      -6.166  17.719  67.299  1.00  0.00    -0.148 NA 
HETATM   12  C   UNL     1      -6.922  19.756  66.067  1.00  0.00    -0.268 C  
HETATM   13  H2  UNL     1      -6.159  16.700  67.338  1.00  0.00     0.000 HD 
HETATM   14  O   UNL     1      -7.222  20.273  64.764  1.00  0.00    -0.332 OA 
HETATM   15  C   UNL     1      -7.918  20.287  67.105  1.00  0.00    -0.339 C  
HETATM   16  H1  UNL     1      -5.224  18.107  67.349  1.00  0.00     0.000 HD 
HETATM   17  H   UNL     1      -7.249  21.223  64.755  1.00  0.00     0.000 HD 
BRANCH   7  18
HETATM   18  O   UNL     1      -8.072  16.242  66.100  1.00  0.00    -0.293 OA 
BRANCH  18  19
HETATM   19  C   UNL     1      -8.722  15.461  67.094  1.00  0.00    -0.220 C  
HETATM   20  O   UNL     1      -9.812  14.325  65.176  1.00  0.00    -0.554 OA 
HETATM   21  C   UNL     1      -7.543  14.710  67.723  1.00  0.00    -0.160 C  
HETATM   22  C   UNL     1      -8.977  13.031  67.077  1.00  0.00    -0.225 C  
HETATM   23  H   UNL     1     -10.388  13.632  64.875  1.00  0.00     0.000 HD 
HETATM   24  O   UNL     1      -7.595  13.361  67.229  1.00  0.00    -0.147 OA 
HETATM   25  C   UNL     1      -9.659  14.335  66.607  1.00  0.00    -0.289 C  
BRANCH  21  26
HETATM   26  C   UNL     1      -7.519  14.760  69.253  1.00  0.00    -0.162 C  
HETATM   27  H   UNL     1      -6.941  16.000  70.694  1.00  0.00     0.000 HD 
HETATM   28  O   UNL     1      -6.956  15.969  69.745  1.00  0.00    -0.172 OA 
ENDBRANCH  21  26
BRANCH  22  29
HETATM   29  O   UNL     1      -9.517  12.554  68.316  1.00  0.00    -0.210 OA 
BRANCH  29  30
HETATM   30  C   UNL     1      -9.893  11.137  68.388  1.00  0.00    -0.185 C  
HETATM   31  C   UNL     1     -10.992  10.916  69.460  1.00  0.00    -0.253 C  
HETATM   32  O   UNL     1     -12.287  11.052  68.834  1.00  0.00    -0.693 OA 
HETATM   33  C   UNL     1     -11.009   9.592  70.242  1.00  0.00    -0.285 C  
HETATM   34  C   UNL     1      -9.647   8.933  70.363  1.00  0.00    -0.227 C  
HETATM   35  N   UNL     1     -11.539   9.825  71.610  1.00  0.00    -0.351 NA 
HETATM   36  H   UNL     1     -12.960  10.917  69.491  1.00  0.00     0.000 HD 
HETATM   37  H1  UNL     1     -11.550   8.947  72.128  1.00  0.00     0.000 HD 
HETATM   38  H2  UNL     1     -12.455  10.273  71.596  1.00  0.00     0.000 HD 
HETATM   39  C   UNL     1      -9.008   8.790  68.982  1.00  0.00    -0.137 C  
HETATM   40  C   UNL     1      -8.661  10.191  68.417  1.00  0.00    -0.119 C  
HETATM   41  N   UNL     1      -7.802   7.942  69.108  1.00  0.00    -0.107 NA 
HETATM   42  H2  UNL     1      -8.002   7.040  69.541  1.00  0.00     0.000 HD 
HETATM   43  H1  UNL     1      -7.376   7.847  68.186  1.00  0.00     0.000 HD 
BRANCH  40  44
HETATM   44  O   UNL     1      -8.104   9.988  67.094  1.00  0.00    -0.116 OA 
BRANCH  44  45
HETATM   45  C   UNL     1      -8.788   9.033  66.279  1.00  0.00    -0.151 C  
HETATM   46  O   UNL     1      -9.822   9.644  65.504  1.00  0.00    -0.302 OA 
HETATM   47  C   UNL     1      -9.333  10.583  64.536  1.00  0.00    -0.253 C  
HETATM   48  C   UNL     1      -8.348   9.927  63.557  1.00  0.00    -0.166 C  
HETATM   49  H1  UNL     1      -6.006   7.145  65.544  1.00  0.00     0.000 HD 
HETATM   50  O   UNL     1      -7.810  10.865  62.615  1.00  0.00    -0.334 OA 
HETATM   51  H2  UNL     1      -7.058   7.006  66.846  1.00  0.00     0.000 HD 
HETATM   52  C   UNL     1      -7.197   9.273  64.336  1.00  0.00    -0.097 C  
HETATM   53  H   UNL     1      -7.200  10.459  62.009  1.00  0.00     0.000 HD 
HETATM   54  O   UNL     1      -6.332   8.574  63.425  1.00  0.00    -0.084 OA 
HETATM   55  C   UNL     1      -7.766   8.289  65.375  1.00  0.00    -0.103 C  
HETATM   56  N   UNL     1      -6.677   7.633  66.137  1.00  0.00    -0.052 NA 
HETATM   57  H   UNL     1      -5.620   8.169  63.907  1.00  0.00     0.000 HD 
BRANCH  47  58
HETATM   58  C   UNL     1     -10.546  11.236  63.836  1.00  0.00    -0.391 C  
HETATM   59  H1  UNL     1     -11.031  12.865  62.588  1.00  0.00     0.000 HD 
HETATM   60  N   UNL     1     -10.229  12.433  63.050  1.00  0.00    -0.484 NA 
HETATM   61  H2  UNL     1      -9.497  12.227  62.370  1.00  0.00     0.000 HD 
ENDBRANCH  47  58
ENDBRANCH  44  45
ENDBRANCH  40  44
ENDBRANCH  29  30
ENDBRANCH  22  29
ENDBRANCH  18  19
ENDBRANCH   7  18
ENDBRANCH   2   5
TORSDOF 9
ENDMDL
MODEL       27
REMARK 921   NORMALIZED FREE ENERGY PREDICTED BY IDOCK:   -6.82 KCAL/MOL
REMARK 922        TOTAL FREE ENERGY PREDICTED BY IDOCK:  -13.23 KCAL/MOL
REMARK 923 INTER-LIGAND FREE ENERGY PREDICTED BY IDOCK:  -10.36 KCAL/MOL
REMARK 924 INTRA-LIGAND FREE ENERGY PREDICTED BY IDOCK:   -2.86 KCAL/MOL
REMARK 927      BINDING AFFINITY PREDICTED BY RF-SCORE:    0.00 PKD
ROOT
HETATM    1  N   UNL     1     -14.083   9.174  72.962  1.00  0.00    -1.124 NA 
HETATM    2  C   UNL     1     -13.473   8.168  72.088  1.00  0.00    -0.215 C  
HETATM    3  H1  UNL     1     -15.094   9.273  72.878  1.00  0.00     0.000 HD 
HETATM    4  H2  UNL     1     -13.632  10.078  72.821  1.00  0.00     0.000 HD 
ENDROOT
BRANCH   2   5
HETATM    5  C   UNL     1     -11.934   8.019  72.216  1.00  0.00    -0.358 C  
HETATM    6  O   UNL     1     -11.261   7.795  70.950  1.00  0.00    -0.262 OA 
HETATM    7  C   UNL     1      -9.835   7.794  71.132  1.00  0.00    -0.169 C  
HETATM    8  C   UNL     1      -9.403   6.613  72.061  1.00  0.00    -0.142 C  
HETATM    9  O   UNL     1     -12.241   5.638  72.642  1.00  0.00    -0.487 OA 
HETATM   10  H   UNL     1     -12.069   4.912  73.230  1.00  0.00     0.000 HD 
HETATM   11  N   UNL     1      -9.632   5.298  71.376  1.00  0.00    -0.154 NA 
HETATM   12  C   UNL     1     -10.146   6.675  73.395  1.00  0.00    -0.228 C  
HETATM   13  H2  UNL     1      -9.169   5.256  70.468  1.00  0.00     0.000 HD 
HETATM   14  O   UNL     1      -9.643   7.716  74.243  1.00  0.00    -0.387 OA 
HETATM   15  C   UNL     1     -11.656   6.835  73.176  1.00  0.00     0.260 C  
HETATM   16  H1  UNL     1      -9.351   4.527  71.982  1.00  0.00     0.000 HD 
HETATM   17  H   UNL     1     -10.104   7.755  75.073  1.00  0.00     0.000 HD 
BRANCH   7  18
HETATM   18  O   UNL     1      -9.104   7.520  69.950  1.00  0.00    -0.144 OA 
BRANCH  18  19
HETATM   19  C   UNL     1      -8.790   8.566  69.040  1.00  0.00    -0.145 C  
HETATM   20  O   UNL     1     -10.980   8.026  68.005  1.00  0.00    -0.463 OA 
HETATM   21  C   UNL     1      -8.780   9.790  69.964  1.00  0.00    -0.209 C  
HETATM   22  C   UNL     1     -10.297  10.353  68.327  1.00  0.00    -0.171 C  
HETATM   23  H   UNL     1     -11.633   8.242  67.350  1.00  0.00     0.000 HD 
HETATM   24  O   UNL     1     -10.000  10.510  69.716  1.00  0.00    -0.179 OA 
HETATM   25  C   UNL     1      -9.850   8.917  67.974  1.00  0.00    -0.168 C  
BRANCH  21  26
HETATM   26  C   UNL     1      -7.546  10.681  69.802  1.00  0.00    -0.043 C  
HETATM   27  H   UNL     1      -5.773  10.621  68.908  1.00  0.00     0.000 HD 
HETATM   28  O   UNL     1      -6.538  10.069  69.008  1.00  0.00    -0.051 OA 
ENDBRANCH  21  26
BRANCH  22  29
HETATM   29  O   UNL     1      -9.605  11.341  67.553  1.00  0.00    -0.168 OA 
BRANCH  29  30
HETATM   30  C   UNL     1     -10.414  12.378  66.901  1.00  0.00    -0.224 C  
HETATM   31  C   UNL     1     -10.750  11.975  65.441  1.00  0.00    -0.287 C  
HETATM   32  O   UNL     1     -11.994  11.240  65.435  1.00  0.00     0.181 OA 
HETATM   33  C   UNL     1     -10.875  13.079  64.379  1.00  0.00    -0.388 C  
HETATM   34  C   UNL     1     -10.060  14.322  64.685  1.00  0.00     0.010 C  
HETATM   35  N   UNL     1     -10.447  12.552  63.057  1.00  0.00    -0.493 NA 
HETATM   36  H   UNL     1     -12.199  10.993  64.541  1.00  0.00     0.000 HD 
HETATM   37  H1  UNL     1     -10.530  13.285  62.352  1.00  0.00     0.000 HD 
HETATM   38  H2  UNL     1     -10.957  11.709  62.796  1.00  0.00     0.000 HD 
HETATM   39  C   UNL     1     -10.377  14.825  66.092  1.00  0.00    -0.304 C  
HETATM   40  C   UNL     1      -9.859  13.809  67.143  1.00  0.00    -0.242 C  
HETATM   41  N   UNL     1      -9.753  16.154  66.269  1.00  0.00    -0.285 NA 
HETATM   42  H2  UNL     1     -10.031  16.816  65.545  1.00  0.00     0.000 HD 
HETATM   43  H1  UNL     1      -9.965  16.489  67.209  1.00  0.00     0.000 HD 
BRANCH  40  44
HETATM   44  O   UNL     1     -10.232  14.320  68.446  1.00  0.00    -0.232 OA 
BRANCH  44  45
HETATM   45  C   UNL     1     -11.615  14.644  68.608  1.00  0.00    -0.314 C  
HETATM   46  O   UNL     1     -12.326  13.604  69.283  1.00  0.00    -0.288 OA 
HETATM   47  C   UNL     1     -11.895  13.402  70.637  1.00  0.00    -0.081 C  
HETATM   48  C   UNL     1     -12.041  14.680  71.475  1.00  0.00    -0.348 C  
HETATM   49  H1  UNL     1     -11.125  18.003  69.175  1.00  0.00     0.000 HD 
HETATM   50  O   UNL     1     -11.565  14.509  72.818  1.00  0.00     0.042 OA 
HETATM   51  H2  UNL     1     -11.332  17.203  67.714  1.00  0.00     0.000 HD 
HETATM   52  C   UNL     1     -11.273  15.831  70.808  1.00  0.00    -0.375 C  
HETATM   53  H   UNL     1     -11.656  15.300  73.336  1.00  0.00     0.000 HD 
HETATM   54  O   UNL     1     -11.495  17.049  71.540  1.00  0.00    -0.364 OA 
HETATM   55  C   UNL     1     -11.752  16.001  69.354  1.00  0.00    -0.284 C  
HETATM   56  N   UNL     1     -11.035  17.113  68.685  1.00  0.00    -0.246 NA 
HETATM   57  H   UNL     1     -11.020  17.761  71.126  1.00  0.00     0.000 HD 
BRANCH  47  58
HETATM   58  C   UNL     1     -12.670  12.198  71.219  1.00  0.00    -0.261 C  
HETATM   59  H1  UNL     1     -13.960  11.700  72.810  1.00  0.00     0.000 HD 
HETATM   60  N   UNL     1     -13.449  12.496  72.426  1.00  0.00    -0.575 NA 
HETATM   61  H2  UNL     1     -14.084  13.276  72.253  1.00  0.00     0.000 HD 
ENDBRANCH  47  58
ENDBRANCH  44  45
ENDBRANCH  40  44
ENDBRANCH  29  30
ENDBRANCH  22  29
ENDBRANCH  18  19
ENDBRANCH   7  18
ENDBRANCH   2   5
TORSDOF 9
ENDMDL
MODEL       28
REMARK 921   NORMALIZED FREE ENERGY PREDICTED BY IDOCK:   -6.80 KCAL/MOL
REMARK 922        TOTAL FREE ENERGY PREDICTED BY IDOCK:  -13.20 KCAL/MOL
REMARK 923 INTER-LIGAND FREE ENERGY PREDICTED BY IDOCK:  -11.18 KCAL/MOL
REMARK 924 INTRA-LIGAND FREE ENERGY PREDICTED BY IDOCK:   -2.01 KCAL/MOL
REMARK 927      BINDING AFFINITY PREDICTED BY RF-SCORE:    0.00 PKD
ROOT
HETATM    1  N   UNL     1      -8.045   8.482  73.718  1.00  0.00    -0.398 NA 
HETATM    2  C   UNL     1      -8.870   7.277  73.594  1.00  0.00    -0.183 C  
HETATM    3  H1  UNL     1      -7.719   8.695  74.660  1.00  0.00     0.000 HD 
HETATM    4  H2  UNL     1      -8.539   9.284  73.329  1.00  0.00     0.000 HD 
ENDROOT
BRANCH   2   5
HETATM    5  C   UNL     1      -9.366   6.952  72.160  1.00  0.00    -0.138 C  
HETATM    6  O   UNL     1     -10.013   8.071  71.499  1.00  0.00    -0.169 OA 
HETATM    7  C   UNL     1     -10.330   7.734  70.137  1.00  0.00    -0.218 C  
HETATM    8  C   UNL     1     -11.356   6.555  70.089  1.00  0.00    -0.402 C  
HETATM    9  O   UNL     1     -11.450   6.120  73.113  1.00  0.00    -0.470 OA 
HETATM   10  H   UNL     1     -12.054   5.389  73.175  1.00  0.00     0.000 HD 
HETATM   11  N   UNL     1     -12.688   7.000  70.620  1.00  0.00    -0.575 NA 
HETATM   12  C   UNL     1     -10.830   5.349  70.865  1.00  0.00    -0.120 C  
HETATM   13  H2  UNL     1     -13.035   7.826  70.132  1.00  0.00     0.000 HD 
HETATM   14  O   UNL     1      -9.792   4.663  70.153  1.00  0.00    -0.202 OA 
HETATM   15  C   UNL     1     -10.350   5.760  72.263  1.00  0.00    -0.202 C  
HETATM   16  H1  UNL     1     -13.357   6.232  70.589  1.00  0.00     0.000 HD 
HETATM   17  H   UNL     1      -9.465   3.912  70.636  1.00  0.00     0.000 HD 
BRANCH   7  18
HETATM   18  O   UNL     1     -11.021   8.754  69.437  1.00  0.00    -0.163 OA 
BRANCH  18  19
HETATM   19  C   UNL     1     -10.335   9.574  68.501  1.00  0.00    -0.207 C  
HETATM   20  O   UNL     1     -11.004  11.448  69.985  1.00  0.00    -0.474 OA 
HETATM   21  C   UNL     1      -8.889   9.089  68.661  1.00  0.00    -0.137 C  
HETATM   22  C   UNL     1      -8.750  11.355  69.038  1.00  0.00     0.091 C  
HETATM   23  H   UNL     1     -10.954  12.377  70.177  1.00  0.00     0.000 HD 
HETATM   24  O   UNL     1      -8.193  10.095  69.416  1.00  0.00    -0.140 OA 
HETATM   25  C   UNL     1     -10.254  11.084  68.811  1.00  0.00    -0.198 C  
BRANCH  21  26
HETATM   26  C   UNL     1      -8.188   8.778  67.336  1.00  0.00    -0.109 C  
HETATM   27  H   UNL     1      -7.822   7.206  66.178  1.00  0.00     0.000 HD 
HETATM   28  O   UNL     1      -8.257   7.399  67.000  1.00  0.00    -0.117 OA 
ENDBRANCH  21  26
BRANCH  22  29
HETATM   29  O   UNL     1      -8.107  11.853  67.858  1.00  0.00    -0.130 OA 
BRANCH  29  30
HETATM   30  C   UNL     1      -7.873  13.300  67.776  1.00  0.00    -0.157 C  
HETATM   31  C   UNL     1      -6.521  13.676  68.437  1.00  0.00    -0.095 C  
HETATM   32  O   UNL     1      -5.482  13.623  67.434  1.00  0.00    -0.348 OA 
HETATM   33  C   UNL     1      -6.394  15.035  69.144  1.00  0.00    -0.108 C  
HETATM   34  C   UNL     1      -7.708  15.575  69.678  1.00  0.00    -0.138 C  
HETATM   35  N   UNL     1      -5.439  14.924  70.276  1.00  0.00    -0.117 NA 
HETATM   36  H   UNL     1      -4.654  13.853  67.839  1.00  0.00     0.000 HD 
HETATM   37  H1  UNL     1      -5.355  15.826  70.745  1.00  0.00     0.000 HD 
HETATM   38  H2  UNL     1      -4.534  14.559  69.981  1.00  0.00     0.000 HD 
HETATM   39  C   UNL     1      -8.761  15.586  68.570  1.00  0.00    -0.184 C  
HETATM   40  C   UNL     1      -9.124  14.132  68.175  1.00  0.00    -0.193 C  
HETATM   41  N   UNL     1      -9.945  16.328  69.055  1.00  0.00    -0.243 NA 
HETATM   42  H2  UNL     1      -9.712  17.266  69.382  1.00  0.00     0.000 HD 
HETATM   43  H1  UNL     1     -10.647  16.336  68.315  1.00  0.00     0.000 HD 
BRANCH  40  44
HETATM   44  O   UNL     1     -10.086  14.214  67.095  1.00  0.00    -0.253 OA 
BRANCH  44  45
HETATM   45  C   UNL     1      -9.529  14.350  65.785  1.00  0.00    -0.095 C  
HETATM   46  O   UNL     1      -9.427  13.087  65.121  1.00  0.00     0.117 OA 
HETATM   47  C   UNL     1     -10.697  12.475  64.856  1.00  0.00    -0.295 C  
HETATM   48  C   UNL     1     -11.593  13.378  63.996  1.00  0.00    -0.385 C  
HETATM   49  H1  UNL     1     -11.060  17.346  65.063  1.00  0.00     0.000 HD 
HETATM   50  O   UNL     1     -12.886  12.801  63.766  1.00  0.00    -0.695 OA 
HETATM   51  H2  UNL     1      -9.587  17.074  65.820  1.00  0.00     0.000 HD 
HETATM   52  C   UNL     1     -11.761  14.745  64.675  1.00  0.00    -0.422 C  
HETATM   53  H   UNL     1     -13.441  13.360  63.233  1.00  0.00     0.000 HD 
HETATM   54  O   UNL     1     -12.516  15.621  63.820  1.00  0.00    -0.934 OA 
HETATM   55  C   UNL     1     -10.376  15.357  64.958  1.00  0.00    -0.329 C  
HETATM   56  N   UNL     1     -10.505  16.685  65.606  1.00  0.00    -0.506 NA 
HETATM   57  H   UNL     1     -12.619  16.466  64.240  1.00  0.00     0.000 HD 
BRANCH  47  58
HETATM   58  C   UNL     1     -10.444  11.086  64.227  1.00  0.00    -0.359 C  
HETATM   59  H1  UNL     1     -10.316  10.144  62.345  1.00  0.00     0.000 HD 
HETATM   60  N   UNL     1     -10.482  11.062  62.760  1.00  0.00    -0.786 NA 
HETATM   61  H2  UNL     1      -9.831  11.748  62.377  1.00  0.00     0.000 HD 
ENDBRANCH  47  58
ENDBRANCH  44  45
ENDBRANCH  40  44
ENDBRANCH  29  30
ENDBRANCH  22  29
ENDBRANCH  18  19
ENDBRANCH   7  18
ENDBRANCH   2   5
TORSDOF 9
ENDMDL
MODEL       29
REMARK 921   NORMALIZED FREE ENERGY PREDICTED BY IDOCK:   -6.79 KCAL/MOL
REMARK 922        TOTAL FREE ENERGY PREDICTED BY IDOCK:  -13.17 KCAL/MOL
REMARK 923 INTER-LIGAND FREE ENERGY PREDICTED BY IDOCK:  -10.83 KCAL/MOL
REMARK 924 INTRA-LIGAND FREE ENERGY PREDICTED BY IDOCK:   -2.34 KCAL/MOL
REMARK 927      BINDING AFFINITY PREDICTED BY RF-SCORE:    0.00 PKD
ROOT
HETATM    1  N   UNL     1     -10.462  11.590  63.235  1.00  0.00    -0.583 NA 
HETATM    2  C   UNL     1      -9.422  10.920  62.449  1.00  0.00    -0.164 C  
HETATM    3  H1  UNL     1     -10.954  12.345  62.758  1.00  0.00     0.000 HD 
HETATM    4  H2  UNL     1     -10.072  11.928  64.114  1.00  0.00     0.000 HD 
ENDROOT
BRANCH   2   5
HETATM    5  C   UNL     1      -8.674   9.771  63.174  1.00  0.00    -0.225 C  
HETATM    6  O   UNL     1      -8.520   9.984  64.602  1.00  0.00    -0.154 OA 
HETATM    7  C   UNL     1      -7.933   8.826  65.222  1.00  0.00    -0.118 C  
HETATM    8  C   UNL     1      -6.492   8.579  64.667  1.00  0.00    -0.066 C  
HETATM    9  O   UNL     1      -6.561  10.861  62.635  1.00  0.00    -0.338 OA 
HETATM   10  H   UNL     1      -5.706  10.771  62.228  1.00  0.00     0.000 HD 
HETATM   11  N   UNL     1      -5.567   9.674  65.110  1.00  0.00    -0.054 NA 
HETATM   12  C   UNL     1      -6.513   8.459  63.144  1.00  0.00    -0.086 C  
HETATM   13  H2  UNL     1      -5.569   9.787  66.124  1.00  0.00     0.000 HD 
HETATM   14  O   UNL     1      -7.050   7.202  62.711  1.00  0.00    -0.058 OA 
HETATM   15  C   UNL     1      -7.282   9.625  62.511  1.00  0.00    -0.105 C  
HETATM   16  H1  UNL     1      -4.627   9.514  64.748  1.00  0.00     0.000 HD 
HETATM   17  H   UNL     1      -7.063   7.127  61.764  1.00  0.00     0.000 HD 
BRANCH   7  18
HETATM   18  O   UNL     1      -7.692   8.976  66.610  1.00  0.00    -0.095 OA 
BRANCH  18  19
HETATM   19  C   UNL     1      -8.772   9.192  67.508  1.00  0.00    -0.119 C  
HETATM   20  O   UNL     1      -8.579  11.570  66.825  1.00  0.00    -0.160 OA 
HETATM   21  C   UNL     1      -9.900   8.401  66.834  1.00  0.00    -0.245 C  
HETATM   22  C   UNL     1     -10.775  10.517  67.057  1.00  0.00    -0.250 C  
HETATM   23  H   UNL     1      -8.925  12.452  66.884  1.00  0.00     0.000 HD 
HETATM   24  O   UNL     1     -10.773   9.362  66.217  1.00  0.00    -0.021 OA 
HETATM   25  C   UNL     1      -9.334  10.626  67.606  1.00  0.00    -0.146 C  
BRANCH  21  26
HETATM   26  C   UNL     1     -10.656   7.466  67.782  1.00  0.00    -0.210 C  
HETATM   27  H   UNL     1     -10.673   6.998  69.713  1.00  0.00     0.000 HD 
HETATM   28  O   UNL     1     -10.204   7.578  69.125  1.00  0.00    -0.191 OA 
ENDBRANCH  21  26
BRANCH  22  29
HETATM   29  O   UNL     1     -11.743  10.372  68.105  1.00  0.00    -0.363 OA 
BRANCH  29  30
HETATM   30  C   UNL     1     -11.552  11.179  69.317  1.00  0.00    -0.318 C  
HETATM   31  C   UNL     1     -11.852  10.340  70.587  1.00  0.00    -0.347 C  
HETATM   32  O   UNL     1     -10.631   9.703  71.024  1.00  0.00    -0.311 OA 
HETATM   33  C   UNL     1     -12.456  11.044  71.813  1.00  0.00    -0.089 C  
HETATM   34  C   UNL     1     -13.270  12.279  71.475  1.00  0.00    -0.268 C  
HETATM   35  N   UNL     1     -13.328  10.097  72.555  1.00  0.00    -0.535 NA 
HETATM   36  H   UNL     1     -10.815   9.190  71.802  1.00  0.00     0.000 HD 
HETATM   37  H1  UNL     1     -13.728  10.564  73.369  1.00  0.00     0.000 HD 
HETATM   38  H2  UNL     1     -12.837   9.240  72.808  1.00  0.00     0.000 HD 
HETATM   39  C   UNL     1     -12.450  13.226  70.601  1.00  0.00    -0.298 C  
HETATM   40  C   UNL     1     -12.209  12.583  69.211  1.00  0.00    -0.036 C  
HETATM   41  N   UNL     1     -13.177  14.509  70.486  1.00  0.00    -0.512 NA 
HETATM   42  H2  UNL     1     -13.403  14.913  71.395  1.00  0.00     0.000 HD 
HETATM   43  H1  UNL     1     -12.629  15.141  69.903  1.00  0.00     0.000 HD 
BRANCH  40  44
HETATM   44  O   UNL     1     -11.391  13.507  68.452  1.00  0.00    -0.257 OA 
BRANCH  44  45
HETATM   45  C   UNL     1     -12.109  14.457  67.661  1.00  0.00    -0.277 C  
HETATM   46  O   UNL     1     -11.769  15.801  68.012  1.00  0.00    -0.279 OA 
HETATM   47  C   UNL     1     -10.402  16.137  67.734  1.00  0.00    -0.283 C  
HETATM   48  C   UNL     1     -10.061  15.947  66.249  1.00  0.00    -0.301 C  
HETATM   49  H1  UNL     1     -12.028  12.622  64.751  1.00  0.00     0.000 HD 
HETATM   50  O   UNL     1      -8.684  16.229  65.965  1.00  0.00    -0.333 OA 
HETATM   51  H2  UNL     1     -13.160  12.579  65.990  1.00  0.00     0.000 HD 
HETATM   52  C   UNL     1     -10.383  14.508  65.820  1.00  0.00    -0.331 C  
HETATM   53  H   UNL     1      -8.473  16.112  65.046  1.00  0.00     0.000 HD 
HETATM   54  O   UNL     1     -10.159  14.362  64.407  1.00  0.00    -0.610 OA 
HETATM   55  C   UNL     1     -11.851  14.183  66.153  1.00  0.00    -0.407 C  
HETATM   56  N   UNL     1     -12.196  12.802  65.741  1.00  0.00    -0.558 NA 
HETATM   57  H   UNL     1     -10.359  13.472  64.142  1.00  0.00     0.000 HD 
BRANCH  47  58
HETATM   58  C   UNL     1     -10.142  17.573  68.243  1.00  0.00    -0.346 C  
HETATM   59  H1  UNL     1     -10.231  19.577  67.593  1.00  0.00     0.000 HD 
HETATM   60  N   UNL     1     -10.403  18.628  67.257  1.00  0.00    -0.379 NA 
HETATM   61  H2  UNL     1     -11.354  18.547  66.895  1.00  0.00     0.000 HD 
ENDBRANCH  47  58
ENDBRANCH  44  45
ENDBRANCH  40  44
ENDBRANCH  29  30
ENDBRANCH  22  29
ENDBRANCH  18  19
ENDBRANCH   7  18
ENDBRANCH   2   5
TORSDOF 9
ENDMDL
MODEL       30
REMARK 921   NORMALIZED FREE ENERGY PREDICTED BY IDOCK:   -6.78 KCAL/MOL
REMARK 922        TOTAL FREE ENERGY PREDICTED BY IDOCK:  -13.16 KCAL/MOL
REMARK 923 INTER-LIGAND FREE ENERGY PREDICTED BY IDOCK:  -11.08 KCAL/MOL
REMARK 924 INTRA-LIGAND FREE ENERGY PREDICTED BY IDOCK:   -2.07 KCAL/MOL
REMARK 927      BINDING AFFINITY PREDICTED BY RF-SCORE:    0.00 PKD
ROOT
HETATM    1  N   UNL     1     -11.381   6.371  68.881  1.00  0.00    -0.579 NA 
HETATM    2  C   UNL     1     -10.868   6.166  67.523  1.00  0.00    -0.332 C  
HETATM    3  H1  UNL     1     -12.106   5.719  69.179  1.00  0.00     0.000 HD 
HETATM    4  H2  UNL     1     -11.708   7.331  68.989  1.00  0.00     0.000 HD 
ENDROOT
BRANCH   2   5
HETATM    5  C   UNL     1      -9.765   7.158  67.070  1.00  0.00    -0.170 C  
HETATM    6  O   UNL     1     -10.275   8.310  66.350  1.00  0.00    -0.253 OA 
HETATM    7  C   UNL     1      -9.213   9.241  66.076  1.00  0.00    -0.206 C  
HETATM    8  C   UNL     1      -8.143   8.590  65.140  1.00  0.00    -0.142 C  
HETATM    9  O   UNL     1      -9.467   5.838  65.042  1.00  0.00    -0.312 OA 
HETATM   10  H   UNL     1      -8.857   5.359  64.493  1.00  0.00     0.000 HD 
HETATM   11  N   UNL     1      -8.716   8.357  63.773  1.00  0.00    -0.398 NA 
HETATM   12  C   UNL     1      -7.615   7.290  65.745  1.00  0.00    -0.091 C  
HETATM   13  H2  UNL     1      -9.102   9.211  63.371  1.00  0.00     0.000 HD 
HETATM   14  O   UNL     1      -6.722   7.530  66.840  1.00  0.00    -0.062 OA 
HETATM   15  C   UNL     1      -8.770   6.376  66.176  1.00  0.00    -0.146 C  
HETATM   16  H1  UNL     1      -8.018   7.932  63.163  1.00  0.00     0.000 HD 
HETATM   17  H   UNL     1      -6.394   6.721  67.216  1.00  0.00     0.000 HD 
BRANCH   7  18
HETATM   18  O   UNL     1      -9.618  10.369  65.319  1.00  0.00    -0.216 OA 
BRANCH  18  19
HETATM   19  C   UNL     1     -10.267  11.463  65.952  1.00  0.00    -0.246 C  
HETATM   20  O   UNL     1      -7.968  12.244  66.467  1.00  0.00    -0.395 OA 
HETATM   21  C   UNL     1     -10.947  12.153  64.763  1.00  0.00    -0.310 C  
HETATM   22  C   UNL     1      -9.676  13.822  65.708  1.00  0.00    -0.151 C  
HETATM   23  H   UNL     1      -7.415  12.923  66.836  1.00  0.00     0.000 HD 
HETATM   24  O   UNL     1     -10.175  13.328  64.464  1.00  0.00    -0.382 OA 
HETATM   25  C   UNL     1      -9.368  12.566  66.552  1.00  0.00    -0.233 C  
BRANCH  21  26
HETATM   26  C   UNL     1     -12.424  12.482  64.997  1.00  0.00    -0.420 C  
HETATM   27  H   UNL     1     -13.791  13.755  64.321  1.00  0.00     0.000 HD 
HETATM   28  O   UNL     1     -12.875  13.551  64.176  1.00  0.00    -0.626 OA 
ENDBRANCH  21  26
BRANCH  22  29
HETATM   29  O   UNL     1     -10.647  14.670  66.334  1.00  0.00    -0.290 OA 
BRANCH  29  30
HETATM   30  C   UNL     1     -10.166  15.610  67.355  1.00  0.00    -0.264 C  
HETATM   31  C   UNL     1      -9.511  16.850  66.693  1.00  0.00    -0.265 C  
HETATM   32  O   UNL     1     -10.526  17.858  66.488  1.00  0.00    -0.355 OA 
HETATM   33  C   UNL     1      -8.335  17.535  67.407  1.00  0.00    -0.211 C  
HETATM   34  C   UNL     1      -7.536  16.609  68.305  1.00  0.00    -0.181 C  
HETATM   35  N   UNL     1      -7.412  18.122  66.401  1.00  0.00    -0.235 NA 
HETATM   36  H   UNL     1     -10.124  18.618  66.082  1.00  0.00     0.000 HD 
HETATM   37  H1  UNL     1      -6.632  18.577  66.875  1.00  0.00     0.000 HD 
HETATM   38  H2  UNL     1      -7.893  18.754  65.761  1.00  0.00     0.000 HD 
HETATM   39  C   UNL     1      -8.469  15.885  69.275  1.00  0.00    -0.242 C  
HETATM   40  C   UNL     1      -9.380  14.904  68.494  1.00  0.00    -0.196 C  
HETATM   41  N   UNL     1      -7.645  15.178  70.280  1.00  0.00    -0.073 NA 
HETATM   42  H2  UNL     1      -6.990  15.798  70.756  1.00  0.00     0.000 HD 
HETATM   43  H1  UNL     1      -8.268  14.695  70.927  1.00  0.00     0.000 HD 
BRANCH  40  44
HETATM   44  O   UNL     1     -10.266  14.288  69.462  1.00  0.00    -0.014 OA 
BRANCH  44  45
HETATM   45  C   UNL     1     -11.633  14.174  69.058  1.00  0.00    -0.304 C  
HETATM   46  O   UNL     1     -11.945  12.849  68.619  1.00  0.00    -0.313 OA 
HETATM   47  C   UNL     1     -11.846  11.863  69.656  1.00  0.00    -0.337 C  
HETATM   48  C   UNL     1     -12.771  12.188  70.838  1.00  0.00    -0.189 C  
HETATM   49  H1  UNL     1     -12.889  16.282  71.471  1.00  0.00     0.000 HD 
HETATM   50  O   UNL     1     -12.644  11.239  71.906  1.00  0.00    -0.252 OA 
HETATM   51  H2  UNL     1     -12.315  16.660  69.939  1.00  0.00     0.000 HD 
HETATM   52  C   UNL     1     -12.463  13.596  71.370  1.00  0.00    -0.285 C  
HETATM   53  H   UNL     1     -13.217  11.441  72.637  1.00  0.00     0.000 HD 
HETATM   54  O   UNL     1     -13.397  13.936  72.408  1.00  0.00    -0.445 OA 
HETATM   55  C   UNL     1     -12.562  14.618  70.222  1.00  0.00    -0.318 C  
HETATM   56  N   UNL     1     -12.279  15.990  70.707  1.00  0.00    -0.315 NA 
HETATM   57  H   UNL     1     -13.206  14.807  72.737  1.00  0.00     0.000 HD 
BRANCH  47  58
HETATM   58  C   UNL     1     -12.113  10.474  69.034  1.00  0.00     0.086 C  
HETATM   59  H1  UNL     1     -11.228   8.570  68.847  1.00  0.00     0.000 HD 
HETATM   60  N   UNL     1     -11.051   9.488  69.258  1.00  0.00    -0.417 NA 
HETATM   61  H2  UNL     1     -10.856   9.397  70.256  1.00  0.00     0.000 HD 
ENDBRANCH  47  58
ENDBRANCH  44  45
ENDBRANCH  40  44
ENDBRANCH  29  30
ENDBRANCH  22  29
ENDBRANCH  18  19
ENDBRANCH   7  18
ENDBRANCH   2   5
TORSDOF 9
ENDMDL
MODEL       31
REMARK 921   NORMALIZED FREE ENERGY PREDICTED BY IDOCK:   -6.74 KCAL/MOL
REMARK 922        TOTAL FREE ENERGY PREDICTED BY IDOCK:  -13.11 KCAL/MOL
REMARK 923 INTER-LIGAND FREE ENERGY PREDICTED BY IDOCK:  -10.73 KCAL/MOL
REMARK 924 INTRA-LIGAND FREE ENERGY PREDICTED BY IDOCK:   -2.38 KCAL/MOL
REMARK 927      BINDING AFFINITY PREDICTED BY RF-SCORE:    0.00 PKD
ROOT
HETATM    1  N   UNL     1     -10.241  19.755  68.816  1.00  0.00    -0.561 NA 
HETATM    2  C   UNL     1     -10.023  20.334  67.488  1.00  0.00    -0.416 C  
HETATM    3  H1  UNL     1     -10.939  20.226  69.391  1.00  0.00     0.000 HD 
HETATM    4  H2  UNL     1      -9.357  19.697  69.321  1.00  0.00     0.000 HD 
ENDROOT
BRANCH   2   5
HETATM    5  C   UNL     1      -8.960  19.618  66.614  1.00  0.00    -0.362 C  
HETATM    6  O   UNL     1      -8.736  18.232  66.985  1.00  0.00    -0.251 OA 
HETATM    7  C   UNL     1      -7.837  17.603  66.056  1.00  0.00    -0.166 C  
HETATM    8  C   UNL     1      -6.433  18.291  66.101  1.00  0.00    -0.231 C  
HETATM    9  O   UNL     1      -7.226  20.452  68.111  1.00  0.00    -0.271 OA 
HETATM   10  H   UNL     1      -6.415  20.941  68.186  1.00  0.00     0.000 HD 
HETATM   11  N   UNL     1      -5.763  18.024  67.416  1.00  0.00    -0.140 NA 
HETATM   12  C   UNL     1      -6.559  19.792  65.842  1.00  0.00    -0.237 C  
HETATM   13  H2  UNL     1      -5.703  17.026  67.617  1.00  0.00     0.000 HD 
HETATM   14  O   UNL     1      -6.815  20.080  64.461  1.00  0.00    -0.290 OA 
HETATM   15  C   UNL     1      -7.638  20.416  66.736  1.00  0.00    -0.272 C  
HETATM   16  H1  UNL     1      -4.847  18.473  67.446  1.00  0.00     0.000 HD 
HETATM   17  H   UNL     1      -6.893  21.013  64.300  1.00  0.00     0.000 HD 
BRANCH   7  18
HETATM   18  O   UNL     1      -7.517  16.262  66.383  1.00  0.00    -0.207 OA 
BRANCH  18  19
HETATM   19  C   UNL     1      -8.145  15.622  67.486  1.00  0.00    -0.160 C  
HETATM   20  O   UNL     1      -9.959  15.106  65.873  1.00  0.00    -0.283 OA 
HETATM   21  C   UNL     1      -7.172  14.473  67.775  1.00  0.00    -0.177 C  
HETATM   22  C   UNL     1      -9.191  13.414  67.464  1.00  0.00    -0.219 C  
HETATM   23  H   UNL     1     -10.785  14.668  65.708  1.00  0.00     0.000 HD 
HETATM   24  O   UNL     1      -7.782  13.273  67.272  1.00  0.00    -0.157 OA 
HETATM   25  C   UNL     1      -9.488  14.910  67.219  1.00  0.00    -0.213 C  
BRANCH  21  26
HETATM   26  C   UNL     1      -6.783  14.343  69.250  1.00  0.00    -0.126 C  
HETATM   27  H   UNL     1      -5.989  12.989  70.468  1.00  0.00     0.000 HD 
HETATM   28  O   UNL     1      -6.230  13.069  69.553  1.00  0.00    -0.107 OA 
ENDBRANCH  21  26
BRANCH  22  29
HETATM   29  O   UNL     1      -9.560  12.999  68.786  1.00  0.00    -0.070 OA 
BRANCH  29  30
HETATM   30  C   UNL     1     -10.923  12.488  68.978  1.00  0.00    -0.188 C  
HETATM   31  C   UNL     1     -11.815  13.553  69.667  1.00  0.00    -0.336 C  
HETATM   32  O   UNL     1     -12.444  14.363  68.650  1.00  0.00    -0.583 OA 
HETATM   33  C   UNL     1     -12.927  13.083  70.619  1.00  0.00     0.115 C  
HETATM   34  C   UNL     1     -12.649  11.744  71.276  1.00  0.00    -0.401 C  
HETATM   35  N   UNL     1     -13.133  14.095  71.687  1.00  0.00    -0.333 NA 
HETATM   36  H   UNL     1     -12.991  15.015  69.072  1.00  0.00     0.000 HD 
HETATM   37  H1  UNL     1     -13.871  13.783  72.318  1.00  0.00     0.000 HD 
HETATM   38  H2  UNL     1     -13.320  15.022  71.306  1.00  0.00     0.000 HD 
HETATM   39  C   UNL     1     -12.305  10.699  70.216  1.00  0.00    -0.325 C  
HETATM   40  C   UNL     1     -10.945  11.047  69.557  1.00  0.00    -0.243 C  
HETATM   41  N   UNL     1     -12.271   9.368  70.860  1.00  0.00    -0.417 NA 
HETATM   42  H2  UNL     1     -13.136   9.152  71.357  1.00  0.00     0.000 HD 
HETATM   43  H1  UNL     1     -12.041   8.671  70.152  1.00  0.00     0.000 HD 
BRANCH  40  44
HETATM   44  O   UNL     1     -10.702  10.049  68.535  1.00  0.00    -0.211 OA 
BRANCH  44  45
HETATM   45  C   UNL     1      -9.549   9.228  68.738  1.00  0.00    -0.154 C  
HETATM   46  O   UNL     1      -9.866   8.043  69.471  1.00  0.00    -0.176 OA 
HETATM   47  C   UNL     1     -10.756   7.159  68.773  1.00  0.00    -0.169 C  
HETATM   48  C   UNL     1     -10.176   6.724  67.419  1.00  0.00    -0.197 C  
HETATM   49  H1  UNL     1      -8.119   9.869  65.674  1.00  0.00     0.000 HD 
HETATM   50  O   UNL     1     -11.077   5.881  66.687  1.00  0.00    -0.635 OA 
HETATM   51  H2  UNL     1      -7.949  10.719  67.112  1.00  0.00     0.000 HD 
HETATM   52  C   UNL     1      -9.838   7.962  66.575  1.00  0.00    -0.202 C  
HETATM   53  H   UNL     1     -10.718   5.612  65.849  1.00  0.00     0.000 HD 
HETATM   54  O   UNL     1      -9.203   7.553  65.351  1.00  0.00    -0.370 OA 
HETATM   55  C   UNL     1      -8.899   8.890  67.367  1.00  0.00    -0.129 C  
HETATM   56  N   UNL     1      -8.546  10.091  66.573  1.00  0.00    -0.125 NA 
HETATM   57  H   UNL     1      -8.993   8.319  64.829  1.00  0.00     0.000 HD 
BRANCH  47  58
HETATM   58  C   UNL     1     -11.091   5.973  69.705  1.00  0.00    -0.406 C  
HETATM   59  H1  UNL     1     -11.663   5.568  71.693  1.00  0.00     0.000 HD 
HETATM   60  N   UNL     1     -11.442   6.352  71.078  1.00  0.00    -0.328 NA 
HETATM   61  H2  UNL     1     -12.207   7.027  71.075  1.00  0.00     0.000 HD 
ENDBRANCH  47  58
ENDBRANCH  44  45
ENDBRANCH  40  44
ENDBRANCH  29  30
ENDBRANCH  22  29
ENDBRANCH  18  19
ENDBRANCH   7  18
ENDBRANCH   2   5
TORSDOF 9
ENDMDL
MODEL       32
REMARK 921   NORMALIZED FREE ENERGY PREDICTED BY IDOCK:   -6.72 KCAL/MOL
REMARK 922        TOTAL FREE ENERGY PREDICTED BY IDOCK:  -13.07 KCAL/MOL
REMARK 923 INTER-LIGAND FREE ENERGY PREDICTED BY IDOCK:  -10.79 KCAL/MOL
REMARK 924 INTRA-LIGAND FREE ENERGY PREDICTED BY IDOCK:   -2.27 KCAL/MOL
REMARK 927      BINDING AFFINITY PREDICTED BY RF-SCORE:    0.00 PKD
ROOT
HETATM    1  N   UNL     1     -10.717   3.085  73.760  1.00  0.00    -0.183 NA 
HETATM    2  C   UNL     1      -9.919   3.673  72.680  1.00  0.00    -0.159 C  
HETATM    3  H1  UNL     1     -10.464   2.133  74.022  1.00  0.00     0.000 HD 
HETATM    4  H2  UNL     1     -11.708   3.131  73.526  1.00  0.00     0.000 HD 
ENDROOT
BRANCH   2   5
HETATM    5  C   UNL     1     -10.304   5.122  72.280  1.00  0.00    -0.211 C  
HETATM    6  O   UNL     1      -9.291   5.800  71.492  1.00  0.00    -0.146 OA 
HETATM    7  C   UNL     1      -9.769   7.083  71.054  1.00  0.00    -0.173 C  
HETATM    8  C   UNL     1     -10.048   8.011  72.282  1.00  0.00    -0.246 C  
HETATM    9  O   UNL     1      -9.390   5.907  74.399  1.00  0.00    -0.135 OA 
HETATM   10  H   UNL     1      -9.554   6.393  75.199  1.00  0.00     0.000 HD 
HETATM   11  N   UNL     1      -8.763   8.372  72.966  1.00  0.00    -0.336 NA 
HETATM   12  C   UNL     1     -11.020   7.343  73.254  1.00  0.00    -0.318 C  
HETATM   13  H2  UNL     1      -8.092   8.789  72.320  1.00  0.00     0.000 HD 
HETATM   14  O   UNL     1     -12.366   7.351  72.760  1.00  0.00    -0.508 OA 
HETATM   15  C   UNL     1     -10.572   5.914  73.585  1.00  0.00    -0.272 C  
HETATM   16  H1  UNL     1      -8.944   8.977  73.767  1.00  0.00     0.000 HD 
HETATM   17  H   UNL     1     -12.970   6.936  73.364  1.00  0.00     0.000 HD 
BRANCH   7  18
HETATM   18  O   UNL     1      -8.815   7.837  70.328  1.00  0.00    -0.142 OA 
BRANCH  18  19
HETATM   19  C   UNL     1      -9.221   8.961  69.559  1.00  0.00    -0.150 C  
HETATM   20  O   UNL     1      -7.462  10.180  70.817  1.00  0.00    -0.408 OA 
HETATM   21  C   UNL     1      -8.835   8.525  68.140  1.00  0.00    -0.142 C  
HETATM   22  C   UNL     1      -7.739  10.530  68.412  1.00  0.00    -0.104 C  
HETATM   23  H   UNL     1      -6.982  10.989  70.944  1.00  0.00     0.000 HD 
HETATM   24  O   UNL     1      -7.642   9.247  67.792  1.00  0.00    -0.084 OA 
HETATM   25  C   UNL     1      -8.440  10.277  69.765  1.00  0.00    -0.062 C  
BRANCH  21  26
HETATM   26  C   UNL     1      -9.946   8.721  67.106  1.00  0.00    -0.230 C  
HETATM   27  H   UNL     1     -11.527   7.735  66.414  1.00  0.00     0.000 HD 
HETATM   28  O   UNL     1     -10.837   7.614  67.056  1.00  0.00    -0.334 OA 
ENDBRANCH  21  26
BRANCH  22  29
HETATM   29  O   UNL     1      -8.480  11.433  67.580  1.00  0.00    -0.124 OA 
BRANCH  29  30
HETATM   30  C   UNL     1      -8.044  12.835  67.550  1.00  0.00    -0.180 C  
HETATM   31  C   UNL     1      -6.619  12.979  68.143  1.00  0.00    -0.103 C  
HETATM   32  O   UNL     1      -5.654  12.834  67.078  1.00  0.00    -0.373 OA 
HETATM   33  C   UNL     1      -6.260  14.267  68.902  1.00  0.00    -0.089 C  
HETATM   34  C   UNL     1      -7.452  14.959  69.539  1.00  0.00    -0.162 C  
HETATM   35  N   UNL     1      -5.272  13.962  69.968  1.00  0.00    -0.090 NA 
HETATM   36  H   UNL     1      -4.781  12.922  67.442  1.00  0.00     0.000 HD 
HETATM   37  H1  UNL     1      -5.034  14.816  70.471  1.00  0.00     0.000 HD 
HETATM   38  H2  UNL     1      -4.446  13.489  69.602  1.00  0.00     0.000 HD 
HETATM   39  C   UNL     1      -8.549  15.178  68.499  1.00  0.00    -0.163 C  
HETATM   40  C   UNL     1      -9.139  13.812  68.061  1.00  0.00    -0.191 C  
HETATM   41  N   UNL     1      -9.586  16.053  69.087  1.00  0.00    -0.245 NA 
HETATM   42  H2  UNL     1      -9.203  16.929  69.442  1.00  0.00     0.000 HD 
HETATM   43  H1  UNL     1     -10.319  16.199  68.392  1.00  0.00     0.000 HD 
BRANCH  40  44
HETATM   44  O   UNL     1     -10.136  14.087  67.046  1.00  0.00    -0.249 OA 
BRANCH  44  45
HETATM   45  C   UNL     1      -9.630  14.267  65.720  1.00  0.00    -0.155 C  
HETATM   46  O   UNL     1      -9.488  13.019  65.036  1.00  0.00     0.156 OA 
HETATM   47  C   UNL     1     -10.734  12.348  64.804  1.00  0.00    -0.298 C  
HETATM   48  C   UNL     1     -11.702  13.215  63.986  1.00  0.00    -0.439 C  
HETATM   49  H1  UNL     1     -11.330  17.192  65.091  1.00  0.00     0.000 HD 
HETATM   50  O   UNL     1     -12.972  12.578  63.790  1.00  0.00    -0.733 OA 
HETATM   51  H2  UNL     1      -9.820  16.984  65.795  1.00  0.00     0.000 HD 
HETATM   52  C   UNL     1     -11.914  14.564  64.689  1.00  0.00    -0.468 C  
HETATM   53  H   UNL     1     -13.571  13.115  63.283  1.00  0.00     0.000 HD 
HETATM   54  O   UNL     1     -12.739  15.412  63.871  1.00  0.00    -0.780 OA 
HETATM   55  C   UNL     1     -10.553  15.241  64.936  1.00  0.00    -0.351 C  
HETATM   56  N   UNL     1     -10.725  16.552  65.605  1.00  0.00    -0.317 NA 
HETATM   57  H   UNL     1     -12.869  16.246  64.306  1.00  0.00     0.000 HD 
BRANCH  47  58
HETATM   58  C   UNL     1     -10.434  10.981  64.148  1.00  0.00    -0.366 C  
HETATM   59  H1  UNL     1     -10.157  10.106  62.250  1.00  0.00     0.000 HD 
HETATM   60  N   UNL     1     -10.355  11.009  62.683  1.00  0.00    -0.733 NA 
HETATM   61  H2  UNL     1      -9.673  11.705  62.378  1.00  0.00     0.000 HD 
ENDBRANCH  47  58
ENDBRANCH  44  45
ENDBRANCH  40  44
ENDBRANCH  29  30
ENDBRANCH  22  29
ENDBRANCH  18  19
ENDBRANCH   7  18
ENDBRANCH   2   5
TORSDOF 9
ENDMDL
MODEL       33
REMARK 921   NORMALIZED FREE ENERGY PREDICTED BY IDOCK:   -6.67 KCAL/MOL
REMARK 922        TOTAL FREE ENERGY PREDICTED BY IDOCK:  -13.00 KCAL/MOL
REMARK 923 INTER-LIGAND FREE ENERGY PREDICTED BY IDOCK:  -11.33 KCAL/MOL
REMARK 924 INTRA-LIGAND FREE ENERGY PREDICTED BY IDOCK:   -1.67 KCAL/MOL
REMARK 927      BINDING AFFINITY PREDICTED BY RF-SCORE:    0.00 PKD
ROOT
HETATM    1  N   UNL     1     -11.398   4.380  64.886  1.00  0.00    -1.085 NA 
HETATM    2  C   UNL     1     -10.085   3.748  65.046  1.00  0.00    -0.118 C  
HETATM    3  H1  UNL     1     -12.196   3.809  65.164  1.00  0.00     0.000 HD 
HETATM    4  H2  UNL     1     -11.517   4.701  63.926  1.00  0.00     0.000 HD 
ENDROOT
BRANCH   2   5
HETATM    5  C   UNL     1      -8.872   4.617  64.623  1.00  0.00    -0.153 C  
HETATM    6  O   UNL     1      -8.988   6.012  65.010  1.00  0.00     0.024 OA 
HETATM    7  C   UNL     1      -7.777   6.722  64.698  1.00  0.00    -0.112 C  
HETATM    8  C   UNL     1      -7.526   6.725  63.155  1.00  0.00    -0.083 C  
HETATM    9  O   UNL     1      -9.934   4.977  62.458  1.00  0.00    -0.346 OA 
HETATM   10  H   UNL     1      -9.847   4.910  61.514  1.00  0.00     0.000 HD 
HETATM   11  N   UNL     1      -8.563   7.554  62.458  1.00  0.00    -0.386 NA 
HETATM   12  C   UNL     1      -7.504   5.298  62.608  1.00  0.00    -0.048 C  
HETATM   13  H2  UNL     1      -8.611   8.500  62.836  1.00  0.00     0.000 HD 
HETATM   14  O   UNL     1      -6.293   4.610  62.949  1.00  0.00    -0.024 OA 
HETATM   15  C   UNL     1      -8.729   4.508  63.084  1.00  0.00    -0.123 C  
HETATM   16  H1  UNL     1      -8.400   7.556  61.451  1.00  0.00     0.000 HD 
HETATM   17  H   UNL     1      -6.279   3.723  62.609  1.00  0.00     0.000 HD 
BRANCH   7  18
HETATM   18  O   UNL     1      -7.831   8.108  64.989  1.00  0.00    -0.112 OA 
BRANCH  18  19
HETATM   19  C   UNL     1      -8.965   8.660  65.644  1.00  0.00    -0.182 C  
HETATM   20  O   UNL     1      -7.671   8.283  67.728  1.00  0.00    -0.100 OA 
HETATM   21  C   UNL     1      -8.960  10.100  65.115  1.00  0.00    -0.192 C  
HETATM   22  C   UNL     1      -8.926  10.358  67.401  1.00  0.00    -0.135 C  
HETATM   23  H   UNL     1      -7.620   8.388  68.671  1.00  0.00     0.000 HD 
HETATM   24  O   UNL     1      -8.466  10.933  66.177  1.00  0.00    -0.163 OA 
HETATM   25  C   UNL     1      -8.883   8.830  67.176  1.00  0.00    -0.127 C  
BRANCH  21  26
HETATM   26  C   UNL     1     -10.319  10.577  64.597  1.00  0.00    -0.220 C  
HETATM   27  H   UNL     1     -11.043  11.961  63.370  1.00  0.00     0.000 HD 
HETATM   28  O   UNL     1     -10.200  11.665  63.691  1.00  0.00    -0.330 OA 
ENDBRANCH  21  26
BRANCH  22  29
HETATM   29  O   UNL     1     -10.248  10.822  67.706  1.00  0.00    -0.172 OA 
BRANCH  29  30
HETATM   30  C   UNL     1     -10.469  11.403  69.037  1.00  0.00    -0.168 C  
HETATM   31  C   UNL     1     -10.882  10.306  70.052  1.00  0.00    -0.307 C  
HETATM   32  O   UNL     1      -9.691   9.772  70.671  1.00  0.00    -0.325 OA 
HETATM   33  C   UNL     1     -11.851  10.675  71.187  1.00  0.00    -0.241 C  
HETATM   34  C   UNL     1     -12.780  11.828  70.853  1.00  0.00    -0.328 C  
HETATM   35  N   UNL     1     -12.680   9.494  71.541  1.00  0.00    -0.348 NA 
HETATM   36  H   UNL     1      -9.945   9.100  71.293  1.00  0.00     0.000 HD 
HETATM   37  H1  UNL     1     -13.323   9.739  72.294  1.00  0.00     0.000 HD 
HETATM   38  H2  UNL     1     -12.111   8.680  71.772  1.00  0.00     0.000 HD 
HETATM   39  C   UNL     1     -11.972  13.027  70.359  1.00  0.00    -0.258 C  
HETATM   40  C   UNL     1     -11.327  12.698  68.988  1.00  0.00    -0.292 C  
HETATM   41  N   UNL     1     -12.874  14.196  70.268  1.00  0.00    -0.382 NA 
HETATM   42  H2  UNL     1     -13.359  14.385  71.145  1.00  0.00     0.000 HD 
HETATM   43  H1  UNL     1     -12.334  14.996  69.938  1.00  0.00     0.000 HD 
BRANCH  40  44
HETATM   44  O   UNL     1     -10.542  13.853  68.602  1.00  0.00    -0.248 OA 
BRANCH  44  45
HETATM   45  C   UNL     1      -9.711  13.674  67.451  1.00  0.00    -0.228 C  
HETATM   46  O   UNL     1     -10.454  13.813  66.237  1.00  0.00    -0.282 OA 
HETATM   47  C   UNL     1     -10.982  15.132  66.037  1.00  0.00    -0.332 C  
HETATM   48  C   UNL     1      -9.871  16.192  66.022  1.00  0.00    -0.347 C  
HETATM   49  H1  UNL     1      -6.936  15.215  68.779  1.00  0.00     0.000 HD 
HETATM   50  O   UNL     1     -10.388  17.522  65.874  1.00  0.00    -0.494 OA 
HETATM   51  H2  UNL     1      -7.393  13.603  68.881  1.00  0.00     0.000 HD 
HETATM   52  C   UNL     1      -9.052  16.106  67.319  1.00  0.00    -0.203 C  
HETATM   53  H   UNL     1      -9.700  18.177  65.865  1.00  0.00     0.000 HD 
HETATM   54  O   UNL     1      -7.951  17.030  67.258  1.00  0.00    -0.166 OA 
HETATM   55  C   UNL     1      -8.522  14.673  67.504  1.00  0.00    -0.188 C  
HETATM   56  N   UNL     1      -7.717  14.560  68.744  1.00  0.00    -0.136 NA 
HETATM   57  H   UNL     1      -7.445  16.976  68.060  1.00  0.00     0.000 HD 
BRANCH  47  58
HETATM   58  C   UNL     1     -11.836  15.123  64.748  1.00  0.00    -0.291 C  
HETATM   59  H1  UNL     1     -12.214  16.287  63.032  1.00  0.00     0.000 HD 
HETATM   60  N   UNL     1     -11.650  16.293  63.882  1.00  0.00    -1.573 NA 
HETATM   61  H2  UNL     1     -10.663  16.411  63.653  1.00  0.00     0.000 HD 
ENDBRANCH  47  58
ENDBRANCH  44  45
ENDBRANCH  40  44
ENDBRANCH  29  30
ENDBRANCH  22  29
ENDBRANCH  18  19
ENDBRANCH   7  18
ENDBRANCH   2   5
TORSDOF 9
ENDMDL
MODEL       34
REMARK 921   NORMALIZED FREE ENERGY PREDICTED BY IDOCK:   -6.59 KCAL/MOL
REMARK 922        TOTAL FREE ENERGY PREDICTED BY IDOCK:  -12.87 KCAL/MOL
REMARK 923 INTER-LIGAND FREE ENERGY PREDICTED BY IDOCK:  -10.54 KCAL/MOL
REMARK 924 INTRA-LIGAND FREE ENERGY PREDICTED BY IDOCK:   -2.33 KCAL/MOL
REMARK 927      BINDING AFFINITY PREDICTED BY RF-SCORE:    0.00 PKD
ROOT
HETATM    1  N   UNL     1      -9.182  17.299  66.070  1.00  0.00    -0.514 NA 
HETATM    2  C   UNL     1     -10.389  16.938  66.818  1.00  0.00    -0.298 C  
HETATM    3  H1  UNL     1      -8.797  18.220  66.277  1.00  0.00     0.000 HD 
HETATM    4  H2  UNL     1      -9.352  17.210  65.068  1.00  0.00     0.000 HD 
ENDROOT
BRANCH   2   5
HETATM    5  C   UNL     1     -10.975  15.537  66.501  1.00  0.00    -0.243 C  
HETATM    6  O   UNL     1      -9.988  14.473  66.519  1.00  0.00    -0.262 OA 
HETATM    7  C   UNL     1     -10.623  13.194  66.343  1.00  0.00    -0.286 C  
HETATM    8  C   UNL     1     -11.315  13.115  64.943  1.00  0.00    -0.309 C  
HETATM    9  O   UNL     1     -10.663  15.987  64.126  1.00  0.00    -0.740 OA 
HETATM   10  H   UNL     1     -11.073  16.033  63.269  1.00  0.00     0.000 HD 
HETATM   11  N   UNL     1     -10.285  13.105  63.851  1.00  0.00    -0.744 NA 
HETATM   12  C   UNL     1     -12.300  14.269  64.760  1.00  0.00    -0.426 C  
HETATM   13  H2  UNL     1      -9.601  12.359  63.980  1.00  0.00     0.000 HD 
HETATM   14  O   UNL     1     -13.499  14.079  65.523  1.00  0.00    -0.705 OA 
HETATM   15  C   UNL     1     -11.644  15.612  65.106  1.00  0.00     0.009 C  
HETATM   16  H1  UNL     1     -10.736  13.054  62.938  1.00  0.00     0.000 HD 
HETATM   17  H   UNL     1     -14.111  14.796  65.409  1.00  0.00     0.000 HD 
BRANCH   7  18
HETATM   18  O   UNL     1      -9.719  12.105  66.286  1.00  0.00    -0.228 OA 
BRANCH  18  19
HETATM   19  C   UNL     1     -10.113  10.820  66.749  1.00  0.00    -0.222 C  
HETATM   20  O   UNL     1      -9.649  10.084  64.425  1.00  0.00    -0.296 OA 
HETATM   21  C   UNL     1      -9.015  10.506  67.772  1.00  0.00    -0.132 C  
HETATM   22  C   UNL     1      -8.940   8.718  66.327  1.00  0.00    -0.173 C  
HETATM   23  H   UNL     1      -9.595   9.364  63.806  1.00  0.00     0.000 HD 
HETATM   24  O   UNL     1      -8.133   9.552  67.158  1.00  0.00    -0.105 OA 
HETATM   25  C   UNL     1     -10.026   9.651  65.745  1.00  0.00    -0.272 C  
BRANCH  21  26
HETATM   26  C   UNL     1      -9.545  10.013  69.121  1.00  0.00    -0.210 C  
HETATM   27  H   UNL     1      -8.831   9.480  70.897  1.00  0.00     0.000 HD 
HETATM   28  O   UNL     1      -8.502   9.786  70.060  1.00  0.00    -0.190 OA 
ENDBRANCH  21  26
BRANCH  22  29
HETATM   29  O   UNL     1      -9.504   7.644  67.091  1.00  0.00    -0.141 OA 
BRANCH  29  30
HETATM   30  C   UNL     1      -8.673   6.452  67.296  1.00  0.00    -0.106 C  
HETATM   31  C   UNL     1      -7.590   6.341  66.191  1.00  0.00    -0.090 C  
HETATM   32  O   UNL     1      -6.403   7.036  66.631  1.00  0.00    -0.046 OA 
HETATM   33  C   UNL     1      -7.147   4.944  65.726  1.00  0.00    -0.067 C  
HETATM   34  C   UNL     1      -8.208   3.873  65.898  1.00  0.00    -0.105 C  
HETATM   35  N   UNL     1      -6.760   4.993  64.292  1.00  0.00    -0.046 NA 
HETATM   36  H   UNL     1      -5.740   6.968  65.954  1.00  0.00     0.000 HD 
HETATM   37  H1  UNL     1      -6.466   4.067  63.984  1.00  0.00     0.000 HD 
HETATM   38  H2  UNL     1      -6.050   5.702  64.110  1.00  0.00     0.000 HD 
HETATM   39  C   UNL     1      -8.728   3.875  67.335  1.00  0.00    -0.107 C  
HETATM   40  C   UNL     1      -9.514   5.183  67.608  1.00  0.00    -0.127 C  
HETATM   41  N   UNL     1      -9.578   2.680  67.529  1.00  0.00    -0.387 NA 
HETATM   42  H2  UNL     1      -9.097   1.814  67.288  1.00  0.00     0.000 HD 
HETATM   43  H1  UNL     1      -9.925   2.681  68.488  1.00  0.00     0.000 HD 
BRANCH  40  44
HETATM   44  O   UNL     1      -9.936   5.141  68.994  1.00  0.00    -0.171 OA 
BRANCH  44  45
HETATM   45  C   UNL     1      -9.456   6.209  69.815  1.00  0.00    -0.150 C  
HETATM   46  O   UNL     1     -10.522   7.049  70.266  1.00  0.00    -0.201 OA 
HETATM   47  C   UNL     1     -11.449   6.382  71.135  1.00  0.00    -0.323 C  
HETATM   48  C   UNL     1     -10.751   5.814  72.379  1.00  0.00    -0.235 C  
HETATM   49  H1  UNL     1      -6.998   4.373  71.374  1.00  0.00     0.000 HD 
HETATM   50  O   UNL     1     -11.656   5.099  73.232  1.00  0.00    -0.484 OA 
HETATM   51  H2  UNL     1      -6.912   5.242  69.940  1.00  0.00     0.000 HD 
HETATM   52  C   UNL     1      -9.608   4.880  71.955  1.00  0.00    -0.154 C  
HETATM   53  H   UNL     1     -11.224   4.748  74.003  1.00  0.00     0.000 HD 
HETATM   54  O   UNL     1      -8.893   4.430  73.119  1.00  0.00    -0.106 OA 
HETATM   55  C   UNL     1      -8.649   5.628  71.010  1.00  0.00    -0.127 C  
HETATM   56  N   UNL     1      -7.528   4.754  70.590  1.00  0.00    -0.056 NA 
HETATM   57  H   UNL     1      -8.186   3.852  72.856  1.00  0.00     0.000 HD 
BRANCH  47  58
HETATM   58  C   UNL     1     -12.593   7.365  71.470  1.00  0.00    -0.367 C  
HETATM   59  H1  UNL     1     -13.229   8.671  72.999  1.00  0.00     0.000 HD 
HETATM   60  N   UNL     1     -12.472   8.022  72.777  1.00  0.00    -0.597 NA 
HETATM   61  H2  UNL     1     -11.569   8.490  72.856  1.00  0.00     0.000 HD 
ENDBRANCH  47  58
ENDBRANCH  44  45
ENDBRANCH  40  44
ENDBRANCH  29  30
ENDBRANCH  22  29
ENDBRANCH  18  19
ENDBRANCH   7  18
ENDBRANCH   2   5
TORSDOF 9
ENDMDL
MODEL       35
REMARK 921   NORMALIZED FREE ENERGY PREDICTED BY IDOCK:   -6.57 KCAL/MOL
REMARK 922        TOTAL FREE ENERGY PREDICTED BY IDOCK:  -12.84 KCAL/MOL
REMARK 923 INTER-LIGAND FREE ENERGY PREDICTED BY IDOCK:  -11.01 KCAL/MOL
REMARK 924 INTRA-LIGAND FREE ENERGY PREDICTED BY IDOCK:   -1.83 KCAL/MOL
REMARK 927      BINDING AFFINITY PREDICTED BY RF-SCORE:    0.00 PKD
ROOT
HETATM    1  N   UNL     1     -11.370   6.260  67.550  1.00  0.00    -0.637 NA 
HETATM    2  C   UNL     1     -10.707   6.507  68.834  1.00  0.00    -0.273 C  
HETATM    3  H1  UNL     1     -12.357   6.014  67.606  1.00  0.00     0.000 HD 
HETATM    4  H2  UNL     1     -10.862   5.547  67.026  1.00  0.00     0.000 HD 
ENDROOT
BRANCH   2   5
HETATM    5  C   UNL     1      -9.204   6.881  68.747  1.00  0.00    -0.131 C  
HETATM    6  O   UNL     1      -8.836   7.541  67.508  1.00  0.00    -0.127 OA 
HETATM    7  C   UNL     1      -7.463   7.968  67.555  1.00  0.00    -0.097 C  
HETATM    8  C   UNL     1      -6.511   6.734  67.683  1.00  0.00    -0.049 C  
HETATM    9  O   UNL     1      -8.742   4.654  67.870  1.00  0.00    -0.102 OA 
HETATM   10  H   UNL     1      -8.239   3.853  67.971  1.00  0.00     0.000 HD 
HETATM   11  N   UNL     1      -6.542   5.916  66.425  1.00  0.00    -0.050 NA 
HETATM   12  C   UNL     1      -6.884   5.887  68.899  1.00  0.00    -0.066 C  
HETATM   13  H2  UNL     1      -6.327   6.478  65.601  1.00  0.00     0.000 HD 
HETATM   14  O   UNL     1      -6.483   6.506  70.129  1.00  0.00    -0.038 OA 
HETATM   15  C   UNL     1      -8.386   5.576  68.912  1.00  0.00    -0.102 C  
HETATM   16  H1  UNL     1      -5.921   5.112  66.509  1.00  0.00     0.000 HD 
HETATM   17  H   UNL     1      -6.715   5.980  70.885  1.00  0.00     0.000 HD 
BRANCH   7  18
HETATM   18  O   UNL     1      -7.006   8.568  66.356  1.00  0.00    -0.075 OA 
BRANCH  18  19
HETATM   19  C   UNL     1      -7.264   9.941  66.096  1.00  0.00    -0.104 C  
HETATM   20  O   UNL     1      -9.374   9.127  65.076  1.00  0.00    -0.424 OA 
HETATM   21  C   UNL     1      -7.392  10.508  67.515  1.00  0.00    -0.092 C  
HETATM   22  C   UNL     1      -9.369  11.113  66.506  1.00  0.00    -0.180 C  
HETATM   23  H   UNL     1     -10.205   9.344  64.670  1.00  0.00     0.000 HD 
HETATM   24  O   UNL     1      -8.793  10.724  67.753  1.00  0.00    -0.129 OA 
HETATM   25  C   UNL     1      -8.613  10.295  65.435  1.00  0.00    -0.159 C  
BRANCH  21  26
HETATM   26  C   UNL     1      -6.568  11.776  67.756  1.00  0.00    -0.075 C  
HETATM   27  H   UNL     1      -5.282  12.926  66.769  1.00  0.00     0.000 HD 
HETATM   28  O   UNL     1      -5.794  12.139  66.620  1.00  0.00    -0.261 OA 
ENDBRANCH  21  26
BRANCH  22  29
HETATM   29  O   UNL     1      -9.227  12.525  66.307  1.00  0.00    -0.215 OA 
BRANCH  29  30
HETATM   30  C   UNL     1     -10.457  13.320  66.202  1.00  0.00    -0.293 C  
HETATM   31  C   UNL     1     -11.668  12.413  65.862  1.00  0.00    -0.419 C  
HETATM   32  O   UNL     1     -12.270  11.959  67.095  1.00  0.00    -0.501 OA 
HETATM   33  C   UNL     1     -12.801  12.986  64.994  1.00  0.00    -0.295 C  
HETATM   34  C   UNL     1     -12.357  14.091  64.054  1.00  0.00    -0.341 C  
HETATM   35  N   UNL     1     -13.409  11.899  64.185  1.00  0.00    -0.515 NA 
HETATM   36  H   UNL     1     -13.012  11.403  66.886  1.00  0.00     0.000 HD 
HETATM   37  H1  UNL     1     -14.161  12.279  63.609  1.00  0.00     0.000 HD 
HETATM   38  H2  UNL     1     -13.725  11.120  64.762  1.00  0.00     0.000 HD 
HETATM   39  C   UNL     1     -11.610  15.174  64.831  1.00  0.00    -0.336 C  
HETATM   40  C   UNL     1     -10.265  14.610  65.357  1.00  0.00    -0.387 C  
HETATM   41  N   UNL     1     -11.400  16.334  63.938  1.00  0.00    -1.442 NA 
HETATM   42  H2  UNL     1     -12.270  16.675  63.529  1.00  0.00     0.000 HD 
HETATM   43  H1  UNL     1     -10.901  17.056  64.457  1.00  0.00     0.000 HD 
BRANCH  40  44
HETATM   44  O   UNL     1      -9.632  15.667  66.120  1.00  0.00    -0.276 OA 
BRANCH  44  45
HETATM   45  C   UNL     1      -9.273  15.327  67.462  1.00  0.00    -0.199 C  
HETATM   46  O   UNL     1      -7.873  15.503  67.695  1.00  0.00    -0.133 OA 
HETATM   47  C   UNL     1      -7.444  16.868  67.596  1.00  0.00    -0.160 C  
HETATM   48  C   UNL     1      -8.194  17.771  68.587  1.00  0.00    -0.271 C  
HETATM   49  H1  UNL     1     -12.141  16.553  68.915  1.00  0.00     0.000 HD 
HETATM   50  O   UNL     1      -7.813  19.149  68.464  1.00  0.00    -0.317 OA 
HETATM   51  H2  UNL     1     -11.850  15.021  68.293  1.00  0.00     0.000 HD 
HETATM   52  C   UNL     1      -9.709  17.642  68.365  1.00  0.00    -0.321 C  
HETATM   53  H   UNL     1      -8.277  19.707  69.077  1.00  0.00     0.000 HD 
HETATM   54  O   UNL     1     -10.410  18.409  69.359  1.00  0.00    -0.418 OA 
HETATM   55  C   UNL     1     -10.123  16.162  68.460  1.00  0.00    -0.241 C  
HETATM   56  N   UNL     1     -11.583  16.005  68.260  1.00  0.00    -0.298 NA 
HETATM   57  H   UNL     1     -11.347  18.329  69.222  1.00  0.00     0.000 HD 
BRANCH  47  58
HETATM   58  C   UNL     1      -5.909  16.909  67.774  1.00  0.00    -0.133 C  
HETATM   59  H1  UNL     1      -4.182  15.791  67.315  1.00  0.00     0.000 HD 
HETATM   60  N   UNL     1      -5.195  15.764  67.197  1.00  0.00    -0.326 NA 
HETATM   61  H2  UNL     1      -5.435  15.657  66.211  1.00  0.00     0.000 HD 
ENDBRANCH  47  58
ENDBRANCH  44  45
ENDBRANCH  40  44
ENDBRANCH  29  30
ENDBRANCH  22  29
ENDBRANCH  18  19
ENDBRANCH   7  18
ENDBRANCH   2   5
TORSDOF 9
ENDMDL
MODEL       36
REMARK 921   NORMALIZED FREE ENERGY PREDICTED BY IDOCK:   -6.56 KCAL/MOL
REMARK 922        TOTAL FREE ENERGY PREDICTED BY IDOCK:  -12.82 KCAL/MOL
REMARK 923 INTER-LIGAND FREE ENERGY PREDICTED BY IDOCK:  -10.68 KCAL/MOL
REMARK 924 INTRA-LIGAND FREE ENERGY PREDICTED BY IDOCK:   -2.15 KCAL/MOL
REMARK 927      BINDING AFFINITY PREDICTED BY RF-SCORE:    0.00 PKD
ROOT
HETATM    1  N   UNL     1     -11.314  16.332  64.182  1.00  0.00    -1.352 NA 
HETATM    2  C   UNL     1     -11.139  15.068  64.903  1.00  0.00    -0.415 C  
HETATM    3  H1  UNL     1     -12.161  16.401  63.618  1.00  0.00     0.000 HD 
HETATM    4  H2  UNL     1     -10.495  16.522  63.606  1.00  0.00     0.000 HD 
ENDROOT
BRANCH   2   5
HETATM    5  C   UNL     1      -9.850  14.963  65.761  1.00  0.00    -0.348 C  
HETATM    6  O   UNL     1      -9.922  13.956  66.803  1.00  0.00    -0.256 OA 
HETATM    7  C   UNL     1      -8.653  13.831  67.469  1.00  0.00    -0.193 C  
HETATM    8  C   UNL     1      -8.279  15.167  68.189  1.00  0.00    -0.145 C  
HETATM    9  O   UNL     1     -10.713  16.729  67.202  1.00  0.00    -0.287 OA 
HETATM   10  H   UNL     1     -10.554  17.583  67.589  1.00  0.00     0.000 HD 
HETATM   11  N   UNL     1      -9.211  15.422  69.337  1.00  0.00    -0.281 NA 
HETATM   12  C   UNL     1      -8.290  16.334  67.203  1.00  0.00    -0.191 C  
HETATM   13  H2  UNL     1      -9.239  14.636  69.986  1.00  0.00     0.000 HD 
HETATM   14  O   UNL     1      -7.149  16.315  66.334  1.00  0.00    -0.148 OA 
HETATM   15  C   UNL     1      -9.590  16.355  66.390  1.00  0.00    -0.288 C  
HETATM   16  H1  UNL     1      -8.968  16.294  69.806  1.00  0.00     0.000 HD 
HETATM   17  H   UNL     1      -7.155  17.040  65.721  1.00  0.00     0.000 HD 
BRANCH   7  18
HETATM   18  O   UNL     1      -8.657  12.909  68.545  1.00  0.00    -0.139 OA 
BRANCH  18  19
HETATM   19  C   UNL     1      -8.986  11.545  68.321  1.00  0.00    -0.177 C  
HETATM   20  O   UNL     1      -7.418  11.087  70.189  1.00  0.00    -0.406 OA 
HETATM   21  C   UNL     1     -10.475  11.519  68.688  1.00  0.00    -0.202 C  
HETATM   22  C   UNL     1      -9.552   9.901  70.039  1.00  0.00    -0.214 C  
HETATM   23  H   UNL     1      -7.030  10.445  70.772  1.00  0.00     0.000 HD 
HETATM   24  O   UNL     1     -10.576  10.895  69.979  1.00  0.00    -0.117 OA 
HETATM   25  C   UNL     1      -8.355  10.501  69.267  1.00  0.00    -0.137 C  
BRANCH  21  26
HETATM   26  C   UNL     1     -11.360  10.829  67.647  1.00  0.00    -0.252 C  
HETATM   27  H   UNL     1     -12.702  11.327  66.268  1.00  0.00     0.000 HD 
HETATM   28  O   UNL     1     -12.153  11.754  66.914  1.00  0.00    -0.566 OA 
ENDBRANCH  21  26
BRANCH  22  29
HETATM   29  O   UNL     1     -10.011   8.674  69.455  1.00  0.00    -0.187 OA 
BRANCH  29  30
HETATM   30  C   UNL     1     -10.042   7.486  70.317  1.00  0.00    -0.194 C  
HETATM   31  C   UNL     1     -10.179   7.893  71.807  1.00  0.00    -0.196 C  
HETATM   32  O   UNL     1     -11.582   7.964  72.143  1.00  0.00    -0.288 OA 
HETATM   33  C   UNL     1      -9.504   7.020  72.878  1.00  0.00    -0.146 C  
HETATM   34  C   UNL     1      -8.288   6.263  72.377  1.00  0.00    -0.111 C  
HETATM   35  N   UNL     1      -9.088   7.867  74.025  1.00  0.00    -0.387 NA 
HETATM   36  H   UNL     1     -11.666   8.213  73.056  1.00  0.00     0.000 HD 
HETATM   37  H1  UNL     1      -8.641   7.288  74.735  1.00  0.00     0.000 HD 
HETATM   38  H2  UNL     1      -9.865   8.408  74.405  1.00  0.00     0.000 HD 
HETATM   39  C   UNL     1      -8.641   5.475  71.116  1.00  0.00    -0.127 C  
HETATM   40  C   UNL     1      -8.939   6.454  69.951  1.00  0.00    -0.142 C  
HETATM   41  N   UNL     1      -7.514   4.574  70.793  1.00  0.00    -0.051 NA 
HETATM   42  H2  UNL     1      -7.260   3.969  71.574  1.00  0.00     0.000 HD 
HETATM   43  H1  UNL     1      -7.750   4.049  69.952  1.00  0.00     0.000 HD 
BRANCH  40  44
HETATM   44  O   UNL     1      -9.311   5.648  68.806  1.00  0.00    -0.119 OA 
BRANCH  44  45
HETATM   45  C   UNL     1      -8.759   6.065  67.555  1.00  0.00    -0.107 C  
HETATM   46  O   UNL     1      -7.677   5.224  67.148  1.00  0.00    -0.094 OA 
HETATM   47  C   UNL     1      -8.074   3.872  66.875  1.00  0.00    -0.096 C  
HETATM   48  C   UNL     1      -9.148   3.807  65.779  1.00  0.00    -0.149 C  
HETATM   49  H1  UNL     1     -11.754   7.008  66.147  1.00  0.00     0.000 HD 
HETATM   50  O   UNL     1      -9.593   2.466  65.532  1.00  0.00    -0.356 OA 
HETATM   51  H2  UNL     1     -10.699   7.919  67.083  1.00  0.00     0.000 HD 
HETATM   52  C   UNL     1     -10.351   4.677  66.175  1.00  0.00    -0.275 C  
HETATM   53  H   UNL     1     -10.257   2.426  64.853  1.00  0.00     0.000 HD 
HETATM   54  O   UNL     1     -11.309   4.694  65.103  1.00  0.00    -0.988 OA 
HETATM   55  C   UNL     1      -9.878   6.110  66.477  1.00  0.00    -0.133 C  
HETATM   56  N   UNL     1     -11.019   6.978  66.854  1.00  0.00    -0.324 NA 
HETATM   57  H   UNL     1     -12.052   5.232  65.348  1.00  0.00     0.000 HD 
BRANCH  47  58
HETATM   58  C   UNL     1      -6.808   3.052  66.540  1.00  0.00    -0.052 C  
HETATM   59  H1  UNL     1      -6.072   1.078  66.620  1.00  0.00     0.000 HD 
HETATM   60  N   UNL     1      -6.909   1.619  66.841  1.00  0.00    -0.037 NA 
HETATM   61  H2  UNL     1      -7.724   1.217  66.379  1.00  0.00     0.000 HD 
ENDBRANCH  47  58
ENDBRANCH  44  45
ENDBRANCH  40  44
ENDBRANCH  29  30
ENDBRANCH  22  29
ENDBRANCH  18  19
ENDBRANCH   7  18
ENDBRANCH   2   5
TORSDOF 9
ENDMDL
MODEL       37
REMARK 921   NORMALIZED FREE ENERGY PREDICTED BY IDOCK:   -6.54 KCAL/MOL
REMARK 922        TOTAL FREE ENERGY PREDICTED BY IDOCK:  -12.79 KCAL/MOL
REMARK 923 INTER-LIGAND FREE ENERGY PREDICTED BY IDOCK:  -10.85 KCAL/MOL
REMARK 924 INTRA-LIGAND FREE ENERGY PREDICTED BY IDOCK:   -1.95 KCAL/MOL
REMARK 927      BINDING AFFINITY PREDICTED BY RF-SCORE:    0.00 PKD
ROOT
HETATM    1  N   UNL     1     -10.438  16.463  66.969  1.00  0.00    -0.301 NA 
HETATM    2  C   UNL     1     -11.596  15.612  67.256  1.00  0.00     0.065 C  
HETATM    3  H1  UNL     1     -10.422  17.360  67.454  1.00  0.00     0.000 HD 
HETATM    4  H2  UNL     1     -10.353  16.610  65.963  1.00  0.00     0.000 HD 
ENDROOT
BRANCH   2   5
HETATM    5  C   UNL     1     -11.620  14.248  66.516  1.00  0.00    -0.378 C  
HETATM    6  O   UNL     1     -10.340  13.564  66.509  1.00  0.00    -0.272 OA 
HETATM    7  C   UNL     1     -10.471  12.258  65.920  1.00  0.00    -0.256 C  
HETATM    8  C   UNL     1     -10.904  12.375  64.422  1.00  0.00    -0.337 C  
HETATM    9  O   UNL     1     -11.173  15.419  64.425  1.00  0.00    -0.676 OA 
HETATM   10  H   UNL     1     -11.458  15.580  63.533  1.00  0.00     0.000 HD 
HETATM   11  N   UNL     1      -9.800  12.978  63.604  1.00  0.00    -0.592 NA 
HETATM   12  C   UNL     1     -12.191  13.188  64.292  1.00  0.00    -0.396 C  
HETATM   13  H2  UNL     1      -8.925  12.463  63.708  1.00  0.00     0.000 HD 
HETATM   14  O   UNL     1     -13.342  12.445  64.717  1.00  0.00    -0.718 OA 
HETATM   15  C   UNL     1     -12.085  14.511  65.062  1.00  0.00    -0.389 C  
HETATM   16  H1  UNL     1     -10.082  13.054  62.627  1.00  0.00     0.000 HD 
HETATM   17  H   UNL     1     -14.142  12.951  64.636  1.00  0.00     0.000 HD 
BRANCH   7  18
HETATM   18  O   UNL     1      -9.250  11.547  65.818  1.00  0.00    -0.223 OA 
BRANCH  18  19
HETATM   19  C   UNL     1      -9.007  10.417  66.644  1.00  0.00    -0.141 C  
HETATM   20  O   UNL     1      -9.444   9.096  64.589  1.00  0.00    -0.418 OA 
HETATM   21  C   UNL     1      -7.528  10.606  67.005  1.00  0.00    -0.106 C  
HETATM   22  C   UNL     1      -7.598   8.500  66.080  1.00  0.00    -0.089 C  
HETATM   23  H   UNL     1      -9.468   8.242  64.174  1.00  0.00     0.000 HD 
HETATM   24  O   UNL     1      -6.782   9.664  66.216  1.00  0.00    -0.073 OA 
HETATM   25  C   UNL     1      -9.047   9.029  65.971  1.00  0.00    -0.208 C  
BRANCH  21  26
HETATM   26  C   UNL     1      -7.230  10.466  68.500  1.00  0.00    -0.084 C  
HETATM   27  H   UNL     1      -6.811  11.635  70.051  1.00  0.00     0.000 HD 
HETATM   28  O   UNL     1      -6.996  11.721  69.124  1.00  0.00    -0.104 OA 
ENDBRANCH  21  26
BRANCH  22  29
HETATM   29  O   UNL     1      -7.424   7.633  67.208  1.00  0.00    -0.095 OA 
BRANCH  29  30
HETATM   30  C   UNL     1      -7.903   6.251  67.078  1.00  0.00    -0.104 C  
HETATM   31  C   UNL     1      -6.963   5.429  66.159  1.00  0.00    -0.063 C  
HETATM   32  O   UNL     1      -5.937   4.816  66.971  1.00  0.00    -0.025 OA 
HETATM   33  C   UNL     1      -7.568   4.317  65.285  1.00  0.00    -0.085 C  
HETATM   34  C   UNL     1      -9.023   4.545  64.921  1.00  0.00    -0.151 C  
HETATM   35  N   UNL     1      -6.785   4.187  64.029  1.00  0.00    -0.043 NA 
HETATM   36  H   UNL     1      -5.362   4.312  66.408  1.00  0.00     0.000 HD 
HETATM   37  H1  UNL     1      -7.187   3.449  63.450  1.00  0.00     0.000 HD 
HETATM   38  H2  UNL     1      -5.793   4.036  64.209  1.00  0.00     0.000 HD 
HETATM   39  C   UNL     1      -9.845   4.813  66.181  1.00  0.00    -0.219 C  
HETATM   40  C   UNL     1      -9.430   6.172  66.800  1.00  0.00    -0.146 C  
HETATM   41  N   UNL     1     -11.279   4.796  65.819  1.00  0.00    -0.851 NA 
HETATM   42  H2  UNL     1     -11.554   3.934  65.348  1.00  0.00     0.000 HD 
HETATM   43  H1  UNL     1     -11.827   4.975  66.660  1.00  0.00     0.000 HD 
BRANCH  40  44
HETATM   44  O   UNL     1     -10.210   6.341  68.010  1.00  0.00    -0.143 OA 
BRANCH  44  45
HETATM   45  C   UNL     1      -9.489   6.838  69.141  1.00  0.00    -0.141 C  
HETATM   46  O   UNL     1      -9.651   8.251  69.291  1.00  0.00    -0.162 OA 
HETATM   47  C   UNL     1     -10.998   8.645  69.585  1.00  0.00    -0.091 C  
HETATM   48  C   UNL     1     -11.516   7.982  70.870  1.00  0.00    -0.276 C  
HETATM   49  H1  UNL     1     -10.072   4.109  71.154  1.00  0.00     0.000 HD 
HETATM   50  O   UNL     1     -12.880   8.326  71.149  1.00  0.00    -0.479 OA 
HETATM   51  H2  UNL     1      -8.822   4.362  70.062  1.00  0.00     0.000 HD 
HETATM   52  C   UNL     1     -11.390   6.455  70.755  1.00  0.00    -0.350 C  
HETATM   53  H   UNL     1     -13.201   7.916  71.944  1.00  0.00     0.000 HD 
HETATM   54  O   UNL     1     -11.780   5.843  71.997  1.00  0.00    -0.279 OA 
HETATM   55  C   UNL     1      -9.936   6.078  70.421  1.00  0.00    -0.184 C  
HETATM   56  N   UNL     1      -9.780   4.607  70.314  1.00  0.00    -0.206 NA 
HETATM   57  H   UNL     1     -11.702   4.899  71.926  1.00  0.00     0.000 HD 
BRANCH  47  58
HETATM   58  C   UNL     1     -11.054  10.189  69.628  1.00  0.00    -0.263 C  
HETATM   59  H1  UNL     1     -12.213  11.802  68.921  1.00  0.00     0.000 HD 
HETATM   60  N   UNL     1     -12.177  10.782  68.892  1.00  0.00    -0.795 NA 
HETATM   61  H2  UNL     1     -13.060  10.387  69.215  1.00  0.00     0.000 HD 
ENDBRANCH  47  58
ENDBRANCH  44  45
ENDBRANCH  40  44
ENDBRANCH  29  30
ENDBRANCH  22  29
ENDBRANCH  18  19
ENDBRANCH   7  18
ENDBRANCH   2   5
TORSDOF 9
ENDMDL
MODEL       38
REMARK 921   NORMALIZED FREE ENERGY PREDICTED BY IDOCK:   -6.53 KCAL/MOL
REMARK 922        TOTAL FREE ENERGY PREDICTED BY IDOCK:  -12.78 KCAL/MOL
REMARK 923 INTER-LIGAND FREE ENERGY PREDICTED BY IDOCK:  -11.08 KCAL/MOL
REMARK 924 INTRA-LIGAND FREE ENERGY PREDICTED BY IDOCK:   -1.70 KCAL/MOL
REMARK 927      BINDING AFFINITY PREDICTED BY RF-SCORE:    0.00 PKD
ROOT
HETATM    1  N   UNL     1      -9.588   2.796  71.193  1.00  0.00    -0.155 NA 
HETATM    2  C   UNL     1      -9.175   4.089  70.642  1.00  0.00    -0.126 C  
HETATM    3  H1  UNL     1      -9.049   1.991  70.873  1.00  0.00     0.000 HD 
HETATM    4  H2  UNL     1     -10.580   2.642  71.018  1.00  0.00     0.000 HD 
ENDROOT
BRANCH   2   5
HETATM    5  C   UNL     1      -9.995   5.313  71.128  1.00  0.00    -0.201 C  
HETATM    6  O   UNL     1      -9.282   6.573  71.027  1.00  0.00    -0.159 OA 
HETATM    7  C   UNL     1     -10.145   7.670  71.373  1.00  0.00    -0.182 C  
HETATM    8  C   UNL     1     -10.603   7.555  72.864  1.00  0.00    -0.337 C  
HETATM    9  O   UNL     1      -9.215   4.885  73.397  1.00  0.00    -0.123 OA 
HETATM   10  H   UNL     1      -9.462   4.726  74.301  1.00  0.00     0.000 HD 
HETATM   11  N   UNL     1      -9.439   7.769  73.786  1.00  0.00    -0.343 NA 
HETATM   12  C   UNL     1     -11.268   6.204  73.123  1.00  0.00    -0.114 C  
HETATM   13  H2  UNL     1      -8.965   8.654  73.602  1.00  0.00     0.000 HD 
HETATM   14  O   UNL     1     -12.586   6.137  72.562  1.00  0.00    -0.548 OA 
HETATM   15  C   UNL     1     -10.398   5.054  72.601  1.00  0.00    -0.199 C  
HETATM   16  H1  UNL     1      -9.738   7.694  74.759  1.00  0.00     0.000 HD 
HETATM   17  H   UNL     1     -13.000   5.297  72.723  1.00  0.00     0.000 HD 
BRANCH   7  18
HETATM   18  O   UNL     1      -9.505   8.933  71.359  1.00  0.00    -0.235 OA 
BRANCH  18  19
HETATM   19  C   UNL     1      -9.502   9.724  70.178  1.00  0.00    -0.229 C  
HETATM   20  O   UNL     1      -7.561   8.328  69.513  1.00  0.00    -0.090 OA 
HETATM   21  C   UNL     1     -10.842   9.338  69.540  1.00  0.00    -0.195 C  
HETATM   22  C   UNL     1      -9.303   8.890  67.889  1.00  0.00    -0.141 C  
HETATM   23  H   UNL     1      -6.921   8.110  68.845  1.00  0.00     0.000 HD 
HETATM   24  O   UNL     1     -10.544   8.455  68.446  1.00  0.00    -0.190 OA 
HETATM   25  C   UNL     1      -8.462   9.370  69.094  1.00  0.00    -0.134 C  
BRANCH  21  26
HETATM   26  C   UNL     1     -11.688  10.534  69.097  1.00  0.00    -0.189 C  
HETATM   27  H   UNL     1     -12.986  11.815  69.888  1.00  0.00     0.000 HD 
HETATM   28  O   UNL     1     -12.461  11.072  70.162  1.00  0.00    -0.306 OA 
ENDBRANCH  21  26
BRANCH  22  29
HETATM   29  O   UNL     1      -9.522   9.935  66.933  1.00  0.00    -0.154 OA 
BRANCH  29  30
HETATM   30  C   UNL     1      -9.415   9.584  65.512  1.00  0.00    -0.268 C  
HETATM   31  C   UNL     1      -8.541   8.317  65.325  1.00  0.00    -0.132 C  
HETATM   32  O   UNL     1      -9.393   7.151  65.373  1.00  0.00    -0.276 OA 
HETATM   33  C   UNL     1      -7.680   8.191  64.057  1.00  0.00    -0.137 C  
HETATM   34  C   UNL     1      -7.274   9.524  63.455  1.00  0.00    -0.107 C  
HETATM   35  N   UNL     1      -6.447   7.421  64.362  1.00  0.00    -0.040 NA 
HETATM   36  H   UNL     1      -8.857   6.375  65.258  1.00  0.00     0.000 HD 
HETATM   37  H1  UNL     1      -5.877   7.337  63.521  1.00  0.00     0.000 HD 
HETATM   38  H2  UNL     1      -6.655   6.512  64.776  1.00  0.00     0.000 HD 
HETATM   39  C   UNL     1      -8.506  10.403  63.243  1.00  0.00    -0.177 C  
HETATM   40  C   UNL     1      -9.101  10.813  64.614  1.00  0.00    -0.201 C  
HETATM   41  N   UNL     1      -8.109  11.585  62.447  1.00  0.00    -0.639 NA 
HETATM   42  H2  UNL     1      -7.653  11.332  61.571  1.00  0.00     0.000 HD 
HETATM   43  H1  UNL     1      -8.932  12.171  62.306  1.00  0.00     0.000 HD 
BRANCH  40  44
HETATM   44  O   UNL     1     -10.287  11.601  64.342  1.00  0.00    -0.271 OA 
BRANCH  44  45
HETATM   45  C   UNL     1     -10.995  12.064  65.495  1.00  0.00    -0.298 C  
HETATM   46  O   UNL     1     -10.166  12.871  66.335  1.00  0.00    -0.256 OA 
HETATM   47  C   UNL     1      -9.745  14.096  65.718  1.00  0.00    -0.217 C  
HETATM   48  C   UNL     1     -10.943  14.955  65.288  1.00  0.00    -0.380 C  
HETATM   49  H1  UNL     1     -14.003  12.535  63.892  1.00  0.00     0.000 HD 
HETATM   50  O   UNL     1     -10.539  16.159  64.622  1.00  0.00    -0.745 OA 
HETATM   51  H2  UNL     1     -13.412  11.149  64.631  1.00  0.00     0.000 HD 
HETATM   52  C   UNL     1     -11.859  14.145  64.359  1.00  0.00    -0.428 C  
HETATM   53  H   UNL     1     -11.280  16.691  64.356  1.00  0.00     0.000 HD 
HETATM   54  O   UNL     1     -13.030  14.916  64.040  1.00  0.00    -0.558 OA 
HETATM   55  C   UNL     1     -12.271  12.832  65.051  1.00  0.00    -0.473 C  
HETATM   56  N   UNL     1     -13.166  12.031  64.182  1.00  0.00    -0.682 NA 
HETATM   57  H   UNL     1     -13.597  14.415  63.466  1.00  0.00     0.000 HD 
BRANCH  47  58
HETATM   58  C   UNL     1      -8.787  14.824  66.687  1.00  0.00    -0.229 C  
HETATM   59  H1  UNL     1      -8.785  16.345  68.147  1.00  0.00     0.000 HD 
HETATM   60  N   UNL     1      -9.418  15.864  67.507  1.00  0.00    -0.218 NA 
HETATM   61  H2  UNL     1     -10.213  15.478  68.018  1.00  0.00     0.000 HD 
ENDBRANCH  47  58
ENDBRANCH  44  45
ENDBRANCH  40  44
ENDBRANCH  29  30
ENDBRANCH  22  29
ENDBRANCH  18  19
ENDBRANCH   7  18
ENDBRANCH   2   5
TORSDOF 9
ENDMDL
MODEL       39
REMARK 921   NORMALIZED FREE ENERGY PREDICTED BY IDOCK:   -6.51 KCAL/MOL
REMARK 922        TOTAL FREE ENERGY PREDICTED BY IDOCK:  -12.75 KCAL/MOL
REMARK 923 INTER-LIGAND FREE ENERGY PREDICTED BY IDOCK:  -11.09 KCAL/MOL
REMARK 924 INTRA-LIGAND FREE ENERGY PREDICTED BY IDOCK:   -1.66 KCAL/MOL
REMARK 927      BINDING AFFINITY PREDICTED BY RF-SCORE:    0.00 PKD
ROOT
HETATM    1  N   UNL     1     -13.953   9.009  70.845  1.00  0.00    -0.534 NA 
HETATM    2  C   UNL     1     -13.007   9.347  71.912  1.00  0.00    -0.417 C  
HETATM    3  H1  UNL     1     -14.857   9.478  70.896  1.00  0.00     0.000 HD 
HETATM    4  H2  UNL     1     -14.086   7.999  70.803  1.00  0.00     0.000 HD 
ENDROOT
BRANCH   2   5
HETATM    5  C   UNL     1     -11.632   8.633  71.834  1.00  0.00    -0.350 C  
HETATM    6  O   UNL     1     -11.224   8.293  70.483  1.00  0.00    -0.257 OA 
HETATM    7  C   UNL     1      -9.892   7.753  70.480  1.00  0.00    -0.182 C  
HETATM    8  C   UNL     1      -9.842   6.417  71.292  1.00  0.00    -0.181 C  
HETATM    9  O   UNL     1     -12.763   6.502  72.186  1.00  0.00    -0.537 OA 
HETATM   10  H   UNL     1     -12.818   5.714  72.714  1.00  0.00     0.000 HD 
HETATM   11  N   UNL     1     -10.616   5.345  70.582  1.00  0.00    -0.256 NA 
HETATM   12  C   UNL     1     -10.367   6.626  72.711  1.00  0.00    -0.203 C  
HETATM   13  H2  UNL     1     -10.297   5.218  69.621  1.00  0.00     0.000 HD 
HETATM   14  O   UNL     1      -9.427   7.329  73.534  1.00  0.00    -0.179 OA 
HETATM   15  C   UNL     1     -11.721   7.348  72.696  1.00  0.00    -0.195 C  
HETATM   16  H1  UNL     1     -10.584   4.474  71.111  1.00  0.00     0.000 HD 
HETATM   17  H   UNL     1      -9.753   7.459  74.417  1.00  0.00     0.000 HD 
BRANCH   7  18
HETATM   18  O   UNL     1      -9.441   7.337  69.203  1.00  0.00    -0.149 OA 
BRANCH  18  19
HETATM   19  C   UNL     1      -8.601   8.182  68.428  1.00  0.00    -0.130 C  
HETATM   20  O   UNL     1     -10.723   9.187  67.625  1.00  0.00    -0.376 OA 
HETATM   21  C   UNL     1      -7.866   8.975  69.516  1.00  0.00    -0.094 C  
HETATM   22  C   UNL     1      -8.815  10.606  68.200  1.00  0.00    -0.134 C  
HETATM   23  H   UNL     1     -11.146   9.859  67.102  1.00  0.00     0.000 HD 
HETATM   24  O   UNL     1      -8.451  10.287  69.544  1.00  0.00    -0.165 OA 
HETATM   25  C   UNL     1      -9.287   9.273  67.578  1.00  0.00    -0.127 C  
BRANCH  21  26
HETATM   26  C   UNL     1      -6.348   9.028  69.327  1.00  0.00    -0.042 C  
HETATM   27  H   UNL     1      -4.950   8.130  68.236  1.00  0.00     0.000 HD 
HETATM   28  O   UNL     1      -5.892   8.098  68.353  1.00  0.00    -0.038 OA 
ENDBRANCH  21  26
BRANCH  22  29
HETATM   29  O   UNL     1      -7.697  11.164  67.498  1.00  0.00    -0.109 OA 
BRANCH  29  30
HETATM   30  C   UNL     1      -7.546  12.624  67.519  1.00  0.00    -0.160 C  
HETATM   31  C   UNL     1      -6.257  13.031  68.281  1.00  0.00    -0.085 C  
HETATM   32  O   UNL     1      -5.163  13.102  67.341  1.00  0.00    -0.313 OA 
HETATM   33  C   UNL     1      -6.252  14.346  69.077  1.00  0.00    -0.094 C  
HETATM   34  C   UNL     1      -7.623  14.776  69.565  1.00  0.00    -0.092 C  
HETATM   35  N   UNL     1      -5.357  14.214  70.256  1.00  0.00    -0.099 NA 
HETATM   36  H   UNL     1      -4.374  13.351  67.808  1.00  0.00     0.000 HD 
HETATM   37  H1  UNL     1      -5.353  15.087  70.783  1.00  0.00     0.000 HD 
HETATM   38  H2  UNL     1      -4.416  13.921  69.992  1.00  0.00     0.000 HD 
HETATM   39  C   UNL     1      -8.611  14.800  68.399  1.00  0.00    -0.166 C  
HETATM   40  C   UNL     1      -8.864  13.356  67.894  1.00  0.00    -0.194 C  
HETATM   41  N   UNL     1      -9.863  15.442  68.857  1.00  0.00    -0.205 NA 
HETATM   42  H2  UNL     1      -9.705  16.367  69.256  1.00  0.00     0.000 HD 
HETATM   43  H1  UNL     1     -10.522  15.458  68.079  1.00  0.00     0.000 HD 
BRANCH  40  44
HETATM   44  O   UNL     1      -9.768  13.455  66.766  1.00  0.00    -0.247 OA 
BRANCH  44  45
HETATM   45  C   UNL     1     -11.054  14.009  67.054  1.00  0.00    -0.304 C  
HETATM   46  O   UNL     1     -11.228  15.287  66.438  1.00  0.00    -0.315 OA 
HETATM   47  C   UNL     1     -11.227  15.237  65.005  1.00  0.00    -0.403 C  
HETATM   48  C   UNL     1     -12.330  14.312  64.469  1.00  0.00    -0.410 C  
HETATM   49  H1  UNL     1     -12.756  11.020  66.949  1.00  0.00     0.000 HD 
HETATM   50  O   UNL     1     -12.309  14.211  63.038  1.00  0.00    -1.070 OA 
HETATM   51  H2  UNL     1     -11.988  11.747  68.253  1.00  0.00     0.000 HD 
HETATM   52  C   UNL     1     -12.178  12.911  65.080  1.00  0.00    -0.464 C  
HETATM   53  H   UNL     1     -12.992  13.638  62.707  1.00  0.00     0.000 HD 
HETATM   54  O   UNL     1     -13.269  12.077  64.656  1.00  0.00    -0.508 OA 
HETATM   55  C   UNL     1     -12.164  13.013  66.616  1.00  0.00    -0.217 C  
HETATM   56  N   UNL     1     -12.028  11.674  67.236  1.00  0.00    -0.602 NA 
HETATM   57  H   UNL     1     -13.175  11.211  65.034  1.00  0.00     0.000 HD 
BRANCH  47  58
HETATM   58  C   UNL     1     -11.328  16.683  64.468  1.00  0.00     0.114 C  
HETATM   59  H1  UNL     1     -10.672  18.638  64.908  1.00  0.00     0.000 HD 
HETATM   60  N   UNL     1     -10.605  17.683  65.262  1.00  0.00    -0.601 NA 
HETATM   61  H2  UNL     1      -9.627  17.412  65.369  1.00  0.00     0.000 HD 
ENDBRANCH  47  58
ENDBRANCH  44  45
ENDBRANCH  40  44
ENDBRANCH  29  30
ENDBRANCH  22  29
ENDBRANCH  18  19
ENDBRANCH   7  18
ENDBRANCH   2   5
TORSDOF 9
ENDMDL
MODEL       40
REMARK 921   NORMALIZED FREE ENERGY PREDICTED BY IDOCK:   -6.51 KCAL/MOL
REMARK 922        TOTAL FREE ENERGY PREDICTED BY IDOCK:  -12.75 KCAL/MOL
REMARK 923 INTER-LIGAND FREE ENERGY PREDICTED BY IDOCK:   -9.89 KCAL/MOL
REMARK 924 INTRA-LIGAND FREE ENERGY PREDICTED BY IDOCK:   -2.87 KCAL/MOL
REMARK 927      BINDING AFFINITY PREDICTED BY RF-SCORE:    0.00 PKD
ROOT
HETATM    1  N   UNL     1     -11.189   6.335  66.547  1.00  0.00    -0.719 NA 
HETATM    2  C   UNL     1     -10.998   6.511  67.989  1.00  0.00    -0.282 C  
HETATM    3  H1  UNL     1     -12.122   6.038  66.262  1.00  0.00     0.000 HD 
HETATM    4  H2  UNL     1     -10.491   5.690  66.178  1.00  0.00     0.000 HD 
ENDROOT
BRANCH   2   5
HETATM    5  C   UNL     1      -9.578   6.962  68.423  1.00  0.00    -0.126 C  
HETATM    6  O   UNL     1      -8.938   7.863  67.483  1.00  0.00    -0.126 OA 
HETATM    7  C   UNL     1      -7.686   8.335  68.011  1.00  0.00    -0.107 C  
HETATM    8  C   UNL     1      -6.692   7.144  68.207  1.00  0.00    -0.061 C  
HETATM    9  O   UNL     1      -8.663   4.968  67.360  1.00  0.00    -0.105 OA 
HETATM   10  H   UNL     1      -8.133   4.186  67.469  1.00  0.00     0.000 HD 
HETATM   11  N   UNL     1      -6.280   6.583  66.878  1.00  0.00    -0.038 NA 
HETATM   12  C   UNL     1      -7.311   6.063  69.092  1.00  0.00    -0.084 C  
HETATM   13  H2  UNL     1      -5.895   7.301  66.264  1.00  0.00     0.000 HD 
HETATM   14  O   UNL     1      -7.343   6.452  70.472  1.00  0.00    -0.080 OA 
HETATM   15  C   UNL     1      -8.715   5.688  68.601  1.00  0.00    -0.106 C  
HETATM   16  H1  UNL     1      -5.632   5.806  67.006  1.00  0.00     0.000 HD 
HETATM   17  H   UNL     1      -7.728   5.780  71.023  1.00  0.00     0.000 HD 
BRANCH   7  18
HETATM   18  O   UNL     1      -6.967   9.175  67.125  1.00  0.00    -0.079 OA 
BRANCH  18  19
HETATM   19  C   UNL     1      -6.995  10.586  67.291  1.00  0.00    -0.087 C  
HETATM   20  O   UNL     1      -9.133  10.472  66.037  1.00  0.00    -0.159 OA 
HETATM   21  C   UNL     1      -7.128  10.718  68.813  1.00  0.00    -0.079 C  
HETATM   22  C   UNL     1      -8.919  11.914  68.002  1.00  0.00    -0.185 C  
HETATM   23  H   UNL     1      -9.892  10.934  65.702  1.00  0.00     0.000 HD 
HETATM   24  O   UNL     1      -8.493  11.082  69.082  1.00  0.00    -0.118 OA 
HETATM   25  C   UNL     1      -8.228  11.337  66.746  1.00  0.00    -0.158 C  
BRANCH  21  26
HETATM   26  C   UNL     1      -6.138  11.702  69.441  1.00  0.00    -0.088 C  
HETATM   27  H   UNL     1      -5.347  12.086  71.223  1.00  0.00     0.000 HD 
HETATM   28  O   UNL     1      -5.961  11.475  70.833  1.00  0.00    -0.360 OA 
ENDBRANCH  21  26
BRANCH  22  29
HETATM   29  O   UNL     1      -8.550  13.277  68.244  1.00  0.00    -0.173 OA 
BRANCH  29  30
HETATM   30  C   UNL     1      -9.569  14.306  68.000  1.00  0.00    -0.223 C  
HETATM   31  C   UNL     1      -9.239  15.109  66.714  1.00  0.00    -0.254 C  
HETATM   32  O   UNL     1      -9.868  14.461  65.587  1.00  0.00    -0.395 OA 
HETATM   33  C   UNL     1      -9.625  16.596  66.651  1.00  0.00    -0.263 C  
HETATM   34  C   UNL     1      -9.690  17.274  68.007  1.00  0.00    -0.277 C  
HETATM   35  N   UNL     1      -8.649  17.331  65.806  1.00  0.00    -0.497 NA 
HETATM   36  H   UNL     1      -9.666  14.953  64.799  1.00  0.00     0.000 HD 
HETATM   37  H1  UNL     1      -8.905  18.318  65.764  1.00  0.00     0.000 HD 
HETATM   38  H2  UNL     1      -8.557  16.919  64.878  1.00  0.00     0.000 HD 
HETATM   39  C   UNL     1     -10.587  16.475  68.951  1.00  0.00    -0.326 C  
HETATM   40  C   UNL     1      -9.924  15.113  69.280  1.00  0.00    -0.242 C  
HETATM   41  N   UNL     1     -10.814  17.276  70.174  1.00  0.00    -0.075 NA 
HETATM   42  H2  UNL     1     -11.188  18.204  69.970  1.00  0.00     0.000 HD 
HETATM   43  H1  UNL     1     -11.413  16.743  70.804  1.00  0.00     0.000 HD 
BRANCH  40  44
HETATM   44  O   UNL     1     -10.842  14.390  70.137  1.00  0.00    -0.039 OA 
BRANCH  44  45
HETATM   45  C   UNL     1     -12.093  14.037  69.539  1.00  0.00    -0.347 C  
HETATM   46  O   UNL     1     -12.113  12.669  69.125  1.00  0.00    -0.249 OA 
HETATM   47  C   UNL     1     -12.017  11.740  70.214  1.00  0.00    -0.343 C  
HETATM   48  C   UNL     1     -13.156  11.933  71.226  1.00  0.00    -0.133 C  
HETATM   49  H1  UNL     1     -14.035  15.962  71.628  1.00  0.00     0.000 HD 
HETATM   50  O   UNL     1     -13.044  11.046  72.347  1.00  0.00    -0.476 OA 
HETATM   51  H2  UNL     1     -13.299  16.394  70.182  1.00  0.00     0.000 HD 
HETATM   52  C   UNL     1     -13.167  13.385  71.727  1.00  0.00    -0.407 C  
HETATM   53  H   UNL     1     -13.749  11.165  72.973  1.00  0.00     0.000 HD 
HETATM   54  O   UNL     1     -14.295  13.589  72.595  1.00  0.00    -0.716 OA 
HETATM   55  C   UNL     1     -13.251  14.347  70.527  1.00  0.00    -0.043 C  
HETATM   56  N   UNL     1     -13.274  15.759  70.980  1.00  0.00    -0.527 NA 
HETATM   57  H   UNL     1     -14.302  14.487  72.904  1.00  0.00     0.000 HD 
BRANCH  47  58
HETATM   58  C   UNL     1     -11.955  10.311  69.629  1.00  0.00    -0.060 C  
HETATM   59  H1  UNL     1     -11.827   9.307  67.779  1.00  0.00     0.000 HD 
HETATM   60  N   UNL     1     -11.867  10.251  68.165  1.00  0.00    -0.672 NA 
HETATM   61  H2  UNL     1     -11.076  10.804  67.835  1.00  0.00     0.000 HD 
ENDBRANCH  47  58
ENDBRANCH  44  45
ENDBRANCH  40  44
ENDBRANCH  29  30
ENDBRANCH  22  29
ENDBRANCH  18  19
ENDBRANCH   7  18
ENDBRANCH   2   5
TORSDOF 9
ENDMDL
MODEL       41
REMARK 921   NORMALIZED FREE ENERGY PREDICTED BY IDOCK:   -6.47 KCAL/MOL
REMARK 922        TOTAL FREE ENERGY PREDICTED BY IDOCK:  -12.69 KCAL/MOL
REMARK 923 INTER-LIGAND FREE ENERGY PREDICTED BY IDOCK:  -10.73 KCAL/MOL
REMARK 924 INTRA-LIGAND FREE ENERGY PREDICTED BY IDOCK:   -1.96 KCAL/MOL
REMARK 927      BINDING AFFINITY PREDICTED BY RF-SCORE:    0.00 PKD
ROOT
HETATM    1  N   UNL     1     -13.072  12.212  63.576  1.00  0.00    -0.732 NA 
HETATM    2  C   UNL     1     -11.861  12.961  63.229  1.00  0.00    -0.398 C  
HETATM    3  H1  UNL     1     -13.600  11.842  62.786  1.00  0.00     0.000 HD 
HETATM    4  H2  UNL     1     -13.679  12.783  64.164  1.00  0.00     0.000 HD 
ENDROOT
BRANCH   2   5
HETATM    5  C   UNL     1     -11.058  13.524  64.431  1.00  0.00    -0.380 C  
HETATM    6  O   UNL     1     -10.982  12.616  65.561  1.00  0.00    -0.270 OA 
HETATM    7  C   UNL     1     -10.121  13.153  66.580  1.00  0.00    -0.264 C  
HETATM    8  C   UNL     1     -10.707  14.488  67.144  1.00  0.00    -0.286 C  
HETATM    9  O   UNL     1     -13.096  14.591  65.240  1.00  0.00    -0.524 OA 
HETATM   10  H   UNL     1     -13.510  15.404  65.507  1.00  0.00     0.000 HD 
HETATM   11  N   UNL     1     -11.971  14.224  67.908  1.00  0.00    -0.501 NA 
HETATM   12  C   UNL     1     -10.947  15.492  66.016  1.00  0.00    -0.251 C  
HETATM   13  H2  UNL     1     -11.832  13.530  68.643  1.00  0.00     0.000 HD 
HETATM   14  O   UNL     1      -9.723  16.063  65.536  1.00  0.00    -0.418 OA 
HETATM   15  C   UNL     1     -11.733  14.849  64.866  1.00  0.00    -0.371 C  
HETATM   16  H1  UNL     1     -12.354  15.095  68.275  1.00  0.00     0.000 HD 
HETATM   17  H   UNL     1      -9.871  16.687  64.835  1.00  0.00     0.000 HD 
BRANCH   7  18
HETATM   18  O   UNL     1     -10.041  12.352  67.747  1.00  0.00    -0.195 OA 
BRANCH  18  19
HETATM   19  C   UNL     1     -10.774  11.138  67.836  1.00  0.00    -0.216 C  
HETATM   20  O   UNL     1      -8.742  10.096  66.865  1.00  0.00    -0.129 OA 
HETATM   21  C   UNL     1     -10.936  10.982  69.353  1.00  0.00    -0.248 C  
HETATM   22  C   UNL     1      -9.937   9.013  68.705  1.00  0.00    -0.182 C  
HETATM   23  H   UNL     1      -8.296   9.299  66.602  1.00  0.00     0.000 HD 
HETATM   24  O   UNL     1     -10.011   9.963  69.769  1.00  0.00    -0.217 OA 
HETATM   25  C   UNL     1     -10.051   9.844  67.407  1.00  0.00    -0.205 C  
BRANCH  21  26
HETATM   26  C   UNL     1     -12.368  10.671  69.797  1.00  0.00    -0.194 C  
HETATM   27  H   UNL     1     -13.539  10.982  71.371  1.00  0.00     0.000 HD 
HETATM   28  O   UNL     1     -12.651  11.175  71.096  1.00  0.00    -0.377 OA 
ENDBRANCH  21  26
BRANCH  22  29
HETATM   29  O   UNL     1     -10.990   8.047  68.823  1.00  0.00    -0.009 OA 
BRANCH  29  30
HETATM   30  C   UNL     1     -11.029   7.236  70.046  1.00  0.00    -0.253 C  
HETATM   31  C   UNL     1     -12.169   7.713  70.984  1.00  0.00    -0.236 C  
HETATM   32  O   UNL     1     -13.372   6.980  70.664  1.00  0.00    -0.471 OA 
HETATM   33  C   UNL     1     -11.970   7.607  72.505  1.00  0.00    -0.214 C  
HETATM   34  C   UNL     1     -10.517   7.663  72.940  1.00  0.00    -0.394 C  
HETATM   35  N   UNL     1     -12.704   8.705  73.184  1.00  0.00    -0.456 NA 
HETATM   36  H   UNL     1     -14.070   7.272  71.238  1.00  0.00     0.000 HD 
HETATM   37  H1  UNL     1     -12.572   8.634  74.193  1.00  0.00     0.000 HD 
HETATM   38  H2  UNL     1     -13.691   8.723  72.926  1.00  0.00     0.000 HD 
HETATM   39  C   UNL     1      -9.696   6.631  72.168  1.00  0.00    -0.153 C  
HETATM   40  C   UNL     1      -9.621   7.031  70.673  1.00  0.00    -0.165 C  
HETATM   41  N   UNL     1      -8.350   6.549  72.777  1.00  0.00    -0.116 NA 
HETATM   42  H2  UNL     1      -8.384   6.354  73.777  1.00  0.00     0.000 HD 
HETATM   43  H1  UNL     1      -7.803   5.860  72.261  1.00  0.00     0.000 HD 
BRANCH  40  44
HETATM   44  O   UNL     1      -8.874   5.992  69.993  1.00  0.00    -0.136 OA 
BRANCH  44  45
HETATM   45  C   UNL     1      -9.612   4.808  69.679  1.00  0.00    -0.183 C  
HETATM   46  O   UNL     1     -10.066   4.813  68.323  1.00  0.00    -0.123 OA 
HETATM   47  C   UNL     1      -9.001   4.778  67.363  1.00  0.00    -0.109 C  
HETATM   48  C   UNL     1      -8.112   3.540  67.547  1.00  0.00    -0.081 C  
HETATM   49  H1  UNL     1      -7.688   2.679  71.578  1.00  0.00     0.000 HD 
HETATM   50  O   UNL     1      -7.012   3.517  66.627  1.00  0.00    -0.053 OA 
HETATM   51  H2  UNL     1      -9.033   3.573  72.037  1.00  0.00     0.000 HD 
HETATM   52  C   UNL     1      -7.573   3.495  68.984  1.00  0.00    -0.052 C  
HETATM   53  H   UNL     1      -6.462   2.751  66.741  1.00  0.00     0.000 HD 
HETATM   54  O   UNL     1      -6.825   2.283  69.183  1.00  0.00    -0.033 OA 
HETATM   55  C   UNL     1      -8.745   3.554  69.981  1.00  0.00    -0.075 C  
HETATM   56  N   UNL     1      -8.257   3.502  71.380  1.00  0.00    -0.060 NA 
HETATM   57  H   UNL     1      -6.492   2.255  70.072  1.00  0.00     0.000 HD 
BRANCH  47  58
HETATM   58  C   UNL     1      -9.618   4.883  65.949  1.00  0.00    -0.175 C  
HETATM   59  H1  UNL     1     -11.484   5.109  64.994  1.00  0.00     0.000 HD 
HETATM   60  N   UNL     1     -11.077   5.041  65.928  1.00  0.00    -0.825 NA 
HETATM   61  H2  UNL     1     -11.355   5.841  66.496  1.00  0.00     0.000 HD 
ENDBRANCH  47  58
ENDBRANCH  44  45
ENDBRANCH  40  44
ENDBRANCH  29  30
ENDBRANCH  22  29
ENDBRANCH  18  19
ENDBRANCH   7  18
ENDBRANCH   2   5
TORSDOF 9
ENDMDL
MODEL       42
REMARK 921   NORMALIZED FREE ENERGY PREDICTED BY IDOCK:   -6.46 KCAL/MOL
REMARK 922        TOTAL FREE ENERGY PREDICTED BY IDOCK:  -12.68 KCAL/MOL
REMARK 923 INTER-LIGAND FREE ENERGY PREDICTED BY IDOCK:  -11.02 KCAL/MOL
REMARK 924 INTRA-LIGAND FREE ENERGY PREDICTED BY IDOCK:   -1.66 KCAL/MOL
REMARK 927      BINDING AFFINITY PREDICTED BY RF-SCORE:    0.00 PKD
ROOT
HETATM    1  N   UNL     1     -11.886   6.667  72.086  1.00  0.00    -0.366 NA 
HETATM    2  C   UNL     1     -11.223   7.873  72.590  1.00  0.00    -0.398 C  
HETATM    3  H1  UNL     1     -12.769   6.432  72.538  1.00  0.00     0.000 HD 
HETATM    4  H2  UNL     1     -11.248   5.873  72.133  1.00  0.00     0.000 HD 
ENDROOT
BRANCH   2   5
HETATM    5  C   UNL     1      -9.878   8.231  71.902  1.00  0.00    -0.232 C  
HETATM    6  O   UNL     1      -9.887   8.036  70.464  1.00  0.00    -0.181 OA 
HETATM    7  C   UNL     1      -8.657   8.506  69.886  1.00  0.00    -0.131 C  
HETATM    8  C   UNL     1      -7.447   7.675  70.424  1.00  0.00    -0.079 C  
HETATM    9  O   UNL     1      -9.092   5.968  72.353  1.00  0.00    -0.138 OA 
HETATM   10  H   UNL     1      -8.414   5.431  72.747  1.00  0.00     0.000 HD 
HETATM   11  N   UNL     1      -7.513   6.265  69.916  1.00  0.00    -0.082 NA 
HETATM   12  C   UNL     1      -7.405   7.707  71.951  1.00  0.00    -0.070 C  
HETATM   13  H2  UNL     1      -7.575   6.230  68.898  1.00  0.00     0.000 HD 
HETATM   14  O   UNL     1      -6.945   8.970  72.450  1.00  0.00    -0.320 OA 
HETATM   15  C   UNL     1      -8.774   7.355  72.546  1.00  0.00    -0.123 C  
HETATM   16  H1  UNL     1      -6.724   5.723  70.267  1.00  0.00     0.000 HD 
HETATM   17  H   UNL     1      -6.919   8.991  73.400  1.00  0.00     0.000 HD 
BRANCH   7  18
HETATM   18  O   UNL     1      -8.560   8.294  68.488  1.00  0.00    -0.131 OA 
BRANCH  18  19
HETATM   19  C   UNL     1      -8.711   9.381  67.585  1.00  0.00    -0.116 C  
HETATM   20  O   UNL     1     -10.991   9.575  68.545  1.00  0.00    -0.401 OA 
HETATM   21  C   UNL     1      -7.681  10.381  68.123  1.00  0.00    -0.092 C  
HETATM   22  C   UNL     1      -9.648  11.575  68.117  1.00  0.00    -0.187 C  
HETATM   23  H   UNL     1     -11.811  10.055  68.577  1.00  0.00     0.000 HD 
HETATM   24  O   UNL     1      -8.415  11.404  68.817  1.00  0.00    -0.151 OA 
HETATM   25  C   UNL     1     -10.042  10.160  67.635  1.00  0.00    -0.190 C  
BRANCH  21  26
HETATM   26  C   UNL     1      -6.760  10.965  67.048  1.00  0.00    -0.098 C  
HETATM   27  H   UNL     1      -5.970  10.420  65.308  1.00  0.00     0.000 HD 
HETATM   28  O   UNL     1      -6.541  10.058  65.975  1.00  0.00    -0.083 OA 
ENDBRANCH  21  26
BRANCH  22  29
HETATM   29  O   UNL     1      -9.481  12.491  67.027  1.00  0.00    -0.204 OA 
BRANCH  29  30
HETATM   30  C   UNL     1     -10.619  13.355  66.692  1.00  0.00    -0.282 C  
HETATM   31  C   UNL     1     -11.810  12.514  66.162  1.00  0.00    -0.397 C  
HETATM   32  O   UNL     1     -12.645  12.135  67.277  1.00  0.00     0.287 OA 
HETATM   33  C   UNL     1     -12.733  13.127  65.097  1.00  0.00    -0.405 C  
HETATM   34  C   UNL     1     -12.060  14.174  64.228  1.00  0.00    -0.471 C  
HETATM   35  N   UNL     1     -13.261  12.055  64.214  1.00  0.00    -0.648 NA 
HETATM   36  H   UNL     1     -13.375  11.620  66.953  1.00  0.00     0.000 HD 
HETATM   37  H1  UNL     1     -13.874  12.462  63.508  1.00  0.00     0.000 HD 
HETATM   38  H2  UNL     1     -13.723  11.315  64.742  1.00  0.00     0.000 HD 
HETATM   39  C   UNL     1     -11.391  15.233  65.103  1.00  0.00    -0.321 C  
HETATM   40  C   UNL     1     -10.199  14.605  65.869  1.00  0.00    -0.326 C  
HETATM   41  N   UNL     1     -10.953  16.350  64.238  1.00  0.00    -1.139 NA 
HETATM   42  H2  UNL     1     -11.714  16.731  63.675  1.00  0.00     0.000 HD 
HETATM   43  H1  UNL     1     -10.507  17.056  64.823  1.00  0.00     0.000 HD 
BRANCH  40  44
HETATM   44  O   UNL     1      -9.641  15.644  66.710  1.00  0.00    -0.224 OA 
BRANCH  44  45
HETATM   45  C   UNL     1      -8.397  16.193  66.267  1.00  0.00    -0.287 C  
HETATM   46  O   UNL     1      -8.545  17.543  65.821  1.00  0.00    -0.521 OA 
HETATM   47  C   UNL     1      -8.931  18.452  66.862  1.00  0.00    -0.280 C  
HETATM   48  C   UNL     1      -7.918  18.455  68.016  1.00  0.00    -0.276 C  
HETATM   49  H1  UNL     1      -6.458  14.628  68.640  1.00  0.00     0.000 HD 
HETATM   50  O   UNL     1      -8.316  19.320  69.088  1.00  0.00    -0.283 OA 
HETATM   51  H2  UNL     1      -6.920  14.071  67.125  1.00  0.00     0.000 HD 
HETATM   52  C   UNL     1      -7.737  17.028  68.555  1.00  0.00    -0.238 C  
HETATM   53  H   UNL     1      -7.689  19.322  69.802  1.00  0.00     0.000 HD 
HETATM   54  O   UNL     1      -6.714  17.019  69.565  1.00  0.00    -0.235 OA 
HETATM   55  C   UNL     1      -7.343  16.084  67.404  1.00  0.00    -0.184 C  
HETATM   56  N   UNL     1      -7.150  14.699  67.895  1.00  0.00    -0.140 NA 
HETATM   57  H   UNL     1      -6.602  16.136  69.898  1.00  0.00     0.000 HD 
BRANCH  47  58
HETATM   58  C   UNL     1      -9.147  19.847  66.234  1.00  0.00    -0.360 C  
HETATM   59  H1  UNL     1     -10.145  21.668  66.602  1.00  0.00     0.000 HD 
HETATM   60  N   UNL     1     -10.002  20.746  67.017  1.00  0.00    -0.513 NA 
HETATM   61  H2  UNL     1      -9.642  20.837  67.968  1.00  0.00     0.000 HD 
ENDBRANCH  47  58
ENDBRANCH  44  45
ENDBRANCH  40  44
ENDBRANCH  29  30
ENDBRANCH  22  29
ENDBRANCH  18  19
ENDBRANCH   7  18
ENDBRANCH   2   5
TORSDOF 9
ENDMDL
MODEL       43
REMARK 921   NORMALIZED FREE ENERGY PREDICTED BY IDOCK:   -6.45 KCAL/MOL
REMARK 922        TOTAL FREE ENERGY PREDICTED BY IDOCK:  -12.65 KCAL/MOL
REMARK 923 INTER-LIGAND FREE ENERGY PREDICTED BY IDOCK:  -10.64 KCAL/MOL
REMARK 924 INTRA-LIGAND FREE ENERGY PREDICTED BY IDOCK:   -2.02 KCAL/MOL
REMARK 927      BINDING AFFINITY PREDICTED BY RF-SCORE:    0.00 PKD
ROOT
HETATM    1  N   UNL     1      -8.564  15.948  67.136  1.00  0.00    -0.182 NA 
HETATM    2  C   UNL     1      -9.960  15.843  67.567  1.00  0.00    -0.238 C  
HETATM    3  H1  UNL     1      -8.009  16.656  67.617  1.00  0.00     0.000 HD 
HETATM    4  H2  UNL     1      -8.520  16.096  66.128  1.00  0.00     0.000 HD 
ENDROOT
BRANCH   2   5
HETATM    5  C   UNL     1     -10.804  14.766  66.836  1.00  0.00    -0.316 C  
HETATM    6  O   UNL     1     -10.125  13.492  66.687  1.00  0.00    -0.264 OA 
HETATM    7  C   UNL     1     -11.011  12.513  66.117  1.00  0.00    -0.284 C  
HETATM    8  C   UNL     1     -11.443  12.940  64.676  1.00  0.00    -0.327 C  
HETATM    9  O   UNL     1      -9.979  15.622  64.708  1.00  0.00    -0.345 OA 
HETATM   10  H   UNL     1     -10.208  15.968  63.852  1.00  0.00     0.000 HD 
HETATM   11  N   UNL     1     -10.271  12.884  63.740  1.00  0.00    -0.684 NA 
HETATM   12  C   UNL     1     -12.070  14.334  64.689  1.00  0.00    -0.463 C  
HETATM   13  H2  UNL     1      -9.823  11.968  63.746  1.00  0.00     0.000 HD 
HETATM   14  O   UNL     1     -13.394  14.322  65.239  1.00  0.00    -0.660 OA 
HETATM   15  C   UNL     1     -11.178  15.330  65.442  1.00  0.00    -0.307 C  
HETATM   16  H1  UNL     1     -10.553  13.163  62.800  1.00  0.00     0.000 HD 
HETATM   17  H   UNL     1     -13.784  15.189  65.248  1.00  0.00     0.000 HD 
BRANCH   7  18
HETATM   18  O   UNL     1     -10.404  11.255  65.880  1.00  0.00    -0.239 OA 
BRANCH  18  19
HETATM   19  C   UNL     1      -9.755  10.561  66.937  1.00  0.00    -0.180 C  
HETATM   20  O   UNL     1     -12.005  10.494  67.981  1.00  0.00    -0.758 OA 
HETATM   21  C   UNL     1      -9.313   9.270  66.238  1.00  0.00    -0.200 C  
HETATM   22  C   UNL     1     -10.555   8.524  68.026  1.00  0.00    -0.137 C  
HETATM   23  H   UNL     1     -12.548  10.189  68.699  1.00  0.00     0.000 HD 
HETATM   24  O   UNL     1     -10.210   8.233  66.671  1.00  0.00    -0.290 OA 
HETATM   25  C   UNL     1     -10.636  10.066  68.103  1.00  0.00    -0.227 C  
BRANCH  21  26
HETATM   26  C   UNL     1      -7.848   8.900  66.482  1.00  0.00    -0.100 C  
HETATM   27  H   UNL     1      -6.242   9.677  67.357  1.00  0.00     0.000 HD 
HETATM   28  O   UNL     1      -7.151   9.906  67.205  1.00  0.00    -0.084 OA 
ENDBRANCH  21  26
BRANCH  22  29
HETATM   29  O   UNL     1      -9.570   7.990  68.920  1.00  0.00    -0.151 OA 
BRANCH  29  30
HETATM   30  C   UNL     1      -9.995   6.921  69.832  1.00  0.00    -0.176 C  
HETATM   31  C   UNL     1     -11.142   7.411  70.753  1.00  0.00    -0.265 C  
HETATM   32  O   UNL     1     -12.406   7.132  70.111  1.00  0.00    -0.565 OA 
HETATM   33  C   UNL     1     -11.233   6.854  72.183  1.00  0.00    -0.258 C  
HETATM   34  C   UNL     1      -9.899   6.409  72.756  1.00  0.00    -0.179 C  
HETATM   35  N   UNL     1     -11.810   7.883  73.086  1.00  0.00    -0.620 NA 
HETATM   36  H   UNL     1     -13.109   7.432  70.676  1.00  0.00     0.000 HD 
HETATM   37  H1  UNL     1     -11.869   7.513  74.035  1.00  0.00     0.000 HD 
HETATM   38  H2  UNL     1     -12.709   8.227  72.751  1.00  0.00     0.000 HD 
HETATM   39  C   UNL     1      -9.210   5.444  71.793  1.00  0.00    -0.142 C  
HETATM   40  C   UNL     1      -8.795   6.195  70.502  1.00  0.00    -0.146 C  
HETATM   41  N   UNL     1      -8.039   4.853  72.477  1.00  0.00    -0.113 NA 
HETATM   42  H2  UNL     1      -8.284   4.413  73.364  1.00  0.00     0.000 HD 
HETATM   43  H1  UNL     1      -7.579   4.209  71.834  1.00  0.00     0.000 HD 
BRANCH  40  44
HETATM   44  O   UNL     1      -8.193   5.217  69.618  1.00  0.00    -0.092 OA 
BRANCH  44  45
HETATM   45  C   UNL     1      -8.991   4.062  69.343  1.00  0.00    -0.108 C  
HETATM   46  O   UNL     1      -9.756   4.222  68.146  1.00  0.00    -0.155 OA 
HETATM   47  C   UNL     1      -8.951   4.331  66.963  1.00  0.00    -0.123 C  
HETATM   48  C   UNL     1      -8.049   3.102  66.775  1.00  0.00    -0.080 C  
HETATM   49  H1  UNL     1      -6.678   1.768  70.450  1.00  0.00     0.000 HD 
HETATM   50  O   UNL     1      -7.201   3.220  65.624  1.00  0.00    -0.068 OA 
HETATM   51  H2  UNL     1      -7.870   2.564  71.324  1.00  0.00     0.000 HD 
HETATM   52  C   UNL     1      -7.182   2.896  68.026  1.00  0.00    -0.049 C  
HETATM   53  H   UNL     1      -6.643   2.459  65.508  1.00  0.00     0.000 HD 
HETATM   54  O   UNL     1      -6.414   1.688  67.888  1.00  0.00    -0.027 OA 
HETATM   55  C   UNL     1      -8.082   2.804  69.272  1.00  0.00    -0.047 C  
HETATM   56  N   UNL     1      -7.274   2.594  70.497  1.00  0.00    -0.033 NA 
HETATM   57  H   UNL     1      -5.878   1.561  68.662  1.00  0.00     0.000 HD 
BRANCH  47  58
HETATM   58  C   UNL     1      -9.888   4.592  65.761  1.00  0.00    -0.222 C  
HETATM   59  H1  UNL     1     -11.609   5.693  65.240  1.00  0.00     0.000 HD 
HETATM   60  N   UNL     1     -10.990   5.521  66.034  1.00  0.00    -0.736 NA 
HETATM   61  H2  UNL     1     -10.628   6.402  66.399  1.00  0.00     0.000 HD 
ENDBRANCH  47  58
ENDBRANCH  44  45
ENDBRANCH  40  44
ENDBRANCH  29  30
ENDBRANCH  22  29
ENDBRANCH  18  19
ENDBRANCH   7  18
ENDBRANCH   2   5
TORSDOF 9
ENDMDL
MODEL       44
REMARK 921   NORMALIZED FREE ENERGY PREDICTED BY IDOCK:   -6.45 KCAL/MOL
REMARK 922        TOTAL FREE ENERGY PREDICTED BY IDOCK:  -12.65 KCAL/MOL
REMARK 923 INTER-LIGAND FREE ENERGY PREDICTED BY IDOCK:  -10.66 KCAL/MOL
REMARK 924 INTRA-LIGAND FREE ENERGY PREDICTED BY IDOCK:   -1.99 KCAL/MOL
REMARK 927      BINDING AFFINITY PREDICTED BY RF-SCORE:    0.00 PKD
ROOT
HETATM    1  N   UNL     1      -6.459  11.937  70.349  1.00  0.00    -0.501 NA 
HETATM    2  C   UNL     1      -5.836  10.714  70.862  1.00  0.00    -0.041 C  
HETATM    3  H1  UNL     1      -5.985  12.806  70.594  1.00  0.00     0.000 HD 
HETATM    4  H2  UNL     1      -7.436  11.979  70.639  1.00  0.00     0.000 HD 
ENDROOT
BRANCH   2   5
HETATM    5  C   UNL     1      -6.557   9.392  70.490  1.00  0.00    -0.084 C  
HETATM    6  O   UNL     1      -7.997   9.443  70.664  1.00  0.00    -0.159 OA 
HETATM    7  C   UNL     1      -8.605   8.232  70.182  1.00  0.00    -0.128 C  
HETATM    8  C   UNL     1      -8.115   7.004  71.017  1.00  0.00    -0.105 C  
HETATM    9  O   UNL     1      -6.164   8.586  72.757  1.00  0.00    -0.079 OA 
HETATM   10  H   UNL     1      -5.798   7.896  73.298  1.00  0.00     0.000 HD 
HETATM   11  N   UNL     1      -8.643   7.082  72.420  1.00  0.00    -0.120 NA 
HETATM   12  C   UNL     1      -6.590   6.917  71.007  1.00  0.00    -0.053 C  
HETATM   13  H2  UNL     1      -9.658   7.174  72.440  1.00  0.00     0.000 HD 
HETATM   14  O   UNL     1      -6.087   6.445  69.750  1.00  0.00    -0.024 OA 
HETATM   15  C   UNL     1      -5.960   8.267  71.372  1.00  0.00    -0.037 C  
HETATM   16  H1  UNL     1      -8.323   6.282  72.965  1.00  0.00     0.000 HD 
HETATM   17  H   UNL     1      -5.138   6.391  69.744  1.00  0.00     0.000 HD 
BRANCH   7  18
HETATM   18  O   UNL     1     -10.008   8.176  70.373  1.00  0.00    -0.186 OA 
BRANCH  18  19
HETATM   19  C   UNL     1     -10.887   8.730  69.403  1.00  0.00    -0.110 C  
HETATM   20  O   UNL     1     -11.215  10.548  71.061  1.00  0.00    -0.314 OA 
HETATM   21  C   UNL     1      -9.924   9.051  68.254  1.00  0.00    -0.173 C  
HETATM   22  C   UNL     1     -10.949  11.065  68.684  1.00  0.00    -0.224 C  
HETATM   23  H   UNL     1     -11.613  11.387  71.264  1.00  0.00     0.000 HD 
HETATM   24  O   UNL     1      -9.718  10.473  68.266  1.00  0.00    -0.147 OA 
HETATM   25  C   UNL     1     -11.534  10.092  69.733  1.00  0.00    -0.228 C  
BRANCH  21  26
HETATM   26  C   UNL     1     -10.399   8.551  66.887  1.00  0.00    -0.297 C  
HETATM   27  H   UNL     1      -9.777   8.562  65.000  1.00  0.00     0.000 HD 
HETATM   28  O   UNL     1      -9.483   8.871  65.848  1.00  0.00    -0.237 OA 
ENDBRANCH  21  26
BRANCH  22  29
HETATM   29  O   UNL     1     -11.825  11.242  67.564  1.00  0.00    -0.613 OA 
BRANCH  29  30
HETATM   30  C   UNL     1     -11.763  12.525  66.853  1.00  0.00    -0.377 C  
HETATM   31  C   UNL     1     -12.089  12.336  65.349  1.00  0.00    -0.276 C  
HETATM   32  O   UNL     1     -13.512  12.494  65.158  1.00  0.00    -0.275 OA 
HETATM   33  C   UNL     1     -11.395  13.244  64.321  1.00  0.00    -0.393 C  
HETATM   34  C   UNL     1     -10.043  13.764  64.774  1.00  0.00    -0.259 C  
HETATM   35  N   UNL     1     -11.209  12.505  63.046  1.00  0.00    -0.682 NA 
HETATM   36  H   UNL     1     -13.712  12.378  64.237  1.00  0.00     0.000 HD 
HETATM   37  H1  UNL     1     -10.748  13.108  62.363  1.00  0.00     0.000 HD 
HETATM   38  H2  UNL     1     -12.086  12.124  62.691  1.00  0.00     0.000 HD 
HETATM   39  C   UNL     1     -10.166  14.422  66.147  1.00  0.00    -0.306 C  
HETATM   40  C   UNL     1     -10.495  13.349  67.216  1.00  0.00    -0.248 C  
HETATM   41  N   UNL     1      -8.896  15.118  66.451  1.00  0.00    -0.421 NA 
HETATM   42  H2  UNL     1      -8.630  15.780  65.722  1.00  0.00     0.000 HD 
HETATM   43  H1  UNL     1      -8.979  15.557  67.368  1.00  0.00     0.000 HD 
BRANCH  40  44
HETATM   44  O   UNL     1     -10.644  14.041  68.480  1.00  0.00    -0.241 OA 
BRANCH  44  45
HETATM   45  C   UNL     1     -11.895  14.706  68.674  1.00  0.00    -0.311 C  
HETATM   46  O   UNL     1     -12.733  13.996  69.590  1.00  0.00    -0.152 OA 
HETATM   47  C   UNL     1     -12.204  13.937  70.922  1.00  0.00    -0.361 C  
HETATM   48  C   UNL     1     -11.970  15.340  71.502  1.00  0.00    -0.366 C  
HETATM   49  H1  UNL     1     -10.622  17.899  68.535  1.00  0.00     0.000 HD 
HETATM   50  O   UNL     1     -11.392  15.298  72.814  1.00  0.00    -0.374 OA 
HETATM   51  H2  UNL     1     -11.166  16.929  67.278  1.00  0.00     0.000 HD 
HETATM   52  C   UNL     1     -11.052  16.143  70.568  1.00  0.00    -0.322 C  
HETATM   53  H   UNL     1     -11.248  16.166  73.173  1.00  0.00     0.000 HD 
HETATM   54  O   UNL     1     -10.917  17.487  71.061  1.00  0.00     0.318 OA 
HETATM   55  C   UNL     1     -11.646  16.164  69.148  1.00  0.00    -0.285 C  
HETATM   56  N   UNL     1     -10.786  16.942  68.224  1.00  0.00    -0.368 NA 
HETATM   57  H   UNL     1     -10.349  17.984  70.484  1.00  0.00     0.000 HD 
BRANCH  47  58
HETATM   58  C   UNL     1     -13.151  13.070  71.783  1.00  0.00    -0.373 C  
HETATM   59  H1  UNL     1     -14.649  13.255  73.255  1.00  0.00     0.000 HD 
HETATM   60  N   UNL     1     -14.024  13.828  72.686  1.00  0.00    -0.732 NA 
HETATM   61  H2  UNL     1     -14.557  14.523  72.163  1.00  0.00     0.000 HD 
ENDBRANCH  47  58
ENDBRANCH  44  45
ENDBRANCH  40  44
ENDBRANCH  29  30
ENDBRANCH  22  29
ENDBRANCH  18  19
ENDBRANCH   7  18
ENDBRANCH   2   5
TORSDOF 9
ENDMDL
MODEL       45
REMARK 921   NORMALIZED FREE ENERGY PREDICTED BY IDOCK:   -6.44 KCAL/MOL
REMARK 922        TOTAL FREE ENERGY PREDICTED BY IDOCK:  -12.64 KCAL/MOL
REMARK 923 INTER-LIGAND FREE ENERGY PREDICTED BY IDOCK:  -10.03 KCAL/MOL
REMARK 924 INTRA-LIGAND FREE ENERGY PREDICTED BY IDOCK:   -2.61 KCAL/MOL
REMARK 927      BINDING AFFINITY PREDICTED BY RF-SCORE:    0.00 PKD
ROOT
HETATM    1  N   UNL     1     -13.745  14.926  71.009  1.00  0.00    -0.598 NA 
HETATM    2  C   UNL     1     -12.866  13.989  70.304  1.00  0.00    -0.107 C  
HETATM    3  H1  UNL     1     -14.427  14.499  71.635  1.00  0.00     0.000 HD 
HETATM    4  H2  UNL     1     -14.217  15.533  70.340  1.00  0.00     0.000 HD 
ENDROOT
BRANCH   2   5
HETATM    5  C   UNL     1     -11.828  14.639  69.351  1.00  0.00    -0.329 C  
HETATM    6  O   UNL     1     -10.759  13.741  68.952  1.00  0.00    -0.248 OA 
HETATM    7  C   UNL     1      -9.912  14.371  67.975  1.00  0.00    -0.225 C  
HETATM    8  C   UNL     1      -9.211  15.628  68.588  1.00  0.00    -0.205 C  
HETATM    9  O   UNL     1     -10.612  15.458  71.299  1.00  0.00    -0.358 OA 
HETATM   10  H   UNL     1     -10.249  16.216  71.742  1.00  0.00     0.000 HD 
HETATM   11  N   UNL     1      -8.223  15.215  69.639  1.00  0.00    -0.395 NA 
HETATM   12  C   UNL     1     -10.244  16.600  69.156  1.00  0.00    -0.309 C  
HETATM   13  H2  UNL     1      -7.547  14.539  69.282  1.00  0.00     0.000 HD 
HETATM   14  O   UNL     1     -10.937  17.312  68.122  1.00  0.00    -0.347 OA 
HETATM   15  C   UNL     1     -11.236  15.874  70.074  1.00  0.00    -0.353 C  
HETATM   16  H1  UNL     1      -7.766  16.034  70.039  1.00  0.00     0.000 HD 
HETATM   17  H   UNL     1     -11.579  17.917  68.475  1.00  0.00     0.000 HD 
BRANCH   7  18
HETATM   18  O   UNL     1      -8.805  13.582  67.579  1.00  0.00    -0.186 OA 
BRANCH  18  19
HETATM   19  C   UNL     1      -8.508  12.368  68.257  1.00  0.00    -0.170 C  
HETATM   20  O   UNL     1      -9.683  11.278  66.363  1.00  0.00    -0.199 OA 
HETATM   21  C   UNL     1      -6.976  12.339  68.188  1.00  0.00    -0.087 C  
HETATM   22  C   UNL     1      -7.603  10.337  67.242  1.00  0.00    -0.095 C  
HETATM   23  H   UNL     1      -9.945  10.469  65.940  1.00  0.00     0.000 HD 
HETATM   24  O   UNL     1      -6.622  11.373  67.184  1.00  0.00    -0.095 OA 
HETATM   25  C   UNL     1      -8.933  11.053  67.570  1.00  0.00    -0.137 C  
BRANCH  21  26
HETATM   26  C   UNL     1      -6.299  12.046  69.529  1.00  0.00    -0.123 C  
HETATM   27  H   UNL     1      -5.459  13.050  71.024  1.00  0.00     0.000 HD 
HETATM   28  O   UNL     1      -5.879  13.231  70.192  1.00  0.00    -0.127 OA 
ENDBRANCH  21  26
BRANCH  22  29
HETATM   29  O   UNL     1      -7.251   9.370  68.239  1.00  0.00    -0.075 OA 
BRANCH  29  30
HETATM   30  C   UNL     1      -7.735   7.997  68.050  1.00  0.00    -0.118 C  
HETATM   31  C   UNL     1      -7.547   7.547  66.578  1.00  0.00    -0.089 C  
HETATM   32  O   UNL     1      -6.250   6.926  66.443  1.00  0.00    -0.042 OA 
HETATM   33  C   UNL     1      -8.573   6.582  65.961  1.00  0.00    -0.148 C  
HETATM   34  C   UNL     1      -9.953   6.669  66.587  1.00  0.00    -0.203 C  
HETATM   35  N   UNL     1      -8.702   6.851  64.506  1.00  0.00    -0.252 NA 
HETATM   36  H   UNL     1      -6.135   6.651  65.541  1.00  0.00     0.000 HD 
HETATM   37  H1  UNL     1      -9.383   6.211  64.097  1.00  0.00     0.000 HD 
HETATM   38  H2  UNL     1      -7.803   6.812  64.027  1.00  0.00     0.000 HD 
HETATM   39  C   UNL     1      -9.851   6.525  68.105  1.00  0.00    -0.131 C  
HETATM   40  C   UNL     1      -9.125   7.758  68.703  1.00  0.00    -0.136 C  
HETATM   41  N   UNL     1     -11.216   6.380  68.656  1.00  0.00    -0.539 NA 
HETATM   42  H2  UNL     1     -11.733   5.613  68.224  1.00  0.00     0.000 HD 
HETATM   43  H1  UNL     1     -11.148   6.283  69.669  1.00  0.00     0.000 HD 
BRANCH  40  44
HETATM   44  O   UNL     1      -9.021   7.537  70.131  1.00  0.00    -0.146 OA 
BRANCH  44  45
HETATM   45  C   UNL     1      -9.069   8.715  70.941  1.00  0.00    -0.187 C  
HETATM   46  O   UNL     1     -10.060   9.635  70.477  1.00  0.00    -0.264 OA 
HETATM   47  C   UNL     1     -11.400   9.133  70.581  1.00  0.00    -0.273 C  
HETATM   48  C   UNL     1     -11.756   8.762  72.029  1.00  0.00    -0.372 C  
HETATM   49  H1  UNL     1      -8.461   7.113  73.925  1.00  0.00     0.000 HD 
HETATM   50  O   UNL     1     -13.075   8.210  72.141  1.00  0.00    -0.422 OA 
HETATM   51  H2  UNL     1      -7.359   7.738  72.823  1.00  0.00     0.000 HD 
HETATM   52  C   UNL     1     -10.734   7.752  72.573  1.00  0.00    -0.314 C  
HETATM   53  H   UNL     1     -13.294   7.980  73.037  1.00  0.00     0.000 HD 
HETATM   54  O   UNL     1     -11.010   7.484  73.959  1.00  0.00    -0.470 OA 
HETATM   55  C   UNL     1      -9.311   8.321  72.424  1.00  0.00    -0.268 C  
HETATM   56  N   UNL     1      -8.302   7.372  72.951  1.00  0.00    -0.109 NA 
HETATM   57  H   UNL     1     -10.379   6.860  74.295  1.00  0.00     0.000 HD 
BRANCH  47  58
HETATM   58  C   UNL     1     -12.359  10.177  69.965  1.00  0.00    -0.009 C  
HETATM   59  H1  UNL     1     -12.566  11.397  68.258  1.00  0.00     0.000 HD 
HETATM   60  N   UNL     1     -11.933  10.707  68.665  1.00  0.00    -0.772 NA 
HETATM   61  H2  UNL     1     -11.770   9.944  68.007  1.00  0.00     0.000 HD 
ENDBRANCH  47  58
ENDBRANCH  44  45
ENDBRANCH  40  44
ENDBRANCH  29  30
ENDBRANCH  22  29
ENDBRANCH  18  19
ENDBRANCH   7  18
ENDBRANCH   2   5
TORSDOF 9
ENDMDL
MODEL       46
REMARK 921   NORMALIZED FREE ENERGY PREDICTED BY IDOCK:   -6.41 KCAL/MOL
REMARK 922        TOTAL FREE ENERGY PREDICTED BY IDOCK:  -12.59 KCAL/MOL
REMARK 923 INTER-LIGAND FREE ENERGY PREDICTED BY IDOCK:   -9.81 KCAL/MOL
REMARK 924 INTRA-LIGAND FREE ENERGY PREDICTED BY IDOCK:   -2.78 KCAL/MOL
REMARK 927      BINDING AFFINITY PREDICTED BY RF-SCORE:    0.00 PKD
ROOT
HETATM    1  N   UNL     1     -11.040   6.269  69.886  1.00  0.00    -0.367 NA 
HETATM    2  C   UNL     1     -11.029   6.741  68.498  1.00  0.00    -0.192 C  
HETATM    3  H1  UNL     1     -11.960   6.052  70.267  1.00  0.00     0.000 HD 
HETATM    4  H2  UNL     1     -10.563   6.940  70.487  1.00  0.00     0.000 HD 
ENDROOT
BRANCH   2   5
HETATM    5  C   UNL     1      -9.628   7.073  67.918  1.00  0.00    -0.123 C  
HETATM    6  O   UNL     1      -9.636   8.161  66.958  1.00  0.00    -0.167 OA 
HETATM    7  C   UNL     1      -8.293   8.492  66.563  1.00  0.00    -0.113 C  
HETATM    8  C   UNL     1      -7.624   7.282  65.834  1.00  0.00    -0.090 C  
HETATM    9  O   UNL     1      -9.977   5.369  66.210  1.00  0.00    -0.168 OA 
HETATM   10  H   UNL     1      -9.641   4.579  65.801  1.00  0.00     0.000 HD 
HETATM   11  N   UNL     1      -8.288   7.036  64.511  1.00  0.00    -0.333 NA 
HETATM   12  C   UNL     1      -7.666   6.031  66.711  1.00  0.00    -0.100 C  
HETATM   13  H2  UNL     1      -8.296   7.873  63.928  1.00  0.00     0.000 HD 
HETATM   14  O   UNL     1      -6.717   6.095  67.784  1.00  0.00    -0.056 OA 
HETATM   15  C   UNL     1      -9.080   5.786  67.251  1.00  0.00    -0.110 C  
HETATM   16  H1  UNL     1      -7.852   6.246  64.035  1.00  0.00     0.000 HD 
HETATM   17  H   UNL     1      -6.743   5.317  68.329  1.00  0.00     0.000 HD 
BRANCH   7  18
HETATM   18  O   UNL     1      -8.216   9.507  65.578  1.00  0.00    -0.119 OA 
BRANCH  18  19
HETATM   19  C   UNL     1      -8.127  10.873  65.959  1.00  0.00    -0.142 C  
HETATM   20  O   UNL     1     -10.596  10.878  65.709  1.00  0.00    -0.232 OA 
HETATM   21  C   UNL     1      -7.609  10.762  67.399  1.00  0.00    -0.099 C  
HETATM   22  C   UNL     1      -9.536  12.003  67.606  1.00  0.00    -0.185 C  
HETATM   23  H   UNL     1     -11.410  11.359  65.798  1.00  0.00     0.000 HD 
HETATM   24  O   UNL     1      -8.725  11.029  68.265  1.00  0.00    -0.131 OA 
HETATM   25  C   UNL     1      -9.450  11.655  66.103  1.00  0.00    -0.224 C  
BRANCH  21  26
HETATM   26  C   UNL     1      -6.416  11.672  67.703  1.00  0.00    -0.075 C  
HETATM   27  H   UNL     1      -4.959  12.597  66.717  1.00  0.00     0.000 HD 
HETATM   28  O   UNL     1      -5.699  12.032  66.529  1.00  0.00    -0.272 OA 
ENDBRANCH  21  26
BRANCH  22  29
HETATM   29  O   UNL     1      -9.056  13.325  67.883  1.00  0.00    -0.185 OA 
BRANCH  29  30
HETATM   30  C   UNL     1     -10.038  14.416  67.871  1.00  0.00    -0.228 C  
HETATM   31  C   UNL     1      -9.835  15.322  66.629  1.00  0.00    -0.250 C  
HETATM   32  O   UNL     1     -10.641  14.813  65.544  1.00  0.00    -0.312 OA 
HETATM   33  C   UNL     1     -10.141  16.824  66.749  1.00  0.00    -0.294 C  
HETATM   34  C   UNL     1      -9.989  17.372  68.157  1.00  0.00    -0.308 C  
HETATM   35  N   UNL     1      -9.244  17.592  65.848  1.00  0.00    -0.518 NA 
HETATM   36  H   UNL     1     -10.517  15.368  64.783  1.00  0.00     0.000 HD 
HETATM   37  H1  UNL     1      -9.448  18.588  65.928  1.00  0.00     0.000 HD 
HETATM   38  H2  UNL     1      -9.298  17.266  64.884  1.00  0.00     0.000 HD 
HETATM   39  C   UNL     1     -10.798  16.527  69.140  1.00  0.00    -0.334 C  
HETATM   40  C   UNL     1     -10.176  15.112  69.254  1.00  0.00    -0.251 C  
HETATM   41  N   UNL     1     -10.818  17.218  70.448  1.00  0.00     0.043 NA 
HETATM   42  H2  UNL     1     -11.162  18.176  70.379  1.00  0.00     0.000 HD 
HETATM   43  H1  UNL     1     -11.358  16.654  71.103  1.00  0.00     0.000 HD 
BRANCH  40  44
HETATM   44  O   UNL     1     -11.013  14.353  70.160  1.00  0.00    -0.105 OA 
BRANCH  44  45
HETATM   45  C   UNL     1     -12.275  13.937  69.630  1.00  0.00    -0.321 C  
HETATM   46  O   UNL     1     -12.255  12.564  69.234  1.00  0.00    -0.195 OA 
HETATM   47  C   UNL     1     -12.065  11.655  70.328  1.00  0.00    -0.358 C  
HETATM   48  C   UNL     1     -13.160  11.814  71.393  1.00  0.00    -0.223 C  
HETATM   49  H1  UNL     1     -14.195  15.807  71.789  1.00  0.00     0.000 HD 
HETATM   50  O   UNL     1     -12.955  10.948  72.519  1.00  0.00    -0.287 OA 
HETATM   51  H2  UNL     1     -13.550  16.249  70.303  1.00  0.00     0.000 HD 
HETATM   52  C   UNL     1     -13.211  13.271  71.876  1.00  0.00    -0.431 C  
HETATM   53  H   UNL     1     -13.633  11.046  73.178  1.00  0.00     0.000 HD 
HETATM   54  O   UNL     1     -14.302  13.438  72.797  1.00  0.00    -0.633 OA 
HETATM   55  C   UNL     1     -13.396  14.211  70.671  1.00  0.00     0.037 C  
HETATM   56  N   UNL     1     -13.459  15.627  71.106  1.00  0.00    -0.575 NA 
HETATM   57  H   UNL     1     -14.334  14.339  73.095  1.00  0.00     0.000 HD 
BRANCH  47  58
HETATM   58  C   UNL     1     -11.969  10.222  69.759  1.00  0.00    -0.106 C  
HETATM   59  H1  UNL     1     -11.703   9.205  67.931  1.00  0.00     0.000 HD 
HETATM   60  N   UNL     1     -11.766  10.152  68.307  1.00  0.00    -0.681 NA 
HETATM   61  H2  UNL     1     -10.946  10.696  68.037  1.00  0.00     0.000 HD 
ENDBRANCH  47  58
ENDBRANCH  44  45
ENDBRANCH  40  44
ENDBRANCH  29  30
ENDBRANCH  22  29
ENDBRANCH  18  19
ENDBRANCH   7  18
ENDBRANCH   2   5
TORSDOF 9
ENDMDL
MODEL       47
REMARK 921   NORMALIZED FREE ENERGY PREDICTED BY IDOCK:   -6.38 KCAL/MOL
REMARK 922        TOTAL FREE ENERGY PREDICTED BY IDOCK:  -12.55 KCAL/MOL
REMARK 923 INTER-LIGAND FREE ENERGY PREDICTED BY IDOCK:  -10.64 KCAL/MOL
REMARK 924 INTRA-LIGAND FREE ENERGY PREDICTED BY IDOCK:   -1.92 KCAL/MOL
REMARK 927      BINDING AFFINITY PREDICTED BY RF-SCORE:    0.00 PKD
ROOT
HETATM    1  N   UNL     1      -9.615   3.733  64.871  1.00  0.00    -0.167 NA 
HETATM    2  C   UNL     1     -10.678   4.570  65.434  1.00  0.00    -0.125 C  
HETATM    3  H1  UNL     1      -9.917   3.047  64.180  1.00  0.00     0.000 HD 
HETATM    4  H2  UNL     1      -9.102   3.270  65.620  1.00  0.00     0.000 HD 
ENDROOT
BRANCH   2   5
HETATM    5  C   UNL     1     -10.218   5.614  66.486  1.00  0.00    -0.211 C  
HETATM    6  O   UNL     1      -9.108   6.438  66.046  1.00  0.00    -0.154 OA 
HETATM    7  C   UNL     1      -8.823   7.459  67.018  1.00  0.00    -0.128 C  
HETATM    8  C   UNL     1      -8.370   6.816  68.369  1.00  0.00    -0.123 C  
HETATM    9  O   UNL     1      -8.763   3.922  67.469  1.00  0.00    -0.099 OA 
HETATM   10  H   UNL     1      -8.521   3.449  68.257  1.00  0.00     0.000 HD 
HETATM   11  N   UNL     1      -7.033   6.153  68.210  1.00  0.00    -0.077 NA 
HETATM   12  C   UNL     1      -9.418   5.826  68.875  1.00  0.00    -0.124 C  
HETATM   13  H2  UNL     1      -6.332   6.795  67.841  1.00  0.00     0.000 HD 
HETATM   14  O   UNL     1     -10.570   6.490  69.412  1.00  0.00    -0.204 OA 
HETATM   15  C   UNL     1      -9.824   4.842  67.771  1.00  0.00    -0.147 C  
HETATM   16  H1  UNL     1      -6.737   5.733  69.091  1.00  0.00     0.000 HD 
HETATM   17  H   UNL     1     -11.221   5.874  69.727  1.00  0.00     0.000 HD 
BRANCH   7  18
HETATM   18  O   UNL     1      -7.709   8.271  66.691  1.00  0.00    -0.091 OA 
BRANCH  18  19
HETATM   19  C   UNL     1      -7.775   9.681  66.856  1.00  0.00    -0.098 C  
HETATM   20  O   UNL     1      -7.670   9.756  64.377  1.00  0.00    -0.122 OA 
HETATM   21  C   UNL     1      -9.172   9.860  67.463  1.00  0.00    -0.134 C  
HETATM   22  C   UNL     1      -9.209  11.211  65.601  1.00  0.00    -0.218 C  
HETATM   23  H   UNL     1      -7.696  10.284  63.589  1.00  0.00     0.000 HD 
HETATM   24  O   UNL     1     -10.020  10.365  66.418  1.00  0.00    -0.204 OA 
HETATM   25  C   UNL     1      -7.817  10.541  65.575  1.00  0.00    -0.138 C  
BRANCH  21  26
HETATM   26  C   UNL     1      -9.200  10.753  68.706  1.00  0.00    -0.189 C  
HETATM   27  H   UNL     1     -10.536  11.720  69.815  1.00  0.00     0.000 HD 
HETATM   28  O   UNL     1     -10.518  11.166  69.044  1.00  0.00    -0.207 OA 
ENDBRANCH  21  26
BRANCH  22  29
HETATM   29  O   UNL     1      -9.161  12.536  66.146  1.00  0.00    -0.184 OA 
BRANCH  29  30
HETATM   30  C   UNL     1     -10.391  13.335  66.089  1.00  0.00    -0.290 C  
HETATM   31  C   UNL     1     -11.615  12.436  65.774  1.00  0.00    -0.398 C  
HETATM   32  O   UNL     1     -12.181  11.967  67.018  1.00  0.00    -0.516 OA 
HETATM   33  C   UNL     1     -12.772  13.023  64.948  1.00  0.00    -0.390 C  
HETATM   34  C   UNL     1     -12.353  14.140  64.009  1.00  0.00    -0.315 C  
HETATM   35  N   UNL     1     -13.407  11.949  64.143  1.00  0.00    -0.515 NA 
HETATM   36  H   UNL     1     -12.930  11.416  66.824  1.00  0.00     0.000 HD 
HETATM   37  H1  UNL     1     -14.175  12.338  63.595  1.00  0.00     0.000 HD 
HETATM   38  H2  UNL     1     -13.708  11.163  64.719  1.00  0.00     0.000 HD 
HETATM   39  C   UNL     1     -11.580  15.210  64.778  1.00  0.00    -0.364 C  
HETATM   40  C   UNL     1     -10.221  14.636  65.256  1.00  0.00    -0.391 C  
HETATM   41  N   UNL     1     -11.393  16.381  63.894  1.00  0.00    -1.535 NA 
HETATM   42  H2  UNL     1     -12.274  16.730  63.516  1.00  0.00     0.000 HD 
HETATM   43  H1  UNL     1     -10.877  17.096  64.408  1.00  0.00     0.000 HD 
BRANCH  40  44
HETATM   44  O   UNL     1      -9.563  15.681  66.014  1.00  0.00    -0.298 OA 
BRANCH  44  45
HETATM   45  C   UNL     1     -10.139  15.972  67.290  1.00  0.00    -0.266 C  
HETATM   46  O   UNL     1      -9.452  15.296  68.346  1.00  0.00    -0.196 OA 
HETATM   47  C   UNL     1      -8.094  15.726  68.514  1.00  0.00    -0.153 C  
HETATM   48  C   UNL     1      -8.008  17.233  68.798  1.00  0.00    -0.250 C  
HETATM   49  H1  UNL     1     -10.876  19.262  66.600  1.00  0.00     0.000 HD 
HETATM   50  O   UNL     1      -6.654  17.689  68.917  1.00  0.00    -0.208 OA 
HETATM   51  H2  UNL     1     -11.812  17.895  66.326  1.00  0.00     0.000 HD 
HETATM   52  C   UNL     1      -8.711  18.015  67.678  1.00  0.00    -0.247 C  
HETATM   53  H   UNL     1      -6.601  18.621  69.093  1.00  0.00     0.000 HD 
HETATM   54  O   UNL     1      -8.717  19.417  67.998  1.00  0.00    -0.303 OA 
HETATM   55  C   UNL     1     -10.156  17.509  67.519  1.00  0.00    -0.326 C  
HETATM   56  N   UNL     1     -10.865  18.253  66.450  1.00  0.00    -0.115 NA 
HETATM   57  H   UNL     1      -9.152  19.901  67.305  1.00  0.00     0.000 HD 
BRANCH  47  58
HETATM   58  C   UNL     1      -7.442  14.859  69.614  1.00  0.00    -0.126 C  
HETATM   59  H1  UNL     1      -6.698  12.912  69.932  1.00  0.00     0.000 HD 
HETATM   60  N   UNL     1      -7.128  13.485  69.205  1.00  0.00    -0.291 NA 
HETATM   61  H2  UNL     1      -6.548  13.489  68.366  1.00  0.00     0.000 HD 
ENDBRANCH  47  58
ENDBRANCH  44  45
ENDBRANCH  40  44
ENDBRANCH  29  30
ENDBRANCH  22  29
ENDBRANCH  18  19
ENDBRANCH   7  18
ENDBRANCH   2   5
TORSDOF 9
ENDMDL
MODEL       48
REMARK 921   NORMALIZED FREE ENERGY PREDICTED BY IDOCK:   -6.38 KCAL/MOL
REMARK 922        TOTAL FREE ENERGY PREDICTED BY IDOCK:  -12.55 KCAL/MOL
REMARK 923 INTER-LIGAND FREE ENERGY PREDICTED BY IDOCK:  -10.99 KCAL/MOL
REMARK 924 INTRA-LIGAND FREE ENERGY PREDICTED BY IDOCK:   -1.56 KCAL/MOL
REMARK 927      BINDING AFFINITY PREDICTED BY RF-SCORE:    0.00 PKD
ROOT
HETATM    1  N   UNL     1     -12.810  11.911  62.991  1.00  0.00    -0.820 NA 
HETATM    2  C   UNL     1     -11.639  11.663  63.836  1.00  0.00    -0.309 C  
HETATM    3  H1  UNL     1     -13.178  11.095  62.502  1.00  0.00     0.000 HD 
HETATM    4  H2  UNL     1     -12.608  12.655  62.323  1.00  0.00     0.000 HD 
ENDROOT
BRANCH   2   5
HETATM    5  C   UNL     1     -11.078  12.905  64.579  1.00  0.00    -0.342 C  
HETATM    6  O   UNL     1     -10.711  12.645  65.959  1.00  0.00    -0.262 OA 
HETATM    7  C   UNL     1     -10.086  13.802  66.540  1.00  0.00    -0.286 C  
HETATM    8  C   UNL     1     -11.088  15.002  66.582  1.00  0.00    -0.326 C  
HETATM    9  O   UNL     1     -13.360  13.542  65.152  1.00  0.00    -0.655 OA 
HETATM   10  H   UNL     1     -14.024  14.222  65.118  1.00  0.00     0.000 HD 
HETATM   11  N   UNL     1     -12.196  14.723  67.554  1.00  0.00    -0.514 NA 
HETATM   12  C   UNL     1     -11.640  15.294  65.187  1.00  0.00    -0.192 C  
HETATM   13  H2  UNL     1     -11.840  14.494  68.482  1.00  0.00     0.000 HD 
HETATM   14  O   UNL     1     -10.673  15.944  64.351  1.00  0.00    -0.803 OA 
HETATM   15  C   UNL     1     -12.159  14.013  64.522  1.00  0.00    -0.459 C  
HETATM   16  H1  UNL     1     -12.850  15.506  67.581  1.00  0.00     0.000 HD 
HETATM   17  H   UNL     1     -11.017  16.126  63.484  1.00  0.00     0.000 HD 
BRANCH   7  18
HETATM   18  O   UNL     1      -9.752  13.650  67.908  1.00  0.00    -0.219 OA 
BRANCH  18  19
HETATM   19  C   UNL     1      -8.862  12.622  68.320  1.00  0.00    -0.172 C  
HETATM   20  O   UNL     1     -10.924  11.294  68.703  1.00  0.00    -0.187 OA 
HETATM   21  C   UNL     1      -8.113  12.316  67.018  1.00  0.00    -0.141 C  
HETATM   22  C   UNL     1      -8.966  10.274  67.648  1.00  0.00    -0.134 C  
HETATM   23  H   UNL     1     -11.307  10.459  68.945  1.00  0.00     0.000 HD 
HETATM   24  O   UNL     1      -8.640  11.078  66.513  1.00  0.00    -0.153 OA 
HETATM   25  C   UNL     1      -9.484  11.265  68.714  1.00  0.00    -0.139 C  
BRANCH  21  26
HETATM   26  C   UNL     1      -6.590  12.270  67.173  1.00  0.00    -0.109 C  
HETATM   27  H   UNL     1      -5.039  11.325  66.367  1.00  0.00     0.000 HD 
HETATM   28  O   UNL     1      -5.983  11.354  66.271  1.00  0.00    -0.137 OA 
ENDBRANCH  21  26
BRANCH  22  29
HETATM   29  O   UNL     1      -7.812   9.552  68.097  1.00  0.00    -0.083 OA 
BRANCH  29  30
HETATM   30  C   UNL     1      -7.852   8.088  68.004  1.00  0.00    -0.126 C  
HETATM   31  C   UNL     1      -7.664   7.626  66.535  1.00  0.00    -0.097 C  
HETATM   32  O   UNL     1      -6.254   7.433  66.286  1.00  0.00    -0.039 OA 
HETATM   33  C   UNL     1      -8.383   6.353  66.061  1.00  0.00    -0.132 C  
HETATM   34  C   UNL     1      -9.658   6.046  66.825  1.00  0.00    -0.171 C  
HETATM   35  N   UNL     1      -8.719   6.475  64.619  1.00  0.00    -0.329 NA 
HETATM   36  H   UNL     1      -6.139   7.150  65.386  1.00  0.00     0.000 HD 
HETATM   37  H1  UNL     1      -9.196   5.630  64.305  1.00  0.00     0.000 HD 
HETATM   38  H2  UNL     1      -7.900   6.687  64.051  1.00  0.00     0.000 HD 
HETATM   39  C   UNL     1      -9.381   6.038  68.328  1.00  0.00    -0.116 C  
HETATM   40  C   UNL     1      -9.032   7.470  68.806  1.00  0.00    -0.129 C  
HETATM   41  N   UNL     1     -10.575   5.510  69.023  1.00  0.00    -0.228 NA 
HETATM   42  H2  UNL     1     -10.859   4.595  68.672  1.00  0.00     0.000 HD 
HETATM   43  H1  UNL     1     -10.390   5.504  70.026  1.00  0.00     0.000 HD 
BRANCH  40  44
HETATM   44  O   UNL     1      -8.736   7.384  70.222  1.00  0.00    -0.143 OA 
BRANCH  44  45
HETATM   45  C   UNL     1      -9.052   8.550  70.988  1.00  0.00    -0.179 C  
HETATM   46  O   UNL     1     -10.463   8.761  71.071  1.00  0.00    -0.202 OA 
HETATM   47  C   UNL     1     -11.156   7.726  71.783  1.00  0.00    -0.245 C  
HETATM   48  C   UNL     1     -10.627   7.572  73.216  1.00  0.00    -0.384 C  
HETATM   49  H1  UNL     1      -6.525   8.150  73.290  1.00  0.00     0.000 HD 
HETATM   50  O   UNL     1     -11.275   6.506  73.924  1.00  0.00    -0.299 OA 
HETATM   51  H2  UNL     1      -6.486   8.951  71.815  1.00  0.00     0.000 HD 
HETATM   52  C   UNL     1      -9.113   7.316  73.188  1.00  0.00    -0.153 C  
HETATM   53  H   UNL     1     -10.948   6.410  74.811  1.00  0.00     0.000 HD 
HETATM   54  O   UNL     1      -8.604   7.273  74.532  1.00  0.00    -0.194 OA 
HETATM   55  C   UNL     1      -8.411   8.437  72.400  1.00  0.00    -0.172 C  
HETATM   56  N   UNL     1      -6.945   8.224  72.363  1.00  0.00    -0.087 NA 
HETATM   57  H   UNL     1      -7.668   7.115  74.515  1.00  0.00     0.000 HD 
BRANCH  47  58
HETATM   58  C   UNL     1     -12.672   8.024  71.719  1.00  0.00    -0.329 C  
HETATM   59  H1  UNL     1     -14.206   8.933  72.843  1.00  0.00     0.000 HD 
HETATM   60  N   UNL     1     -13.205   8.737  72.886  1.00  0.00    -0.793 NA 
HETATM   61  H2  UNL     1     -12.682   9.598  73.045  1.00  0.00     0.000 HD 
ENDBRANCH  47  58
ENDBRANCH  44  45
ENDBRANCH  40  44
ENDBRANCH  29  30
ENDBRANCH  22  29
ENDBRANCH  18  19
ENDBRANCH   7  18
ENDBRANCH   2   5
TORSDOF 9
ENDMDL
MODEL       49
REMARK 921   NORMALIZED FREE ENERGY PREDICTED BY IDOCK:   -6.34 KCAL/MOL
REMARK 922        TOTAL FREE ENERGY PREDICTED BY IDOCK:  -12.48 KCAL/MOL
REMARK 923 INTER-LIGAND FREE ENERGY PREDICTED BY IDOCK:  -10.25 KCAL/MOL
REMARK 924 INTRA-LIGAND FREE ENERGY PREDICTED BY IDOCK:   -2.23 KCAL/MOL
REMARK 927      BINDING AFFINITY PREDICTED BY RF-SCORE:    0.00 PKD
ROOT
HETATM    1  N   UNL     1      -6.227  20.291  69.424  1.00  0.00    -0.329 NA 
HETATM    2  C   UNL     1      -5.974  18.855  69.277  1.00  0.00    -0.238 C  
HETATM    3  H1  UNL     1      -5.403  20.866  69.593  1.00  0.00     0.000 HD 
HETATM    4  H2  UNL     1      -6.919  20.450  70.156  1.00  0.00     0.000 HD 
ENDROOT
BRANCH   2   5
HETATM    5  C   UNL     1      -7.228  17.979  69.021  1.00  0.00    -0.209 C  
HETATM    6  O   UNL     1      -6.939  16.724  68.352  1.00  0.00    -0.158 OA 
HETATM    7  C   UNL     1      -8.125  15.916  68.264  1.00  0.00    -0.144 C  
HETATM    8  C   UNL     1      -9.208  16.628  67.390  1.00  0.00    -0.213 C  
HETATM    9  O   UNL     1      -7.591  19.179  66.931  1.00  0.00    -0.228 OA 
HETATM   10  H   UNL     1      -8.197  19.691  66.408  1.00  0.00     0.000 HD 
HETATM   11  N   UNL     1      -8.766  16.691  65.958  1.00  0.00    -0.486 NA 
HETATM   12  C   UNL     1      -9.511  18.023  67.934  1.00  0.00    -0.273 C  
HETATM   13  H2  UNL     1      -8.528  15.768  65.592  1.00  0.00     0.000 HD 
HETATM   14  O   UNL     1     -10.301  17.975  69.129  1.00  0.00    -0.439 OA 
HETATM   15  C   UNL     1      -8.218  18.814  68.170  1.00  0.00    -0.304 C  
HETATM   16  H1  UNL     1      -9.472  17.155  65.387  1.00  0.00     0.000 HD 
HETATM   17  H   UNL     1     -10.489  18.843  69.468  1.00  0.00     0.000 HD 
BRANCH   7  18
HETATM   18  O   UNL     1      -7.941  14.696  67.568  1.00  0.00    -0.160 OA 
BRANCH  18  19
HETATM   19  C   UNL     1      -7.802  13.475  68.282  1.00  0.00    -0.145 C  
HETATM   20  O   UNL     1      -9.721  12.709  66.907  1.00  0.00    -0.222 OA 
HETATM   21  C   UNL     1      -6.423  12.995  67.814  1.00  0.00    -0.148 C  
HETATM   22  C   UNL     1      -7.813  11.232  67.311  1.00  0.00    -0.141 C  
HETATM   23  H   UNL     1     -10.303  11.997  66.667  1.00  0.00     0.000 HD 
HETATM   24  O   UNL     1      -6.647  11.932  66.873  1.00  0.00    -0.142 OA 
HETATM   25  C   UNL     1      -8.746  12.318  67.892  1.00  0.00    -0.177 C  
BRANCH  21  26
HETATM   26  C   UNL     1      -5.495  12.565  68.954  1.00  0.00    -0.062 C  
HETATM   27  H   UNL     1      -5.573  12.313  70.923  1.00  0.00     0.000 HD 
HETATM   28  O   UNL     1      -6.149  12.579  70.216  1.00  0.00    -0.149 OA 
ENDBRANCH  21  26
BRANCH  22  29
HETATM   29  O   UNL     1      -7.465  10.241  68.286  1.00  0.00    -0.084 OA 
BRANCH  29  30
HETATM   30  C   UNL     1      -7.763   8.840  67.962  1.00  0.00    -0.101 C  
HETATM   31  C   UNL     1      -7.503   8.558  66.459  1.00  0.00    -0.088 C  
HETATM   32  O   UNL     1      -6.134   8.127  66.295  1.00  0.00    -0.044 OA 
HETATM   33  C   UNL     1      -8.388   7.530  65.735  1.00  0.00    -0.142 C  
HETATM   34  C   UNL     1      -9.773   7.377  66.337  1.00  0.00    -0.163 C  
HETATM   35  N   UNL     1      -8.537   7.914  64.308  1.00  0.00    -0.369 NA 
HETATM   36  H   UNL     1      -5.976   7.954  65.375  1.00  0.00     0.000 HD 
HETATM   37  H1  UNL     1      -9.124   7.232  63.828  1.00  0.00     0.000 HD 
HETATM   38  H2  UNL     1      -7.636   8.037  63.847  1.00  0.00     0.000 HD 
HETATM   39  C   UNL     1      -9.667   7.107  67.837  1.00  0.00    -0.138 C  
HETATM   40  C   UNL     1      -9.115   8.362  68.560  1.00  0.00    -0.136 C  
HETATM   41  N   UNL     1     -11.006   6.734  68.343  1.00  0.00    -0.447 NA 
HETATM   42  H2  UNL     1     -11.413   5.950  67.832  1.00  0.00     0.000 HD 
HETATM   43  H1  UNL     1     -10.935   6.553  69.344  1.00  0.00     0.000 HD 
BRANCH  40  44
HETATM   44  O   UNL     1      -8.996   8.024  69.964  1.00  0.00    -0.142 OA 
BRANCH  44  45
HETATM   45  C   UNL     1      -9.161   9.114  70.875  1.00  0.00    -0.261 C  
HETATM   46  O   UNL     1      -9.989  10.142  70.325  1.00  0.00    -0.204 OA 
HETATM   47  C   UNL     1     -11.342   9.725  70.093  1.00  0.00    -0.251 C  
HETATM   48  C   UNL     1     -12.013   9.234  71.384  1.00  0.00    -0.351 C  
HETATM   49  H1  UNL     1      -9.274   7.180  73.719  1.00  0.00     0.000 HD 
HETATM   50  O   UNL     1     -13.349   8.765  71.158  1.00  0.00    -0.525 OA 
HETATM   51  H2  UNL     1      -7.936   7.836  72.946  1.00  0.00     0.000 HD 
HETATM   52  C   UNL     1     -11.177   8.107  72.009  1.00  0.00    -0.310 C  
HETATM   53  H   UNL     1     -13.764   8.461  71.957  1.00  0.00     0.000 HD 
HETATM   54  O   UNL     1     -11.753   7.719  73.268  1.00  0.00    -0.659 OA 
HETATM   55  C   UNL     1      -9.731   8.589  72.222  1.00  0.00    -0.310 C  
HETATM   56  N   UNL     1      -8.901   7.524  72.835  1.00  0.00    -0.132 NA 
HETATM   57  H   UNL     1     -11.236   7.022  73.654  1.00  0.00     0.000 HD 
BRANCH  47  58
HETATM   58  C   UNL     1     -12.099  10.889  69.415  1.00  0.00    -0.290 C  
HETATM   59  H1  UNL     1     -12.509  11.677  67.503  1.00  0.00     0.000 HD 
HETATM   60  N   UNL     1     -12.009  10.908  67.950  1.00  0.00    -0.735 NA 
HETATM   61  H2  UNL     1     -12.315  10.014  67.565  1.00  0.00     0.000 HD 
ENDBRANCH  47  58
ENDBRANCH  44  45
ENDBRANCH  40  44
ENDBRANCH  29  30
ENDBRANCH  22  29
ENDBRANCH  18  19
ENDBRANCH   7  18
ENDBRANCH   2   5
TORSDOF 9
ENDMDL
MODEL       50
REMARK 921   NORMALIZED FREE ENERGY PREDICTED BY IDOCK:   -6.32 KCAL/MOL
REMARK 922        TOTAL FREE ENERGY PREDICTED BY IDOCK:  -12.47 KCAL/MOL
REMARK 923 INTER-LIGAND FREE ENERGY PREDICTED BY IDOCK:  -10.21 KCAL/MOL
REMARK 924 INTRA-LIGAND FREE ENERGY PREDICTED BY IDOCK:   -2.26 KCAL/MOL
REMARK 927      BINDING AFFINITY PREDICTED BY RF-SCORE:    0.00 PKD
ROOT
HETATM    1  N   UNL     1     -10.953   5.320  66.275  1.00  0.00    -0.707 NA 
HETATM    2  C   UNL     1      -9.771   4.742  65.629  1.00  0.00    -0.174 C  
HETATM    3  H1  UNL     1     -11.813   4.782  66.176  1.00  0.00     0.000 HD 
HETATM    4  H2  UNL     1     -11.099   6.274  65.945  1.00  0.00     0.000 HD 
ENDROOT
BRANCH   2   5
HETATM    5  C   UNL     1      -8.462   5.561  65.778  1.00  0.00    -0.134 C  
HETATM    6  O   UNL     1      -8.371   6.688  64.867  1.00  0.00    -0.120 OA 
HETATM    7  C   UNL     1      -7.196   7.469  65.150  1.00  0.00    -0.066 C  
HETATM    8  C   UNL     1      -5.905   6.619  64.913  1.00  0.00    -0.031 C  
HETATM    9  O   UNL     1      -7.374   4.029  64.225  1.00  0.00    -0.064 OA 
HETATM   10  H   UNL     1      -6.645   3.437  64.080  1.00  0.00     0.000 HD 
HETATM   11  N   UNL     1      -5.738   6.319  63.452  1.00  0.00    -0.022 NA 
HETATM   12  C   UNL     1      -5.944   5.333  65.737  1.00  0.00    -0.025 C  
HETATM   13  H2  UNL     1      -5.743   7.168  62.886  1.00  0.00     0.000 HD 
HETATM   14  O   UNL     1      -5.701   5.579  67.129  1.00  0.00    -0.016 OA 
HETATM   15  C   UNL     1      -7.274   4.595  65.541  1.00  0.00    -0.071 C  
HETATM   16  H1  UNL     1      -4.896   5.765  63.297  1.00  0.00     0.000 HD 
HETATM   17  H   UNL     1      -5.725   4.780  67.642  1.00  0.00     0.000 HD 
BRANCH   7  18
HETATM   18  O   UNL     1      -7.000   8.555  64.263  1.00  0.00    -0.079 OA 
BRANCH  18  19
HETATM   19  C   UNL     1      -7.174   9.892  64.714  1.00  0.00    -0.136 C  
HETATM   20  O   UNL     1      -9.348   9.779  63.522  1.00  0.00    -0.360 OA 
HETATM   21  C   UNL     1      -7.244   9.701  66.234  1.00  0.00    -0.094 C  
HETATM   22  C   UNL     1      -9.194  10.815  65.733  1.00  0.00    -0.189 C  
HETATM   23  H   UNL     1     -10.169  10.206  63.309  1.00  0.00     0.000 HD 
HETATM   24  O   UNL     1      -8.625   9.841  66.609  1.00  0.00    -0.126 OA 
HETATM   25  C   UNL     1      -8.508  10.586  64.368  1.00  0.00    -0.129 C  
BRANCH  21  26
HETATM   26  C   UNL     1      -6.337  10.650  67.022  1.00  0.00    -0.073 C  
HETATM   27  H   UNL     1      -5.067  12.136  66.664  1.00  0.00     0.000 HD 
HETATM   28  O   UNL     1      -5.630  11.547  66.176  1.00  0.00    -0.233 OA 
ENDBRANCH  21  26
BRANCH  22  29
HETATM   29  O   UNL     1      -8.966  12.137  66.239  1.00  0.00    -0.184 OA 
BRANCH  29  30
HETATM   30  C   UNL     1     -10.116  13.047  66.295  1.00  0.00    -0.282 C  
HETATM   31  C   UNL     1     -11.429  12.292  65.960  1.00  0.00    -0.381 C  
HETATM   32  O   UNL     1     -11.995  11.774  67.185  1.00  0.00    -0.617 OA 
HETATM   33  C   UNL     1     -12.552  13.048  65.231  1.00  0.00    -0.457 C  
HETATM   34  C   UNL     1     -12.062  14.196  64.368  1.00  0.00    -0.486 C  
HETATM   35  N   UNL     1     -13.313  12.106  64.370  1.00  0.00    -0.598 NA 
HETATM   36  H   UNL     1     -12.799  11.312  66.979  1.00  0.00     0.000 HD 
HETATM   37  H1  UNL     1     -14.058  12.608  63.887  1.00  0.00     0.000 HD 
HETATM   38  H2  UNL     1     -13.666  11.306  64.894  1.00  0.00     0.000 HD 
HETATM   39  C   UNL     1     -11.166  15.124  65.187  1.00  0.00    -0.389 C  
HETATM   40  C   UNL     1      -9.852  14.391  65.562  1.00  0.00    -0.266 C  
HETATM   41  N   UNL     1     -10.900  16.343  64.392  1.00  0.00    -1.020 NA 
HETATM   42  H2  UNL     1     -11.756  16.800  64.080  1.00  0.00     0.000 HD 
HETATM   43  H1  UNL     1     -10.302  16.962  64.940  1.00  0.00     0.000 HD 
BRANCH  40  44
HETATM   44  O   UNL     1      -9.074  15.305  66.373  1.00  0.00    -0.276 OA 
BRANCH  44  45
HETATM   45  C   UNL     1      -9.496  15.434  67.733  1.00  0.00    -0.204 C  
HETATM   46  O   UNL     1      -8.687  14.652  68.614  1.00  0.00    -0.167 OA 
HETATM   47  C   UNL     1      -7.320  15.085  68.672  1.00  0.00    -0.118 C  
HETATM   48  C   UNL     1      -7.208  16.549  69.121  1.00  0.00    -0.226 C  
HETATM   49  H1  UNL     1     -10.325  18.768  67.529  1.00  0.00     0.000 HD 
HETATM   50  O   UNL     1      -5.851  17.013  69.133  1.00  0.00    -0.154 OA 
HETATM   51  H2  UNL     1     -11.280  17.425  67.206  1.00  0.00     0.000 HD 
HETATM   52  C   UNL     1      -8.042  17.444  68.191  1.00  0.00    -0.232 C  
HETATM   53  H   UNL     1      -5.782  17.919  69.411  1.00  0.00     0.000 HD 
HETATM   54  O   UNL     1      -8.017  18.799  68.673  1.00  0.00    -0.328 OA 
HETATM   55  C   UNL     1      -9.493  16.933  68.142  1.00  0.00    -0.251 C  
HETATM   56  N   UNL     1     -10.327  17.784  67.260  1.00  0.00    -0.353 NA 
HETATM   57  H   UNL     1      -8.532  19.352  68.098  1.00  0.00     0.000 HD 
BRANCH  47  58
HETATM   58  C   UNL     1      -6.539  14.107  69.578  1.00  0.00    -0.124 C  
HETATM   59  H1  UNL     1      -6.020  13.813  71.600  1.00  0.00     0.000 HD 
HETATM   60  N   UNL     1      -6.536  14.459  71.002  1.00  0.00    -0.240 NA 
HETATM   61  H2  UNL     1      -7.492  14.569  71.341  1.00  0.00     0.000 HD 
ENDBRANCH  47  58
ENDBRANCH  44  45
ENDBRANCH  40  44
ENDBRANCH  29  30
ENDBRANCH  22  29
ENDBRANCH  18  19
ENDBRANCH   7  18
ENDBRANCH   2   5
TORSDOF 9
ENDMDL
MODEL       51
REMARK 921   NORMALIZED FREE ENERGY PREDICTED BY IDOCK:   -6.32 KCAL/MOL
REMARK 922        TOTAL FREE ENERGY PREDICTED BY IDOCK:  -12.45 KCAL/MOL
REMARK 923 INTER-LIGAND FREE ENERGY PREDICTED BY IDOCK:  -10.19 KCAL/MOL
REMARK 924 INTRA-LIGAND FREE ENERGY PREDICTED BY IDOCK:   -2.26 KCAL/MOL
REMARK 927      BINDING AFFINITY PREDICTED BY RF-SCORE:    0.00 PKD
ROOT
HETATM    1  N   UNL     1     -10.824  15.146  67.412  1.00  0.00    -0.295 NA 
HETATM    2  C   UNL     1     -12.103  14.697  66.855  1.00  0.00    -0.198 C  
HETATM    3  H1  UNL     1     -10.871  15.974  68.005  1.00  0.00     0.000 HD 
HETATM    4  H2  UNL     1     -10.149  15.293  66.662  1.00  0.00     0.000 HD 
ENDROOT
BRANCH   2   5
HETATM    5  C   UNL     1     -12.031  13.438  65.952  1.00  0.00    -0.409 C  
HETATM    6  O   UNL     1     -11.046  12.464  66.383  1.00  0.00    -0.274 OA 
HETATM    7  C   UNL     1     -11.126  11.276  65.577  1.00  0.00    -0.067 C  
HETATM    8  C   UNL     1     -10.782  11.602  64.087  1.00  0.00    -0.362 C  
HETATM    9  O   UNL     1     -10.456  14.611  64.509  1.00  0.00    -0.566 OA 
HETATM   10  H   UNL     1     -10.257  14.901  63.625  1.00  0.00     0.000 HD 
HETATM   11  N   UNL     1      -9.335  11.974  63.953  1.00  0.00    -0.477 NA 
HETATM   12  C   UNL     1     -11.687  12.713  63.554  1.00  0.00    -0.531 C  
HETATM   13  H2  UNL     1      -8.720  11.255  64.336  1.00  0.00     0.000 HD 
HETATM   14  O   UNL     1     -13.017  12.245  63.295  1.00  0.00    -0.707 OA 
HETATM   15  C   UNL     1     -11.709  13.911  64.512  1.00  0.00    -0.410 C  
HETATM   16  H1  UNL     1      -9.110  12.187  62.982  1.00  0.00     0.000 HD 
HETATM   17  H   UNL     1     -13.579  12.936  62.964  1.00  0.00     0.000 HD 
BRANCH   7  18
HETATM   18  O   UNL     1     -10.153  10.297  65.895  1.00  0.00    -0.246 OA 
BRANCH  18  19
HETATM   19  C   UNL     1     -10.121   9.709  67.188  1.00  0.00    -0.218 C  
HETATM   20  O   UNL     1     -10.278   7.552  65.971  1.00  0.00    -0.323 OA 
HETATM   21  C   UNL     1      -8.717  10.093  67.672  1.00  0.00    -0.121 C  
HETATM   22  C   UNL     1      -8.753   7.801  67.869  1.00  0.00    -0.124 C  
HETATM   23  H   UNL     1     -10.281   6.603  66.017  1.00  0.00     0.000 HD 
HETATM   24  O   UNL     1      -7.905   8.912  67.576  1.00  0.00    -0.100 OA 
HETATM   25  C   UNL     1     -10.128   8.167  67.264  1.00  0.00    -0.241 C  
BRANCH  21  26
HETATM   26  C   UNL     1      -8.688  10.697  69.079  1.00  0.00    -0.146 C  
HETATM   27  H   UNL     1      -7.358  11.446  70.350  1.00  0.00     0.000 HD 
HETATM   28  O   UNL     1      -7.376  11.072  69.478  1.00  0.00    -0.126 OA 
ENDBRANCH  21  26
BRANCH  22  29
HETATM   29  O   UNL     1      -8.826   7.587  69.284  1.00  0.00    -0.136 OA 
BRANCH  29  30
HETATM   30  C   UNL     1      -9.535   6.388  69.750  1.00  0.00    -0.152 C  
HETATM   31  C   UNL     1     -10.752   6.778  70.629  1.00  0.00    -0.235 C  
HETATM   32  O   UNL     1     -11.911   6.926  69.780  1.00  0.00    -0.625 OA 
HETATM   33  C   UNL     1     -11.157   5.850  71.786  1.00  0.00    -0.265 C  
HETATM   34  C   UNL     1     -10.010   5.031  72.348  1.00  0.00    -0.226 C  
HETATM   35  N   UNL     1     -11.745   6.653  72.889  1.00  0.00    -0.481 NA 
HETATM   36  H   UNL     1     -12.656   7.165  70.319  1.00  0.00     0.000 HD 
HETATM   37  H1  UNL     1     -12.014   6.037  73.657  1.00  0.00     0.000 HD 
HETATM   38  H2  UNL     1     -12.522   7.232  72.572  1.00  0.00     0.000 HD 
HETATM   39  C   UNL     1      -9.295   4.286  71.223  1.00  0.00    -0.149 C  
HETATM   40  C   UNL     1      -8.572   5.299  70.298  1.00  0.00    -0.121 C  
HETATM   41  N   UNL     1      -8.344   3.325  71.824  1.00  0.00    -0.064 NA 
HETATM   42  H2  UNL     1      -8.793   2.694  72.488  1.00  0.00     0.000 HD 
HETATM   43  H1  UNL     1      -7.867   2.828  71.072  1.00  0.00     0.000 HD 
BRANCH  40  44
HETATM   44  O   UNL     1      -7.956   4.535  69.232  1.00  0.00    -0.068 OA 
BRANCH  44  45
HETATM   45  C   UNL     1      -8.727   3.435  68.739  1.00  0.00    -0.100 C  
HETATM   46  O   UNL     1      -9.525   3.812  67.615  1.00  0.00    -0.183 OA 
HETATM   47  C   UNL     1      -8.754   4.189  66.465  1.00  0.00    -0.115 C  
HETATM   48  C   UNL     1      -7.822   3.056  66.011  1.00  0.00    -0.081 C  
HETATM   49  H1  UNL     1      -6.321   1.041  69.306  1.00  0.00     0.000 HD 
HETATM   50  O   UNL     1      -7.006   3.436  64.895  1.00  0.00    -0.053 OA 
HETATM   51  H2  UNL     1      -7.514   1.600  70.347  1.00  0.00     0.000 HD 
HETATM   52  C   UNL     1      -6.918   2.626  67.177  1.00  0.00    -0.048 C  
HETATM   53  H   UNL     1      -6.429   2.735  64.614  1.00  0.00     0.000 HD 
HETATM   54  O   UNL     1      -6.119   1.499  66.779  1.00  0.00    -0.019 OA 
HETATM   55  C   UNL     1      -7.784   2.249  68.393  1.00  0.00    -0.054 C  
HETATM   56  N   UNL     1      -6.940   1.819  69.533  1.00  0.00    -0.033 NA 
HETATM   57  H   UNL     1      -5.560   1.233  67.500  1.00  0.00     0.000 HD 
BRANCH  47  58
HETATM   58  C   UNL     1      -9.727   4.660  65.361  1.00  0.00    -0.162 C  
HETATM   59  H1  UNL     1     -11.772   5.064  65.050  1.00  0.00     0.000 HD 
HETATM   60  N   UNL     1     -11.130   4.753  65.780  1.00  0.00    -0.876 NA 
HETATM   61  H2  UNL     1     -11.215   5.349  66.604  1.00  0.00     0.000 HD 
ENDBRANCH  47  58
ENDBRANCH  44  45
ENDBRANCH  40  44
ENDBRANCH  29  30
ENDBRANCH  22  29
ENDBRANCH  18  19
ENDBRANCH   7  18
ENDBRANCH   2   5
TORSDOF 9
ENDMDL
MODEL       52
REMARK 921   NORMALIZED FREE ENERGY PREDICTED BY IDOCK:   -6.29 KCAL/MOL
REMARK 922        TOTAL FREE ENERGY PREDICTED BY IDOCK:  -12.41 KCAL/MOL
REMARK 923 INTER-LIGAND FREE ENERGY PREDICTED BY IDOCK:  -10.34 KCAL/MOL
REMARK 924 INTRA-LIGAND FREE ENERGY PREDICTED BY IDOCK:   -2.07 KCAL/MOL
REMARK 927      BINDING AFFINITY PREDICTED BY RF-SCORE:    0.00 PKD
ROOT
HETATM    1  N   UNL     1      -6.039  16.799  66.668  1.00  0.00    -0.300 NA 
HETATM    2  C   UNL     1      -6.408  17.743  67.726  1.00  0.00    -0.175 C  
HETATM    3  H1  UNL     1      -5.040  16.627  66.562  1.00  0.00     0.000 HD 
HETATM    4  H2  UNL     1      -6.437  17.099  65.778  1.00  0.00     0.000 HD 
ENDROOT
BRANCH   2   5
HETATM    5  C   UNL     1      -7.928  18.005  67.886  1.00  0.00    -0.241 C  
HETATM    6  O   UNL     1      -8.760  16.884  67.490  1.00  0.00    -0.204 OA 
HETATM    7  C   UNL     1     -10.142  17.153  67.784  1.00  0.00    -0.306 C  
HETATM    8  C   UNL     1     -10.649  18.378  66.954  1.00  0.00    -0.347 C  
HETATM    9  O   UNL     1      -7.951  18.998  65.660  1.00  0.00    -0.437 OA 
HETATM   10  H   UNL     1      -8.168  19.762  65.137  1.00  0.00     0.000 HD 
HETATM   11  N   UNL     1     -10.701  18.034  65.494  1.00  0.00    -0.536 NA 
HETATM   12  C   UNL     1      -9.766  19.601  67.200  1.00  0.00    -0.355 C  
HETATM   13  H2  UNL     1     -11.260  17.199  65.320  1.00  0.00     0.000 HD 
HETATM   14  O   UNL     1     -10.008  20.189  68.485  1.00  0.00    -0.351 OA 
HETATM   15  C   UNL     1      -8.282  19.250  67.034  1.00  0.00    -0.266 C  
HETATM   16  H1  UNL     1     -11.031  18.833  64.953  1.00  0.00     0.000 HD 
HETATM   17  H   UNL     1      -9.459  20.949  68.638  1.00  0.00     0.000 HD 
BRANCH   7  18
HETATM   18  O   UNL     1     -11.029  16.130  67.370  1.00  0.00    -0.302 OA 
BRANCH  18  19
HETATM   19  C   UNL     1     -10.523  14.894  66.883  1.00  0.00    -0.280 C  
HETATM   20  O   UNL     1     -10.531  14.204  69.267  1.00  0.00    -0.391 OA 
HETATM   21  C   UNL     1     -11.701  14.383  66.044  1.00  0.00    -0.375 C  
HETATM   22  C   UNL     1     -11.301  12.668  67.525  1.00  0.00    -0.308 C  
HETATM   23  H   UNL     1     -10.388  13.512  69.902  1.00  0.00     0.000 HD 
HETATM   24  O   UNL     1     -12.335  13.342  66.805  1.00  0.00    -0.318 OA 
HETATM   25  C   UNL     1     -10.291  13.770  67.915  1.00  0.00    -0.244 C  
BRANCH  21  26
HETATM   26  C   UNL     1     -11.307  13.910  64.642  1.00  0.00    -0.375 C  
HETATM   27  H   UNL     1     -12.147  13.686  62.855  1.00  0.00     0.000 HD 
HETATM   28  O   UNL     1     -12.391  13.979  63.725  1.00  0.00    -0.684 OA 
ENDBRANCH  21  26
BRANCH  22  29
HETATM   29  O   UNL     1     -10.704  11.652  66.709  1.00  0.00    -0.237 OA 
BRANCH  29  30
HETATM   30  C   UNL     1      -9.405  11.119  67.137  1.00  0.00    -0.165 C  
HETATM   31  C   UNL     1      -8.298  11.483  66.113  1.00  0.00    -0.018 C  
HETATM   32  O   UNL     1      -7.712  12.748  66.492  1.00  0.00    -0.273 OA 
HETATM   33  C   UNL     1      -7.139  10.498  65.895  1.00  0.00    -0.134 C  
HETATM   34  C   UNL     1      -7.496   9.052  66.186  1.00  0.00    -0.091 C  
HETATM   35  N   UNL     1      -6.662  10.588  64.490  1.00  0.00    -0.349 NA 
HETATM   36  H   UNL     1      -7.034  12.971  65.865  1.00  0.00     0.000 HD 
HETATM   37  H1  UNL     1      -5.893   9.935  64.346  1.00  0.00     0.000 HD 
HETATM   38  H2  UNL     1      -6.410  11.542  64.231  1.00  0.00     0.000 HD 
HETATM   39  C   UNL     1      -8.112   8.933  67.579  1.00  0.00    -0.109 C  
HETATM   40  C   UNL     1      -9.491   9.640  67.607  1.00  0.00    -0.133 C  
HETATM   41  N   UNL     1      -8.230   7.498  67.920  1.00  0.00    -0.122 NA 
HETATM   42  H2  UNL     1      -7.342   7.003  67.841  1.00  0.00     0.000 HD 
HETATM   43  H1  UNL     1      -8.641   7.420  68.850  1.00  0.00     0.000 HD 
BRANCH  40  44
HETATM   44  O   UNL     1      -9.996   9.531  68.961  1.00  0.00    -0.169 OA 
BRANCH  44  45
HETATM   45  C   UNL     1     -11.106   8.646  69.134  1.00  0.00     0.183 C  
HETATM   46  O   UNL     1     -10.691   7.366  69.617  1.00  0.00    -0.236 OA 
HETATM   47  C   UNL     1     -10.120   7.408  70.933  1.00  0.00    -0.188 C  
HETATM   48  C   UNL     1     -11.102   7.993  71.959  1.00  0.00    -0.293 C  
HETATM   49  H1  UNL     1     -13.302  11.054  70.240  1.00  0.00     0.000 HD 
HETATM   50  O   UNL     1     -10.526   8.089  73.269  1.00  0.00    -0.293 OA 
HETATM   51  H2  UNL     1     -12.976  10.571  68.665  1.00  0.00     0.000 HD 
HETATM   52  C   UNL     1     -11.564   9.385  71.503  1.00  0.00    -0.397 C  
HETATM   53  H   UNL     1     -11.134   8.451  73.904  1.00  0.00     0.000 HD 
HETATM   54  O   UNL     1     -12.559   9.886  72.413  1.00  0.00    -0.225 OA 
HETATM   55  C   UNL     1     -12.151   9.298  70.082  1.00  0.00     0.302 C  
HETATM   56  N   UNL     1     -12.616  10.626  69.618  1.00  0.00    -0.191 NA 
HETATM   57  H   UNL     1     -12.845  10.747  72.130  1.00  0.00     0.000 HD 
BRANCH  47  58
HETATM   58  C   UNL     1      -9.630   5.988  71.295  1.00  0.00    -0.167 C  
HETATM   59  H1  UNL     1      -9.897   3.974  70.729  1.00  0.00     0.000 HD 
HETATM   60  N   UNL     1     -10.220   4.912  70.490  1.00  0.00    -0.241 NA 
HETATM   61  H2  UNL     1     -10.076   5.094  69.496  1.00  0.00     0.000 HD 
ENDBRANCH  47  58
ENDBRANCH  44  45
ENDBRANCH  40  44
ENDBRANCH  29  30
ENDBRANCH  22  29
ENDBRANCH  18  19
ENDBRANCH   7  18
ENDBRANCH   2   5
TORSDOF 9
ENDMDL
MODEL       53
REMARK 921   NORMALIZED FREE ENERGY PREDICTED BY IDOCK:   -6.27 KCAL/MOL
REMARK 922        TOTAL FREE ENERGY PREDICTED BY IDOCK:  -12.38 KCAL/MOL
REMARK 923 INTER-LIGAND FREE ENERGY PREDICTED BY IDOCK:   -9.83 KCAL/MOL
REMARK 924 INTRA-LIGAND FREE ENERGY PREDICTED BY IDOCK:   -2.55 KCAL/MOL
REMARK 927      BINDING AFFINITY PREDICTED BY RF-SCORE:    0.00 PKD
ROOT
HETATM    1  N   UNL     1     -12.572  13.536  62.804  1.00  0.00    -0.648 NA 
HETATM    2  C   UNL     1     -12.109  12.488  63.717  1.00  0.00    -0.529 C  
HETATM    3  H1  UNL     1     -13.102  13.211  61.996  1.00  0.00     0.000 HD 
HETATM    4  H2  UNL     1     -11.783  14.105  62.497  1.00  0.00     0.000 HD 
ENDROOT
BRANCH   2   5
HETATM    5  C   UNL     1     -11.302  12.982  64.946  1.00  0.00    -0.303 C  
HETATM    6  O   UNL     1     -11.431  12.128  66.112  1.00  0.00    -0.346 OA 
HETATM    7  C   UNL     1     -10.559  12.579  67.164  1.00  0.00    -0.228 C  
HETATM    8  C   UNL     1     -10.967  14.013  67.636  1.00  0.00    -0.269 C  
HETATM    9  O   UNL     1     -13.197  14.380  65.578  1.00  0.00    -0.579 OA 
HETATM   10  H   UNL     1     -13.497  15.257  65.786  1.00  0.00     0.000 HD 
HETATM   11  N   UNL     1     -12.299  13.977  68.326  1.00  0.00    -0.508 NA 
HETATM   12  C   UNL     1     -10.985  14.985  66.457  1.00  0.00    -0.327 C  
HETATM   13  H2  UNL     1     -12.310  13.307  69.095  1.00  0.00     0.000 HD 
HETATM   14  O   UNL     1      -9.662  15.343  66.035  1.00  0.00    -0.287 OA 
HETATM   15  C   UNL     1     -11.791  14.413  65.284  1.00  0.00    -0.373 C  
HETATM   16  H1  UNL     1     -12.565  14.912  68.633  1.00  0.00     0.000 HD 
HETATM   17  H   UNL     1      -9.673  15.948  65.302  1.00  0.00     0.000 HD 
BRANCH   7  18
HETATM   18  O   UNL     1     -10.670  11.833  68.363  1.00  0.00    -0.200 OA 
BRANCH  18  19
HETATM   19  C   UNL     1      -9.601  11.000  68.793  1.00  0.00    -0.187 C  
HETATM   20  O   UNL     1     -11.358   9.272  69.089  1.00  0.00    -0.443 OA 
HETATM   21  C   UNL     1      -8.765  10.879  67.513  1.00  0.00    -0.130 C  
HETATM   22  C   UNL     1      -9.201   8.695  68.088  1.00  0.00    -0.137 C  
HETATM   23  H   UNL     1     -11.569   8.372  69.307  1.00  0.00     0.000 HD 
HETATM   24  O   UNL     1      -9.012   9.569  66.975  1.00  0.00    -0.133 OA 
HETATM   25  C   UNL     1      -9.944   9.538  69.149  1.00  0.00    -0.183 C  
BRANCH  21  26
HETATM   26  C   UNL     1      -7.271  11.143  67.719  1.00  0.00    -0.091 C  
HETATM   27  H   UNL     1      -6.059  11.808  69.146  1.00  0.00     0.000 HD 
HETATM   28  O   UNL     1      -6.986  11.645  69.018  1.00  0.00    -0.099 OA 
ENDBRANCH  21  26
BRANCH  22  29
HETATM   29  O   UNL     1      -7.938   8.215  68.568  1.00  0.00    -0.121 OA 
BRANCH  29  30
HETATM   30  C   UNL     1      -7.641   6.790  68.382  1.00  0.00    -0.104 C  
HETATM   31  C   UNL     1      -6.456   6.599  67.399  1.00  0.00    -0.048 C  
HETATM   32  O   UNL     1      -5.224   6.582  68.154  1.00  0.00    -0.007 OA 
HETATM   33  C   UNL     1      -6.442   5.362  66.488  1.00  0.00    -0.044 C  
HETATM   34  C   UNL     1      -7.822   4.814  66.172  1.00  0.00    -0.099 C  
HETATM   35  N   UNL     1      -5.765   5.691  65.207  1.00  0.00    -0.016 NA 
HETATM   36  H   UNL     1      -4.499   6.466  67.552  1.00  0.00     0.000 HD 
HETATM   37  H1  UNL     1      -5.756   4.869  64.602  1.00  0.00     0.000 HD 
HETATM   38  H2  UNL     1      -4.830   6.071  65.353  1.00  0.00     0.000 HD 
HETATM   39  C   UNL     1      -8.603   4.581  67.465  1.00  0.00    -0.103 C  
HETATM   40  C   UNL     1      -8.920   5.940  68.140  1.00  0.00    -0.115 C  
HETATM   41  N   UNL     1      -9.838   3.835  67.139  1.00  0.00    -0.298 NA 
HETATM   42  H2  UNL     1      -9.651   2.969  66.633  1.00  0.00     0.000 HD 
HETATM   43  H1  UNL     1     -10.359   3.680  68.002  1.00  0.00     0.000 HD 
BRANCH  40  44
HETATM   44  O   UNL     1      -9.616   5.646  69.376  1.00  0.00    -0.132 OA 
BRANCH  44  45
HETATM   45  C   UNL     1      -8.887   5.926  70.574  1.00  0.00    -0.144 C  
HETATM   46  O   UNL     1      -9.455   7.024  71.293  1.00  0.00    -0.164 OA 
HETATM   47  C   UNL     1     -10.775   6.763  71.788  1.00  0.00    -0.224 C  
HETATM   48  C   UNL     1     -10.801   5.540  72.717  1.00  0.00    -0.263 C  
HETATM   49  H1  UNL     1      -8.182   2.644  71.330  1.00  0.00     0.000 HD 
HETATM   50  O   UNL     1     -12.125   5.235  73.179  1.00  0.00    -0.532 OA 
HETATM   51  H2  UNL     1      -7.309   3.714  70.375  1.00  0.00     0.000 HD 
HETATM   52  C   UNL     1     -10.224   4.319  71.986  1.00  0.00    -0.150 C  
HETATM   53  H   UNL     1     -12.140   4.478  73.754  1.00  0.00     0.000 HD 
HETATM   54  O   UNL     1     -10.156   3.202  72.889  1.00  0.00    -0.133 OA 
HETATM   55  C   UNL     1      -8.817   4.648  71.455  1.00  0.00    -0.123 C  
HETATM   56  N   UNL     1      -8.228   3.483  70.752  1.00  0.00    -0.063 NA 
HETATM   57  H   UNL     1      -9.799   2.447  72.437  1.00  0.00     0.000 HD 
BRANCH  47  58
HETATM   58  C   UNL     1     -11.306   8.051  72.458  1.00  0.00    -0.406 C  
HETATM   59  H1  UNL     1     -13.109   9.089  72.801  1.00  0.00     0.000 HD 
HETATM   60  N   UNL     1     -12.758   8.239  72.359  1.00  0.00    -0.542 NA 
HETATM   61  H2  UNL     1     -13.247   7.421  72.726  1.00  0.00     0.000 HD 
ENDBRANCH  47  58
ENDBRANCH  44  45
ENDBRANCH  40  44
ENDBRANCH  29  30
ENDBRANCH  22  29
ENDBRANCH  18  19
ENDBRANCH   7  18
ENDBRANCH   2   5
TORSDOF 9
ENDMDL
MODEL       54
REMARK 921   NORMALIZED FREE ENERGY PREDICTED BY IDOCK:   -6.26 KCAL/MOL
REMARK 922        TOTAL FREE ENERGY PREDICTED BY IDOCK:  -12.37 KCAL/MOL
REMARK 923 INTER-LIGAND FREE ENERGY PREDICTED BY IDOCK:  -10.61 KCAL/MOL
REMARK 924 INTRA-LIGAND FREE ENERGY PREDICTED BY IDOCK:   -1.76 KCAL/MOL
REMARK 927      BINDING AFFINITY PREDICTED BY RF-SCORE:    0.00 PKD
ROOT
HETATM    1  N   UNL     1      -5.193  20.266  69.932  1.00  0.00    -0.224 NA 
HETATM    2  C   UNL     1      -6.648  20.308  70.104  1.00  0.00    -0.111 C  
HETATM    3  H1  UNL     1      -4.653  20.755  70.645  1.00  0.00     0.000 HD 
HETATM    4  H2  UNL     1      -4.941  20.612  69.006  1.00  0.00     0.000 HD 
ENDROOT
BRANCH   2   5
HETATM    5  C   UNL     1      -7.469  19.565  69.017  1.00  0.00    -0.345 C  
HETATM    6  O   UNL     1      -6.787  18.414  68.453  1.00  0.00    -0.226 OA 
HETATM    7  C   UNL     1      -7.656  17.707  67.551  1.00  0.00    -0.199 C  
HETATM    8  C   UNL     1      -8.040  18.616  66.337  1.00  0.00    -0.281 C  
HETATM    9  O   UNL     1      -6.573  21.099  67.348  1.00  0.00    -0.344 OA 
HETATM   10  H   UNL     1      -6.773  21.724  66.660  1.00  0.00     0.000 HD 
HETATM   11  N   UNL     1      -6.838  18.874  65.477  1.00  0.00    -0.431 NA 
HETATM   12  C   UNL     1      -8.664  19.925  66.818  1.00  0.00    -0.343 C  
HETATM   13  H2  UNL     1      -6.392  18.007  65.177  1.00  0.00     0.000 HD 
HETATM   14  O   UNL     1     -10.006  19.741  67.289  1.00  0.00    -0.350 OA 
HETATM   15  C   UNL     1      -7.796  20.584  67.897  1.00  0.00    -0.098 C  
HETATM   16  H1  UNL     1      -7.088  19.467  64.686  1.00  0.00     0.000 HD 
HETATM   17  H   UNL     1     -10.394  20.555  67.588  1.00  0.00     0.000 HD 
BRANCH   7  18
HETATM   18  O   UNL     1      -7.044  16.603  66.909  1.00  0.00    -0.185 OA 
BRANCH  18  19
HETATM   19  C   UNL     1      -7.673  15.329  66.916  1.00  0.00    -0.073 C  
HETATM   20  O   UNL     1      -7.162  15.333  69.344  1.00  0.00    -0.169 OA 
HETATM   21  C   UNL     1      -9.116  15.692  66.545  1.00  0.00    -0.303 C  
HETATM   22  C   UNL     1      -9.334  14.553  68.532  1.00  0.00    -0.203 C  
HETATM   23  H   UNL     1      -7.247  14.894  70.183  1.00  0.00     0.000 HD 
HETATM   24  O   UNL     1      -9.891  15.613  67.753  1.00  0.00    -0.219 OA 
HETATM   25  C   UNL     1      -7.811  14.616  68.278  1.00  0.00    -0.128 C  
BRANCH  21  26
HETATM   26  C   UNL     1      -9.707  14.827  65.428  1.00  0.00    -0.158 C  
HETATM   27  H   UNL     1     -11.496  14.278  64.758  1.00  0.00     0.000 HD 
HETATM   28  O   UNL     1     -11.129  14.814  65.450  1.00  0.00    -0.325 OA 
ENDBRANCH  21  26
BRANCH  22  29
HETATM   29  O   UNL     1      -9.896  13.294  68.139  1.00  0.00    -0.220 OA 
BRANCH  29  30
HETATM   30  C   UNL     1     -11.196  12.926  68.712  1.00  0.00    -0.279 C  
HETATM   31  C   UNL     1     -11.918  14.175  69.280  1.00  0.00    -0.340 C  
HETATM   32  O   UNL     1     -12.734  14.755  68.239  1.00  0.00    -0.223 OA 
HETATM   33  C   UNL     1     -12.818  14.012  70.517  1.00  0.00    -0.220 C  
HETATM   34  C   UNL     1     -12.425  12.853  71.415  1.00  0.00    -0.234 C  
HETATM   35  N   UNL     1     -12.792  15.259  71.323  1.00  0.00    -0.388 NA 
HETATM   36  H   UNL     1     -13.176  15.521  68.587  1.00  0.00     0.000 HD 
HETATM   37  H1  UNL     1     -13.389  15.150  72.143  1.00  0.00     0.000 HD 
HETATM   38  H2  UNL     1     -13.043  16.079  70.771  1.00  0.00     0.000 HD 
HETATM   39  C   UNL     1     -12.314  11.568  70.596  1.00  0.00    -0.364 C  
HETATM   40  C   UNL     1     -11.114  11.667  69.620  1.00  0.00    -0.108 C  
HETATM   41  N   UNL     1     -12.163  10.429  71.528  1.00  0.00    -0.355 NA 
HETATM   42  H2  UNL     1     -12.911  10.388  72.221  1.00  0.00     0.000 HD 
HETATM   43  H1  UNL     1     -12.090   9.571  70.981  1.00  0.00     0.000 HD 
BRANCH  40  44
HETATM   44  O   UNL     1     -11.095  10.442  68.846  1.00  0.00    -0.227 OA 
BRANCH  44  45
HETATM   45  C   UNL     1      -9.924   9.636  69.000  1.00  0.00    -0.185 C  
HETATM   46  O   UNL     1     -10.210   8.413  69.683  1.00  0.00    -0.199 OA 
HETATM   47  C   UNL     1     -11.091   7.545  68.957  1.00  0.00     0.139 C  
HETATM   48  C   UNL     1     -10.519   7.181  67.578  1.00  0.00    -0.260 C  
HETATM   49  H1  UNL     1      -8.543  10.440  65.952  1.00  0.00     0.000 HD 
HETATM   50  O   UNL     1     -11.412   6.354  66.819  1.00  0.00    -0.733 OA 
HETATM   51  H2  UNL     1      -8.372  11.228  67.425  1.00  0.00     0.000 HD 
HETATM   52  C   UNL     1     -10.214   8.461  66.786  1.00  0.00    -0.306 C  
HETATM   53  H   UNL     1     -11.058   6.129  65.966  1.00  0.00     0.000 HD 
HETATM   54  O   UNL     1      -9.586   8.120  65.539  1.00  0.00    -0.394 OA 
HETATM   55  C   UNL     1      -9.284   9.372  67.609  1.00  0.00    -0.127 C  
HETATM   56  N   UNL     1      -8.963  10.613  66.865  1.00  0.00    -0.137 NA 
HETATM   57  H   UNL     1      -9.397   8.912  65.049  1.00  0.00     0.000 HD 
BRANCH  47  58
HETATM   58  C   UNL     1     -11.393   6.312  69.838  1.00  0.00    -0.434 C  
HETATM   59  H1  UNL     1     -10.622   4.404  70.297  1.00  0.00     0.000 HD 
HETATM   60  N   UNL     1     -10.422   5.218  69.715  1.00  0.00    -0.300 NA 
HETATM   61  H2  UNL     1      -9.478   5.560  69.896  1.00  0.00     0.000 HD 
ENDBRANCH  47  58
ENDBRANCH  44  45
ENDBRANCH  40  44
ENDBRANCH  29  30
ENDBRANCH  22  29
ENDBRANCH  18  19
ENDBRANCH   7  18
ENDBRANCH   2   5
TORSDOF 9
ENDMDL
MODEL       55
REMARK 921   NORMALIZED FREE ENERGY PREDICTED BY IDOCK:   -6.25 KCAL/MOL
REMARK 922        TOTAL FREE ENERGY PREDICTED BY IDOCK:  -12.35 KCAL/MOL
REMARK 923 INTER-LIGAND FREE ENERGY PREDICTED BY IDOCK:   -9.59 KCAL/MOL
REMARK 924 INTRA-LIGAND FREE ENERGY PREDICTED BY IDOCK:   -2.76 KCAL/MOL
REMARK 927      BINDING AFFINITY PREDICTED BY RF-SCORE:    0.00 PKD
ROOT
HETATM    1  N   UNL     1      -9.497   2.338  66.672  1.00  0.00    -0.374 NA 
HETATM    2  C   UNL     1      -9.517   2.451  68.133  1.00  0.00    -0.158 C  
HETATM    3  H1  UNL     1      -9.907   1.485  66.292  1.00  0.00     0.000 HD 
HETATM    4  H2  UNL     1      -8.544   2.449  66.326  1.00  0.00     0.000 HD 
ENDROOT
BRANCH   2   5
HETATM    5  C   UNL     1      -8.892   3.748  68.709  1.00  0.00    -0.110 C  
HETATM    6  O   UNL     1      -9.324   4.957  68.033  1.00  0.00    -0.118 OA 
HETATM    7  C   UNL     1      -8.805   6.121  68.700  1.00  0.00    -0.114 C  
HETATM    8  C   UNL     1      -7.242   6.132  68.642  1.00  0.00    -0.084 C  
HETATM    9  O   UNL     1      -6.976   3.432  67.235  1.00  0.00    -0.055 OA 
HETATM   10  H   UNL     1      -6.031   3.349  67.173  1.00  0.00     0.000 HD 
HETATM   11  N   UNL     1      -6.773   6.344  67.233  1.00  0.00    -0.058 NA 
HETATM   12  C   UNL     1      -6.669   4.840  69.224  1.00  0.00    -0.048 C  
HETATM   13  H2  UNL     1      -7.174   7.187  66.821  1.00  0.00     0.000 HD 
HETATM   14  O   UNL     1      -6.759   4.808  70.654  1.00  0.00    -0.034 OA 
HETATM   15  C   UNL     1      -7.352   3.611  68.609  1.00  0.00    -0.054 C  
HETATM   16  H1  UNL     1      -5.754   6.352  67.195  1.00  0.00     0.000 HD 
HETATM   17  H   UNL     1      -6.404   4.005  71.016  1.00  0.00     0.000 HD 
BRANCH   7  18
HETATM   18  O   UNL     1      -9.131   7.343  68.064  1.00  0.00    -0.131 OA 
BRANCH  18  19
HETATM   19  C   UNL     1      -8.835   8.582  68.694  1.00  0.00    -0.136 C  
HETATM   20  O   UNL     1      -7.948   9.248  66.474  1.00  0.00    -0.103 OA 
HETATM   21  C   UNL     1     -10.237   9.106  69.029  1.00  0.00    -0.207 C  
HETATM   22  C   UNL     1      -9.301  10.804  67.789  1.00  0.00    -0.152 C  
HETATM   23  H   UNL     1      -7.574   9.932  65.931  1.00  0.00     0.000 HD 
HETATM   24  O   UNL     1     -10.534  10.142  68.077  1.00  0.00    -0.181 OA 
HETATM   25  C   UNL     1      -8.226   9.695  67.813  1.00  0.00    -0.114 C  
BRANCH  21  26
HETATM   26  C   UNL     1     -10.390   9.593  70.472  1.00  0.00    -0.295 C  
HETATM   27  H   UNL     1     -11.848   9.975  71.767  1.00  0.00     0.000 HD 
HETATM   28  O   UNL     1     -11.752   9.674  70.872  1.00  0.00    -0.289 OA 
ENDBRANCH  21  26
BRANCH  22  29
HETATM   29  O   UNL     1      -9.045  11.827  68.760  1.00  0.00    -0.110 OA 
BRANCH  29  30
HETATM   30  C   UNL     1      -8.470  13.089  68.277  1.00  0.00    -0.159 C  
HETATM   31  C   UNL     1      -7.081  13.340  68.918  1.00  0.00    -0.079 C  
HETATM   32  O   UNL     1      -6.066  12.753  68.075  1.00  0.00    -0.076 OA 
HETATM   33  C   UNL     1      -6.647  14.788  69.202  1.00  0.00    -0.114 C  
HETATM   34  C   UNL     1      -7.804  15.743  69.430  1.00  0.00    -0.210 C  
HETATM   35  N   UNL     1      -5.768  14.822  70.399  1.00  0.00    -0.139 NA 
HETATM   36  H   UNL     1      -5.215  12.907  68.468  1.00  0.00     0.000 HD 
HETATM   37  H1  UNL     1      -5.481  15.782  70.587  1.00  0.00     0.000 HD 
HETATM   38  H2  UNL     1      -4.971  14.193  70.308  1.00  0.00     0.000 HD 
HETATM   39  C   UNL     1      -8.802  15.645  68.277  1.00  0.00    -0.180 C  
HETATM   40  C   UNL     1      -9.494  14.258  68.297  1.00  0.00    -0.209 C  
HETATM   41  N   UNL     1      -9.784  16.743  68.411  1.00  0.00    -0.238 NA 
HETATM   42  H2  UNL     1      -9.340  17.660  68.468  1.00  0.00     0.000 HD 
HETATM   43  H1  UNL     1     -10.450  16.677  67.641  1.00  0.00     0.000 HD 
BRANCH  40  44
HETATM   44  O   UNL     1     -10.388  14.214  67.158  1.00  0.00    -0.262 OA 
BRANCH  44  45
HETATM   45  C   UNL     1      -9.758  14.310  65.878  1.00  0.00    -0.262 C  
HETATM   46  O   UNL     1      -9.615  13.028  65.261  1.00  0.00    -0.040 OA 
HETATM   47  C   UNL     1     -10.867  12.403  64.944  1.00  0.00    -0.297 C  
HETATM   48  C   UNL     1     -11.714  13.275  64.005  1.00  0.00    -0.430 C  
HETATM   49  H1  UNL     1     -11.250  17.277  64.975  1.00  0.00     0.000 HD 
HETATM   50  O   UNL     1     -12.991  12.687  63.720  1.00  0.00    -0.707 OA 
HETATM   51  H2  UNL     1      -9.822  17.034  65.823  1.00  0.00     0.000 HD 
HETATM   52  C   UNL     1     -11.922  14.663  64.630  1.00  0.00    -0.462 C  
HETATM   53  H   UNL     1     -13.515  13.227  63.140  1.00  0.00     0.000 HD 
HETATM   54  O   UNL     1     -12.629  15.508  63.706  1.00  0.00    -0.847 OA 
HETATM   55  C   UNL     1     -10.558  15.288  64.973  1.00  0.00    -0.418 C  
HETATM   56  N   UNL     1     -10.725  16.635  65.569  1.00  0.00    -0.432 NA 
HETATM   57  H   UNL     1     -12.757  16.367  64.093  1.00  0.00     0.000 HD 
BRANCH  47  58
HETATM   58  C   UNL     1     -10.576  10.996  64.374  1.00  0.00    -0.325 C  
HETATM   59  H1  UNL     1     -10.231  10.015  62.540  1.00  0.00     0.000 HD 
HETATM   60  N   UNL     1     -10.423  10.945  62.916  1.00  0.00    -0.783 NA 
HETATM   61  H2  UNL     1      -9.706  11.605  62.612  1.00  0.00     0.000 HD 
ENDBRANCH  47  58
ENDBRANCH  44  45
ENDBRANCH  40  44
ENDBRANCH  29  30
ENDBRANCH  22  29
ENDBRANCH  18  19
ENDBRANCH   7  18
ENDBRANCH   2   5
TORSDOF 9
ENDMDL
MODEL       56
REMARK 921   NORMALIZED FREE ENERGY PREDICTED BY IDOCK:   -6.24 KCAL/MOL
REMARK 922        TOTAL FREE ENERGY PREDICTED BY IDOCK:  -12.33 KCAL/MOL
REMARK 923 INTER-LIGAND FREE ENERGY PREDICTED BY IDOCK:   -9.81 KCAL/MOL
REMARK 924 INTRA-LIGAND FREE ENERGY PREDICTED BY IDOCK:   -2.53 KCAL/MOL
REMARK 927      BINDING AFFINITY PREDICTED BY RF-SCORE:    0.00 PKD
ROOT
HETATM    1  N   UNL     1     -10.384  19.875  69.017  1.00  0.00    -0.599 NA 
HETATM    2  C   UNL     1     -10.246  18.416  69.003  1.00  0.00    -0.167 C  
HETATM    3  H1  UNL     1     -10.892  20.259  69.813  1.00  0.00     0.000 HD 
HETATM    4  H2  UNL     1     -10.808  20.193  68.146  1.00  0.00     0.000 HD 
ENDROOT
BRANCH   2   5
HETATM    5  C   UNL     1      -9.474  17.831  67.791  1.00  0.00    -0.262 C  
HETATM    6  O   UNL     1      -9.338  16.386  67.826  1.00  0.00    -0.211 OA 
HETATM    7  C   UNL     1      -8.727  15.909  66.615  1.00  0.00    -0.289 C  
HETATM    8  C   UNL     1      -7.275  16.473  66.476  1.00  0.00    -0.152 C  
HETATM    9  O   UNL     1      -7.386  18.204  68.992  1.00  0.00    -0.262 OA 
HETATM   10  H   UNL     1      -6.526  18.609  68.976  1.00  0.00     0.000 HD 
HETATM   11  N   UNL     1      -6.382  15.886  67.530  1.00  0.00    -0.160 NA 
HETATM   12  C   UNL     1      -7.279  18.000  66.547  1.00  0.00    -0.235 C  
HETATM   13  H2  UNL     1      -6.396  14.866  67.515  1.00  0.00     0.000 HD 
HETATM   14  O   UNL     1      -7.779  18.593  65.342  1.00  0.00    -0.363 OA 
HETATM   15  C   UNL     1      -8.073  18.491  67.764  1.00  0.00    -0.251 C  
HETATM   16  H1  UNL     1      -5.436  16.254  67.439  1.00  0.00     0.000 HD 
HETATM   17  H   UNL     1      -7.782  19.542  65.386  1.00  0.00     0.000 HD 
BRANCH   7  18
HETATM   18  O   UNL     1      -8.501  14.511  66.596  1.00  0.00    -0.149 OA 
BRANCH  18  19
HETATM   19  C   UNL     1      -8.719  13.732  67.765  1.00  0.00    -0.182 C  
HETATM   20  O   UNL     1     -10.938  13.249  66.763  1.00  0.00    -0.281 OA 
HETATM   21  C   UNL     1      -7.668  12.627  67.605  1.00  0.00    -0.155 C  
HETATM   22  C   UNL     1      -9.645  11.471  67.835  1.00  0.00    -0.177 C  
HETATM   23  H   UNL     1     -11.759  12.775  66.822  1.00  0.00     0.000 HD 
HETATM   24  O   UNL     1      -8.369  11.441  67.193  1.00  0.00    -0.143 OA 
HETATM   25  C   UNL     1     -10.053  12.961  67.861  1.00  0.00    -0.232 C  
BRANCH  21  26
HETATM   26  C   UNL     1      -6.822  12.387  68.858  1.00  0.00    -0.099 C  
HETATM   27  H   UNL     1      -5.965  13.450  70.301  1.00  0.00     0.000 HD 
HETATM   28  O   UNL     1      -6.490  13.598  69.524  1.00  0.00    -0.112 OA 
ENDBRANCH  21  26
BRANCH  22  29
HETATM   29  O   UNL     1      -9.555  10.912  69.152  1.00  0.00    -0.186 OA 
BRANCH  29  30
HETATM   30  C   UNL     1     -10.573   9.927  69.538  1.00  0.00    -0.242 C  
HETATM   31  C   UNL     1     -11.816  10.630  70.143  1.00  0.00    -0.337 C  
HETATM   32  O   UNL     1     -12.748  10.923  69.079  1.00  0.00    -0.613 OA 
HETATM   33  C   UNL     1     -12.607   9.913  71.249  1.00  0.00    -0.381 C  
HETATM   34  C   UNL     1     -11.777   8.940  72.067  1.00  0.00    -0.438 C  
HETATM   35  N   UNL     1     -13.198  10.915  72.173  1.00  0.00    -0.586 NA 
HETATM   36  H   UNL     1     -13.510  11.353  69.450  1.00  0.00     0.000 HD 
HETATM   37  H1  UNL     1     -13.723  10.439  72.906  1.00  0.00     0.000 HD 
HETATM   38  H2  UNL     1     -13.765  11.604  71.680  1.00  0.00     0.000 HD 
HETATM   39  C   UNL     1     -11.047   7.966  71.143  1.00  0.00    -0.255 C  
HETATM   40  C   UNL     1      -9.974   8.725  70.321  1.00  0.00    -0.186 C  
HETATM   41  N   UNL     1     -10.443   6.898  71.969  1.00  0.00    -0.204 NA 
HETATM   42  H2  UNL     1     -11.126   6.432  72.567  1.00  0.00     0.000 HD 
HETATM   43  H1  UNL     1      -9.956   6.248  71.352  1.00  0.00     0.000 HD 
BRANCH  40  44
HETATM   44  O   UNL     1      -9.355   7.758  69.438  1.00  0.00    -0.153 OA 
BRANCH  44  45
HETATM   45  C   UNL     1     -10.162   7.323  68.340  1.00  0.00    -0.180 C  
HETATM   46  O   UNL     1      -9.812   7.995  67.128  1.00  0.00    -0.171 OA 
HETATM   47  C   UNL     1      -8.485   7.700  66.672  1.00  0.00    -0.130 C  
HETATM   48  C   UNL     1      -8.286   6.195  66.439  1.00  0.00    -0.120 C  
HETATM   49  H1  UNL     1     -10.333   4.027  69.317  1.00  0.00     0.000 HD 
HETATM   50  O   UNL     1      -6.948   5.879  66.032  1.00  0.00    -0.059 OA 
HETATM   51  H2  UNL     1     -11.339   5.303  69.740  1.00  0.00     0.000 HD 
HETATM   52  C   UNL     1      -8.624   5.420  67.721  1.00  0.00    -0.104 C  
HETATM   53  H   UNL     1      -6.825   4.947  65.888  1.00  0.00     0.000 HD 
HETATM   54  O   UNL     1      -8.536   4.007  67.470  1.00  0.00    -0.097 OA 
HETATM   55  C   UNL     1     -10.047   5.780  68.186  1.00  0.00    -0.165 C  
HETATM   56  N   UNL     1     -10.407   5.039  69.418  1.00  0.00    -0.201 NA 
HETATM   57  H   UNL     1      -8.745   3.528  68.263  1.00  0.00     0.000 HD 
BRANCH  47  58
HETATM   58  C   UNL     1      -8.201   8.556  65.417  1.00  0.00    -0.145 C  
HETATM   59  H1  UNL     1      -8.338   8.468  63.315  1.00  0.00     0.000 HD 
HETATM   60  N   UNL     1      -8.526   7.903  64.144  1.00  0.00    -0.376 NA 
HETATM   61  H2  UNL     1      -9.496   7.587  64.145  1.00  0.00     0.000 HD 
ENDBRANCH  47  58
ENDBRANCH  44  45
ENDBRANCH  40  44
ENDBRANCH  29  30
ENDBRANCH  22  29
ENDBRANCH  18  19
ENDBRANCH   7  18
ENDBRANCH   2   5
TORSDOF 9
ENDMDL
MODEL       57
REMARK 921   NORMALIZED FREE ENERGY PREDICTED BY IDOCK:   -6.22 KCAL/MOL
REMARK 922        TOTAL FREE ENERGY PREDICTED BY IDOCK:  -12.30 KCAL/MOL
REMARK 923 INTER-LIGAND FREE ENERGY PREDICTED BY IDOCK:   -9.72 KCAL/MOL
REMARK 924 INTRA-LIGAND FREE ENERGY PREDICTED BY IDOCK:   -2.58 KCAL/MOL
REMARK 927      BINDING AFFINITY PREDICTED BY RF-SCORE:    0.00 PKD
ROOT
HETATM    1  N   UNL     1      -8.514  15.611  66.229  1.00  0.00    -0.381 NA 
HETATM    2  C   UNL     1      -9.788  15.977  66.854  1.00  0.00    -0.245 C  
HETATM    3  H1  UNL     1      -7.749  16.268  66.378  1.00  0.00     0.000 HD 
HETATM    4  H2  UNL     1      -8.648  15.451  65.231  1.00  0.00     0.000 HD 
ENDROOT
BRANCH   2   5
HETATM    5  C   UNL     1     -10.953  14.978  66.628  1.00  0.00    -0.325 C  
HETATM    6  O   UNL     1     -10.639  13.616  67.019  1.00  0.00    -0.271 OA 
HETATM    7  C   UNL     1     -11.802  12.777  66.899  1.00  0.00    -0.371 C  
HETATM    8  C   UNL     1     -12.269  12.699  65.409  1.00  0.00    -0.459 C  
HETATM    9  O   UNL     1     -10.179  14.655  64.339  1.00  0.00    -0.471 OA 
HETATM   10  H   UNL     1     -10.406  14.682  63.416  1.00  0.00     0.000 HD 
HETATM   11  N   UNL     1     -11.260  11.955  64.584  1.00  0.00    -0.313 NA 
HETATM   12  C   UNL     1     -12.516  14.098  64.845  1.00  0.00    -0.401 C  
HETATM   13  H2  UNL     1     -11.061  11.032  64.968  1.00  0.00     0.000 HD 
HETATM   14  O   UNL     1     -13.731  14.672  65.346  1.00  0.00    -0.196 OA 
HETATM   15  C   UNL     1     -11.324  15.022  65.124  1.00  0.00    -0.372 C  
HETATM   16  H1  UNL     1     -11.564  11.904  63.612  1.00  0.00     0.000 HD 
HETATM   17  H   UNL     1     -13.885  15.542  64.996  1.00  0.00     0.000 HD 
BRANCH   7  18
HETATM   18  O   UNL     1     -11.563  11.415  67.204  1.00  0.00    -0.519 OA 
BRANCH  18  19
HETATM   19  C   UNL     1     -10.537  11.053  68.119  1.00  0.00    -0.191 C  
HETATM   20  O   UNL     1     -12.380  10.059  69.452  1.00  0.00    -0.352 OA 
HETATM   21  C   UNL     1      -9.714  10.060  67.289  1.00  0.00    -0.167 C  
HETATM   22  C   UNL     1     -10.261   8.868  69.179  1.00  0.00    -0.206 C  
HETATM   23  H   UNL     1     -12.637   9.557  70.216  1.00  0.00     0.000 HD 
HETATM   24  O   UNL     1     -10.032   8.745  67.775  1.00  0.00    -0.172 OA 
HETATM   25  C   UNL     1     -10.955  10.237  69.361  1.00  0.00    -0.247 C  
BRANCH  21  26
HETATM   26  C   UNL     1      -8.208  10.331  67.309  1.00  0.00    -0.121 C  
HETATM   27  H   UNL     1      -6.975  11.889  67.364  1.00  0.00     0.000 HD 
HETATM   28  O   UNL     1      -7.910  11.720  67.351  1.00  0.00    -0.137 OA 
ENDBRANCH  21  26
BRANCH  22  29
HETATM   29  O   UNL     1      -9.022   8.790  69.897  1.00  0.00    -0.143 OA 
BRANCH  29  30
HETATM   30  C   UNL     1      -8.919   7.781  70.958  1.00  0.00    -0.142 C  
HETATM   31  C   UNL     1      -9.154   8.424  72.350  1.00  0.00    -0.256 C  
HETATM   32  O   UNL     1     -10.564   8.359  72.661  1.00  0.00    -0.332 OA 
HETATM   33  C   UNL     1      -8.400   7.857  73.564  1.00  0.00    -0.216 C  
HETATM   34  C   UNL     1      -7.079   7.197  73.215  1.00  0.00    -0.073 C  
HETATM   35  N   UNL     1      -8.137   8.944  74.542  1.00  0.00    -0.347 NA 
HETATM   36  H   UNL     1     -10.707   8.753  73.513  1.00  0.00     0.000 HD 
HETATM   37  H1  UNL     1      -7.637   8.567  75.348  1.00  0.00     0.000 HD 
HETATM   38  H2  UNL     1      -8.990   9.431  74.814  1.00  0.00     0.000 HD 
HETATM   39  C   UNL     1      -7.286   6.157  72.115  1.00  0.00    -0.092 C  
HETATM   40  C   UNL     1      -7.677   6.862  70.791  1.00  0.00    -0.092 C  
HETATM   41  N   UNL     1      -6.038   5.376  71.966  1.00  0.00    -0.032 NA 
HETATM   42  H2  UNL     1      -5.729   4.961  72.844  1.00  0.00     0.000 HD 
HETATM   43  H1  UNL     1      -6.177   4.682  71.231  1.00  0.00     0.000 HD 
BRANCH  40  44
HETATM   44  O   UNL     1      -7.903   5.822  69.808  1.00  0.00    -0.091 OA 
BRANCH  44  45
HETATM   45  C   UNL     1      -9.188   5.196  69.858  1.00  0.00    -0.127 C  
HETATM   46  O   UNL     1      -9.990   5.544  68.727  1.00  0.00    -0.148 OA 
HETATM   47  C   UNL     1      -9.461   5.066  67.482  1.00  0.00    -0.135 C  
HETATM   48  C   UNL     1      -9.302   3.538  67.482  1.00  0.00    -0.206 C  
HETATM   49  H1  UNL     1      -8.083   2.236  71.223  1.00  0.00     0.000 HD 
HETATM   50  O   UNL     1      -8.725   3.050  66.263  1.00  0.00    -0.119 OA 
HETATM   51  H2  UNL     1      -8.573   3.638  72.007  1.00  0.00     0.000 HD 
HETATM   52  C   UNL     1      -8.425   3.107  68.667  1.00  0.00    -0.075 C  
HETATM   53  H   UNL     1      -8.627   2.105  66.264  1.00  0.00     0.000 HD 
HETATM   54  O   UNL     1      -8.361   1.671  68.724  1.00  0.00    -0.051 OA 
HETATM   55  C   UNL     1      -9.016   3.656  69.979  1.00  0.00    -0.103 C  
HETATM   56  N   UNL     1      -8.196   3.247  71.144  1.00  0.00    -0.062 NA 
HETATM   57  H   UNL     1      -7.819   1.404  69.457  1.00  0.00     0.000 HD 
BRANCH  47  58
HETATM   58  C   UNL     1     -10.363   5.586  66.339  1.00  0.00    -0.219 C  
HETATM   59  H1  UNL     1     -12.129   6.695  66.029  1.00  0.00     0.000 HD 
HETATM   60  N   UNL     1     -11.533   6.352  66.783  1.00  0.00    -0.746 NA 
HETATM   61  H2  UNL     1     -11.244   7.123  67.386  1.00  0.00     0.000 HD 
ENDBRANCH  47  58
ENDBRANCH  44  45
ENDBRANCH  40  44
ENDBRANCH  29  30
ENDBRANCH  22  29
ENDBRANCH  18  19
ENDBRANCH   7  18
ENDBRANCH   2   5
TORSDOF 9
ENDMDL
MODEL       58
REMARK 921   NORMALIZED FREE ENERGY PREDICTED BY IDOCK:   -6.20 KCAL/MOL
REMARK 922        TOTAL FREE ENERGY PREDICTED BY IDOCK:  -12.27 KCAL/MOL
REMARK 923 INTER-LIGAND FREE ENERGY PREDICTED BY IDOCK:   -9.75 KCAL/MOL
REMARK 924 INTRA-LIGAND FREE ENERGY PREDICTED BY IDOCK:   -2.52 KCAL/MOL
REMARK 927      BINDING AFFINITY PREDICTED BY RF-SCORE:    0.00 PKD
ROOT
HETATM    1  N   UNL     1     -11.998  11.698  70.572  1.00  0.00    -0.448 NA 
HETATM    2  C   UNL     1     -12.062  13.060  70.036  1.00  0.00    -0.297 C  
HETATM    3  H1  UNL     1     -12.378  11.578  71.511  1.00  0.00     0.000 HD 
HETATM    4  H2  UNL     1     -11.039  11.354  70.537  1.00  0.00     0.000 HD 
ENDROOT
BRANCH   2   5
HETATM    5  C   UNL     1     -11.484  13.242  68.608  1.00  0.00    -0.304 C  
HETATM    6  O   UNL     1     -10.041  13.108  68.539  1.00  0.00    -0.238 OA 
HETATM    7  C   UNL     1      -9.595  13.162  67.173  1.00  0.00    -0.235 C  
HETATM    8  C   UNL     1      -9.926  14.556  66.545  1.00  0.00    -0.280 C  
HETATM    9  O   UNL     1     -11.389  15.647  68.996  1.00  0.00    -0.283 OA 
HETATM   10  H   UNL     1     -11.648  16.509  68.688  1.00  0.00     0.000 HD 
HETATM   11  N   UNL     1      -9.098  15.629  67.188  1.00  0.00    -0.203 NA 
HETATM   12  C   UNL     1     -11.418  14.864  66.669  1.00  0.00    -0.296 C  
HETATM   13  H2  UNL     1      -8.101  15.419  67.142  1.00  0.00     0.000 HD 
HETATM   14  O   UNL     1     -12.203  14.100  65.744  1.00  0.00    -0.410 OA 
HETATM   15  C   UNL     1     -11.907  14.646  68.106  1.00  0.00    -0.298 C  
HETATM   16  H1  UNL     1      -9.314  16.538  66.779  1.00  0.00     0.000 HD 
HETATM   17  H   UNL     1     -13.130  14.291  65.821  1.00  0.00     0.000 HD 
BRANCH   7  18
HETATM   18  O   UNL     1      -8.188  13.100  67.024  1.00  0.00    -0.149 OA 
BRANCH  18  19
HETATM   19  C   UNL     1      -7.537  11.847  66.866  1.00  0.00    -0.093 C  
HETATM   20  O   UNL     1      -7.760  11.667  69.331  1.00  0.00    -0.349 OA 
HETATM   21  C   UNL     1      -8.570  11.059  66.050  1.00  0.00    -0.172 C  
HETATM   22  C   UNL     1      -8.209   9.736  67.898  1.00  0.00    -0.113 C  
HETATM   23  H   UNL     1      -7.638  11.140  70.112  1.00  0.00     0.000 HD 
HETATM   24  O   UNL     1      -9.204  10.140  66.956  1.00  0.00    -0.144 OA 
HETATM   25  C   UNL     1      -7.337  10.989  68.134  1.00  0.00    -0.086 C  
BRANCH  21  26
HETATM   26  C   UNL     1      -7.985  10.348  64.827  1.00  0.00    -0.103 C  
HETATM   27  H   UNL     1      -8.446   8.837  63.621  1.00  0.00     0.000 HD 
HETATM   28  O   UNL     1      -8.809   9.279  64.380  1.00  0.00    -0.204 OA 
ENDBRANCH  21  26
BRANCH  22  29
HETATM   29  O   UNL     1      -7.448   8.637  67.381  1.00  0.00    -0.088 OA 
BRANCH  29  30
HETATM   30  C   UNL     1      -7.978   7.286  67.599  1.00  0.00    -0.114 C  
HETATM   31  C   UNL     1      -7.852   6.432  66.310  1.00  0.00    -0.101 C  
HETATM   32  O   UNL     1      -6.578   5.751  66.326  1.00  0.00    -0.048 OA 
HETATM   33  C   UNL     1      -8.925   5.372  66.015  1.00  0.00    -0.147 C  
HETATM   34  C   UNL     1     -10.281   5.683  66.624  1.00  0.00    -0.276 C  
HETATM   35  N   UNL     1      -9.094   5.224  64.547  1.00  0.00    -0.356 NA 
HETATM   36  H   UNL     1      -6.501   5.228  65.536  1.00  0.00     0.000 HD 
HETATM   37  H1  UNL     1      -9.806   4.520  64.352  1.00  0.00     0.000 HD 
HETATM   38  H2  UNL     1      -8.212   5.018  64.078  1.00  0.00     0.000 HD 
HETATM   39  C   UNL     1     -10.133   5.969  68.117  1.00  0.00    -0.160 C  
HETATM   40  C   UNL     1      -9.353   7.292  68.324  1.00  0.00    -0.135 C  
HETATM   41  N   UNL     1     -11.483   6.035  68.719  1.00  0.00    -0.151 NA 
HETATM   42  H2  UNL     1     -12.036   5.198  68.533  1.00  0.00     0.000 HD 
HETATM   43  H1  UNL     1     -11.384   6.226  69.716  1.00  0.00     0.000 HD 
BRANCH  40  44
HETATM   44  O   UNL     1      -9.208   7.479  69.754  1.00  0.00    -0.148 OA 
BRANCH  44  45
HETATM   45  C   UNL     1      -9.694   8.724  70.264  1.00  0.00    -0.176 C  
HETATM   46  O   UNL     1     -11.107   8.691  70.479  1.00  0.00    -0.240 OA 
HETATM   47  C   UNL     1     -11.510   7.762  71.494  1.00  0.00    -0.264 C  
HETATM   48  C   UNL     1     -10.845   8.073  72.844  1.00  0.00    -0.330 C  
HETATM   49  H1  UNL     1      -6.960   9.382  72.246  1.00  0.00     0.000 HD 
HETATM   50  O   UNL     1     -11.198   7.121  73.857  1.00  0.00    -0.440 OA 
HETATM   51  H2  UNL     1      -7.209   9.778  70.634  1.00  0.00     0.000 HD 
HETATM   52  C   UNL     1      -9.318   8.096  72.678  1.00  0.00    -0.272 C  
HETATM   53  H   UNL     1     -10.787   7.314  74.692  1.00  0.00     0.000 HD 
HETATM   54  O   UNL     1      -8.704   8.486  73.918  1.00  0.00    -0.254 OA 
HETATM   55  C   UNL     1      -8.931   9.089  71.567  1.00  0.00    -0.125 C  
HETATM   56  N   UNL     1      -7.460   9.142  71.391  1.00  0.00    -0.320 NA 
HETATM   57  H   UNL     1      -7.759   8.501  73.816  1.00  0.00     0.000 HD 
BRANCH  47  58
HETATM   58  C   UNL     1     -13.054   7.755  71.561  1.00  0.00    -0.320 C  
HETATM   59  H1  UNL     1     -14.713   8.985  71.135  1.00  0.00     0.000 HD 
HETATM   60  N   UNL     1     -13.693   8.989  71.090  1.00  0.00    -0.582 NA 
HETATM   61  H2  UNL     1     -13.381   9.212  70.145  1.00  0.00     0.000 HD 
ENDBRANCH  47  58
ENDBRANCH  44  45
ENDBRANCH  40  44
ENDBRANCH  29  30
ENDBRANCH  22  29
ENDBRANCH  18  19
ENDBRANCH   7  18
ENDBRANCH   2   5
TORSDOF 9
ENDMDL
MODEL       59
REMARK 921   NORMALIZED FREE ENERGY PREDICTED BY IDOCK:   -6.19 KCAL/MOL
REMARK 922        TOTAL FREE ENERGY PREDICTED BY IDOCK:  -12.26 KCAL/MOL
REMARK 923 INTER-LIGAND FREE ENERGY PREDICTED BY IDOCK:   -9.48 KCAL/MOL
REMARK 924 INTRA-LIGAND FREE ENERGY PREDICTED BY IDOCK:   -2.78 KCAL/MOL
REMARK 927      BINDING AFFINITY PREDICTED BY RF-SCORE:    0.00 PKD
ROOT
HETATM    1  N   UNL     1      -7.594   7.504  63.082  1.00  0.00    -0.108 NA 
HETATM    2  C   UNL     1      -7.213   6.796  64.307  1.00  0.00    -0.070 C  
HETATM    3  H1  UNL     1      -6.843   7.648  62.408  1.00  0.00     0.000 HD 
HETATM    4  H2  UNL     1      -8.030   8.395  63.315  1.00  0.00     0.000 HD 
ENDROOT
BRANCH   2   5
HETATM    5  C   UNL     1      -8.356   6.576  65.333  1.00  0.00    -0.140 C  
HETATM    6  O   UNL     1      -8.018   6.993  66.682  1.00  0.00    -0.104 OA 
HETATM    7  C   UNL     1      -9.163   6.877  67.545  1.00  0.00    -0.123 C  
HETATM    8  C   UNL     1      -9.615   5.384  67.657  1.00  0.00    -0.127 C  
HETATM    9  O   UNL     1      -7.555   4.300  65.678  1.00  0.00    -0.083 OA 
HETATM   10  H   UNL     1      -7.774   3.375  65.671  1.00  0.00     0.000 HD 
HETATM   11  N   UNL     1      -8.585   4.580  68.395  1.00  0.00    -0.093 NA 
HETATM   12  C   UNL     1      -9.885   4.796  66.273  1.00  0.00    -0.220 C  
HETATM   13  H2  UNL     1      -8.371   4.982  69.308  1.00  0.00     0.000 HD 
HETATM   14  O   UNL     1     -11.115   5.276  65.715  1.00  0.00    -0.762 OA 
HETATM   15  C   UNL     1      -8.714   5.069  65.322  1.00  0.00    -0.149 C  
HETATM   16  H1  UNL     1      -8.879   3.606  68.468  1.00  0.00     0.000 HD 
HETATM   17  H   UNL     1     -11.283   4.910  64.855  1.00  0.00     0.000 HD 
BRANCH   7  18
HETATM   18  O   UNL     1      -8.900   7.207  68.898  1.00  0.00    -0.131 OA 
BRANCH  18  19
HETATM   19  C   UNL     1      -9.052   8.544  69.354  1.00  0.00    -0.150 C  
HETATM   20  O   UNL     1      -6.774   8.885  68.430  1.00  0.00    -0.059 OA 
HETATM   21  C   UNL     1     -10.204   9.045  68.473  1.00  0.00    -0.200 C  
HETATM   22  C   UNL     1      -8.520  10.565  68.087  1.00  0.00    -0.123 C  
HETATM   23  H   UNL     1      -6.067   9.491  68.243  1.00  0.00     0.000 HD 
HETATM   24  O   UNL     1      -9.623   9.898  67.472  1.00  0.00    -0.152 OA 
HETATM   25  C   UNL     1      -7.902   9.528  69.052  1.00  0.00    -0.077 C  
BRANCH  21  26
HETATM   26  C   UNL     1     -11.319   9.750  69.250  1.00  0.00    -0.014 C  
HETATM   27  H   UNL     1     -11.701  10.328  71.113  1.00  0.00     0.000 HD 
HETATM   28  O   UNL     1     -11.009   9.891  70.630  1.00  0.00    -0.296 OA 
ENDBRANCH  21  26
BRANCH  22  29
HETATM   29  O   UNL     1      -8.966  11.742  68.773  1.00  0.00    -0.105 OA 
BRANCH  29  30
HETATM   30  C   UNL     1      -8.596  13.041  68.196  1.00  0.00    -0.188 C  
HETATM   31  C   UNL     1      -7.357  13.629  68.920  1.00  0.00    -0.060 C  
HETATM   32  O   UNL     1      -6.164  13.180  68.241  1.00  0.00    -0.075 OA 
HETATM   33  C   UNL     1      -7.241  15.155  69.069  1.00  0.00    -0.149 C  
HETATM   34  C   UNL     1      -8.578  15.875  69.085  1.00  0.00    -0.252 C  
HETATM   35  N   UNL     1      -6.518  15.483  70.325  1.00  0.00    -0.035 NA 
HETATM   36  H   UNL     1      -5.405  13.540  68.685  1.00  0.00     0.000 HD 
HETATM   37  H1  UNL     1      -6.442  16.495  70.423  1.00  0.00     0.000 HD 
HETATM   38  H2  UNL     1      -5.610  15.022  70.376  1.00  0.00     0.000 HD 
HETATM   39  C   UNL     1      -9.409  15.465  67.870  1.00  0.00    -0.192 C  
HETATM   40  C   UNL     1      -9.821  13.976  67.992  1.00  0.00    -0.228 C  
HETATM   41  N   UNL     1     -10.592  16.350  67.790  1.00  0.00    -0.314 NA 
HETATM   42  H2  UNL     1     -10.341  17.339  67.777  1.00  0.00     0.000 HD 
HETATM   43  H1  UNL     1     -11.147  16.077  66.979  1.00  0.00     0.000 HD 
BRANCH  40  44
HETATM   44  O   UNL     1     -10.563  13.641  66.794  1.00  0.00    -0.270 OA 
BRANCH  44  45
HETATM   45  C   UNL     1      -9.835  13.756  65.568  1.00  0.00    -0.163 C  
HETATM   46  O   UNL     1      -9.451  12.476  65.059  1.00  0.00     0.044 OA 
HETATM   47  C   UNL     1     -10.564  11.653  64.683  1.00  0.00    -0.312 C  
HETATM   48  C   UNL     1     -11.436  12.331  63.616  1.00  0.00    -0.490 C  
HETATM   49  H1  UNL     1     -11.648  16.407  64.331  1.00  0.00     0.000 HD 
HETATM   50  O   UNL     1     -12.582  11.542  63.267  1.00  0.00    -0.813 OA 
HETATM   51  H2  UNL     1     -10.286  16.431  65.312  1.00  0.00     0.000 HD 
HETATM   52  C   UNL     1     -11.901  13.706  64.120  1.00  0.00    -0.422 C  
HETATM   53  H   UNL     1     -13.122  11.962  62.607  1.00  0.00     0.000 HD 
HETATM   54  O   UNL     1     -12.631  14.380  63.081  1.00  0.00    -0.914 OA 
HETATM   55  C   UNL     1     -10.679  14.548  64.531  1.00  0.00    -0.174 C  
HETATM   56  N   UNL     1     -11.095  15.887  65.012  1.00  0.00    -0.386 NA 
HETATM   57  H   UNL     1     -12.918  15.230  63.392  1.00  0.00     0.000 HD 
BRANCH  47  58
HETATM   58  C   UNL     1     -10.021  10.274  64.243  1.00  0.00    -0.223 C  
HETATM   59  H1  UNL     1      -9.479   9.211  62.505  1.00  0.00     0.000 HD 
HETATM   60  N   UNL     1      -9.838  10.122  62.795  1.00  0.00    -0.578 NA 
HETATM   61  H2  UNL     1      -9.244  10.869  62.433  1.00  0.00     0.000 HD 
ENDBRANCH  47  58
ENDBRANCH  44  45
ENDBRANCH  40  44
ENDBRANCH  29  30
ENDBRANCH  22  29
ENDBRANCH  18  19
ENDBRANCH   7  18
ENDBRANCH   2   5
TORSDOF 9
ENDMDL
MODEL       60
REMARK 921   NORMALIZED FREE ENERGY PREDICTED BY IDOCK:   -6.19 KCAL/MOL
REMARK 922        TOTAL FREE ENERGY PREDICTED BY IDOCK:  -12.25 KCAL/MOL
REMARK 923 INTER-LIGAND FREE ENERGY PREDICTED BY IDOCK:   -9.78 KCAL/MOL
REMARK 924 INTRA-LIGAND FREE ENERGY PREDICTED BY IDOCK:   -2.47 KCAL/MOL
REMARK 927      BINDING AFFINITY PREDICTED BY RF-SCORE:    0.00 PKD
ROOT
HETATM    1  N   UNL     1     -12.628  14.775  66.515  1.00  0.00    -0.159 NA 
HETATM    2  C   UNL     1     -11.805  13.618  66.879  1.00  0.00    -0.411 C  
HETATM    3  H1  UNL     1     -12.712  15.496  67.231  1.00  0.00     0.000 HD 
HETATM    4  H2  UNL     1     -13.555  14.465  66.222  1.00  0.00     0.000 HD 
ENDROOT
BRANCH   2   5
HETATM    5  C   UNL     1     -11.679  12.521  65.790  1.00  0.00    -0.426 C  
HETATM    6  O   UNL     1     -10.502  11.683  65.937  1.00  0.00    -0.239 OA 
HETATM    7  C   UNL     1     -10.520  10.616  64.973  1.00  0.00    -0.208 C  
HETATM    8  C   UNL     1     -10.458  11.191  63.520  1.00  0.00    -0.358 C  
HETATM    9  O   UNL     1     -10.535  14.129  64.359  1.00  0.00    -0.581 OA 
HETATM   10  H   UNL     1     -10.519  14.563  63.513  1.00  0.00     0.000 HD 
HETATM   11  N   UNL     1      -9.121  11.822  63.264  1.00  0.00    -0.598 NA 
HETATM   12  C   UNL     1     -11.591  12.189  63.285  1.00  0.00    -0.332 C  
HETATM   13  H2  UNL     1      -8.354  11.176  63.450  1.00  0.00     0.000 HD 
HETATM   14  O   UNL     1     -12.858  11.537  63.127  1.00  0.00    -0.788 OA 
HETATM   15  C   UNL     1     -11.652  13.228  64.412  1.00  0.00    -0.382 C  
HETATM   16  H1  UNL     1      -9.080  12.197  62.317  1.00  0.00     0.000 HD 
HETATM   17  H   UNL     1     -13.563  12.157  62.980  1.00  0.00     0.000 HD 
BRANCH   7  18
HETATM   18  O   UNL     1      -9.372   9.787  65.010  1.00  0.00    -0.232 OA 
BRANCH  18  19
HETATM   19  C   UNL     1      -8.923   9.237  66.241  1.00  0.00    -0.159 C  
HETATM   20  O   UNL     1      -8.999   7.064  65.045  1.00  0.00    -0.342 OA 
HETATM   21  C   UNL     1      -7.531   9.868  66.375  1.00  0.00    -0.101 C  
HETATM   22  C   UNL     1      -7.121   7.608  66.516  1.00  0.00    -0.075 C  
HETATM   23  H   UNL     1      -8.827   6.130  65.067  1.00  0.00     0.000 HD 
HETATM   24  O   UNL     1      -6.576   8.844  66.053  1.00  0.00    -0.063 OA 
HETATM   25  C   UNL     1      -8.644   7.720  66.277  1.00  0.00    -0.150 C  
BRANCH  21  26
HETATM   26  C   UNL     1      -7.262  10.493  67.747  1.00  0.00    -0.085 C  
HETATM   27  H   UNL     1      -8.284  11.346  69.222  1.00  0.00     0.000 HD 
HETATM   28  O   UNL     1      -8.451  10.959  68.371  1.00  0.00    -0.127 OA 
ENDBRANCH  21  26
BRANCH  22  29
HETATM   29  O   UNL     1      -6.806   7.410  67.901  1.00  0.00    -0.068 OA 
BRANCH  29  30
HETATM   30  C   UNL     1      -6.917   6.045  68.430  1.00  0.00    -0.076 C  
HETATM   31  C   UNL     1      -6.691   5.001  67.306  1.00  0.00    -0.055 C  
HETATM   32  O   UNL     1      -5.284   4.680  67.244  1.00  0.00    -0.010 OA 
HETATM   33  C   UNL     1      -7.453   3.668  67.370  1.00  0.00    -0.067 C  
HETATM   34  C   UNL     1      -8.773   3.748  68.116  1.00  0.00    -0.127 C  
HETATM   35  N   UNL     1      -7.723   3.178  65.993  1.00  0.00    -0.077 NA 
HETATM   36  H   UNL     1      -5.145   4.040  66.556  1.00  0.00     0.000 HD 
HETATM   37  H1  UNL     1      -8.228   2.293  66.036  1.00  0.00     0.000 HD 
HETATM   38  H2  UNL     1      -6.871   3.107  65.437  1.00  0.00     0.000 HD 
HETATM   39  C   UNL     1      -8.559   4.368  69.496  1.00  0.00    -0.076 C  
HETATM   40  C   UNL     1      -8.158   5.858  69.346  1.00  0.00    -0.109 C  
HETATM   41  N   UNL     1      -9.806   4.218  70.277  1.00  0.00    -0.208 NA 
HETATM   42  H2  UNL     1     -10.121   3.249  70.328  1.00  0.00     0.000 HD 
HETATM   43  H1  UNL     1      -9.663   4.632  71.198  1.00  0.00     0.000 HD 
BRANCH  40  44
HETATM   44  O   UNL     1      -7.926   6.371  70.682  1.00  0.00    -0.108 OA 
BRANCH  44  45
HETATM   45  C   UNL     1      -8.083   7.784  70.834  1.00  0.00    -0.102 C  
HETATM   46  O   UNL     1      -9.376   8.221  70.410  1.00  0.00    -0.156 OA 
HETATM   47  C   UNL     1     -10.447   7.703  71.212  1.00  0.00    -0.206 C  
HETATM   48  C   UNL     1     -10.289   8.093  72.689  1.00  0.00    -0.328 C  
HETATM   49  H1  UNL     1      -6.287   8.022  73.760  1.00  0.00     0.000 HD 
HETATM   50  O   UNL     1     -11.325   7.538  73.512  1.00  0.00    -0.620 OA 
HETATM   51  H2  UNL     1      -5.734   8.106  72.177  1.00  0.00     0.000 HD 
HETATM   52  C   UNL     1      -8.922   7.624  73.208  1.00  0.00    -0.205 C  
HETATM   53  H   UNL     1     -11.227   7.779  74.426  1.00  0.00     0.000 HD 
HETATM   54  O   UNL     1      -8.736   8.078  74.560  1.00  0.00    -0.436 OA 
HETATM   55  C   UNL     1      -7.805   8.185  72.310  1.00  0.00    -0.127 C  
HETATM   56  N   UNL     1      -6.470   7.758  72.792  1.00  0.00    -0.062 NA 
HETATM   57  H   UNL     1      -7.890   7.789  74.881  1.00  0.00     0.000 HD 
BRANCH  47  58
HETATM   58  C   UNL     1     -11.785   8.170  70.596  1.00  0.00    -0.143 C  
HETATM   59  H1  UNL     1     -13.803   7.581  70.434  1.00  0.00     0.000 HD 
HETATM   60  N   UNL     1     -12.919   7.272  70.841  1.00  0.00    -0.598 NA 
HETATM   61  H2  UNL     1     -13.029   7.106  71.842  1.00  0.00     0.000 HD 
ENDBRANCH  47  58
ENDBRANCH  44  45
ENDBRANCH  40  44
ENDBRANCH  29  30
ENDBRANCH  22  29
ENDBRANCH  18  19
ENDBRANCH   7  18
ENDBRANCH   2   5
TORSDOF 9
ENDMDL
MODEL       61
REMARK 921   NORMALIZED FREE ENERGY PREDICTED BY IDOCK:   -6.15 KCAL/MOL
REMARK 922        TOTAL FREE ENERGY PREDICTED BY IDOCK:  -12.21 KCAL/MOL
REMARK 923 INTER-LIGAND FREE ENERGY PREDICTED BY IDOCK:  -10.03 KCAL/MOL
REMARK 924 INTRA-LIGAND FREE ENERGY PREDICTED BY IDOCK:   -2.17 KCAL/MOL
REMARK 927      BINDING AFFINITY PREDICTED BY RF-SCORE:    0.00 PKD
ROOT
HETATM    1  N   UNL     1     -12.515  15.471  69.592  1.00  0.00    -0.591 NA 
HETATM    2  C   UNL     1     -11.442  14.636  69.045  1.00  0.00    -0.291 C  
HETATM    3  H1  UNL     1     -12.285  15.975  70.448  1.00  0.00     0.000 HD 
HETATM    4  H2  UNL     1     -13.356  14.912  69.731  1.00  0.00     0.000 HD 
ENDROOT
BRANCH   2   5
HETATM    5  C   UNL     1     -11.792  13.870  67.742  1.00  0.00    -0.380 C  
HETATM    6  O   UNL     1     -10.882  12.779  67.443  1.00  0.00    -0.233 OA 
HETATM    7  C   UNL     1     -11.341  12.041  66.298  1.00  0.00    -0.357 C  
HETATM    8  C   UNL     1     -11.351  12.952  65.027  1.00  0.00    -0.305 C  
HETATM    9  O   UNL     1     -10.489  15.498  66.481  1.00  0.00    -0.287 OA 
HETATM   10  H   UNL     1     -10.486  16.126  65.767  1.00  0.00     0.000 HD 
HETATM   11  N   UNL     1      -9.949  13.308  64.629  1.00  0.00    -0.616 NA 
HETATM   12  C   UNL     1     -12.189  14.207  65.268  1.00  0.00    -0.434 C  
HETATM   13  H2  UNL     1      -9.369  12.479  64.497  1.00  0.00     0.000 HD 
HETATM   14  O   UNL     1     -13.595  13.925  65.253  1.00  0.00    -0.461 OA 
HETATM   15  C   UNL     1     -11.787  14.893  66.579  1.00  0.00    -0.140 C  
HETATM   16  H1  UNL     1      -9.954  13.903  63.800  1.00  0.00     0.000 HD 
HETATM   17  H   UNL     1     -14.117  14.705  65.402  1.00  0.00     0.000 HD 
BRANCH   7  18
HETATM   18  O   UNL     1     -10.473  10.994  65.901  1.00  0.00    -0.254 OA 
BRANCH  18  19
HETATM   19  C   UNL     1      -9.450  10.539  66.777  1.00  0.00    -0.163 C  
HETATM   20  O   UNL     1     -11.192   9.011  67.665  1.00  0.00    -0.434 OA 
HETATM   21  C   UNL     1      -8.456   9.907  65.794  1.00  0.00    -0.135 C  
HETATM   22  C   UNL     1      -8.914   8.207  67.276  1.00  0.00    -0.137 C  
HETATM   23  H   UNL     1     -11.410   8.300  68.256  1.00  0.00     0.000 HD 
HETATM   24  O   UNL     1      -8.605   8.482  65.909  1.00  0.00    -0.144 OA 
HETATM   25  C   UNL     1      -9.804   9.384  67.737  1.00  0.00    -0.170 C  
BRANCH  21  26
HETATM   26  C   UNL     1      -7.006  10.351  66.004  1.00  0.00    -0.129 C  
HETATM   27  H   UNL     1      -6.004  11.732  67.023  1.00  0.00     0.000 HD 
HETATM   28  O   UNL     1      -6.903  11.456  66.893  1.00  0.00    -0.124 OA 
ENDBRANCH  21  26
BRANCH  22  29
HETATM   29  O   UNL     1      -7.712   8.103  68.049  1.00  0.00    -0.109 OA 
BRANCH  29  30
HETATM   30  C   UNL     1      -7.528   6.887  68.851  1.00  0.00    -0.096 C  
HETATM   31  C   UNL     1      -6.225   6.152  68.441  1.00  0.00    -0.028 C  
HETATM   32  O   UNL     1      -5.137   6.646  69.252  1.00  0.00    -0.012 OA 
HETATM   33  C   UNL     1      -6.184   4.617  68.521  1.00  0.00    -0.032 C  
HETATM   34  C   UNL     1      -7.542   3.957  68.368  1.00  0.00    -0.062 C  
HETATM   35  N   UNL     1      -5.283   4.085  67.467  1.00  0.00    -0.011 NA 
HETATM   36  H   UNL     1      -4.339   6.196  69.000  1.00  0.00     0.000 HD 
HETATM   37  H1  UNL     1      -5.256   3.066  67.520  1.00  0.00     0.000 HD 
HETATM   38  H2  UNL     1      -4.351   4.496  67.514  1.00  0.00     0.000 HD 
HETATM   39  C   UNL     1      -8.538   4.568  69.352  1.00  0.00    -0.081 C  
HETATM   40  C   UNL     1      -8.827   6.040  68.960  1.00  0.00    -0.121 C  
HETATM   41  N   UNL     1      -9.771   3.752  69.341  1.00  0.00    -0.140 NA 
HETATM   42  H2  UNL     1      -9.589   2.766  69.530  1.00  0.00     0.000 HD 
HETATM   43  H1  UNL     1     -10.436   4.161  69.998  1.00  0.00     0.000 HD 
BRANCH  40  44
HETATM   44  O   UNL     1      -9.736   6.572  69.955  1.00  0.00    -0.163 OA 
BRANCH  44  45
HETATM   45  C   UNL     1      -9.180   7.550  70.837  1.00  0.00    -0.153 C  
HETATM   46  O   UNL     1      -9.852   8.807  70.724  1.00  0.00    -0.179 OA 
HETATM   47  C   UNL     1     -11.225   8.762  71.138  1.00  0.00    -0.277 C  
HETATM   48  C   UNL     1     -11.362   8.294  72.595  1.00  0.00    -0.350 C  
HETATM   49  H1  UNL     1      -8.546   5.370  73.422  1.00  0.00     0.000 HD 
HETATM   50  O   UNL     1     -12.732   8.194  73.007  1.00  0.00    -0.601 OA 
HETATM   51  H2  UNL     1      -7.564   5.771  72.121  1.00  0.00     0.000 HD 
HETATM   52  C   UNL     1     -10.677   6.931  72.771  1.00  0.00    -0.255 C  
HETATM   53  H   UNL     1     -12.817   7.905  73.909  1.00  0.00     0.000 HD 
HETATM   54  O   UNL     1     -10.719   6.544  74.155  1.00  0.00    -0.443 OA 
HETATM   55  C   UNL     1      -9.215   7.019  72.297  1.00  0.00    -0.133 C  
HETATM   56  N   UNL     1      -8.523   5.718  72.464  1.00  0.00    -0.117 NA 
HETATM   57  H   UNL     1     -10.296   5.700  74.264  1.00  0.00     0.000 HD 
BRANCH  47  58
HETATM   58  C   UNL     1     -11.856  10.148  70.879  1.00  0.00    -0.374 C  
HETATM   59  H1  UNL     1     -13.567  11.028  70.017  1.00  0.00     0.000 HD 
HETATM   60  N   UNL     1     -13.150  10.113  70.188  1.00  0.00    -0.512 NA 
HETATM   61  H2  UNL     1     -13.805   9.514  70.693  1.00  0.00     0.000 HD 
ENDBRANCH  47  58
ENDBRANCH  44  45
ENDBRANCH  40  44
ENDBRANCH  29  30
ENDBRANCH  22  29
ENDBRANCH  18  19
ENDBRANCH   7  18
ENDBRANCH   2   5
TORSDOF 9
ENDMDL
MODEL       62
REMARK 921   NORMALIZED FREE ENERGY PREDICTED BY IDOCK:   -6.15 KCAL/MOL
REMARK 922        TOTAL FREE ENERGY PREDICTED BY IDOCK:  -12.20 KCAL/MOL
REMARK 923 INTER-LIGAND FREE ENERGY PREDICTED BY IDOCK:   -9.81 KCAL/MOL
REMARK 924 INTRA-LIGAND FREE ENERGY PREDICTED BY IDOCK:   -2.39 KCAL/MOL
REMARK 927      BINDING AFFINITY PREDICTED BY RF-SCORE:    0.00 PKD
ROOT
HETATM    1  N   UNL     1     -12.573  14.729  63.590  1.00  0.00    -0.960 NA 
HETATM    2  C   UNL     1     -12.297  13.294  63.475  1.00  0.00    -0.366 C  
HETATM    3  H1  UNL     1     -13.301  15.086  62.972  1.00  0.00     0.000 HD 
HETATM    4  H2  UNL     1     -11.713  15.261  63.459  1.00  0.00     0.000 HD 
ENDROOT
BRANCH   2   5
HETATM    5  C   UNL     1     -11.189  12.751  64.415  1.00  0.00    -0.347 C  
HETATM    6  O   UNL     1     -11.220  11.309  64.584  1.00  0.00    -0.219 OA 
HETATM    7  C   UNL     1     -10.093  10.870  65.362  1.00  0.00    -0.277 C  
HETATM    8  C   UNL     1     -10.155  11.472  66.804  1.00  0.00    -0.215 C  
HETATM    9  O   UNL     1     -12.660  13.152  66.317  1.00  0.00    -0.366 OA 
HETATM   10  H   UNL     1     -12.764  13.578  67.161  1.00  0.00     0.000 HD 
HETATM   11  N   UNL     1     -11.308  10.887  67.565  1.00  0.00    -0.457 NA 
HETATM   12  C   UNL     1     -10.248  12.996  66.750  1.00  0.00    -0.246 C  
HETATM   13  H2  UNL     1     -11.275   9.867  67.580  1.00  0.00     0.000 HD 
HETATM   14  O   UNL     1      -8.996  13.599  66.396  1.00  0.00    -0.451 OA 
HETATM   15  C   UNL     1     -11.357  13.445  65.790  1.00  0.00    -0.305 C  
HETATM   16  H1  UNL     1     -11.349  11.279  68.505  1.00  0.00     0.000 HD 
HETATM   17  H   UNL     1      -9.054  14.547  66.363  1.00  0.00     0.000 HD 
BRANCH   7  18
HETATM   18  O   UNL     1     -10.082   9.478  65.625  1.00  0.00    -0.285 OA 
BRANCH  18  19
HETATM   19  C   UNL     1      -9.016   8.894  66.360  1.00  0.00    -0.158 C  
HETATM   20  O   UNL     1     -10.813   7.856  67.721  1.00  0.00    -0.465 OA 
HETATM   21  C   UNL     1      -8.374   7.981  65.308  1.00  0.00    -0.143 C  
HETATM   22  C   UNL     1      -8.854   6.554  67.048  1.00  0.00    -0.116 C  
HETATM   23  H   UNL     1     -11.046   7.262  68.425  1.00  0.00     0.000 HD 
HETATM   24  O   UNL     1      -8.770   6.636  65.625  1.00  0.00    -0.147 OA 
HETATM   25  C   UNL     1      -9.392   7.929  67.505  1.00  0.00    -0.143 C  
BRANCH  21  26
HETATM   26  C   UNL     1      -6.853   8.122  65.208  1.00  0.00    -0.059 C  
HETATM   27  H   UNL     1      -5.477   8.460  63.814  1.00  0.00     0.000 HD 
HETATM   28  O   UNL     1      -6.421   8.372  63.877  1.00  0.00    -0.071 OA 
ENDBRANCH  21  26
BRANCH  22  29
HETATM   29  O   UNL     1      -7.568   6.264  67.609  1.00  0.00    -0.094 OA 
BRANCH  29  30
HETATM   30  C   UNL     1      -7.461   5.087  68.481  1.00  0.00    -0.074 C  
HETATM   31  C   UNL     1      -7.336   3.791  67.639  1.00  0.00    -0.067 C  
HETATM   32  O   UNL     1      -5.937   3.526  67.397  1.00  0.00    -0.023 OA 
HETATM   33  C   UNL     1      -7.951   2.491  68.186  1.00  0.00    -0.058 C  
HETATM   34  C   UNL     1      -9.125   2.713  69.122  1.00  0.00    -0.189 C  
HETATM   35  N   UNL     1      -8.407   1.640  67.057  1.00  0.00    -0.077 NA 
HETATM   36  H   UNL     1      -5.861   2.731  66.881  1.00  0.00     0.000 HD 
HETATM   37  H1  UNL     1      -8.814   0.778  67.419  1.00  0.00     0.000 HD 
HETATM   38  H2  UNL     1      -7.660   1.459  66.386  1.00  0.00     0.000 HD 
HETATM   39  C   UNL     1      -8.736   3.688  70.231  1.00  0.00    -0.073 C  
HETATM   40  C   UNL     1      -8.504   5.100  69.633  1.00  0.00    -0.093 C  
HETATM   41  N   UNL     1      -9.811   3.699  71.247  1.00  0.00    -0.170 NA 
HETATM   42  H2  UNL     1     -10.023   2.767  71.602  1.00  0.00     0.000 HD 
HETATM   43  H1  UNL     1      -9.551   4.351  71.987  1.00  0.00     0.000 HD 
BRANCH  40  44
HETATM   44  O   UNL     1      -8.095   5.961  70.724  1.00  0.00    -0.114 OA 
BRANCH  44  45
HETATM   45  C   UNL     1      -8.582   7.304  70.664  1.00  0.00    -0.142 C  
HETATM   46  O   UNL     1     -10.011   7.350  70.702  1.00  0.00    -0.186 OA 
HETATM   47  C   UNL     1     -10.566   6.874  71.936  1.00  0.00    -0.211 C  
HETATM   48  C   UNL     1     -10.047   7.676  73.138  1.00  0.00    -0.323 C  
HETATM   49  H1  UNL     1      -6.066   8.675  72.568  1.00  0.00     0.000 HD 
HETATM   50  O   UNL     1     -10.553   7.178  74.385  1.00  0.00    -0.505 OA 
HETATM   51  H2  UNL     1      -6.113   8.428  70.909  1.00  0.00     0.000 HD 
HETATM   52  C   UNL     1      -8.511   7.640  73.163  1.00  0.00    -0.146 C  
HETATM   53  H   UNL     1     -10.231   7.674  75.129  1.00  0.00     0.000 HD 
HETATM   54  O   UNL     1      -8.025   8.474  74.229  1.00  0.00    -0.348 OA 
HETATM   55  C   UNL     1      -7.958   8.139  71.816  1.00  0.00    -0.121 C  
HETATM   56  N   UNL     1      -6.476   8.127  71.813  1.00  0.00    -0.048 NA 
HETATM   57  H   UNL     1      -7.076   8.452  74.245  1.00  0.00     0.000 HD 
BRANCH  47  58
HETATM   58  C   UNL     1     -12.107   6.887  71.812  1.00  0.00    -0.346 C  
HETATM   59  H1  UNL     1     -13.628   7.200  70.386  1.00  0.00     0.000 HD 
HETATM   60  N   UNL     1     -12.611   7.191  70.468  1.00  0.00    -0.602 NA 
HETATM   61  H2  UNL     1     -12.206   6.550  69.785  1.00  0.00     0.000 HD 
ENDBRANCH  47  58
ENDBRANCH  44  45
ENDBRANCH  40  44
ENDBRANCH  29  30
ENDBRANCH  22  29
ENDBRANCH  18  19
ENDBRANCH   7  18
ENDBRANCH   2   5
TORSDOF 9
ENDMDL
MODEL       63
REMARK 921   NORMALIZED FREE ENERGY PREDICTED BY IDOCK:   -6.15 KCAL/MOL
REMARK 922        TOTAL FREE ENERGY PREDICTED BY IDOCK:  -12.19 KCAL/MOL
REMARK 923 INTER-LIGAND FREE ENERGY PREDICTED BY IDOCK:  -10.18 KCAL/MOL
REMARK 924 INTRA-LIGAND FREE ENERGY PREDICTED BY IDOCK:   -2.01 KCAL/MOL
REMARK 927      BINDING AFFINITY PREDICTED BY RF-SCORE:    0.00 PKD
ROOT
HETATM    1  N   UNL     1      -9.682  15.772  68.762  1.00  0.00    -0.204 NA 
HETATM    2  C   UNL     1     -10.794  16.264  67.945  1.00  0.00    -0.330 C  
HETATM    3  H1  UNL     1      -9.316  16.432  69.447  1.00  0.00     0.000 HD 
HETATM    4  H2  UNL     1      -8.928  15.439  68.162  1.00  0.00     0.000 HD 
ENDROOT
BRANCH   2   5
HETATM    5  C   UNL     1     -11.351  15.260  66.902  1.00  0.00    -0.209 C  
HETATM    6  O   UNL     1     -11.158  13.869  67.269  1.00  0.00    -0.288 OA 
HETATM    7  C   UNL     1     -11.809  13.004  66.322  1.00  0.00    -0.408 C  
HETATM    8  C   UNL     1     -11.169  13.166  64.904  1.00  0.00    -0.310 C  
HETATM    9  O   UNL     1      -9.233  15.391  65.704  1.00  0.00    -0.377 OA 
HETATM   10  H   UNL     1      -8.803  15.569  64.874  1.00  0.00     0.000 HD 
HETATM   11  N   UNL     1      -9.766  12.636  64.899  1.00  0.00    -0.494 NA 
HETATM   12  C   UNL     1     -11.207  14.628  64.458  1.00  0.00    -0.282 C  
HETATM   13  H2  UNL     1      -9.723  11.671  65.227  1.00  0.00     0.000 HD 
HETATM   14  O   UNL     1     -12.524  15.038  64.069  1.00  0.00    -0.931 OA 
HETATM   15  C   UNL     1     -10.652  15.550  65.551  1.00  0.00    -0.396 C  
HETATM   16  H1  UNL     1      -9.348  12.743  63.975  1.00  0.00     0.000 HD 
HETATM   17  H   UNL     1     -12.548  15.946  63.792  1.00  0.00     0.000 HD 
BRANCH   7  18
HETATM   18  O   UNL     1     -11.615  11.624  66.575  1.00  0.00    -0.473 OA 
BRANCH  18  19
HETATM   19  C   UNL     1     -10.669  11.197  67.546  1.00  0.00    -0.236 C  
HETATM   20  O   UNL     1     -12.659  10.634  68.917  1.00  0.00    -0.742 OA 
HETATM   21  C   UNL     1     -10.002  10.014  66.834  1.00  0.00    -0.209 C  
HETATM   22  C   UNL     1     -10.749   9.109  68.813  1.00  0.00    -0.131 C  
HETATM   23  H   UNL     1     -13.000  10.254  69.718  1.00  0.00     0.000 HD 
HETATM   24  O   UNL     1     -10.526   8.817  67.432  1.00  0.00    -0.261 OA 
HETATM   25  C   UNL     1     -11.222  10.580  68.847  1.00  0.00    -0.266 C  
BRANCH  21  26
HETATM   26  C   UNL     1      -8.472  10.049  66.868  1.00  0.00    -0.125 C  
HETATM   27  H   UNL     1      -6.955  10.145  65.588  1.00  0.00     0.000 HD 
HETATM   28  O   UNL     1      -7.904  10.123  65.567  1.00  0.00    -0.135 OA 
ENDBRANCH  21  26
BRANCH  22  29
HETATM   29  O   UNL     1      -9.546   8.910  69.567  1.00  0.00    -0.166 OA 
BRANCH  29  30
HETATM   30  C   UNL     1      -9.548   7.840  70.572  1.00  0.00    -0.167 C  
HETATM   31  C   UNL     1      -9.586   8.433  72.004  1.00  0.00    -0.274 C  
HETATM   32  O   UNL     1     -10.964   8.584  72.410  1.00  0.00    -0.357 OA 
HETATM   33  C   UNL     1      -8.864   7.683  73.135  1.00  0.00    -0.179 C  
HETATM   34  C   UNL     1      -7.695   6.836  72.664  1.00  0.00    -0.099 C  
HETATM   35  N   UNL     1      -8.362   8.655  74.141  1.00  0.00    -0.353 NA 
HETATM   36  H   UNL     1     -10.986   8.947  73.288  1.00  0.00     0.000 HD 
HETATM   37  H1  UNL     1      -7.883   8.157  74.891  1.00  0.00     0.000 HD 
HETATM   38  H2  UNL     1      -9.103   9.260  74.493  1.00  0.00     0.000 HD 
HETATM   39  C   UNL     1      -8.141   5.907  71.536  1.00  0.00    -0.115 C  
HETATM   40  C   UNL     1      -8.490   6.740  70.276  1.00  0.00    -0.135 C  
HETATM   41  N   UNL     1      -7.053   4.942  71.264  1.00  0.00    -0.050 NA 
HETATM   42  H2  UNL     1      -6.764   4.433  72.099  1.00  0.00     0.000 HD 
HETATM   43  H1  UNL     1      -7.351   4.323  70.511  1.00  0.00     0.000 HD 
BRANCH  40  44
HETATM   44  O   UNL     1      -8.947   5.808  69.265  1.00  0.00    -0.118 OA 
BRANCH  44  45
HETATM   45  C   UNL     1      -8.313   5.926  67.989  1.00  0.00    -0.111 C  
HETATM   46  O   UNL     1      -7.008   5.342  67.992  1.00  0.00    -0.059 OA 
HETATM   47  C   UNL     1      -7.016   3.923  68.204  1.00  0.00    -0.051 C  
HETATM   48  C   UNL     1      -7.846   3.194  67.136  1.00  0.00    -0.078 C  
HETATM   49  H1  UNL     1     -11.172   5.453  66.133  1.00  0.00     0.000 HD 
HETATM   50  O   UNL     1      -7.906   1.780  67.365  1.00  0.00    -0.059 OA 
HETATM   51  H2  UNL     1     -10.539   6.883  66.742  1.00  0.00     0.000 HD 
HETATM   52  C   UNL     1      -9.271   3.765  67.105  1.00  0.00    -0.182 C  
HETATM   53  H   UNL     1      -8.420   1.329  66.704  1.00  0.00     0.000 HD 
HETATM   54  O   UNL     1     -10.015   3.152  66.038  1.00  0.00    -0.384 OA 
HETATM   55  C   UNL     1      -9.216   5.290  66.896  1.00  0.00    -0.121 C  
HETATM   56  N   UNL     1     -10.580   5.870  66.851  1.00  0.00    -0.286 NA 
HETATM   57  H   UNL     1     -10.896   3.506  66.019  1.00  0.00     0.000 HD 
BRANCH  47  58
HETATM   58  C   UNL     1      -5.552   3.435  68.279  1.00  0.00    -0.018 C  
HETATM   59  H1  UNL     1      -4.430   1.678  68.593  1.00  0.00     0.000 HD 
HETATM   60  N   UNL     1      -5.397   2.000  68.544  1.00  0.00    -0.012 NA 
HETATM   61  H2  UNL     1      -5.918   1.454  67.856  1.00  0.00     0.000 HD 
ENDBRANCH  47  58
ENDBRANCH  44  45
ENDBRANCH  40  44
ENDBRANCH  29  30
ENDBRANCH  22  29
ENDBRANCH  18  19
ENDBRANCH   7  18
ENDBRANCH   2   5
TORSDOF 9
ENDMDL
MODEL       64
REMARK 921   NORMALIZED FREE ENERGY PREDICTED BY IDOCK:   -6.12 KCAL/MOL
REMARK 922        TOTAL FREE ENERGY PREDICTED BY IDOCK:  -12.15 KCAL/MOL
REMARK 923 INTER-LIGAND FREE ENERGY PREDICTED BY IDOCK:   -9.20 KCAL/MOL
REMARK 924 INTRA-LIGAND FREE ENERGY PREDICTED BY IDOCK:   -2.96 KCAL/MOL
REMARK 927      BINDING AFFINITY PREDICTED BY RF-SCORE:    0.00 PKD
ROOT
HETATM    1  N   UNL     1     -10.378  14.777  67.354  1.00  0.00    -0.242 NA 
HETATM    2  C   UNL     1     -11.687  14.160  67.120  1.00  0.00    -0.403 C  
HETATM    3  H1  UNL     1     -10.347  15.469  68.102  1.00  0.00     0.000 HD 
HETATM    4  H2  UNL     1     -10.025  15.184  66.488  1.00  0.00     0.000 HD 
ENDROOT
BRANCH   2   5
HETATM    5  C   UNL     1     -11.734  13.108  65.981  1.00  0.00    -0.379 C  
HETATM    6  O   UNL     1     -10.572  12.238  65.940  1.00  0.00    -0.244 OA 
HETATM    7  C   UNL     1     -10.745  11.214  64.945  1.00  0.00    -0.248 C  
HETATM    8  C   UNL     1     -10.856  11.849  63.521  1.00  0.00    -0.434 C  
HETATM    9  O   UNL     1     -10.741  14.749  64.478  1.00  0.00    -0.605 OA 
HETATM   10  H   UNL     1     -10.822  15.219  63.655  1.00  0.00     0.000 HD 
HETATM   11  N   UNL     1      -9.546  12.460  63.117  1.00  0.00    -0.450 NA 
HETATM   12  C   UNL     1     -11.981  12.882  63.475  1.00  0.00    -0.556 C  
HETATM   13  H2  UNL     1      -8.780  11.789  63.175  1.00  0.00     0.000 HD 
HETATM   14  O   UNL     1     -13.276  12.266  63.458  1.00  0.00    -0.716 OA 
HETATM   15  C   UNL     1     -11.866  13.873  64.641  1.00  0.00    -0.407 C  
HETATM   16  H1  UNL     1      -9.618  12.874  62.188  1.00  0.00     0.000 HD 
HETATM   17  H   UNL     1     -13.976  12.909  63.430  1.00  0.00     0.000 HD 
BRANCH   7  18
HETATM   18  O   UNL     1      -9.626  10.358  64.799  1.00  0.00    -0.241 OA 
BRANCH  18  19
HETATM   19  C   UNL     1      -8.724  10.165  65.880  1.00  0.00    -0.146 C  
HETATM   20  O   UNL     1     -10.076   8.139  66.358  1.00  0.00    -0.418 OA 
HETATM   21  C   UNL     1      -7.402   9.917  65.142  1.00  0.00    -0.133 C  
HETATM   22  C   UNL     1      -7.634   8.063  66.485  1.00  0.00    -0.092 C  
HETATM   23  H   UNL     1     -10.191   7.358  66.886  1.00  0.00     0.000 HD 
HETATM   24  O   UNL     1      -7.138   8.506  65.221  1.00  0.00    -0.079 OA 
HETATM   25  C   UNL     1      -8.911   8.895  66.737  1.00  0.00    -0.124 C  
BRANCH  21  26
HETATM   26  C   UNL     1      -6.230  10.749  65.670  1.00  0.00    -0.078 C  
HETATM   27  H   UNL     1      -5.913  12.218  66.970  1.00  0.00     0.000 HD 
HETATM   28  O   UNL     1      -6.639  11.702  66.642  1.00  0.00    -0.123 OA 
ENDBRANCH  21  26
BRANCH  22  29
HETATM   29  O   UNL     1      -6.648   8.262  67.507  1.00  0.00    -0.056 OA 
BRANCH  29  30
HETATM   30  C   UNL     1      -7.087   8.142  68.902  1.00  0.00    -0.066 C  
HETATM   31  C   UNL     1      -6.954   9.500  69.638  1.00  0.00    -0.066 C  
HETATM   32  O   UNL     1      -8.190  10.233  69.491  1.00  0.00    -0.158 OA 
HETATM   33  C   UNL     1      -6.608   9.500  71.136  1.00  0.00    -0.023 C  
HETATM   34  C   UNL     1      -5.824   8.280  71.586  1.00  0.00    -0.038 C  
HETATM   35  N   UNL     1      -5.816  10.713  71.468  1.00  0.00    -0.315 NA 
HETATM   36  H   UNL     1      -8.108  11.065  69.942  1.00  0.00     0.000 HD 
HETATM   37  H1  UNL     1      -5.587  10.712  72.462  1.00  0.00     0.000 HD 
HETATM   38  H2  UNL     1      -6.290  11.570  71.184  1.00  0.00     0.000 HD 
HETATM   39  C   UNL     1      -6.543   7.004  71.150  1.00  0.00    -0.045 C  
HETATM   40  C   UNL     1      -6.508   6.883  69.605  1.00  0.00    -0.044 C  
HETATM   41  N   UNL     1      -5.885   5.849  71.800  1.00  0.00    -0.029 NA 
HETATM   42  H2  UNL     1      -5.839   5.945  72.815  1.00  0.00     0.000 HD 
HETATM   43  H1  UNL     1      -6.365   4.998  71.509  1.00  0.00     0.000 HD 
BRANCH  40  44
HETATM   44  O   UNL     1      -7.242   5.683  69.258  1.00  0.00    -0.063 OA 
BRANCH  44  45
HETATM   45  C   UNL     1      -8.664   5.775  69.380  1.00  0.00    -0.111 C  
HETATM   46  O   UNL     1      -9.304   5.783  68.102  1.00  0.00    -0.109 OA 
HETATM   47  C   UNL     1      -9.135   4.561  67.369  1.00  0.00    -0.128 C  
HETATM   48  C   UNL     1      -9.675   3.353  68.149  1.00  0.00     0.016 C  
HETATM   49  H1  UNL     1      -8.901   3.808  72.194  1.00  0.00     0.000 HD 
HETATM   50  O   UNL     1      -9.465   2.117  67.451  1.00  0.00    -0.368 OA 
HETATM   51  H2  UNL     1      -8.656   5.466  72.087  1.00  0.00     0.000 HD 
HETATM   52  C   UNL     1      -9.000   3.279  69.527  1.00  0.00    -0.113 C  
HETATM   53  H   UNL     1      -9.799   1.369  67.934  1.00  0.00     0.000 HD 
HETATM   54  O   UNL     1      -9.579   2.208  70.292  1.00  0.00    -0.106 OA 
HETATM   55  C   UNL     1      -9.189   4.614  70.270  1.00  0.00    -0.132 C  
HETATM   56  N   UNL     1      -8.556   4.570  71.610  1.00  0.00    -0.113 NA 
HETATM   57  H   UNL     1      -9.162   2.163  71.144  1.00  0.00     0.000 HD 
BRANCH  47  58
HETATM   58  C   UNL     1      -9.789   4.734  65.980  1.00  0.00    -0.216 C  
HETATM   59  H1  UNL     1     -11.565   5.437  65.086  1.00  0.00     0.000 HD 
HETATM   60  N   UNL     1     -11.133   5.324  66.004  1.00  0.00    -0.793 NA 
HETATM   61  H2  UNL     1     -11.120   6.214  66.502  1.00  0.00     0.000 HD 
ENDBRANCH  47  58
ENDBRANCH  44  45
ENDBRANCH  40  44
ENDBRANCH  29  30
ENDBRANCH  22  29
ENDBRANCH  18  19
ENDBRANCH   7  18
ENDBRANCH   2   5
TORSDOF 9
ENDMDL
MODEL       65
REMARK 921   NORMALIZED FREE ENERGY PREDICTED BY IDOCK:   -6.11 KCAL/MOL
REMARK 922        TOTAL FREE ENERGY PREDICTED BY IDOCK:  -12.14 KCAL/MOL
REMARK 923 INTER-LIGAND FREE ENERGY PREDICTED BY IDOCK:   -9.45 KCAL/MOL
REMARK 924 INTRA-LIGAND FREE ENERGY PREDICTED BY IDOCK:   -2.69 KCAL/MOL
REMARK 927      BINDING AFFINITY PREDICTED BY RF-SCORE:    0.00 PKD
ROOT
HETATM    1  N   UNL     1      -9.912  19.468  68.625  1.00  0.00    -0.431 NA 
HETATM    2  C   UNL     1      -8.898  18.418  68.496  1.00  0.00    -0.314 C  
HETATM    3  H1  UNL     1      -9.551  20.418  68.709  1.00  0.00     0.000 HD 
HETATM    4  H2  UNL     1     -10.532  19.261  69.408  1.00  0.00     0.000 HD 
ENDROOT
BRANCH   2   5
HETATM    5  C   UNL     1      -9.447  16.973  68.369  1.00  0.00    -0.269 C  
HETATM    6  O   UNL     1      -8.462  16.011  67.909  1.00  0.00    -0.160 OA 
HETATM    7  C   UNL     1      -9.007  14.680  67.938  1.00  0.00    -0.174 C  
HETATM    8  C   UNL     1     -10.216  14.563  66.952  1.00  0.00    -0.264 C  
HETATM    9  O   UNL     1     -10.203  17.501  66.113  1.00  0.00    -0.347 OA 
HETATM   10  H   UNL     1     -10.938  17.524  65.511  1.00  0.00     0.000 HD 
HETATM   11  N   UNL     1      -9.745  14.678  65.532  1.00  0.00    -0.511 NA 
HETATM   12  C   UNL     1     -11.275  15.617  67.267  1.00  0.00    -0.184 C  
HETATM   13  H2  UNL     1      -9.013  14.000  65.318  1.00  0.00     0.000 HD 
HETATM   14  O   UNL     1     -12.021  15.294  68.448  1.00  0.00    -0.514 OA 
HETATM   15  C   UNL     1     -10.645  17.011  67.388  1.00  0.00    -0.289 C  
HETATM   16  H1  UNL     1     -10.533  14.601  64.889  1.00  0.00     0.000 HD 
HETATM   17  H   UNL     1     -12.680  15.950  68.645  1.00  0.00     0.000 HD 
BRANCH   7  18
HETATM   18  O   UNL     1      -8.127  13.687  67.443  1.00  0.00    -0.170 OA 
BRANCH  18  19
HETATM   19  C   UNL     1      -7.958  12.463  68.145  1.00  0.00    -0.153 C  
HETATM   20  O   UNL     1      -9.270  11.470  66.286  1.00  0.00    -0.201 OA 
HETATM   21  C   UNL     1      -6.440  12.262  68.061  1.00  0.00    -0.076 C  
HETATM   22  C   UNL     1      -7.296  10.323  67.166  1.00  0.00    -0.091 C  
HETATM   23  H   UNL     1      -9.624  10.686  65.884  1.00  0.00     0.000 HD 
HETATM   24  O   UNL     1      -6.207  11.243  67.075  1.00  0.00    -0.082 OA 
HETATM   25  C   UNL     1      -8.534  11.189  67.491  1.00  0.00    -0.126 C  
BRANCH  21  26
HETATM   26  C   UNL     1      -5.783  11.924  69.402  1.00  0.00    -0.073 C  
HETATM   27  H   UNL     1      -6.329  11.552  71.276  1.00  0.00     0.000 HD 
HETATM   28  O   UNL     1      -6.736  11.762  70.445  1.00  0.00     0.004 OA 
ENDBRANCH  21  26
BRANCH  22  29
HETATM   29  O   UNL     1      -7.040   9.343  68.181  1.00  0.00    -0.075 OA 
BRANCH  29  30
HETATM   30  C   UNL     1      -7.605   8.003  67.983  1.00  0.00    -0.112 C  
HETATM   31  C   UNL     1      -7.350   7.508  66.535  1.00  0.00    -0.084 C  
HETATM   32  O   UNL     1      -6.093   6.798  66.501  1.00  0.00    -0.034 OA 
HETATM   33  C   UNL     1      -8.396   6.602  65.867  1.00  0.00    -0.137 C  
HETATM   34  C   UNL     1      -9.806   6.797  66.395  1.00  0.00    -0.096 C  
HETATM   35  N   UNL     1      -8.408   6.846  64.402  1.00  0.00    -0.335 NA 
HETATM   36  H   UNL     1      -5.936   6.495  65.614  1.00  0.00     0.000 HD 
HETATM   37  H1  UNL     1      -9.103   6.245  63.959  1.00  0.00     0.000 HD 
HETATM   38  H2  UNL     1      -7.483   6.735  63.986  1.00  0.00     0.000 HD 
HETATM   39  C   UNL     1      -9.817   6.680  67.919  1.00  0.00    -0.124 C  
HETATM   40  C   UNL     1      -9.049   7.874  68.543  1.00  0.00    -0.132 C  
HETATM   41  N   UNL     1     -11.223   6.640  68.377  1.00  0.00    -0.555 NA 
HETATM   42  H2  UNL     1     -11.761   5.901  67.924  1.00  0.00     0.000 HD 
HETATM   43  H1  UNL     1     -11.229   6.562  69.394  1.00  0.00     0.000 HD 
BRANCH  40  44
HETATM   44  O   UNL     1      -9.057   7.678  69.978  1.00  0.00    -0.150 OA 
BRANCH  44  45
HETATM   45  C   UNL     1      -9.391   8.832  70.754  1.00  0.00    -0.208 C  
HETATM   46  O   UNL     1     -10.794   8.904  71.018  1.00  0.00    -0.225 OA 
HETATM   47  C   UNL     1     -11.278   7.830  71.837  1.00  0.00    -0.265 C  
HETATM   48  C   UNL     1     -10.556   7.779  73.191  1.00  0.00    -0.352 C  
HETATM   49  H1  UNL     1      -6.561   8.769  72.711  1.00  0.00     0.000 HD 
HETATM   50  O   UNL     1     -10.992   6.678  74.001  1.00  0.00    -0.418 OA 
HETATM   51  H2  UNL     1      -6.796   9.518  71.227  1.00  0.00     0.000 HD 
HETATM   52  C   UNL     1      -9.039   7.676  72.969  1.00  0.00    -0.186 C  
HETATM   53  H   UNL     1     -10.545   6.647  74.839  1.00  0.00     0.000 HD 
HETATM   54  O   UNL     1      -8.360   7.731  74.235  1.00  0.00    -0.212 OA 
HETATM   55  C   UNL     1      -8.566   8.834  72.071  1.00  0.00    -0.062 C  
HETATM   56  N   UNL     1      -7.102   8.768  71.847  1.00  0.00    -0.245 NA 
HETATM   57  H   UNL     1      -7.422   7.668  74.098  1.00  0.00     0.000 HD 
BRANCH  47  58
HETATM   58  C   UNL     1     -12.812   7.971  71.967  1.00  0.00    -0.287 C  
HETATM   59  H1  UNL     1     -14.273   8.803  73.238  1.00  0.00     0.000 HD 
HETATM   60  N   UNL     1     -13.260   8.710  73.153  1.00  0.00    -0.737 NA 
HETATM   61  H2  UNL     1     -12.816   9.628  73.187  1.00  0.00     0.000 HD 
ENDBRANCH  47  58
ENDBRANCH  44  45
ENDBRANCH  40  44
ENDBRANCH  29  30
ENDBRANCH  22  29
ENDBRANCH  18  19
ENDBRANCH   7  18
ENDBRANCH   2   5
TORSDOF 9
ENDMDL
MODEL       66
REMARK 921   NORMALIZED FREE ENERGY PREDICTED BY IDOCK:   -6.11 KCAL/MOL
REMARK 922        TOTAL FREE ENERGY PREDICTED BY IDOCK:  -12.14 KCAL/MOL
REMARK 923 INTER-LIGAND FREE ENERGY PREDICTED BY IDOCK:  -11.02 KCAL/MOL
REMARK 924 INTRA-LIGAND FREE ENERGY PREDICTED BY IDOCK:   -1.12 KCAL/MOL
REMARK 927      BINDING AFFINITY PREDICTED BY RF-SCORE:    0.00 PKD
ROOT
HETATM    1  N   UNL     1     -12.520   8.451  71.031  1.00  0.00    -0.488 NA 
HETATM    2  C   UNL     1     -11.303   8.065  71.750  1.00  0.00    -0.270 C  
HETATM    3  H1  UNL     1     -13.294   8.763  71.615  1.00  0.00     0.000 HD 
HETATM    4  H2  UNL     1     -12.825   7.688  70.426  1.00  0.00     0.000 HD 
ENDROOT
BRANCH   2   5
HETATM    5  C   UNL     1     -10.125   7.589  70.861  1.00  0.00    -0.191 C  
HETATM    6  O   UNL     1      -9.639   8.602  69.942  1.00  0.00    -0.168 OA 
HETATM    7  C   UNL     1      -8.472   8.132  69.245  1.00  0.00    -0.134 C  
HETATM    8  C   UNL     1      -8.825   6.889  68.365  1.00  0.00    -0.123 C  
HETATM    9  O   UNL     1     -11.740   6.705  69.264  1.00  0.00    -0.645 OA 
HETATM   10  H   UNL     1     -12.035   5.943  68.777  1.00  0.00     0.000 HD 
HETATM   11  N   UNL     1      -9.726   7.287  67.233  1.00  0.00    -0.149 NA 
HETATM   12  C   UNL     1      -9.462   5.789  69.213  1.00  0.00    -0.129 C  
HETATM   13  H2  UNL     1      -9.326   8.045  66.678  1.00  0.00     0.000 HD 
HETATM   14  O   UNL     1      -8.498   5.115  70.033  1.00  0.00    -0.094 OA 
HETATM   15  C   UNL     1     -10.606   6.348  70.069  1.00  0.00    -0.236 C  
HETATM   16  H1  UNL     1      -9.956   6.477  66.659  1.00  0.00     0.000 HD 
HETATM   17  H   UNL     1      -8.894   4.431  70.561  1.00  0.00     0.000 HD 
BRANCH   7  18
HETATM   18  O   UNL     1      -7.972   9.041  68.281  1.00  0.00    -0.102 OA 
BRANCH  18  19
HETATM   19  C   UNL     1      -8.543  10.336  68.150  1.00  0.00    -0.119 C  
HETATM   20  O   UNL     1      -7.323  10.847  70.250  1.00  0.00    -0.443 OA 
HETATM   21  C   UNL     1      -7.881  10.841  66.862  1.00  0.00    -0.130 C  
HETATM   22  C   UNL     1      -7.366  12.462  68.412  1.00  0.00    -0.113 C  
HETATM   23  H   UNL     1      -7.081  11.497  70.899  1.00  0.00     0.000 HD 
HETATM   24  O   UNL     1      -6.872  11.786  67.255  1.00  0.00    -0.110 OA 
HETATM   25  C   UNL     1      -8.150  11.392  69.205  1.00  0.00     0.082 C  
BRANCH  21  26
HETATM   26  C   UNL     1      -8.863  11.437  65.850  1.00  0.00    -0.145 C  
HETATM   27  H   UNL     1     -10.321  10.821  64.650  1.00  0.00     0.000 HD 
HETATM   28  O   UNL     1      -9.712  10.452  65.278  1.00  0.00    -0.234 OA 
ENDBRANCH  21  26
BRANCH  22  29
HETATM   29  O   UNL     1      -8.195  13.567  68.030  1.00  0.00    -0.140 OA 
BRANCH  29  30
HETATM   30  C   UNL     1      -7.579  14.626  67.221  1.00  0.00    -0.143 C  
HETATM   31  C   UNL     1      -6.272  15.132  67.883  1.00  0.00    -0.156 C  
HETATM   32  O   UNL     1      -5.165  14.345  67.389  1.00  0.00    -0.330 OA 
HETATM   33  C   UNL     1      -5.882  16.609  67.718  1.00  0.00    -0.135 C  
HETATM   34  C   UNL     1      -7.063  17.537  67.499  1.00  0.00    -0.184 C  
HETATM   35  N   UNL     1      -5.142  17.070  68.921  1.00  0.00    -0.131 NA 
HETATM   36  H   UNL     1      -4.364  14.656  67.795  1.00  0.00     0.000 HD 
HETATM   37  H1  UNL     1      -4.883  18.050  68.811  1.00  0.00     0.000 HD 
HETATM   38  H2  UNL     1      -4.335  16.481  69.125  1.00  0.00     0.000 HD 
HETATM   39  C   UNL     1      -7.926  17.026  66.347  1.00  0.00    -0.307 C  
HETATM   40  C   UNL     1      -8.607  15.693  66.750  1.00  0.00    -0.274 C  
HETATM   41  N   UNL     1      -8.924  18.064  66.010  1.00  0.00    -0.513 NA 
HETATM   42  H2  UNL     1      -8.495  18.968  65.808  1.00  0.00     0.000 HD 
HETATM   43  H1  UNL     1      -9.500  17.723  65.240  1.00  0.00     0.000 HD 
BRANCH  40  44
HETATM   44  O   UNL     1      -9.368  15.241  65.603  1.00  0.00    -0.282 OA 
BRANCH  44  45
HETATM   45  C   UNL     1     -10.749  15.613  65.596  1.00  0.00    -0.364 C  
HETATM   46  O   UNL     1     -11.469  14.950  64.554  1.00  0.00    -0.377 OA 
HETATM   47  C   UNL     1     -11.533  13.526  64.720  1.00  0.00    -0.346 C  
HETATM   48  C   UNL     1     -12.188  13.139  66.054  1.00  0.00    -0.414 C  
HETATM   49  H1  UNL     1     -11.075  15.814  69.015  1.00  0.00     0.000 HD 
HETATM   50  O   UNL     1     -12.212  11.719  66.257  1.00  0.00    -0.344 OA 
HETATM   51  H2  UNL     1     -10.597  17.005  67.933  1.00  0.00     0.000 HD 
HETATM   52  C   UNL     1     -11.437  13.806  67.216  1.00  0.00    -0.341 C  
HETATM   53  H   UNL     1     -12.617  11.480  67.083  1.00  0.00     0.000 HD 
HETATM   54  O   UNL     1     -12.112  13.524  68.454  1.00  0.00    -0.352 OA 
HETATM   55  C   UNL     1     -11.375  15.327  66.989  1.00  0.00    -0.230 C  
HETATM   56  N   UNL     1     -10.664  16.002  68.101  1.00  0.00    -0.299 NA 
HETATM   57  H   UNL     1     -11.648  13.937  69.172  1.00  0.00     0.000 HD 
BRANCH  47  58
HETATM   58  C   UNL     1     -12.250  12.926  63.489  1.00  0.00    -0.512 C  
HETATM   59  H1  UNL     1     -12.357  11.142  62.370  1.00  0.00     0.000 HD 
HETATM   60  N   UNL     1     -11.884  11.538  63.183  1.00  0.00    -0.908 NA 
HETATM   61  H2  UNL     1     -12.027  10.945  64.001  1.00  0.00     0.000 HD 
ENDBRANCH  47  58
ENDBRANCH  44  45
ENDBRANCH  40  44
ENDBRANCH  29  30
ENDBRANCH  22  29
ENDBRANCH  18  19
ENDBRANCH   7  18
ENDBRANCH   2   5
TORSDOF 9
ENDMDL
MODEL       67
REMARK 921   NORMALIZED FREE ENERGY PREDICTED BY IDOCK:   -6.11 KCAL/MOL
REMARK 922        TOTAL FREE ENERGY PREDICTED BY IDOCK:  -12.13 KCAL/MOL
REMARK 923 INTER-LIGAND FREE ENERGY PREDICTED BY IDOCK:   -9.51 KCAL/MOL
REMARK 924 INTRA-LIGAND FREE ENERGY PREDICTED BY IDOCK:   -2.62 KCAL/MOL
REMARK 927      BINDING AFFINITY PREDICTED BY RF-SCORE:    0.00 PKD
ROOT
HETATM    1  N   UNL     1      -6.274  19.423  64.923  1.00  0.00    -0.297 NA 
HETATM    2  C   UNL     1      -6.528  18.076  65.442  1.00  0.00    -0.058 C  
HETATM    3  H1  UNL     1      -5.835  19.463  64.004  1.00  0.00     0.000 HD 
HETATM    4  H2  UNL     1      -5.724  19.958  65.595  1.00  0.00     0.000 HD 
ENDROOT
BRANCH   2   5
HETATM    5  C   UNL     1      -7.195  18.016  66.842  1.00  0.00    -0.198 C  
HETATM    6  O   UNL     1      -7.885  16.767  67.108  1.00  0.00    -0.156 OA 
HETATM    7  C   UNL     1      -8.366  16.736  68.463  1.00  0.00    -0.243 C  
HETATM    8  C   UNL     1      -9.421  17.867  68.694  1.00  0.00    -0.298 C  
HETATM    9  O   UNL     1      -9.176  19.079  65.899  1.00  0.00    -0.450 OA 
HETATM   10  H   UNL     1      -9.788  19.805  65.958  1.00  0.00     0.000 HD 
HETATM   11  N   UNL     1     -10.670  17.583  67.912  1.00  0.00    -0.380 NA 
HETATM   12  C   UNL     1      -8.841  19.232  68.327  1.00  0.00    -0.337 C  
HETATM   13  H2  UNL     1     -11.050  16.660  68.123  1.00  0.00     0.000 HD 
HETATM   14  O   UNL     1      -7.910  19.702  69.311  1.00  0.00    -0.290 OA 
HETATM   15  C   UNL     1      -8.192  19.198  66.938  1.00  0.00    -0.272 C  
HETATM   16  H1  UNL     1     -11.359  18.321  68.062  1.00  0.00     0.000 HD 
HETATM   17  H   UNL     1      -7.549  20.551  69.083  1.00  0.00     0.000 HD 
BRANCH   7  18
HETATM   18  O   UNL     1      -9.106  15.573  68.785  1.00  0.00    -0.182 OA 
BRANCH  18  19
HETATM   19  C   UNL     1      -9.142  14.472  67.886  1.00  0.00    -0.191 C  
HETATM   20  O   UNL     1      -7.471  13.454  69.413  1.00  0.00    -0.314 OA 
HETATM   21  C   UNL     1     -10.582  13.975  68.058  1.00  0.00    -0.247 C  
HETATM   22  C   UNL     1      -9.306  12.114  68.505  1.00  0.00    -0.106 C  
HETATM   23  H   UNL     1      -6.942  12.696  69.633  1.00  0.00     0.000 HD 
HETATM   24  O   UNL     1     -10.520  12.781  68.855  1.00  0.00    -0.187 OA 
HETATM   25  C   UNL     1      -8.282  13.241  68.243  1.00  0.00    -0.156 C  
BRANCH  21  26
HETATM   26  C   UNL     1     -11.323  13.745  66.738  1.00  0.00    -0.330 C  
HETATM   27  H   UNL     1     -11.044  14.073  64.798  1.00  0.00     0.000 HD 
HETATM   28  O   UNL     1     -10.586  14.216  65.617  1.00  0.00    -0.287 OA 
ENDBRANCH  21  26
BRANCH  22  29
HETATM   29  O   UNL     1      -9.505  11.285  67.353  1.00  0.00    -0.164 OA 
BRANCH  29  30
HETATM   30  C   UNL     1      -8.965   9.921  67.400  1.00  0.00    -0.135 C  
HETATM   31  C   UNL     1      -7.665   9.816  66.561  1.00  0.00    -0.105 C  
HETATM   32  O   UNL     1      -6.536  10.110  67.412  1.00  0.00    -0.066 OA 
HETATM   33  C   UNL     1      -7.353   8.494  65.841  1.00  0.00    -0.077 C  
HETATM   34  C   UNL     1      -8.584   7.678  65.491  1.00  0.00    -0.112 C  
HETATM   35  N   UNL     1      -6.603   8.770  64.589  1.00  0.00    -0.066 NA 
HETATM   36  H   UNL     1      -5.740  10.046  66.897  1.00  0.00     0.000 HD 
HETATM   37  H1  UNL     1      -6.395   7.892  64.112  1.00  0.00     0.000 HD 
HETATM   38  H2  UNL     1      -5.762   9.322  64.758  1.00  0.00     0.000 HD 
HETATM   39  C   UNL     1      -9.453   7.480  66.732  1.00  0.00    -0.179 C  
HETATM   40  C   UNL     1     -10.056   8.837  67.175  1.00  0.00    -0.252 C  
HETATM   41  N   UNL     1     -10.510   6.495  66.413  1.00  0.00    -0.469 NA 
HETATM   42  H2  UNL     1     -10.132   5.617  66.055  1.00  0.00     0.000 HD 
HETATM   43  H1  UNL     1     -11.089   6.362  67.242  1.00  0.00     0.000 HD 
BRANCH  40  44
HETATM   44  O   UNL     1     -10.826   8.587  68.376  1.00  0.00    -0.081 OA 
BRANCH  44  45
HETATM   45  C   UNL     1     -10.099   8.682  69.604  1.00  0.00    -0.201 C  
HETATM   46  O   UNL     1     -10.521   9.804  70.383  1.00  0.00    -0.263 OA 
HETATM   47  C   UNL     1     -11.880   9.709  70.834  1.00  0.00    -0.323 C  
HETATM   48  C   UNL     1     -12.110   8.447  71.679  1.00  0.00    -0.313 C  
HETATM   49  H1  UNL     1      -9.900   5.291  70.155  1.00  0.00     0.000 HD 
HETATM   50  O   UNL     1     -13.476   8.311  72.095  1.00  0.00    -0.431 OA 
HETATM   51  H2  UNL     1      -8.854   6.278  69.290  1.00  0.00     0.000 HD 
HETATM   52  C   UNL     1     -11.695   7.202  70.880  1.00  0.00    -0.328 C  
HETATM   53  H   UNL     1     -13.618   7.531  72.618  1.00  0.00     0.000 HD 
HETATM   54  O   UNL     1     -11.816   6.034  71.709  1.00  0.00    -0.261 OA 
HETATM   55  C   UNL     1     -10.240   7.354  70.400  1.00  0.00    -0.198 C  
HETATM   56  N   UNL     1      -9.807   6.162  69.633  1.00  0.00    -0.157 NA 
HETATM   57  H   UNL     1     -11.559   5.264  71.215  1.00  0.00     0.000 HD 
BRANCH  47  58
HETATM   58  C   UNL     1     -12.237  11.016  71.577  1.00  0.00    -0.086 C  
HETATM   59  H1  UNL     1     -12.869  12.991  71.196  1.00  0.00     0.000 HD 
HETATM   60  N   UNL     1     -12.633  12.128  70.705  1.00  0.00    -0.269 NA 
HETATM   61  H2  UNL     1     -13.402  11.844  70.097  1.00  0.00     0.000 HD 
ENDBRANCH  47  58
ENDBRANCH  44  45
ENDBRANCH  40  44
ENDBRANCH  29  30
ENDBRANCH  22  29
ENDBRANCH  18  19
ENDBRANCH   7  18
ENDBRANCH   2   5
TORSDOF 9
ENDMDL
MODEL       68
REMARK 921   NORMALIZED FREE ENERGY PREDICTED BY IDOCK:   -6.10 KCAL/MOL
REMARK 922        TOTAL FREE ENERGY PREDICTED BY IDOCK:  -12.13 KCAL/MOL
REMARK 923 INTER-LIGAND FREE ENERGY PREDICTED BY IDOCK:   -9.62 KCAL/MOL
REMARK 924 INTRA-LIGAND FREE ENERGY PREDICTED BY IDOCK:   -2.51 KCAL/MOL
REMARK 927      BINDING AFFINITY PREDICTED BY RF-SCORE:    0.00 PKD
ROOT
HETATM    1  N   UNL     1      -7.612   4.303  70.308  1.00  0.00    -0.046 NA 
HETATM    2  C   UNL     1      -8.998   3.844  70.436  1.00  0.00    -0.097 C  
HETATM    3  H1  UNL     1      -7.005   3.711  69.743  1.00  0.00     0.000 HD 
HETATM    4  H2  UNL     1      -7.203   4.441  71.232  1.00  0.00     0.000 HD 
ENDROOT
BRANCH   2   5
HETATM    5  C   UNL     1      -9.922   4.745  71.297  1.00  0.00    -0.200 C  
HETATM    6  O   UNL     1      -9.411   6.090  71.492  1.00  0.00    -0.149 OA 
HETATM    7  C   UNL     1     -10.376   6.899  72.187  1.00  0.00    -0.199 C  
HETATM    8  C   UNL     1     -10.637   6.327  73.619  1.00  0.00    -0.263 C  
HETATM    9  O   UNL     1      -8.831   3.883  73.299  1.00  0.00    -0.093 OA 
HETATM   10  H   UNL     1      -8.946   3.457  74.141  1.00  0.00     0.000 HD 
HETATM   11  N   UNL     1      -9.416   6.489  74.477  1.00  0.00    -0.237 NA 
HETATM   12  C   UNL     1     -11.069   4.863  73.547  1.00  0.00    -0.332 C  
HETATM   13  H2  UNL     1      -9.098   7.457  74.507  1.00  0.00     0.000 HD 
HETATM   14  O   UNL     1     -12.420   4.723  73.089  1.00  0.00    -0.221 OA 
HETATM   15  C   UNL     1     -10.110   4.050  72.669  1.00  0.00    -0.164 C  
HETATM   16  H1  UNL     1      -9.586   6.116  75.411  1.00  0.00     0.000 HD 
HETATM   17  H   UNL     1     -12.689   3.813  73.044  1.00  0.00     0.000 HD 
BRANCH   7  18
HETATM   18  O   UNL     1      -9.928   8.212  72.472  1.00  0.00    -0.248 OA 
BRANCH  18  19
HETATM   19  C   UNL     1     -10.201   9.275  71.570  1.00  0.00    -0.268 C  
HETATM   20  O   UNL     1      -8.006   8.696  70.567  1.00  0.00    -0.088 OA 
HETATM   21  C   UNL     1     -11.429   8.743  70.822  1.00  0.00    -0.270 C  
HETATM   22  C   UNL     1      -9.927   9.208  69.142  1.00  0.00    -0.187 C  
HETATM   23  H   UNL     1      -7.372   8.854  69.878  1.00  0.00     0.000 HD 
HETATM   24  O   UNL     1     -10.977   8.319  69.525  1.00  0.00    -0.171 OA 
HETATM   25  C   UNL     1      -9.171   9.533  70.450  1.00  0.00    -0.253 C  
BRANCH  21  26
HETATM   26  C   UNL     1     -12.583   9.745  70.727  1.00  0.00    -0.196 C  
HETATM   27  H   UNL     1     -12.951  11.640  71.198  1.00  0.00     0.000 HD 
HETATM   28  O   UNL     1     -12.236  11.018  71.257  1.00  0.00    -0.330 OA 
ENDBRANCH  21  26
BRANCH  22  29
HETATM   29  O   UNL     1     -10.468  10.384  68.524  1.00  0.00    -0.167 OA 
BRANCH  29  30
HETATM   30  C   UNL     1      -9.717  10.963  67.403  1.00  0.00    -0.168 C  
HETATM   31  C   UNL     1      -9.233   9.853  66.435  1.00  0.00    -0.158 C  
HETATM   32  O   UNL     1     -10.244   9.641  65.426  1.00  0.00    -0.314 OA 
HETATM   33  C   UNL     1      -7.897  10.044  65.699  1.00  0.00    -0.138 C  
HETATM   34  C   UNL     1      -6.910  10.933  66.434  1.00  0.00    -0.135 C  
HETATM   35  N   UNL     1      -7.257   8.723  65.471  1.00  0.00    -0.083 NA 
HETATM   36  H   UNL     1      -9.947   8.961  64.833  1.00  0.00     0.000 HD 
HETATM   37  H1  UNL     1      -6.370   8.850  64.982  1.00  0.00     0.000 HD 
HETATM   38  H2  UNL     1      -7.875   8.076  64.982  1.00  0.00     0.000 HD 
HETATM   39  C   UNL     1      -7.572  12.260  66.802  1.00  0.00     0.104 C  
HETATM   40  C   UNL     1      -8.676  12.021  67.864  1.00  0.00    -0.170 C  
HETATM   41  N   UNL     1      -6.529  13.183  67.302  1.00  0.00    -0.444 NA 
HETATM   42  H2  UNL     1      -5.760  13.298  66.641  1.00  0.00     0.000 HD 
HETATM   43  H1  UNL     1      -6.971  14.068  67.547  1.00  0.00     0.000 HD 
BRANCH  40  44
HETATM   44  O   UNL     1      -9.291  13.305  68.133  1.00  0.00    -0.211 OA 
BRANCH  44  45
HETATM   45  C   UNL     1     -10.599  13.487  67.583  1.00  0.00    -0.241 C  
HETATM   46  O   UNL     1     -11.602  13.505  68.601  1.00  0.00    -0.283 OA 
HETATM   47  C   UNL     1     -11.486  14.617  69.500  1.00  0.00    -0.297 C  
HETATM   48  C   UNL     1     -11.560  15.958  68.755  1.00  0.00    -0.386 C  
HETATM   49  H1  UNL     1      -9.633  15.664  65.099  1.00  0.00     0.000 HD 
HETATM   50  O   UNL     1     -11.394  17.079  69.634  1.00  0.00    -0.171 OA 
HETATM   51  H2  UNL     1      -9.692  13.987  65.062  1.00  0.00     0.000 HD 
HETATM   52  C   UNL     1     -10.484  16.007  67.661  1.00  0.00    -0.292 C  
HETATM   53  H   UNL     1     -11.440  17.909  69.174  1.00  0.00     0.000 HD 
HETATM   54  O   UNL     1     -10.621  17.219  66.900  1.00  0.00    -0.300 OA 
HETATM   55  C   UNL     1     -10.632  14.788  66.732  1.00  0.00    -0.302 C  
HETATM   56  N   UNL     1      -9.611  14.812  65.657  1.00  0.00    -0.273 NA 
HETATM   57  H   UNL     1      -9.955  17.249  66.224  1.00  0.00     0.000 HD 
BRANCH  47  58
HETATM   58  C   UNL     1     -12.563  14.467  70.599  1.00  0.00    -0.352 C  
HETATM   59  H1  UNL     1     -14.317  15.400  71.305  1.00  0.00     0.000 HD 
HETATM   60  N   UNL     1     -13.606  15.499  70.579  1.00  0.00    -0.825 NA 
HETATM   61  H2  UNL     1     -14.043  15.542  69.658  1.00  0.00     0.000 HD 
ENDBRANCH  47  58
ENDBRANCH  44  45
ENDBRANCH  40  44
ENDBRANCH  29  30
ENDBRANCH  22  29
ENDBRANCH  18  19
ENDBRANCH   7  18
ENDBRANCH   2   5
TORSDOF 9
ENDMDL
MODEL       69
REMARK 921   NORMALIZED FREE ENERGY PREDICTED BY IDOCK:   -6.10 KCAL/MOL
REMARK 922        TOTAL FREE ENERGY PREDICTED BY IDOCK:  -12.12 KCAL/MOL
REMARK 923 INTER-LIGAND FREE ENERGY PREDICTED BY IDOCK:  -10.71 KCAL/MOL
REMARK 924 INTRA-LIGAND FREE ENERGY PREDICTED BY IDOCK:   -1.41 KCAL/MOL
REMARK 927      BINDING AFFINITY PREDICTED BY RF-SCORE:    0.00 PKD
ROOT
HETATM    1  N   UNL     1      -7.977  20.011  65.515  1.00  0.00    -0.480 NA 
HETATM    2  C   UNL     1      -7.409  18.694  65.817  1.00  0.00    -0.156 C  
HETATM    3  H1  UNL     1      -7.432  20.587  64.875  1.00  0.00     0.000 HD 
HETATM    4  H2  UNL     1      -8.154  20.522  66.380  1.00  0.00     0.000 HD 
ENDROOT
BRANCH   2   5
HETATM    5  C   UNL     1      -8.239  17.818  66.791  1.00  0.00    -0.250 C  
HETATM    6  O   UNL     1      -8.152  16.395  66.516  1.00  0.00    -0.254 OA 
HETATM    7  C   UNL     1      -8.841  15.644  67.531  1.00  0.00    -0.181 C  
HETATM    8  C   UNL     1     -10.366  15.989  67.527  1.00  0.00    -0.287 C  
HETATM    9  O   UNL     1     -10.182  18.127  65.352  1.00  0.00    -0.463 OA 
HETATM   10  H   UNL     1     -11.087  18.412  65.295  1.00  0.00     0.000 HD 
HETATM   11  N   UNL     1     -11.013  15.484  66.271  1.00  0.00    -0.287 NA 
HETATM   12  C   UNL     1     -10.580  17.493  67.690  1.00  0.00    -0.355 C  
HETATM   13  H2  UNL     1     -10.849  14.487  66.133  1.00  0.00     0.000 HD 
HETATM   14  O   UNL     1     -10.338  17.928  69.035  1.00  0.00    -0.389 OA 
HETATM   15  C   UNL     1      -9.714  18.282  66.700  1.00  0.00    -0.339 C  
HETATM   16  H1  UNL     1     -12.007  15.709  66.268  1.00  0.00     0.000 HD 
HETATM   17  H   UNL     1     -10.472  18.863  69.137  1.00  0.00     0.000 HD 
BRANCH   7  18
HETATM   18  O   UNL     1      -8.855  14.246  67.302  1.00  0.00    -0.192 OA 
BRANCH  18  19
HETATM   19  C   UNL     1      -9.015  13.342  68.387  1.00  0.00    -0.124 C  
HETATM   20  O   UNL     1     -11.250  12.898  67.403  1.00  0.00    -0.265 OA 
HETATM   21  C   UNL     1      -7.939  12.293  68.081  1.00  0.00    -0.155 C  
HETATM   22  C   UNL     1      -9.874  11.058  68.243  1.00  0.00    -0.178 C  
HETATM   23  H   UNL     1     -12.054  12.395  67.434  1.00  0.00     0.000 HD 
HETATM   24  O   UNL     1      -8.618  11.136  67.565  1.00  0.00    -0.127 OA 
HETATM   25  C   UNL     1     -10.323  12.524  68.439  1.00  0.00    -0.230 C  
BRANCH  21  26
HETATM   26  C   UNL     1      -7.047  11.949  69.276  1.00  0.00    -0.004 C  
HETATM   27  H   UNL     1      -5.816  10.497  69.848  1.00  0.00     0.000 HD 
HETATM   28  O   UNL     1      -6.370  10.711  69.106  1.00  0.00    -0.047 OA 
ENDBRANCH  21  26
BRANCH  22  29
HETATM   29  O   UNL     1      -9.727  10.367  69.490  1.00  0.00    -0.219 OA 
BRANCH  29  30
HETATM   30  C   UNL     1     -10.879   9.596  69.975  1.00  0.00    -0.264 C  
HETATM   31  C   UNL     1     -12.075  10.534  70.284  1.00  0.00    -0.318 C  
HETATM   32  O   UNL     1     -12.882  10.668  69.093  1.00  0.00    -0.607 OA 
HETATM   33  C   UNL     1     -13.028  10.165  71.433  1.00  0.00    -0.429 C  
HETATM   34  C   UNL     1     -12.383   9.327  72.521  1.00  0.00    -0.140 C  
HETATM   35  N   UNL     1     -13.567  11.403  72.053  1.00  0.00    -0.348 NA 
HETATM   36  H   UNL     1     -13.614  11.243  69.283  1.00  0.00     0.000 HD 
HETATM   37  H1  UNL     1     -14.199  11.158  72.815  1.00  0.00     0.000 HD 
HETATM   38  H2  UNL     1     -14.011  12.014  71.368  1.00  0.00     0.000 HD 
HETATM   39  C   UNL     1     -11.702   8.104  71.908  1.00  0.00    -0.310 C  
HETATM   40  C   UNL     1     -10.487   8.550  71.055  1.00  0.00    -0.212 C  
HETATM   41  N   UNL     1     -11.293   7.196  73.002  1.00  0.00    -0.543 NA 
HETATM   42  H2  UNL     1     -12.069   6.946  73.615  1.00  0.00     0.000 HD 
HETATM   43  H1  UNL     1     -10.838   6.380  72.593  1.00  0.00     0.000 HD 
BRANCH  40  44
HETATM   44  O   UNL     1      -9.919   7.354  70.469  1.00  0.00    -0.184 OA 
BRANCH  44  45
HETATM   45  C   UNL     1     -10.841   6.286  70.233  1.00  0.00    -0.304 C  
HETATM   46  O   UNL     1     -11.208   6.201  68.854  1.00  0.00    -0.372 OA 
HETATM   47  C   UNL     1     -10.114   5.862  67.990  1.00  0.00    -0.162 C  
HETATM   48  C   UNL     1      -9.477   4.520  68.382  1.00  0.00    -0.151 C  
HETATM   49  H1  UNL     1      -9.447   4.110  72.505  1.00  0.00     0.000 HD 
HETATM   50  O   UNL     1      -8.348   4.193  67.559  1.00  0.00    -0.098 OA 
HETATM   51  H2  UNL     1     -10.631   5.274  72.754  1.00  0.00     0.000 HD 
HETATM   52  C   UNL     1      -9.038   4.563  69.853  1.00  0.00    -0.107 C  
HETATM   53  H   UNL     1      -7.954   3.363  67.802  1.00  0.00     0.000 HD 
HETATM   54  O   UNL     1      -8.535   3.274  70.245  1.00  0.00    -0.054 OA 
HETATM   55  C   UNL     1     -10.235   4.949  70.742  1.00  0.00    -0.206 C  
HETATM   56  N   UNL     1      -9.844   4.988  72.171  1.00  0.00    -0.164 NA 
HETATM   57  H   UNL     1      -8.263   3.300  71.155  1.00  0.00     0.000 HD 
BRANCH  47  58
HETATM   58  C   UNL     1     -10.620   5.895  66.530  1.00  0.00    -0.201 C  
HETATM   59  H1  UNL     1     -11.406   4.621  65.044  1.00  0.00     0.000 HD 
HETATM   60  N   UNL     1     -11.072   4.599  66.009  1.00  0.00    -0.552 NA 
HETATM   61  H2  UNL     1     -11.784   4.200  66.621  1.00  0.00     0.000 HD 
ENDBRANCH  47  58
ENDBRANCH  44  45
ENDBRANCH  40  44
ENDBRANCH  29  30
ENDBRANCH  22  29
ENDBRANCH  18  19
ENDBRANCH   7  18
ENDBRANCH   2   5
TORSDOF 9
ENDMDL
MODEL       70
REMARK 921   NORMALIZED FREE ENERGY PREDICTED BY IDOCK:   -6.09 KCAL/MOL
REMARK 922        TOTAL FREE ENERGY PREDICTED BY IDOCK:  -12.10 KCAL/MOL
REMARK 923 INTER-LIGAND FREE ENERGY PREDICTED BY IDOCK:   -9.43 KCAL/MOL
REMARK 924 INTRA-LIGAND FREE ENERGY PREDICTED BY IDOCK:   -2.67 KCAL/MOL
REMARK 927      BINDING AFFINITY PREDICTED BY RF-SCORE:    0.00 PKD
ROOT
HETATM    1  N   UNL     1     -12.500  14.441  63.459  1.00  0.00    -1.090 NA 
HETATM    2  C   UNL     1     -12.017  13.072  63.254  1.00  0.00    -0.421 C  
HETATM    3  H1  UNL     1     -13.164  14.779  62.764  1.00  0.00     0.000 HD 
HETATM    4  H2  UNL     1     -11.711  15.083  63.529  1.00  0.00     0.000 HD 
ENDROOT
BRANCH   2   5
HETATM    5  C   UNL     1     -11.005  12.557  64.312  1.00  0.00    -0.360 C  
HETATM    6  O   UNL     1     -11.084  11.127  64.549  1.00  0.00    -0.253 OA 
HETATM    7  C   UNL     1     -10.038  10.707  65.441  1.00  0.00    -0.291 C  
HETATM    8  C   UNL     1     -10.208  11.384  66.841  1.00  0.00    -0.219 C  
HETATM    9  O   UNL     1     -12.623  13.085  66.057  1.00  0.00    -0.453 OA 
HETATM   10  H   UNL     1     -12.788  13.556  66.867  1.00  0.00     0.000 HD 
HETATM   11  N   UNL     1     -11.435  10.861  67.528  1.00  0.00    -0.512 NA 
HETATM   12  C   UNL     1     -10.261  12.905  66.703  1.00  0.00    -0.247 C  
HETATM   13  H2  UNL     1     -11.428   9.843  67.597  1.00  0.00     0.000 HD 
HETATM   14  O   UNL     1      -8.970  13.465  66.429  1.00  0.00    -0.446 OA 
HETATM   15  C   UNL     1     -11.273  13.325  65.631  1.00  0.00    -0.285 C  
HETATM   16  H1  UNL     1     -11.547  11.302  68.441  1.00  0.00     0.000 HD 
HETATM   17  H   UNL     1      -9.002  14.411  66.344  1.00  0.00     0.000 HD 
BRANCH   7  18
HETATM   18  O   UNL     1     -10.083   9.331  65.773  1.00  0.00    -0.268 OA 
BRANCH  18  19
HETATM   19  C   UNL     1      -9.003   8.724  66.472  1.00  0.00    -0.148 C  
HETATM   20  O   UNL     1     -10.746   7.978  68.073  1.00  0.00    -0.401 OA 
HETATM   21  C   UNL     1      -8.535   7.667  65.465  1.00  0.00    -0.120 C  
HETATM   22  C   UNL     1      -8.967   6.452  67.371  1.00  0.00    -0.109 C  
HETATM   23  H   UNL     1     -10.960   7.473  68.849  1.00  0.00     0.000 HD 
HETATM   24  O   UNL     1      -9.007   6.396  65.944  1.00  0.00    -0.154 OA 
HETATM   25  C   UNL     1      -9.350   7.905  67.733  1.00  0.00    -0.140 C  
BRANCH  21  26
HETATM   26  C   UNL     1      -7.023   7.663  65.224  1.00  0.00    -0.058 C  
HETATM   27  H   UNL     1      -5.505   8.944  65.274  1.00  0.00     0.000 HD 
HETATM   28  O   UNL     1      -6.443   8.945  65.423  1.00  0.00    -0.065 OA 
ENDBRANCH  21  26
BRANCH  22  29
HETATM   29  O   UNL     1      -7.662   6.102  67.849  1.00  0.00    -0.099 OA 
BRANCH  29  30
HETATM   30  C   UNL     1      -7.569   5.517  69.192  1.00  0.00    -0.086 C  
HETATM   31  C   UNL     1      -6.306   4.625  69.316  1.00  0.00    -0.031 C  
HETATM   32  O   UNL     1      -5.205   5.437  69.779  1.00  0.00    -0.003 OA 
HETATM   33  C   UNL     1      -6.362   3.385  70.223  1.00  0.00    -0.028 C  
HETATM   34  C   UNL     1      -7.755   2.805  70.388  1.00  0.00    -0.043 C  
HETATM   35  N   UNL     1      -5.475   2.325  69.677  1.00  0.00    -0.016 NA 
HETATM   36  H   UNL     1      -4.432   4.891  69.854  1.00  0.00     0.000 HD 
HETATM   37  H1  UNL     1      -5.512   1.502  70.279  1.00  0.00     0.000 HD 
HETATM   38  H2  UNL     1      -4.521   2.656  69.538  1.00  0.00     0.000 HD 
HETATM   39  C   UNL     1      -8.730   3.897  70.826  1.00  0.00    -0.073 C  
HETATM   40  C   UNL     1      -8.919   4.924  69.681  1.00  0.00    -0.099 C  
HETATM   41  N   UNL     1     -10.011   3.259  71.202  1.00  0.00    -0.062 NA 
HETATM   42  H2  UNL     1      -9.894   2.532  71.907  1.00  0.00     0.000 HD 
HETATM   43  H1  UNL     1     -10.661   3.988  71.495  1.00  0.00     0.000 HD 
BRANCH  40  44
HETATM   44  O   UNL     1      -9.813   5.951  70.177  1.00  0.00    -0.165 OA 
BRANCH  44  45
HETATM   45  C   UNL     1      -9.505   6.459  71.478  1.00  0.00    -0.154 C  
HETATM   46  O   UNL     1      -8.514   7.488  71.421  1.00  0.00    -0.110 OA 
HETATM   47  C   UNL     1      -8.948   8.664  70.724  1.00  0.00    -0.175 C  
HETATM   48  C   UNL     1     -10.206   9.270  71.363  1.00  0.00    -0.301 C  
HETATM   49  H1  UNL     1     -12.714   6.256  72.703  1.00  0.00     0.000 HD 
HETATM   50  O   UNL     1     -10.683  10.417  70.645  1.00  0.00    -0.416 OA 
HETATM   51  H2  UNL     1     -11.509   5.087  72.714  1.00  0.00     0.000 HD 
HETATM   52  C   UNL     1     -11.319   8.212  71.427  1.00  0.00    -0.259 C  
HETATM   53  H   UNL     1     -11.462  10.792  71.041  1.00  0.00     0.000 HD 
HETATM   54  O   UNL     1     -12.460   8.752  72.116  1.00  0.00    -0.351 OA 
HETATM   55  C   UNL     1     -10.805   6.962  72.164  1.00  0.00    -0.225 C  
HETATM   56  N   UNL     1     -11.861   5.926  72.252  1.00  0.00    -0.274 NA 
HETATM   57  H   UNL     1     -13.147   8.098  72.156  1.00  0.00     0.000 HD 
BRANCH  47  58
HETATM   58  C   UNL     1      -7.762   9.652  70.653  1.00  0.00    -0.068 C  
HETATM   59  H1  UNL     1      -7.082  11.310  69.543  1.00  0.00     0.000 HD 
HETATM   60  N   UNL     1      -7.865  10.658  69.589  1.00  0.00    -0.350 NA 
HETATM   61  H2  UNL     1      -8.746  11.167  69.667  1.00  0.00     0.000 HD 
ENDBRANCH  47  58
ENDBRANCH  44  45
ENDBRANCH  40  44
ENDBRANCH  29  30
ENDBRANCH  22  29
ENDBRANCH  18  19
ENDBRANCH   7  18
ENDBRANCH   2   5
TORSDOF 9
ENDMDL
MODEL       71
REMARK 921   NORMALIZED FREE ENERGY PREDICTED BY IDOCK:   -6.07 KCAL/MOL
REMARK 922        TOTAL FREE ENERGY PREDICTED BY IDOCK:  -12.08 KCAL/MOL
REMARK 923 INTER-LIGAND FREE ENERGY PREDICTED BY IDOCK:  -10.13 KCAL/MOL
REMARK 924 INTRA-LIGAND FREE ENERGY PREDICTED BY IDOCK:   -1.95 KCAL/MOL
REMARK 927      BINDING AFFINITY PREDICTED BY RF-SCORE:    0.00 PKD
ROOT
HETATM    1  N   UNL     1     -12.787  12.209  63.366  1.00  0.00    -0.789 NA 
HETATM    2  C   UNL     1     -11.326  12.201  63.482  1.00  0.00    -0.453 C  
HETATM    3  H1  UNL     1     -13.160  11.815  62.503  1.00  0.00     0.000 HD 
HETATM    4  H2  UNL     1     -13.143  13.156  63.499  1.00  0.00     0.000 HD 
ENDROOT
BRANCH   2   5
HETATM    5  C   UNL     1     -10.759  12.801  64.795  1.00  0.00    -0.316 C  
HETATM    6  O   UNL     1     -11.417  12.314  65.994  1.00  0.00    -0.346 OA 
HETATM    7  C   UNL     1     -10.757  12.814  67.169  1.00  0.00    -0.245 C  
HETATM    8  C   UNL     1     -10.856  14.374  67.230  1.00  0.00    -0.290 C  
HETATM    9  O   UNL     1     -12.285  14.686  64.547  1.00  0.00    -0.472 OA 
HETATM   10  H   UNL     1     -12.373  15.631  64.493  1.00  0.00     0.000 HD 
HETATM   11  N   UNL     1     -12.276  14.798  67.464  1.00  0.00    -0.514 NA 
HETATM   12  C   UNL     1     -10.298  15.001  65.954  1.00  0.00    -0.313 C  
HETATM   13  H2  UNL     1     -12.672  14.360  68.295  1.00  0.00     0.000 HD 
HETATM   14  O   UNL     1      -8.865  14.951  65.912  1.00  0.00    -0.425 OA 
HETATM   15  C   UNL     1     -10.901  14.342  64.707  1.00  0.00    -0.405 C  
HETATM   16  H1  UNL     1     -12.342  15.815  67.503  1.00  0.00     0.000 HD 
HETATM   17  H   UNL     1      -8.518  15.341  65.118  1.00  0.00     0.000 HD 
BRANCH   7  18
HETATM   18  O   UNL     1     -11.377  12.433  68.385  1.00  0.00    -0.240 OA 
BRANCH  18  19
HETATM   19  C   UNL     1     -11.795  11.090  68.587  1.00  0.00    -0.247 C  
HETATM   20  O   UNL     1      -9.578  10.490  67.645  1.00  0.00    -0.155 OA 
HETATM   21  C   UNL     1     -11.902  11.023  70.115  1.00  0.00    -0.357 C  
HETATM   22  C   UNL     1     -10.463   9.305  69.595  1.00  0.00    -0.224 C  
HETATM   23  H   UNL     1      -8.956   9.804  67.432  1.00  0.00     0.000 HD 
HETATM   24  O   UNL     1     -10.755  10.294  70.583  1.00  0.00    -0.258 OA 
HETATM   25  C   UNL     1     -10.784   9.976  68.240  1.00  0.00    -0.240 C  
BRANCH  21  26
HETATM   26  C   UNL     1     -13.214  10.416  70.621  1.00  0.00    -0.127 C  
HETATM   27  H   UNL     1     -14.029   9.855  72.344  1.00  0.00     0.000 HD 
HETATM   28  O   UNL     1     -13.215  10.232  72.030  1.00  0.00    -0.450 OA 
ENDBRANCH  21  26
BRANCH  22  29
HETATM   29  O   UNL     1     -11.251   8.128  69.816  1.00  0.00    -0.129 OA 
BRANCH  29  30
HETATM   30  C   UNL     1     -10.596   6.990  70.471  1.00  0.00    -0.224 C  
HETATM   31  C   UNL     1     -10.728   7.094  72.013  1.00  0.00    -0.214 C  
HETATM   32  O   UNL     1     -11.935   6.416  72.424  1.00  0.00    -0.456 OA 
HETATM   33  C   UNL     1      -9.588   6.553  72.891  1.00  0.00    -0.149 C  
HETATM   34  C   UNL     1      -8.229   6.567  72.214  1.00  0.00    -0.106 C  
HETATM   35  N   UNL     1      -9.497   7.351  74.141  1.00  0.00    -0.407 NA 
HETATM   36  H   UNL     1     -12.016   6.481  73.368  1.00  0.00     0.000 HD 
HETATM   37  H1  UNL     1      -8.741   6.992  74.724  1.00  0.00     0.000 HD 
HETATM   38  H2  UNL     1     -10.384   7.384  74.641  1.00  0.00     0.000 HD 
HETATM   39  C   UNL     1      -8.310   5.864  70.860  1.00  0.00    -0.126 C  
HETATM   40  C   UNL     1      -9.186   6.695  69.888  1.00  0.00    -0.146 C  
HETATM   41  N   UNL     1      -6.936   5.689  70.339  1.00  0.00    -0.056 NA 
HETATM   42  H2  UNL     1      -6.327   5.203  70.997  1.00  0.00     0.000 HD 
HETATM   43  H1  UNL     1      -6.991   5.220  69.435  1.00  0.00     0.000 HD 
BRANCH  40  44
HETATM   44  O   UNL     1      -9.258   5.953  68.645  1.00  0.00    -0.118 OA 
BRANCH  44  45
HETATM   45  C   UNL     1      -9.403   6.746  67.464  1.00  0.00    -0.124 C  
HETATM   46  O   UNL     1      -8.333   7.684  67.322  1.00  0.00    -0.113 OA 
HETATM   47  C   UNL     1      -7.053   7.066  67.125  1.00  0.00    -0.083 C  
HETATM   48  C   UNL     1      -7.044   6.164  65.883  1.00  0.00    -0.070 C  
HETATM   49  H1  UNL     1     -10.686   4.224  65.505  1.00  0.00     0.000 HD 
HETATM   50  O   UNL     1      -5.786   5.498  65.702  1.00  0.00    -0.023 OA 
HETATM   51  H2  UNL     1     -11.503   5.299  66.503  1.00  0.00     0.000 HD 
HETATM   52  C   UNL     1      -8.162   5.116  65.992  1.00  0.00    -0.114 C  
HETATM   53  H   UNL     1      -5.781   4.940  64.933  1.00  0.00     0.000 HD 
HETATM   54  O   UNL     1      -8.215   4.338  64.783  1.00  0.00    -0.099 OA 
HETATM   55  C   UNL     1      -9.512   5.819  66.221  1.00  0.00    -0.148 C  
HETATM   56  N   UNL     1     -10.615   4.832  66.320  1.00  0.00    -0.279 NA 
HETATM   57  H   UNL     1      -8.907   3.690  64.851  1.00  0.00     0.000 HD 
BRANCH  47  58
HETATM   58  C   UNL     1      -5.980   8.177  67.082  1.00  0.00    -0.050 C  
HETATM   59  H1  UNL     1      -4.602   9.066  65.757  1.00  0.00     0.000 HD 
HETATM   60  N   UNL     1      -5.311   8.333  65.785  1.00  0.00    -0.031 NA 
HETATM   61  H2  UNL     1      -6.000   8.477  65.047  1.00  0.00     0.000 HD 
ENDBRANCH  47  58
ENDBRANCH  44  45
ENDBRANCH  40  44
ENDBRANCH  29  30
ENDBRANCH  22  29
ENDBRANCH  18  19
ENDBRANCH   7  18
ENDBRANCH   2   5
TORSDOF 9
ENDMDL
MODEL       72
REMARK 921   NORMALIZED FREE ENERGY PREDICTED BY IDOCK:   -6.07 KCAL/MOL
REMARK 922        TOTAL FREE ENERGY PREDICTED BY IDOCK:  -12.08 KCAL/MOL
REMARK 923 INTER-LIGAND FREE ENERGY PREDICTED BY IDOCK:   -9.42 KCAL/MOL
REMARK 924 INTRA-LIGAND FREE ENERGY PREDICTED BY IDOCK:   -2.66 KCAL/MOL
REMARK 927      BINDING AFFINITY PREDICTED BY RF-SCORE:    0.00 PKD
ROOT
HETATM    1  N   UNL     1      -9.963   3.165  65.648  1.00  0.00    -0.368 NA 
HETATM    2  C   UNL     1      -9.828   4.308  64.742  1.00  0.00    -0.158 C  
HETATM    3  H1  UNL     1     -10.848   2.662  65.591  1.00  0.00     0.000 HD 
HETATM    4  H2  UNL     1      -9.790   3.459  66.609  1.00  0.00     0.000 HD 
ENDROOT
BRANCH   2   5
HETATM    5  C   UNL     1      -8.481   5.074  64.830  1.00  0.00    -0.148 C  
HETATM    6  O   UNL     1      -8.365   6.164  63.879  1.00  0.00    -0.059 OA 
HETATM    7  C   UNL     1      -7.151   6.902  64.106  1.00  0.00    -0.059 C  
HETATM    8  C   UNL     1      -5.904   5.989  63.865  1.00  0.00    -0.022 C  
HETATM    9  O   UNL     1      -7.501   3.445  63.304  1.00  0.00    -0.053 OA 
HETATM   10  H   UNL     1      -6.803   2.816  63.160  1.00  0.00     0.000 HD 
HETATM   11  N   UNL     1      -5.789   5.634  62.412  1.00  0.00    -0.018 NA 
HETATM   12  C   UNL     1      -5.977   4.734  64.734  1.00  0.00    -0.018 C  
HETATM   13  H2  UNL     1      -5.773   6.463  61.818  1.00  0.00     0.000 HD 
HETATM   14  O   UNL     1      -5.686   5.015  66.109  1.00  0.00    -0.017 OA 
HETATM   15  C   UNL     1      -7.343   4.049  64.597  1.00  0.00    -0.071 C  
HETATM   16  H1  UNL     1      -4.976   5.038  62.255  1.00  0.00     0.000 HD 
HETATM   17  H   UNL     1      -5.731   4.234  66.650  1.00  0.00     0.000 HD 
BRANCH   7  18
HETATM   18  O   UNL     1      -6.932   7.949  63.177  1.00  0.00    -0.080 OA 
BRANCH  18  19
HETATM   19  C   UNL     1      -7.299   9.283  63.499  1.00  0.00    -0.097 C  
HETATM   20  O   UNL     1      -9.438   8.736  62.365  1.00  0.00    -0.433 OA 
HETATM   21  C   UNL     1      -7.335   9.236  65.032  1.00  0.00    -0.102 C  
HETATM   22  C   UNL     1      -9.430   9.997  64.461  1.00  0.00    -0.296 C  
HETATM   23  H   UNL     1     -10.314   9.015  62.126  1.00  0.00     0.000 HD 
HETATM   24  O   UNL     1      -8.719   9.208  65.417  1.00  0.00    -0.163 OA 
HETATM   25  C   UNL     1      -8.723   9.737  63.112  1.00  0.00    -0.225 C  
BRANCH  21  26
HETATM   26  C   UNL     1      -6.575  10.381  65.707  1.00  0.00    -0.126 C  
HETATM   27  H   UNL     1      -6.376  11.173  67.518  1.00  0.00     0.000 HD 
HETATM   28  O   UNL     1      -6.848  10.463  67.099  1.00  0.00    -0.079 OA 
ENDBRANCH  21  26
BRANCH  22  29
HETATM   29  O   UNL     1      -9.397  11.381  64.831  1.00  0.00    -0.203 OA 
BRANCH  29  30
HETATM   30  C   UNL     1     -10.608  11.947  65.439  1.00  0.00    -0.271 C  
HETATM   31  C   UNL     1     -11.420  12.755  64.394  1.00  0.00    -0.354 C  
HETATM   32  O   UNL     1     -12.363  11.869  63.751  1.00  0.00    -0.458 OA 
HETATM   33  C   UNL     1     -12.210  13.988  64.862  1.00  0.00    -0.437 C  
HETATM   34  C   UNL     1     -11.633  14.655  66.098  1.00  0.00    -0.332 C  
HETATM   35  N   UNL     1     -12.263  14.993  63.770  1.00  0.00    -1.008 NA 
HETATM   36  H   UNL     1     -12.860  12.365  63.111  1.00  0.00     0.000 HD 
HETATM   37  H1  UNL     1     -12.787  15.811  64.081  1.00  0.00     0.000 HD 
HETATM   38  H2  UNL     1     -12.639  14.603  62.906  1.00  0.00     0.000 HD 
HETATM   39  C   UNL     1     -11.441  13.625  67.210  1.00  0.00    -0.343 C  
HETATM   40  C   UNL     1     -10.328  12.622  66.811  1.00  0.00    -0.235 C  
HETATM   41  N   UNL     1     -11.105  14.340  68.460  1.00  0.00    -0.247 NA 
HETATM   42  H2  UNL     1     -11.794  15.052  68.701  1.00  0.00     0.000 HD 
HETATM   43  H1  UNL     1     -10.977  13.651  69.202  1.00  0.00     0.000 HD 
BRANCH  40  44
HETATM   44  O   UNL     1     -10.230  11.650  67.881  1.00  0.00    -0.182 OA 
BRANCH  44  45
HETATM   45  C   UNL     1     -11.360  10.787  68.035  1.00  0.00    -0.307 C  
HETATM   46  O   UNL     1     -11.084   9.467  67.560  1.00  0.00    -0.173 OA 
HETATM   47  C   UNL     1     -10.071   8.787  68.315  1.00  0.00    -0.188 C  
HETATM   48  C   UNL     1     -10.449   8.675  69.799  1.00  0.00    -0.220 C  
HETATM   49  H1  UNL     1     -12.408  12.111  71.033  1.00  0.00     0.000 HD 
HETATM   50  O   UNL     1      -9.422   8.044  70.576  1.00  0.00    -0.164 OA 
HETATM   51  H2  UNL     1     -12.804  12.594  69.475  1.00  0.00     0.000 HD 
HETATM   52  C   UNL     1     -10.733  10.072  70.371  1.00  0.00    -0.307 C  
HETATM   53  H   UNL     1      -9.656   7.974  71.495  1.00  0.00     0.000 HD 
HETATM   54  O   UNL     1     -11.184   9.954  71.732  1.00  0.00    -0.154 OA 
HETATM   55  C   UNL     1     -11.809  10.772  69.522  1.00  0.00    -0.308 C  
HETATM   56  N   UNL     1     -12.113  12.121  70.057  1.00  0.00    -0.304 NA 
HETATM   57  H   UNL     1     -11.360  10.818  72.085  1.00  0.00     0.000 HD 
BRANCH  47  58
HETATM   58  C   UNL     1      -9.803   7.420  67.647  1.00  0.00    -0.154 C  
HETATM   59  H1  UNL     1     -10.556   6.170  66.125  1.00  0.00     0.000 HD 
HETATM   60  N   UNL     1     -10.733   7.074  66.565  1.00  0.00    -0.481 NA 
HETATM   61  H2  UNL     1     -10.750   7.814  65.863  1.00  0.00     0.000 HD 
ENDBRANCH  47  58
ENDBRANCH  44  45
ENDBRANCH  40  44
ENDBRANCH  29  30
ENDBRANCH  22  29
ENDBRANCH  18  19
ENDBRANCH   7  18
ENDBRANCH   2   5
TORSDOF 9
ENDMDL
MODEL       73
REMARK 921   NORMALIZED FREE ENERGY PREDICTED BY IDOCK:   -6.07 KCAL/MOL
REMARK 922        TOTAL FREE ENERGY PREDICTED BY IDOCK:  -12.07 KCAL/MOL
REMARK 923 INTER-LIGAND FREE ENERGY PREDICTED BY IDOCK:  -10.70 KCAL/MOL
REMARK 924 INTRA-LIGAND FREE ENERGY PREDICTED BY IDOCK:   -1.37 KCAL/MOL
REMARK 927      BINDING AFFINITY PREDICTED BY RF-SCORE:    0.00 PKD
ROOT
HETATM    1  N   UNL     1     -11.407   4.243  64.839  1.00  0.00    -1.051 NA 
HETATM    2  C   UNL     1     -10.374   4.577  65.823  1.00  0.00    -0.258 C  
HETATM    3  H1  UNL     1     -11.223   3.414  64.275  1.00  0.00     0.000 HD 
HETATM    4  H2  UNL     1     -11.583   5.044  64.233  1.00  0.00     0.000 HD 
ENDROOT
BRANCH   2   5
HETATM    5  C   UNL     1     -10.652   5.839  66.680  1.00  0.00    -0.280 C  
HETATM    6  O   UNL     1     -10.086   7.057  66.130  1.00  0.00     0.072 OA 
HETATM    7  C   UNL     1     -10.492   8.197  66.907  1.00  0.00    -0.309 C  
HETATM    8  C   UNL     1      -9.939   8.088  68.366  1.00  0.00    -0.185 C  
HETATM    9  O   UNL     1      -8.664   5.336  67.997  1.00  0.00    -0.104 OA 
HETATM   10  H   UNL     1      -8.309   5.179  68.865  1.00  0.00     0.000 HD 
HETATM   11  N   UNL     1      -8.445   8.222  68.370  1.00  0.00    -0.128 NA 
HETATM   12  C   UNL     1     -10.375   6.775  69.013  1.00  0.00    -0.195 C  
HETATM   13  H2  UNL     1      -8.138   9.080  67.911  1.00  0.00     0.000 HD 
HETATM   14  O   UNL     1     -11.760   6.792  69.386  1.00  0.00    -0.619 OA 
HETATM   15  C   UNL     1     -10.075   5.583  68.095  1.00  0.00    -0.172 C  
HETATM   16  H1  UNL     1      -8.084   8.151  69.321  1.00  0.00     0.000 HD 
HETATM   17  H   UNL     1     -12.031   5.975  69.788  1.00  0.00     0.000 HD 
BRANCH   7  18
HETATM   18  O   UNL     1      -9.929   9.421  66.470  1.00  0.00    -0.231 OA 
BRANCH  18  19
HETATM   19  C   UNL     1     -10.515  10.658  66.854  1.00  0.00    -0.249 C  
HETATM   20  O   UNL     1      -8.310  11.130  67.891  1.00  0.00    -0.122 OA 
HETATM   21  C   UNL     1     -10.760  11.322  65.493  1.00  0.00    -0.220 C  
HETATM   22  C   UNL     1      -9.490  12.866  66.633  1.00  0.00    -0.255 C  
HETATM   23  H   UNL     1      -7.755  11.750  68.349  1.00  0.00     0.000 HD 
HETATM   24  O   UNL     1      -9.750  12.332  65.334  1.00  0.00    -0.224 OA 
HETATM   25  C   UNL     1      -9.614  11.666  67.599  1.00  0.00    -0.181 C  
BRANCH  21  26
HETATM   26  C   UNL     1     -12.172  11.892  65.325  1.00  0.00     0.235 C  
HETATM   27  H   UNL     1     -13.422  12.362  63.853  1.00  0.00     0.000 HD 
HETATM   28  O   UNL     1     -12.546  12.009  63.958  1.00  0.00    -0.430 OA 
ENDBRANCH  21  26
BRANCH  22  29
HETATM   29  O   UNL     1     -10.425  13.908  66.942  1.00  0.00    -0.272 OA 
BRANCH  29  30
HETATM   30  C   UNL     1     -10.297  14.563  68.249  1.00  0.00    -0.236 C  
HETATM   31  C   UNL     1     -11.466  14.156  69.184  1.00  0.00    -0.296 C  
HETATM   32  O   UNL     1     -11.079  12.979  69.927  1.00  0.00    -0.473 OA 
HETATM   33  C   UNL     1     -11.989  15.179  70.204  1.00  0.00    -0.334 C  
HETATM   34  C   UNL     1     -11.780  16.624  69.789  1.00  0.00     0.518 C  
HETATM   35  N   UNL     1     -13.441  14.963  70.431  1.00  0.00    -0.584 NA 
HETATM   36  H   UNL     1     -11.795  12.729  70.499  1.00  0.00     0.000 HD 
HETATM   37  H1  UNL     1     -13.788  15.642  71.109  1.00  0.00     0.000 HD 
HETATM   38  H2  UNL     1     -13.647  14.004  70.710  1.00  0.00     0.000 HD 
HETATM   39  C   UNL     1     -10.316  16.859  69.421  1.00  0.00    -0.250 C  
HETATM   40  C   UNL     1      -9.966  16.077  68.129  1.00  0.00    -0.228 C  
HETATM   41  N   UNL     1     -10.102  18.313  69.251  1.00  0.00    -0.327 NA 
HETATM   42  H2  UNL     1     -10.391  18.850  70.068  1.00  0.00     0.000 HD 
HETATM   43  H1  UNL     1      -9.124  18.469  69.005  1.00  0.00     0.000 HD 
BRANCH  40  44
HETATM   44  O   UNL     1      -8.560  16.304  67.864  1.00  0.00    -0.171 OA 
BRANCH  44  45
HETATM   45  C   UNL     1      -8.228  16.583  66.502  1.00  0.00    -0.300 C  
HETATM   46  O   UNL     1      -9.078  17.589  65.946  1.00  0.00    -0.512 OA 
HETATM   47  C   UNL     1      -8.930  18.873  66.570  1.00  0.00    -0.323 C  
HETATM   48  C   UNL     1      -7.485  19.385  66.475  1.00  0.00    -0.246 C  
HETATM   49  H1  UNL     1      -4.827  16.234  66.891  1.00  0.00     0.000 HD 
HETATM   50  O   UNL     1      -7.309  20.644  67.140  1.00  0.00    -0.313 OA 
HETATM   51  H2  UNL     1      -5.970  15.059  66.525  1.00  0.00     0.000 HD 
HETATM   52  C   UNL     1      -6.525  18.351  67.082  1.00  0.00    -0.179 C  
HETATM   53  H   UNL     1      -6.415  20.961  67.081  1.00  0.00     0.000 HD 
HETATM   54  O   UNL     1      -5.167  18.788  66.901  1.00  0.00    -0.135 OA 
HETATM   55  C   UNL     1      -6.731  16.987  66.400  1.00  0.00    -0.187 C  
HETATM   56  N   UNL     1      -5.809  15.969  66.958  1.00  0.00    -0.331 NA 
HETATM   57  H   UNL     1      -4.573  18.148  67.277  1.00  0.00     0.000 HD 
BRANCH  47  58
HETATM   58  C   UNL     1      -9.963  19.838  65.946  1.00  0.00    -0.373 C  
HETATM   59  H1  UNL     1     -11.811  19.820  64.932  1.00  0.00     0.000 HD 
HETATM   60  N   UNL     1     -11.129  19.182  65.344  1.00  0.00    -0.248 NA 
HETATM   61  H2  UNL     1     -11.581  18.570  66.024  1.00  0.00     0.000 HD 
ENDBRANCH  47  58
ENDBRANCH  44  45
ENDBRANCH  40  44
ENDBRANCH  29  30
ENDBRANCH  22  29
ENDBRANCH  18  19
ENDBRANCH   7  18
ENDBRANCH   2   5
TORSDOF 9
ENDMDL
MODEL       74
REMARK 921   NORMALIZED FREE ENERGY PREDICTED BY IDOCK:   -6.06 KCAL/MOL
REMARK 922        TOTAL FREE ENERGY PREDICTED BY IDOCK:  -12.06 KCAL/MOL
REMARK 923 INTER-LIGAND FREE ENERGY PREDICTED BY IDOCK:  -10.32 KCAL/MOL
REMARK 924 INTRA-LIGAND FREE ENERGY PREDICTED BY IDOCK:   -1.74 KCAL/MOL
REMARK 927      BINDING AFFINITY PREDICTED BY RF-SCORE:    0.00 PKD
ROOT
HETATM    1  N   UNL     1      -7.510   2.444  63.983  1.00  0.00    -0.058 NA 
HETATM    2  C   UNL     1      -7.089   3.736  64.532  1.00  0.00    -0.058 C  
HETATM    3  H1  UNL     1      -6.755   1.826  63.689  1.00  0.00     0.000 HD 
HETATM    4  H2  UNL     1      -8.162   2.589  63.212  1.00  0.00     0.000 HD 
ENDROOT
BRANCH   2   5
HETATM    5  C   UNL     1      -8.238   4.678  64.979  1.00  0.00    -0.115 C  
HETATM    6  O   UNL     1      -7.779   5.924  65.563  1.00  0.00    -0.084 OA 
HETATM    7  C   UNL     1      -8.893   6.793  65.834  1.00  0.00    -0.110 C  
HETATM    8  C   UNL     1      -9.845   6.147  66.893  1.00  0.00    -0.159 C  
HETATM    9  O   UNL     1      -8.297   3.523  67.124  1.00  0.00    -0.090 OA 
HETATM   10  H   UNL     1      -8.830   3.049  67.753  1.00  0.00     0.000 HD 
HETATM   11  N   UNL     1      -9.169   6.079  68.231  1.00  0.00    -0.118 NA 
HETATM   12  C   UNL     1     -10.302   4.763  66.437  1.00  0.00    -0.273 C  
HETATM   13  H2  UNL     1      -8.829   6.993  68.532  1.00  0.00     0.000 HD 
HETATM   14  O   UNL     1     -11.280   4.837  65.391  1.00  0.00    -0.896 OA 
HETATM   15  C   UNL     1      -9.107   3.905  66.002  1.00  0.00    -0.148 C  
HETATM   16  H1  UNL     1      -9.789   5.658  68.922  1.00  0.00     0.000 HD 
HETATM   17  H   UNL     1     -11.565   3.976  65.107  1.00  0.00     0.000 HD 
BRANCH   7  18
HETATM   18  O   UNL     1      -8.534   8.010  66.464  1.00  0.00    -0.125 OA 
BRANCH  18  19
HETATM   19  C   UNL     1      -8.769   9.252  65.814  1.00  0.00    -0.156 C  
HETATM   20  O   UNL     1     -10.616   9.509  67.451  1.00  0.00    -0.268 OA 
HETATM   21  C   UNL     1      -7.485  10.023  66.142  1.00  0.00    -0.109 C  
HETATM   22  C   UNL     1      -9.159  11.399  66.914  1.00  0.00    -0.175 C  
HETATM   23  H   UNL     1     -11.307  10.059  67.802  1.00  0.00     0.000 HD 
HETATM   24  O   UNL     1      -7.819  10.975  67.166  1.00  0.00    -0.123 OA 
HETATM   25  C   UNL     1      -9.891  10.146  66.383  1.00  0.00    -0.222 C  
BRANCH  21  26
HETATM   26  C   UNL     1      -6.834  10.692  64.928  1.00  0.00     0.123 C  
HETATM   27  H   UNL     1      -5.081  11.480  64.423  1.00  0.00     0.000 HD 
HETATM   28  O   UNL     1      -5.485  11.065  65.176  1.00  0.00    -0.152 OA 
ENDBRANCH  21  26
BRANCH  22  29
HETATM   29  O   UNL     1      -9.174  12.475  65.966  1.00  0.00    -0.149 OA 
BRANCH  29  30
HETATM   30  C   UNL     1     -10.342  13.364  65.971  1.00  0.00    -0.297 C  
HETATM   31  C   UNL     1     -11.639  12.566  65.675  1.00  0.00    -0.389 C  
HETATM   32  O   UNL     1     -12.198  12.105  66.924  1.00  0.00    -0.537 OA 
HETATM   33  C   UNL     1     -12.775  13.259  64.903  1.00  0.00    -0.327 C  
HETATM   34  C   UNL     1     -12.304  14.368  63.980  1.00  0.00    -0.243 C  
HETATM   35  N   UNL     1     -13.514  12.257  64.093  1.00  0.00    -0.381 NA 
HETATM   36  H   UNL     1     -12.992  11.617  66.743  1.00  0.00     0.000 HD 
HETATM   37  H1  UNL     1     -14.267  12.717  63.582  1.00  0.00     0.000 HD 
HETATM   38  H2  UNL     1     -13.853  11.480  64.659  1.00  0.00     0.000 HD 
HETATM   39  C   UNL     1     -11.429  15.356  64.749  1.00  0.00    -0.336 C  
HETATM   40  C   UNL     1     -10.102  14.671  65.166  1.00  0.00    -0.324 C  
HETATM   41  N   UNL     1     -11.184  16.535  63.889  1.00  0.00    -1.400 NA 
HETATM   42  H2  UNL     1     -12.048  16.958  63.550  1.00  0.00     0.000 HD 
HETATM   43  H1  UNL     1     -10.600  17.195  64.403  1.00  0.00     0.000 HD 
BRANCH  40  44
HETATM   44  O   UNL     1      -9.344  15.643  65.927  1.00  0.00    -0.335 OA 
BRANCH  44  45
HETATM   45  C   UNL     1      -9.546  15.610  67.342  1.00  0.00    -0.217 C  
HETATM   46  O   UNL     1      -8.585  14.775  67.993  1.00  0.00    -0.155 OA 
HETATM   47  C   UNL     1      -7.239  15.259  67.884  1.00  0.00    -0.143 C  
HETATM   48  C   UNL     1      -7.096  16.672  68.469  1.00  0.00    -0.172 C  
HETATM   49  H1  UNL     1     -10.485  18.907  67.640  1.00  0.00     0.000 HD 
HETATM   50  O   UNL     1      -5.767  17.191  68.320  1.00  0.00    -0.125 OA 
HETATM   51  H2  UNL     1     -11.444  17.565  67.324  1.00  0.00     0.000 HD 
HETATM   52  C   UNL     1      -8.091  17.622  67.786  1.00  0.00    -0.224 C  
HETATM   53  H   UNL     1      -5.678  18.065  68.682  1.00  0.00     0.000 HD 
HETATM   54  O   UNL     1      -8.025  18.919  68.405  1.00  0.00    -0.313 OA 
HETATM   55  C   UNL     1      -9.518  17.056  67.909  1.00  0.00    -0.245 C  
HETATM   56  N   UNL     1     -10.504  17.958  67.268  1.00  0.00    -0.373 NA 
HETATM   57  H   UNL     1      -8.641  19.506  67.983  1.00  0.00     0.000 HD 
BRANCH  47  58
HETATM   58  C   UNL     1      -6.297  14.226  68.542  1.00  0.00    -0.092 C  
HETATM   59  H1  UNL     1      -5.180  12.502  68.071  1.00  0.00     0.000 HD 
HETATM   60  N   UNL     1      -5.802  13.184  67.636  1.00  0.00    -0.231 NA 
HETATM   61  H2  UNL     1      -5.353  13.605  66.822  1.00  0.00     0.000 HD 
ENDBRANCH  47  58
ENDBRANCH  44  45
ENDBRANCH  40  44
ENDBRANCH  29  30
ENDBRANCH  22  29
ENDBRANCH  18  19
ENDBRANCH   7  18
ENDBRANCH   2   5
TORSDOF 9
ENDMDL
MODEL       75
REMARK 921   NORMALIZED FREE ENERGY PREDICTED BY IDOCK:   -6.02 KCAL/MOL
REMARK 922        TOTAL FREE ENERGY PREDICTED BY IDOCK:  -12.00 KCAL/MOL
REMARK 923 INTER-LIGAND FREE ENERGY PREDICTED BY IDOCK:   -9.79 KCAL/MOL
REMARK 924 INTRA-LIGAND FREE ENERGY PREDICTED BY IDOCK:   -2.21 KCAL/MOL
REMARK 927      BINDING AFFINITY PREDICTED BY RF-SCORE:    0.00 PKD
ROOT
HETATM    1  N   UNL     1      -8.737   7.376  62.425  1.00  0.00    -0.373 NA 
HETATM    2  C   UNL     1      -8.491   5.933  62.350  1.00  0.00    -0.037 C  
HETATM    3  H1  UNL     1      -8.887   7.842  61.530  1.00  0.00     0.000 HD 
HETATM    4  H2  UNL     1      -7.981   7.833  62.933  1.00  0.00     0.000 HD 
ENDROOT
BRANCH   2   5
HETATM    5  C   UNL     1      -8.262   5.225  63.710  1.00  0.00    -0.123 C  
HETATM    6  O   UNL     1      -8.545   6.063  64.861  1.00  0.00    -0.111 OA 
HETATM    7  C   UNL     1      -8.433   5.302  66.077  1.00  0.00    -0.120 C  
HETATM    8  C   UNL     1      -6.968   4.790  66.269  1.00  0.00    -0.070 C  
HETATM    9  O   UNL     1      -5.919   5.890  63.617  1.00  0.00    -0.021 OA 
HETATM   10  H   UNL     1      -5.013   5.601  63.643  1.00  0.00     0.000 HD 
HETATM   11  N   UNL     1      -6.042   5.941  66.533  1.00  0.00    -0.025 NA 
HETATM   12  C   UNL     1      -6.512   3.987  65.051  1.00  0.00    -0.038 C  
HETATM   13  H2  UNL     1      -6.354   6.506  67.323  1.00  0.00     0.000 HD 
HETATM   14  O   UNL     1      -7.114   2.686  65.010  1.00  0.00    -0.054 OA 
HETATM   15  C   UNL     1      -6.787   4.754  63.752  1.00  0.00    -0.043 C  
HETATM   16  H1  UNL     1      -5.087   5.608  66.658  1.00  0.00     0.000 HD 
HETATM   17  H   UNL     1      -6.830   2.186  64.253  1.00  0.00     0.000 HD 
BRANCH   7  18
HETATM   18  O   UNL     1      -8.634   6.065  67.254  1.00  0.00    -0.108 OA 
BRANCH  18  19
HETATM   19  C   UNL     1      -9.200   7.366  67.178  1.00  0.00    -0.136 C  
HETATM   20  O   UNL     1     -11.290   6.263  67.935  1.00  0.00    -0.542 OA 
HETATM   21  C   UNL     1      -8.415   8.111  68.266  1.00  0.00    -0.130 C  
HETATM   22  C   UNL     1     -10.614   8.420  68.870  1.00  0.00    -0.140 C  
HETATM   23  H   UNL     1     -12.196   6.358  68.204  1.00  0.00     0.000 HD 
HETATM   24  O   UNL     1      -9.296   8.251  69.393  1.00  0.00    -0.154 OA 
HETATM   25  C   UNL     1     -10.672   7.522  67.614  1.00  0.00    -0.196 C  
BRANCH  21  26
HETATM   26  C   UNL     1      -7.848   9.458  67.810  1.00  0.00    -0.095 C  
HETATM   27  H   UNL     1      -7.566  10.460  66.118  1.00  0.00     0.000 HD 
HETATM   28  O   UNL     1      -7.918   9.624  66.400  1.00  0.00    -0.107 OA 
ENDBRANCH  21  26
BRANCH  22  29
HETATM   29  O   UNL     1     -10.856   9.799  68.561  1.00  0.00    -0.222 OA 
BRANCH  29  30
HETATM   30  C   UNL     1     -10.962  10.735  69.687  1.00  0.00    -0.264 C  
HETATM   31  C   UNL     1     -11.653  10.059  70.899  1.00  0.00    -0.378 C  
HETATM   32  O   UNL     1     -10.643   9.443  71.728  1.00  0.00    -0.309 OA 
HETATM   33  C   UNL     1     -12.531  10.918  71.825  1.00  0.00    -0.132 C  
HETATM   34  C   UNL     1     -13.143  12.128  71.144  1.00  0.00    -0.113 C  
HETATM   35  N   UNL     1     -13.630  10.089  72.384  1.00  0.00    -0.599 NA 
HETATM   36  H   UNL     1     -11.066   9.029  72.470  1.00  0.00     0.000 HD 
HETATM   37  H1  UNL     1     -14.212  10.659  72.998  1.00  0.00     0.000 HD 
HETATM   38  H2  UNL     1     -13.281   9.254  72.852  1.00  0.00     0.000 HD 
HETATM   39  C   UNL     1     -12.056  12.943  70.444  1.00  0.00    -0.306 C  
HETATM   40  C   UNL     1     -11.478  12.136  69.253  1.00  0.00    -0.302 C  
HETATM   41  N   UNL     1     -12.645  14.224  69.996  1.00  0.00    -0.461 NA 
HETATM   42  H2  UNL     1     -13.090  14.737  70.757  1.00  0.00     0.000 HD 
HETATM   43  H1  UNL     1     -11.919  14.768  69.529  1.00  0.00     0.000 HD 
BRANCH  40  44
HETATM   44  O   UNL     1     -10.427  12.941  68.666  1.00  0.00    -0.245 OA 
BRANCH  44  45
HETATM   45  C   UNL     1      -9.994  12.534  67.365  1.00  0.00    -0.207 C  
HETATM   46  O   UNL     1     -11.028  12.689  66.391  1.00  0.00    -0.260 OA 
HETATM   47  C   UNL     1     -11.412  14.055  66.176  1.00  0.00    -0.346 C  
HETATM   48  C   UNL     1     -10.221  14.914  65.726  1.00  0.00    -0.336 C  
HETATM   49  H1  UNL     1      -6.775  13.708  67.685  1.00  0.00     0.000 HD 
HETATM   50  O   UNL     1     -10.577  16.293  65.556  1.00  0.00    -0.373 OA 
HETATM   51  H2  UNL     1      -7.393  12.206  68.110  1.00  0.00     0.000 HD 
HETATM   52  C   UNL     1      -9.083  14.805  66.752  1.00  0.00    -0.267 C  
HETATM   53  H   UNL     1      -9.840  16.824  65.278  1.00  0.00     0.000 HD 
HETATM   54  O   UNL     1      -7.934  15.529  66.278  1.00  0.00    -0.260 OA 
HETATM   55  C   UNL     1      -8.717  13.326  66.967  1.00  0.00    -0.186 C  
HETATM   56  N   UNL     1      -7.612  13.188  67.947  1.00  0.00    -0.130 NA 
HETATM   57  H   UNL     1      -7.230  15.461  66.913  1.00  0.00     0.000 HD 
BRANCH  47  58
HETATM   58  C   UNL     1     -12.592  14.076  65.179  1.00  0.00    -0.428 C  
HETATM   59  H1  UNL     1     -12.996  14.380  63.132  1.00  0.00     0.000 HD 
HETATM   60  N   UNL     1     -12.216  14.366  63.790  1.00  0.00    -1.040 NA 
HETATM   61  H2  UNL     1     -11.498  13.713  63.474  1.00  0.00     0.000 HD 
ENDBRANCH  47  58
ENDBRANCH  44  45
ENDBRANCH  40  44
ENDBRANCH  29  30
ENDBRANCH  22  29
ENDBRANCH  18  19
ENDBRANCH   7  18
ENDBRANCH   2   5
TORSDOF 9
ENDMDL
MODEL       76
REMARK 921   NORMALIZED FREE ENERGY PREDICTED BY IDOCK:   -6.01 KCAL/MOL
REMARK 922        TOTAL FREE ENERGY PREDICTED BY IDOCK:  -11.99 KCAL/MOL
REMARK 923 INTER-LIGAND FREE ENERGY PREDICTED BY IDOCK:   -8.81 KCAL/MOL
REMARK 924 INTRA-LIGAND FREE ENERGY PREDICTED BY IDOCK:   -3.18 KCAL/MOL
REMARK 927      BINDING AFFINITY PREDICTED BY RF-SCORE:    0.00 PKD
ROOT
HETATM    1  N   UNL     1      -7.823   4.268  70.174  1.00  0.00    -0.052 NA 
HETATM    2  C   UNL     1      -9.275   4.071  70.153  1.00  0.00    -0.142 C  
HETATM    3  H1  UNL     1      -7.287   3.643  69.572  1.00  0.00     0.000 HD 
HETATM    4  H2  UNL     1      -7.477   4.211  71.132  1.00  0.00     0.000 HD 
ENDROOT
BRANCH   2   5
HETATM    5  C   UNL     1     -10.090   5.022  71.069  1.00  0.00    -0.227 C  
HETATM    6  O   UNL     1      -9.531   6.357  71.171  1.00  0.00    -0.166 OA 
HETATM    7  C   UNL     1     -10.405   7.212  71.930  1.00  0.00    -0.192 C  
HETATM    8  C   UNL     1     -10.539   6.690  73.398  1.00  0.00    -0.309 C  
HETATM    9  O   UNL     1      -8.830   4.191  72.984  1.00  0.00    -0.098 OA 
HETATM   10  H   UNL     1      -8.873   3.793  73.846  1.00  0.00     0.000 HD 
HETATM   11  N   UNL     1      -9.237   6.845  74.128  1.00  0.00    -0.204 NA 
HETATM   12  C   UNL     1     -11.010   5.237  73.415  1.00  0.00    -0.316 C  
HETATM   13  H2  UNL     1      -8.894   7.805  74.096  1.00  0.00     0.000 HD 
HETATM   14  O   UNL     1     -12.402   5.119  73.093  1.00  0.00    -0.434 OA 
HETATM   15  C   UNL     1     -10.160   4.373  72.474  1.00  0.00    -0.177 C  
HETATM   16  H1  UNL     1      -9.324   6.505  75.086  1.00  0.00     0.000 HD 
HETATM   17  H   UNL     1     -12.695   4.215  73.104  1.00  0.00     0.000 HD 
BRANCH   7  18
HETATM   18  O   UNL     1      -9.901   8.521  72.128  1.00  0.00    -0.268 OA 
BRANCH  18  19
HETATM   19  C   UNL     1     -10.301   9.582  71.272  1.00  0.00    -0.217 C  
HETATM   20  O   UNL     1      -8.391   8.869  69.857  1.00  0.00    -0.115 OA 
HETATM   21  C   UNL     1     -11.682   9.103  70.806  1.00  0.00    -0.256 C  
HETATM   22  C   UNL     1     -10.537   9.459  68.842  1.00  0.00    -0.208 C  
HETATM   23  H   UNL     1      -7.905   8.982  69.048  1.00  0.00     0.000 HD 
HETATM   24  O   UNL     1     -11.528   8.634  69.456  1.00  0.00     0.160 OA 
HETATM   25  C   UNL     1      -9.513   9.766  69.958  1.00  0.00    -0.238 C  
BRANCH  21  26
HETATM   26  C   UNL     1     -12.780  10.164  70.922  1.00  0.00    -0.357 C  
HETATM   27  H   UNL     1     -14.034  10.864  72.295  1.00  0.00     0.000 HD 
HETATM   28  O   UNL     1     -13.354  10.206  72.222  1.00  0.00    -0.415 OA 
ENDBRANCH  21  26
BRANCH  22  29
HETATM   29  O   UNL     1     -11.136  10.651  68.316  1.00  0.00    -0.238 OA 
BRANCH  29  30
HETATM   30  C   UNL     1     -10.328  11.464  67.398  1.00  0.00    -0.202 C  
HETATM   31  C   UNL     1     -10.243  12.931  67.895  1.00  0.00    -0.233 C  
HETATM   32  O   UNL     1      -9.090  13.064  68.755  1.00  0.00    -0.385 OA 
HETATM   33  C   UNL     1     -10.161  14.061  66.856  1.00  0.00    -0.259 C  
HETATM   34  C   UNL     1     -10.798  13.717  65.522  1.00  0.00    -0.299 C  
HETATM   35  N   UNL     1     -10.820  15.280  67.389  1.00  0.00    -0.298 NA 
HETATM   36  H   UNL     1      -9.038  13.963  69.060  1.00  0.00     0.000 HD 
HETATM   37  H1  UNL     1     -10.765  16.030  66.700  1.00  0.00     0.000 HD 
HETATM   38  H2  UNL     1     -10.437  15.561  68.292  1.00  0.00     0.000 HD 
HETATM   39  C   UNL     1     -10.239  12.396  64.996  1.00  0.00    -0.283 C  
HETATM   40  C   UNL     1     -10.701  11.230  65.907  1.00  0.00    -0.232 C  
HETATM   41  N   UNL     1     -10.699  12.212  63.603  1.00  0.00    -0.427 NA 
HETATM   42  H2  UNL     1     -10.462  13.003  63.004  1.00  0.00     0.000 HD 
HETATM   43  H1  UNL     1     -10.325  11.330  63.253  1.00  0.00     0.000 HD 
BRANCH  40  44
HETATM   44  O   UNL     1     -10.100  10.020  65.383  1.00  0.00    -0.310 OA 
BRANCH  44  45
HETATM   45  C   UNL     1      -8.705   9.860  65.651  1.00  0.00    -0.151 C  
HETATM   46  O   UNL     1      -8.469   8.857  66.643  1.00  0.00    -0.116 OA 
HETATM   47  C   UNL     1      -8.858   7.540  66.229  1.00  0.00    -0.160 C  
HETATM   48  C   UNL     1      -8.124   7.107  64.951  1.00  0.00    -0.107 C  
HETATM   49  H1  UNL     1      -7.667  10.346  62.406  1.00  0.00     0.000 HD 
HETATM   50  O   UNL     1      -8.541   5.813  64.495  1.00  0.00    -0.295 OA 
HETATM   51  H2  UNL     1      -7.917  11.487  63.612  1.00  0.00     0.000 HD 
HETATM   52  C   UNL     1      -8.363   8.139  63.838  1.00  0.00     0.009 C  
HETATM   53  H   UNL     1      -8.087   5.545  63.704  1.00  0.00     0.000 HD 
HETATM   54  O   UNL     1      -7.594   7.784  62.676  1.00  0.00    -0.104 OA 
HETATM   55  C   UNL     1      -7.952   9.538  64.330  1.00  0.00    -0.135 C  
HETATM   56  N   UNL     1      -8.162  10.556  63.273  1.00  0.00    -0.144 NA 
HETATM   57  H   UNL     1      -7.742   8.422  61.988  1.00  0.00     0.000 HD 
BRANCH  47  58
HETATM   58  C   UNL     1      -8.641   6.574  67.415  1.00  0.00    -0.118 C  
HETATM   59  H1  UNL     1      -7.413   4.966  68.009  1.00  0.00     0.000 HD 
HETATM   60  N   UNL     1      -7.556   5.604  67.225  1.00  0.00    -0.088 NA 
HETATM   61  H2  UNL     1      -6.686   6.087  66.997  1.00  0.00     0.000 HD 
ENDBRANCH  47  58
ENDBRANCH  44  45
ENDBRANCH  40  44
ENDBRANCH  29  30
ENDBRANCH  22  29
ENDBRANCH  18  19
ENDBRANCH   7  18
ENDBRANCH   2   5
TORSDOF 9
ENDMDL
MODEL       77
REMARK 921   NORMALIZED FREE ENERGY PREDICTED BY IDOCK:   -6.01 KCAL/MOL
REMARK 922        TOTAL FREE ENERGY PREDICTED BY IDOCK:  -11.99 KCAL/MOL
REMARK 923 INTER-LIGAND FREE ENERGY PREDICTED BY IDOCK:   -9.12 KCAL/MOL
REMARK 924 INTRA-LIGAND FREE ENERGY PREDICTED BY IDOCK:   -2.87 KCAL/MOL
REMARK 927      BINDING AFFINITY PREDICTED BY RF-SCORE:    0.00 PKD
ROOT
HETATM    1  N   UNL     1     -11.520   6.679  67.170  1.00  0.00    -0.746 NA 
HETATM    2  C   UNL     1     -10.378   6.167  67.932  1.00  0.00    -0.203 C  
HETATM    3  H1  UNL     1     -12.405   6.199  67.331  1.00  0.00     0.000 HD 
HETATM    4  H2  UNL     1     -11.302   6.682  66.174  1.00  0.00     0.000 HD 
ENDROOT
BRANCH   2   5
HETATM    5  C   UNL     1      -9.031   6.897  67.685  1.00  0.00    -0.116 C  
HETATM    6  O   UNL     1      -9.183   8.267  67.231  1.00  0.00    -0.134 OA 
HETATM    7  C   UNL     1      -7.901   8.915  67.147  1.00  0.00    -0.096 C  
HETATM    8  C   UNL     1      -7.000   8.207  66.082  1.00  0.00    -0.058 C  
HETATM    9  O   UNL     1      -9.002   5.994  65.421  1.00  0.00    -0.323 OA 
HETATM   10  H   UNL     1      -8.516   5.492  64.777  1.00  0.00     0.000 HD 
HETATM   11  N   UNL     1      -7.551   8.423  64.704  1.00  0.00    -0.098 NA 
HETATM   12  C   UNL     1      -6.865   6.717  66.393  1.00  0.00    -0.061 C  
HETATM   13  H2  UNL     1      -7.678   9.414  64.496  1.00  0.00     0.000 HD 
HETATM   14  O   UNL     1      -5.991   6.476  67.503  1.00  0.00    -0.015 OA 
HETATM   15  C   UNL     1      -8.239   6.079  66.635  1.00  0.00    -0.106 C  
HETATM   16  H1  UNL     1      -6.964   7.962  64.009  1.00  0.00     0.000 HD 
HETATM   17  H   UNL     1      -5.907   5.550  67.697  1.00  0.00     0.000 HD 
BRANCH   7  18
HETATM   18  O   UNL     1      -7.957  10.240  66.650  1.00  0.00    -0.112 OA 
BRANCH  18  19
HETATM   19  C   UNL     1      -8.936  11.149  67.136  1.00  0.00    -0.145 C  
HETATM   20  O   UNL     1      -7.129  12.842  66.968  1.00  0.00    -0.360 OA 
HETATM   21  C   UNL     1      -9.954  11.154  65.989  1.00  0.00    -0.236 C  
HETATM   22  C   UNL     1      -9.403  13.374  66.240  1.00  0.00    -0.121 C  
HETATM   23  H   UNL     1      -6.874  13.753  67.048  1.00  0.00     0.000 HD 
HETATM   24  O   UNL     1      -9.771  12.388  65.274  1.00  0.00    -0.203 OA 
HETATM   25  C   UNL     1      -8.521  12.630  67.267  1.00  0.00    -0.193 C  
BRANCH  21  26
HETATM   26  C   UNL     1     -11.403  10.964  66.443  1.00  0.00     0.270 C  
HETATM   27  H   UNL     1     -12.394  10.464  68.092  1.00  0.00     0.000 HD 
HETATM   28  O   UNL     1     -11.495  10.583  67.810  1.00  0.00    -0.443 OA 
ENDBRANCH  21  26
BRANCH  22  29
HETATM   29  O   UNL     1     -10.572  13.944  66.844  1.00  0.00    -0.277 OA 
BRANCH  29  30
HETATM   30  C   UNL     1     -10.449  14.436  68.221  1.00  0.00    -0.245 C  
HETATM   31  C   UNL     1     -11.574  13.852  69.115  1.00  0.00    -0.313 C  
HETATM   32  O   UNL     1     -11.112  12.614  69.697  1.00  0.00    -0.461 OA 
HETATM   33  C   UNL     1     -12.127  14.710  70.265  1.00  0.00    -0.319 C  
HETATM   34  C   UNL     1     -12.001  16.205  70.032  1.00  0.00    -0.059 C  
HETATM   35  N   UNL     1     -13.560  14.390  70.485  1.00  0.00    -0.314 NA 
HETATM   36  H   UNL     1     -11.802  12.257  70.244  1.00  0.00     0.000 HD 
HETATM   37  H1  UNL     1     -13.926  14.959  71.248  1.00  0.00     0.000 HD 
HETATM   38  H2  UNL     1     -13.711  13.394  70.643  1.00  0.00     0.000 HD 
HETATM   39  C   UNL     1     -10.559  16.562  69.675  1.00  0.00    -0.302 C  
HETATM   40  C   UNL     1     -10.199  15.968  68.289  1.00  0.00    -0.237 C  
HETATM   41  N   UNL     1     -10.423  18.035  69.686  1.00  0.00    -0.129 NA 
HETATM   42  H2  UNL     1     -10.721  18.449  70.570  1.00  0.00     0.000 HD 
HETATM   43  H1  UNL     1      -9.460  18.273  69.447  1.00  0.00     0.000 HD 
BRANCH  40  44
HETATM   44  O   UNL     1      -8.812  16.302  68.033  1.00  0.00    -0.179 OA 
BRANCH  44  45
HETATM   45  C   UNL     1      -8.477  16.529  66.661  1.00  0.00    -0.263 C  
HETATM   46  O   UNL     1      -9.195  17.640  66.119  1.00  0.00    -0.446 OA 
HETATM   47  C   UNL     1      -8.859  18.893  66.731  1.00  0.00    -0.309 C  
HETATM   48  C   UNL     1      -7.361  19.204  66.601  1.00  0.00    -0.222 C  
HETATM   49  H1  UNL     1      -5.147  15.721  66.975  1.00  0.00     0.000 HD 
HETATM   50  O   UNL     1      -7.000  20.429  67.254  1.00  0.00    -0.246 OA 
HETATM   51  H2  UNL     1      -6.447  14.712  66.643  1.00  0.00     0.000 HD 
HETATM   52  C   UNL     1      -6.536  18.051  67.193  1.00  0.00    -0.180 C  
HETATM   53  H   UNL     1      -6.072  20.621  67.173  1.00  0.00     0.000 HD 
HETATM   54  O   UNL     1      -5.136  18.298  66.978  1.00  0.00    -0.124 OA 
HETATM   55  C   UNL     1      -6.942  16.725  66.523  1.00  0.00    -0.189 C  
HETATM   56  N   UNL     1      -6.154  15.592  67.066  1.00  0.00    -0.242 NA 
HETATM   57  H   UNL     1      -4.626  17.584  67.344  1.00  0.00     0.000 HD 
BRANCH  47  58
HETATM   58  C   UNL     1      -9.766  19.988  66.126  1.00  0.00    -0.409 C  
HETATM   59  H1  UNL     1     -11.750  20.295  65.482  1.00  0.00     0.000 HD 
HETATM   60  N   UNL     1     -11.151  19.571  65.882  1.00  0.00    -0.151 NA 
HETATM   61  H2  UNL     1     -11.566  19.202  66.738  1.00  0.00     0.000 HD 
ENDBRANCH  47  58
ENDBRANCH  44  45
ENDBRANCH  40  44
ENDBRANCH  29  30
ENDBRANCH  22  29
ENDBRANCH  18  19
ENDBRANCH   7  18
ENDBRANCH   2   5
TORSDOF 9
ENDMDL
MODEL       78
REMARK 921   NORMALIZED FREE ENERGY PREDICTED BY IDOCK:   -6.01 KCAL/MOL
REMARK 922        TOTAL FREE ENERGY PREDICTED BY IDOCK:  -11.99 KCAL/MOL
REMARK 923 INTER-LIGAND FREE ENERGY PREDICTED BY IDOCK:  -10.01 KCAL/MOL
REMARK 924 INTRA-LIGAND FREE ENERGY PREDICTED BY IDOCK:   -1.98 KCAL/MOL
REMARK 927      BINDING AFFINITY PREDICTED BY RF-SCORE:    0.00 PKD
ROOT
HETATM    1  N   UNL     1     -10.557   4.176  65.683  1.00  0.00    -0.478 NA 
HETATM    2  C   UNL     1      -9.548   3.893  64.658  1.00  0.00    -0.175 C  
HETATM    3  H1  UNL     1     -11.264   3.452  65.813  1.00  0.00     0.000 HD 
HETATM    4  H2  UNL     1     -11.006   5.071  65.492  1.00  0.00     0.000 HD 
ENDROOT
BRANCH   2   5
HETATM    5  C   UNL     1      -8.473   4.994  64.459  1.00  0.00    -0.142 C  
HETATM    6  O   UNL     1      -8.808   6.259  65.087  1.00  0.00    -0.028 OA 
HETATM    7  C   UNL     1      -7.714   7.184  64.968  1.00  0.00    -0.115 C  
HETATM    8  C   UNL     1      -7.436   7.512  63.465  1.00  0.00    -0.101 C  
HETATM    9  O   UNL     1      -9.534   5.592  62.348  1.00  0.00    -0.338 OA 
HETATM   10  H   UNL     1      -9.419   5.716  61.412  1.00  0.00     0.000 HD 
HETATM   11  N   UNL     1      -8.574   8.296  62.881  1.00  0.00    -0.421 NA 
HETATM   12  C   UNL     1      -7.185   6.232  62.670  1.00  0.00    -0.053 C  
HETATM   13  H2  UNL     1      -8.774   9.138  63.423  1.00  0.00     0.000 HD 
HETATM   14  O   UNL     1      -5.890   5.677  62.938  1.00  0.00    -0.014 OA 
HETATM   15  C   UNL     1      -8.285   5.196  62.935  1.00  0.00    -0.104 C  
HETATM   16  H1  UNL     1      -8.393   8.510  61.901  1.00  0.00     0.000 HD 
HETATM   17  H   UNL     1      -5.734   4.881  62.443  1.00  0.00     0.000 HD 
BRANCH   7  18
HETATM   18  O   UNL     1      -7.985   8.468  65.503  1.00  0.00    -0.099 OA 
BRANCH  18  19
HETATM   19  C   UNL     1      -9.178   8.701  66.241  1.00  0.00    -0.202 C  
HETATM   20  O   UNL     1      -7.907   7.785  68.165  1.00  0.00    -0.116 OA 
HETATM   21  C   UNL     1      -9.284  10.230  66.187  1.00  0.00    -0.158 C  
HETATM   22  C   UNL     1      -9.326   9.759  68.439  1.00  0.00    -0.133 C  
HETATM   23  H   UNL     1      -7.887   7.592  69.095  1.00  0.00     0.000 HD 
HETATM   24  O   UNL     1      -8.888  10.722  67.479  1.00  0.00    -0.129 OA 
HETATM   25  C   UNL     1      -9.147   8.387  67.751  1.00  0.00    -0.135 C  
BRANCH  21  26
HETATM   26  C   UNL     1     -10.666  10.744  65.777  1.00  0.00    -0.070 C  
HETATM   27  H   UNL     1     -11.617  11.303  64.124  1.00  0.00     0.000 HD 
HETATM   28  O   UNL     1     -10.760  10.984  64.379  1.00  0.00    -0.351 OA 
ENDBRANCH  21  26
BRANCH  22  29
HETATM   29  O   UNL     1     -10.689  10.005  68.808  1.00  0.00    -0.207 OA 
BRANCH  29  30
HETATM   30  C   UNL     1     -10.998  10.080  70.241  1.00  0.00    -0.316 C  
HETATM   31  C   UNL     1     -11.093   8.660  70.857  1.00  0.00    -0.264 C  
HETATM   32  O   UNL     1      -9.786   8.271  71.333  1.00  0.00    -0.166 OA 
HETATM   33  C   UNL     1     -12.082   8.418  72.010  1.00  0.00    -0.356 C  
HETATM   34  C   UNL     1     -13.276   9.355  72.003  1.00  0.00    -0.529 C  
HETATM   35  N   UNL     1     -12.583   7.021  71.954  1.00  0.00    -0.463 NA 
HETATM   36  H   UNL     1      -9.845   7.401  71.711  1.00  0.00     0.000 HD 
HETATM   37  H1  UNL     1     -13.239   6.860  72.719  1.00  0.00     0.000 HD 
HETATM   38  H2  UNL     1     -11.824   6.340  71.950  1.00  0.00     0.000 HD 
HETATM   39  C   UNL     1     -12.804  10.806  71.931  1.00  0.00    -0.354 C  
HETATM   40  C   UNL     1     -12.148  11.078  70.553  1.00  0.00    -0.377 C  
HETATM   41  N   UNL     1     -13.968  11.691  72.162  1.00  0.00     0.011 NA 
HETATM   42  H2  UNL     1     -14.452  11.479  73.035  1.00  0.00     0.000 HD 
HETATM   43  H1  UNL     1     -13.652  12.659  72.114  1.00  0.00     0.000 HD 
BRANCH  40  44
HETATM   44  O   UNL     1     -11.684  12.451  70.568  1.00  0.00    -0.181 OA 
BRANCH  44  45
HETATM   45  C   UNL     1     -12.373  13.343  69.687  1.00  0.00    -0.131 C  
HETATM   46  O   UNL     1     -13.471  13.986  70.339  1.00  0.00     0.126 OA 
HETATM   47  C   UNL     1     -13.072  14.854  71.410  1.00  0.00    -0.369 C  
HETATM   48  C   UNL     1     -12.116  15.953  70.922  1.00  0.00    -0.374 C  
HETATM   49  H1  UNL     1      -9.563  14.438  68.031  1.00  0.00     0.000 HD 
HETATM   50  O   UNL     1     -11.667  16.798  71.990  1.00  0.00    -0.595 OA 
HETATM   51  H2  UNL     1     -10.536  13.114  67.688  1.00  0.00     0.000 HD 
HETATM   52  C   UNL     1     -10.900  15.317  70.232  1.00  0.00    -0.279 C  
HETATM   53  H   UNL     1     -11.076  17.478  71.688  1.00  0.00     0.000 HD 
HETATM   54  O   UNL     1     -10.058  16.348  69.688  1.00  0.00    -0.235 OA 
HETATM   55  C   UNL     1     -11.372  14.380  69.106  1.00  0.00    -0.277 C  
HETATM   56  N   UNL     1     -10.219  13.758  68.413  1.00  0.00    -0.244 NA 
HETATM   57  H   UNL     1      -9.306  15.955  69.262  1.00  0.00     0.000 HD 
BRANCH  47  58
HETATM   58  C   UNL     1     -14.346  15.408  72.086  1.00  0.00    -0.544 C  
HETATM   59  H1  UNL     1     -14.939  16.689  73.653  1.00  0.00     0.000 HD 
HETATM   60  N   UNL     1     -14.097  16.323  73.206  1.00  0.00    -0.521 NA 
HETATM   61  H2  UNL     1     -13.491  17.089  72.910  1.00  0.00     0.000 HD 
ENDBRANCH  47  58
ENDBRANCH  44  45
ENDBRANCH  40  44
ENDBRANCH  29  30
ENDBRANCH  22  29
ENDBRANCH  18  19
ENDBRANCH   7  18
ENDBRANCH   2   5
TORSDOF 9
ENDMDL
MODEL       79
REMARK 921   NORMALIZED FREE ENERGY PREDICTED BY IDOCK:   -5.97 KCAL/MOL
REMARK 922        TOTAL FREE ENERGY PREDICTED BY IDOCK:  -11.92 KCAL/MOL
REMARK 923 INTER-LIGAND FREE ENERGY PREDICTED BY IDOCK:  -10.00 KCAL/MOL
REMARK 924 INTRA-LIGAND FREE ENERGY PREDICTED BY IDOCK:   -1.92 KCAL/MOL
REMARK 927      BINDING AFFINITY PREDICTED BY RF-SCORE:    0.00 PKD
ROOT
HETATM    1  N   UNL     1     -10.455  11.151  62.901  1.00  0.00    -0.778 NA 
HETATM    2  C   UNL     1      -9.137  10.827  62.348  1.00  0.00    -0.292 C  
HETATM    3  H1  UNL     1     -10.995  11.836  62.373  1.00  0.00     0.000 HD 
HETATM    4  H2  UNL     1     -10.362  11.453  63.871  1.00  0.00     0.000 HD 
ENDROOT
BRANCH   2   5
HETATM    5  C   UNL     1      -8.315   9.785  63.152  1.00  0.00    -0.166 C  
HETATM    6  O   UNL     1      -8.278  10.045  64.579  1.00  0.00    -0.150 OA 
HETATM    7  C   UNL     1      -7.609   8.974  65.268  1.00  0.00    -0.098 C  
HETATM    8  C   UNL     1      -6.116   8.879  64.811  1.00  0.00    -0.065 C  
HETATM    9  O   UNL     1      -6.305  11.093  62.713  1.00  0.00    -0.350 OA 
HETATM   10  H   UNL     1      -5.421  11.091  62.363  1.00  0.00     0.000 HD 
HETATM   11  N   UNL     1      -5.348  10.080  65.278  1.00  0.00    -0.056 NA 
HETATM   12  C   UNL     1      -6.024   8.723  63.294  1.00  0.00    -0.085 C  
HETATM   13  H2  UNL     1      -5.429  10.214  66.287  1.00  0.00     0.000 HD 
HETATM   14  O   UNL     1      -6.390   7.405  62.865  1.00  0.00    -0.053 OA 
HETATM   15  C   UNL     1      -6.875   9.782  62.580  1.00  0.00    -0.111 C  
HETATM   16  H1  UNL     1      -4.375  10.018  64.980  1.00  0.00     0.000 HD 
HETATM   17  H   UNL     1      -6.333   7.308  61.921  1.00  0.00     0.000 HD 
BRANCH   7  18
HETATM   18  O   UNL     1      -7.476   9.181  66.663  1.00  0.00    -0.085 OA 
BRANCH  18  19
HETATM   19  C   UNL     1      -8.606   9.066  67.517  1.00  0.00    -0.120 C  
HETATM   20  O   UNL     1      -8.489  11.542  67.641  1.00  0.00    -0.128 OA 
HETATM   21  C   UNL     1      -9.664   8.502  66.561  1.00  0.00    -0.260 C  
HETATM   22  C   UNL     1     -10.644  10.410  67.396  1.00  0.00    -0.269 C  
HETATM   23  H   UNL     1      -8.878  12.349  67.959  1.00  0.00     0.000 HD 
HETATM   24  O   UNL     1     -10.550   9.586  66.233  1.00  0.00    -0.117 OA 
HETATM   25  C   UNL     1      -9.237  10.376  68.034  1.00  0.00    -0.140 C  
BRANCH  21  26
HETATM   26  C   UNL     1     -10.420   7.291  67.114  1.00  0.00    -0.324 C  
HETATM   27  H   UNL     1     -10.233   5.961  68.578  1.00  0.00     0.000 HD 
HETATM   28  O   UNL     1      -9.765   6.712  68.235  1.00  0.00    -0.131 OA 
ENDBRANCH  21  26
BRANCH  22  29
HETATM   29  O   UNL     1     -11.652   9.908  68.283  1.00  0.00    -0.019 OA 
BRANCH  29  30
HETATM   30  C   UNL     1     -11.470  10.153  69.720  1.00  0.00    -0.228 C  
HETATM   31  C   UNL     1     -11.522   8.822  70.514  1.00  0.00    -0.196 C  
HETATM   32  O   UNL     1     -10.185   8.284  70.609  1.00  0.00    -0.190 OA 
HETATM   33  C   UNL     1     -12.106   8.831  71.936  1.00  0.00    -0.363 C  
HETATM   34  C   UNL     1     -13.122   9.933  72.177  1.00  0.00    -0.497 C  
HETATM   35  N   UNL     1     -12.755   7.525  72.220  1.00  0.00    -0.512 NA 
HETATM   36  H   UNL     1     -10.218   7.468  71.096  1.00  0.00     0.000 HD 
HETATM   37  H1  UNL     1     -13.142   7.531  73.163  1.00  0.00     0.000 HD 
HETATM   38  H2  UNL     1     -12.121   6.741  72.070  1.00  0.00     0.000 HD 
HETATM   39  C   UNL     1     -12.536  11.285  71.775  1.00  0.00    -0.161 C  
HETATM   40  C   UNL     1     -12.334  11.335  70.239  1.00  0.00    -0.307 C  
HETATM   41  N   UNL     1     -13.452  12.350  72.238  1.00  0.00    -0.564 NA 
HETATM   42  H2  UNL     1     -13.650  12.291  73.237  1.00  0.00     0.000 HD 
HETATM   43  H1  UNL     1     -13.061  13.253  71.969  1.00  0.00     0.000 HD 
BRANCH  40  44
HETATM   44  O   UNL     1     -11.736  12.619  69.932  1.00  0.00    -0.301 OA 
BRANCH  44  45
HETATM   45  C   UNL     1     -12.649  13.639  69.517  1.00  0.00     0.141 C  
HETATM   46  O   UNL     1     -12.860  14.610  70.545  1.00  0.00    -0.353 OA 
HETATM   47  C   UNL     1     -11.683  15.362  70.873  1.00  0.00    -0.354 C  
HETATM   48  C   UNL     1     -11.122  16.100  69.648  1.00  0.00    -0.344 C  
HETATM   49  H1  UNL     1     -11.567  13.767  66.252  1.00  0.00     0.000 HD 
HETATM   50  O   UNL     1      -9.915  16.815  69.948  1.00  0.00     0.059 OA 
HETATM   51  H2  UNL     1     -12.747  12.785  66.931  1.00  0.00     0.000 HD 
HETATM   52  C   UNL     1     -10.851  15.099  68.515  1.00  0.00    -0.247 C  
HETATM   53  H   UNL     1      -9.569  17.272  69.190  1.00  0.00     0.000 HD 
HETATM   54  O   UNL     1     -10.423  15.806  67.338  1.00  0.00    -0.283 OA 
HETATM   55  C   UNL     1     -12.132  14.302  68.209  1.00  0.00    -0.243 C  
HETATM   56  N   UNL     1     -11.905  13.333  67.110  1.00  0.00    -0.372 NA 
HETATM   57  H   UNL     1     -10.256  15.186  66.637  1.00  0.00     0.000 HD 
BRANCH  47  58
HETATM   58  C   UNL     1     -12.020  16.301  72.052  1.00  0.00    -0.467 C  
HETATM   59  H1  UNL     1     -12.866  16.261  73.983  1.00  0.00     0.000 HD 
HETATM   60  N   UNL     1     -12.643  15.640  73.204  1.00  0.00    -0.420 NA 
HETATM   61  H2  UNL     1     -12.062  14.864  73.524  1.00  0.00     0.000 HD 
ENDBRANCH  47  58
ENDBRANCH  44  45
ENDBRANCH  40  44
ENDBRANCH  29  30
ENDBRANCH  22  29
ENDBRANCH  18  19
ENDBRANCH   7  18
ENDBRANCH   2   5
TORSDOF 9
ENDMDL
MODEL       80
REMARK 921   NORMALIZED FREE ENERGY PREDICTED BY IDOCK:   -5.93 KCAL/MOL
REMARK 922        TOTAL FREE ENERGY PREDICTED BY IDOCK:  -11.87 KCAL/MOL
REMARK 923 INTER-LIGAND FREE ENERGY PREDICTED BY IDOCK:   -9.49 KCAL/MOL
REMARK 924 INTRA-LIGAND FREE ENERGY PREDICTED BY IDOCK:   -2.37 KCAL/MOL
REMARK 927      BINDING AFFINITY PREDICTED BY RF-SCORE:    0.00 PKD
ROOT
HETATM    1  N   UNL     1      -8.176   7.299  63.518  1.00  0.00    -0.349 NA 
HETATM    2  C   UNL     1      -8.147   6.009  62.823  1.00  0.00    -0.097 C  
HETATM    3  H1  UNL     1      -7.723   8.070  63.030  1.00  0.00     0.000 HD 
HETATM    4  H2  UNL     1      -7.782   7.200  64.454  1.00  0.00     0.000 HD 
ENDROOT
BRANCH   2   5
HETATM    5  C   UNL     1      -8.836   4.835  63.567  1.00  0.00    -0.104 C  
HETATM    6  O   UNL     1      -9.143   5.123  64.956  1.00  0.00    -0.147 OA 
HETATM    7  C   UNL     1      -9.890   4.041  65.540  1.00  0.00    -0.186 C  
HETATM    8  C   UNL     1      -9.036   2.731  65.552  1.00  0.00    -0.137 C  
HETATM    9  O   UNL     1      -6.635   3.927  64.088  1.00  0.00    -0.040 OA 
HETATM   10  H   UNL     1      -6.057   3.173  64.034  1.00  0.00     0.000 HD 
HETATM   11  N   UNL     1      -7.884   2.866  66.503  1.00  0.00    -0.076 NA 
HETATM   12  C   UNL     1      -8.549   2.390  64.144  1.00  0.00    -0.087 C  
HETATM   13  H2  UNL     1      -8.193   3.126  67.440  1.00  0.00     0.000 HD 
HETATM   14  O   UNL     1      -9.602   1.868  63.323  1.00  0.00    -0.092 OA 
HETATM   15  C   UNL     1      -7.895   3.607  63.479  1.00  0.00    -0.075 C  
HETATM   16  H1  UNL     1      -7.327   2.012  66.511  1.00  0.00     0.000 HD 
HETATM   17  H   UNL     1      -9.300   1.656  62.447  1.00  0.00     0.000 HD 
BRANCH   7  18
HETATM   18  O   UNL     1     -10.177   4.217  66.916  1.00  0.00    -0.092 OA 
BRANCH  18  19
HETATM   19  C   UNL     1      -9.582   5.284  67.643  1.00  0.00    -0.132 C  
HETATM   20  O   UNL     1     -11.642   6.539  67.058  1.00  0.00    -0.729 OA 
HETATM   21  C   UNL     1      -9.541   4.709  69.064  1.00  0.00    -0.172 C  
HETATM   22  C   UNL     1     -10.694   6.685  69.309  1.00  0.00    -0.265 C  
HETATM   23  H   UNL     1     -12.149   7.337  67.151  1.00  0.00     0.000 HD 
HETATM   24  O   UNL     1     -10.594   5.349  69.804  1.00  0.00    -0.309 OA 
HETATM   25  C   UNL     1     -10.405   6.580  67.794  1.00  0.00    -0.192 C  
BRANCH  21  26
HETATM   26  C   UNL     1      -8.183   4.855  69.756  1.00  0.00    -0.073 C  
HETATM   27  H   UNL     1      -6.348   4.109  69.606  1.00  0.00     0.000 HD 
HETATM   28  O   UNL     1      -7.190   4.019  69.177  1.00  0.00    -0.052 OA 
ENDBRANCH  21  26
BRANCH  22  29
HETATM   29  O   UNL     1      -9.758   7.539  69.979  1.00  0.00    -0.171 OA 
BRANCH  29  30
HETATM   30  C   UNL     1     -10.286   8.755  70.610  1.00  0.00    -0.202 C  
HETATM   31  C   UNL     1     -11.144   8.400  71.853  1.00  0.00    -0.308 C  
HETATM   32  O   UNL     1     -10.288   8.372  73.017  1.00  0.00    -0.192 OA 
HETATM   33  C   UNL     1     -12.347   9.292  72.201  1.00  0.00    -0.328 C  
HETATM   34  C   UNL     1     -12.950  10.005  71.005  1.00  0.00    -0.445 C  
HETATM   35  N   UNL     1     -13.408   8.474  72.842  1.00  0.00    -0.703 NA 
HETATM   36  H   UNL     1     -10.814   8.155  73.778  1.00  0.00     0.000 HD 
HETATM   37  H1  UNL     1     -14.206   9.066  73.073  1.00  0.00     0.000 HD 
HETATM   38  H2  UNL     1     -13.061   7.963  73.654  1.00  0.00     0.000 HD 
HETATM   39  C   UNL     1     -11.864  10.759  70.239  1.00  0.00    -0.349 C  
HETATM   40  C   UNL     1     -10.889   9.750  69.580  1.00  0.00    -0.250 C  
HETATM   41  N   UNL     1     -12.514  11.623  69.230  1.00  0.00    -0.122 NA 
HETATM   42  H2  UNL     1     -13.210  12.248  69.639  1.00  0.00     0.000 HD 
HETATM   43  H1  UNL     1     -11.789  12.126  68.719  1.00  0.00     0.000 HD 
BRANCH  40  44
HETATM   44  O   UNL     1      -9.863  10.526  68.913  1.00  0.00    -0.183 OA 
BRANCH  44  45
HETATM   45  C   UNL     1      -9.690  10.249  67.521  1.00  0.00    -0.169 C  
HETATM   46  O   UNL     1     -10.661  10.931  66.722  1.00  0.00    -0.258 OA 
HETATM   47  C   UNL     1     -10.542  12.359  66.771  1.00  0.00    -0.226 C  
HETATM   48  C   UNL     1      -9.154  12.829  66.311  1.00  0.00    -0.024 C  
HETATM   49  H1  UNL     1      -6.251  10.170  67.603  1.00  0.00     0.000 HD 
HETATM   50  O   UNL     1      -9.002  14.252  66.404  1.00  0.00    -0.448 OA 
HETATM   51  H2  UNL     1      -7.338   8.918  67.867  1.00  0.00     0.000 HD 
HETATM   52  C   UNL     1      -8.067  12.146  67.154  1.00  0.00    -0.175 C  
HETATM   53  H   UNL     1      -8.144  14.543  66.118  1.00  0.00     0.000 HD 
HETATM   54  O   UNL     1      -6.769  12.509  66.655  1.00  0.00    -0.408 OA 
HETATM   55  C   UNL     1      -8.243  10.618  67.090  1.00  0.00    -0.121 C  
HETATM   56  N   UNL     1      -7.201   9.929  67.887  1.00  0.00    -0.086 NA 
HETATM   57  H   UNL     1      -6.096  12.086  67.176  1.00  0.00     0.000 HD 
BRANCH  47  58
HETATM   58  C   UNL     1     -11.699  12.972  65.949  1.00  0.00    -0.394 C  
HETATM   59  H1  UNL     1     -13.182  14.464  66.077  1.00  0.00     0.000 HD 
HETATM   60  N   UNL     1     -12.418  14.061  66.620  1.00  0.00    -0.523 NA 
HETATM   61  H2  UNL     1     -11.766  14.789  66.911  1.00  0.00     0.000 HD 
ENDBRANCH  47  58
ENDBRANCH  44  45
ENDBRANCH  40  44
ENDBRANCH  29  30
ENDBRANCH  22  29
ENDBRANCH  18  19
ENDBRANCH   7  18
ENDBRANCH   2   5
TORSDOF 9
ENDMDL
MODEL       81
REMARK 921   NORMALIZED FREE ENERGY PREDICTED BY IDOCK:   -5.91 KCAL/MOL
REMARK 922        TOTAL FREE ENERGY PREDICTED BY IDOCK:  -11.83 KCAL/MOL
REMARK 923 INTER-LIGAND FREE ENERGY PREDICTED BY IDOCK:   -9.72 KCAL/MOL
REMARK 924 INTRA-LIGAND FREE ENERGY PREDICTED BY IDOCK:   -2.11 KCAL/MOL
REMARK 927      BINDING AFFINITY PREDICTED BY RF-SCORE:    0.00 PKD
ROOT
HETATM    1  N   UNL     1     -10.162  11.637  62.712  1.00  0.00    -0.589 NA 
HETATM    2  C   UNL     1      -8.824  11.177  62.332  1.00  0.00    -0.273 C  
HETATM    3  H1  UNL     1     -10.539  12.400  62.151  1.00  0.00     0.000 HD 
HETATM    4  H2  UNL     1     -10.177  11.892  63.700  1.00  0.00     0.000 HD 
ENDROOT
BRANCH   2   5
HETATM    5  C   UNL     1      -8.250  10.017  63.188  1.00  0.00    -0.159 C  
HETATM    6  O   UNL     1      -8.223  10.298  64.612  1.00  0.00    -0.160 OA 
HETATM    7  C   UNL     1      -7.800   9.136  65.346  1.00  0.00    -0.100 C  
HETATM    8  C   UNL     1      -6.336   8.747  64.957  1.00  0.00    -0.064 C  
HETATM    9  O   UNL     1      -6.011  10.906  62.819  1.00  0.00    -0.312 OA 
HETATM   10  H   UNL     1      -5.130  10.727  62.509  1.00  0.00     0.000 HD 
HETATM   11  N   UNL     1      -5.372   9.790  65.440  1.00  0.00    -0.047 NA 
HETATM   12  C   UNL     1      -6.214   8.541  63.448  1.00  0.00    -0.081 C  
HETATM   13  H2  UNL     1      -5.466   9.961  66.441  1.00  0.00     0.000 HD 
HETATM   14  O   UNL     1      -6.808   7.307  63.024  1.00  0.00    -0.052 OA 
HETATM   15  C   UNL     1      -6.816   9.725  62.681  1.00  0.00    -0.111 C  
HETATM   16  H1  UNL     1      -4.417   9.537  65.186  1.00  0.00     0.000 HD 
HETATM   17  H   UNL     1      -6.731   7.179  62.085  1.00  0.00     0.000 HD 
BRANCH   7  18
HETATM   18  O   UNL     1      -7.687   9.347  66.742  1.00  0.00    -0.097 OA 
BRANCH  18  19
HETATM   19  C   UNL     1      -8.847   9.582  67.529  1.00  0.00    -0.125 C  
HETATM   20  O   UNL     1      -8.390  11.982  67.090  1.00  0.00    -0.167 OA 
HETATM   21  C   UNL     1      -9.944   8.950  66.665  1.00  0.00    -0.276 C  
HETATM   22  C   UNL     1     -10.673  11.109  66.979  1.00  0.00    -0.268 C  
HETATM   23  H   UNL     1      -8.672  12.883  67.190  1.00  0.00     0.000 HD 
HETATM   24  O   UNL     1     -10.660  10.030  66.044  1.00  0.00    -0.120 OA 
HETATM   25  C   UNL     1      -9.304  11.047  67.693  1.00  0.00    -0.157 C  
BRANCH  21  26
HETATM   26  C   UNL     1     -10.877   8.010  67.433  1.00  0.00    -0.076 C  
HETATM   27  H   UNL     1     -10.876   6.147  68.124  1.00  0.00     0.000 HD 
HETATM   28  O   UNL     1     -10.297   6.730  67.647  1.00  0.00    -0.163 OA 
ENDBRANCH  21  26
BRANCH  22  29
HETATM   29  O   UNL     1     -11.767  10.965  67.895  1.00  0.00    -0.557 OA 
BRANCH  29  30
HETATM   30  C   UNL     1     -11.604  11.535  69.238  1.00  0.00    -0.322 C  
HETATM   31  C   UNL     1     -11.536  10.413  70.306  1.00  0.00    -0.325 C  
HETATM   32  O   UNL     1     -10.156  10.026  70.488  1.00  0.00    -0.376 OA 
HETATM   33  C   UNL     1     -12.114  10.685  71.704  1.00  0.00    -0.028 C  
HETATM   34  C   UNL     1     -13.224  11.721  71.720  1.00  0.00    -0.434 C  
HETATM   35  N   UNL     1     -12.644   9.423  72.282  1.00  0.00    -0.340 NA 
HETATM   36  H   UNL     1     -10.115   9.339  71.142  1.00  0.00     0.000 HD 
HETATM   37  H1  UNL     1     -13.028   9.605  73.209  1.00  0.00     0.000 HD 
HETATM   38  H2  UNL     1     -11.943   8.683  72.294  1.00  0.00     0.000 HD 
HETATM   39  C   UNL     1     -12.762  12.997  71.018  1.00  0.00    -0.262 C  
HETATM   40  C   UNL     1     -12.569  12.724  69.504  1.00  0.00     0.432 C  
HETATM   41  N   UNL     1     -13.768  14.055  71.254  1.00  0.00    -0.228 NA 
HETATM   42  H2  UNL     1     -13.957  14.200  72.246  1.00  0.00     0.000 HD 
HETATM   43  H1  UNL     1     -13.459  14.906  70.786  1.00  0.00     0.000 HD 
BRANCH  40  44
HETATM   44  O   UNL     1     -12.088  13.955  68.909  1.00  0.00    -0.351 OA 
BRANCH  44  45
HETATM   45  C   UNL     1     -10.675  14.161  68.980  1.00  0.00    -0.231 C  
HETATM   46  O   UNL     1     -10.075  14.160  67.682  1.00  0.00    -0.233 OA 
HETATM   47  C   UNL     1     -10.506  15.248  66.852  1.00  0.00    -0.289 C  
HETATM   48  C   UNL     1     -10.205  16.608  67.498  1.00  0.00    -0.289 C  
HETATM   49  H1  UNL     1     -10.776  16.393  71.597  1.00  0.00     0.000 HD 
HETATM   50  O   UNL     1     -10.676  17.705  66.704  1.00  0.00    -0.254 OA 
HETATM   51  H2  UNL     1     -10.682  14.717  71.647  1.00  0.00     0.000 HD 
HETATM   52  C   UNL     1     -10.848  16.676  68.891  1.00  0.00    -0.321 C  
HETATM   53  H   UNL     1     -10.490  18.547  67.104  1.00  0.00     0.000 HD 
HETATM   54  O   UNL     1     -10.480  17.909  69.534  1.00  0.00    -0.358 OA 
HETATM   55  C   UNL     1     -10.376  15.482  69.741  1.00  0.00    -0.309 C  
HETATM   56  N   UNL     1     -10.973  15.526  71.097  1.00  0.00    -0.309 NA 
HETATM   57  H   UNL     1     -10.878  17.950  70.396  1.00  0.00     0.000 HD 
BRANCH  47  58
HETATM   58  C   UNL     1      -9.862  15.078  65.457  1.00  0.00    -0.317 C  
HETATM   59  H1  UNL     1      -9.602  13.635  63.942  1.00  0.00     0.000 HD 
HETATM   60  N   UNL     1     -10.027  13.746  64.864  1.00  0.00    -0.620 NA 
HETATM   61  H2  UNL     1     -11.015  13.493  64.831  1.00  0.00     0.000 HD 
ENDBRANCH  47  58
ENDBRANCH  44  45
ENDBRANCH  40  44
ENDBRANCH  29  30
ENDBRANCH  22  29
ENDBRANCH  18  19
ENDBRANCH   7  18
ENDBRANCH   2   5
TORSDOF 9
ENDMDL
MODEL       82
REMARK 921   NORMALIZED FREE ENERGY PREDICTED BY IDOCK:   -5.90 KCAL/MOL
REMARK 922        TOTAL FREE ENERGY PREDICTED BY IDOCK:  -11.82 KCAL/MOL
REMARK 923 INTER-LIGAND FREE ENERGY PREDICTED BY IDOCK:  -10.75 KCAL/MOL
REMARK 924 INTRA-LIGAND FREE ENERGY PREDICTED BY IDOCK:   -1.07 KCAL/MOL
REMARK 927      BINDING AFFINITY PREDICTED BY RF-SCORE:    0.00 PKD
ROOT
HETATM    1  N   UNL     1     -11.372   6.055  66.531  1.00  0.00    -0.694 NA 
HETATM    2  C   UNL     1     -10.310   5.323  67.227  1.00  0.00    -0.199 C  
HETATM    3  H1  UNL     1     -12.243   5.541  66.398  1.00  0.00     0.000 HD 
HETATM    4  H2  UNL     1     -11.030   6.399  65.635  1.00  0.00     0.000 HD 
ENDROOT
BRANCH   2   5
HETATM    5  C   UNL     1      -8.985   6.104  67.429  1.00  0.00    -0.112 C  
HETATM    6  O   UNL     1      -8.546   6.826  66.250  1.00  0.00    -0.127 OA 
HETATM    7  C   UNL     1      -7.387   7.623  66.550  1.00  0.00    -0.087 C  
HETATM    8  C   UNL     1      -6.187   6.709  66.965  1.00  0.00    -0.040 C  
HETATM    9  O   UNL     1      -7.752   4.087  66.834  1.00  0.00    -0.086 OA 
HETATM   10  H   UNL     1      -7.086   3.461  67.096  1.00  0.00     0.000 HD 
HETATM   11  N   UNL     1      -5.716   5.901  65.792  1.00  0.00    -0.019 NA 
HETATM   12  C   UNL     1      -6.575   5.806  68.135  1.00  0.00    -0.049 C  
HETATM   13  H2  UNL     1      -5.485   6.490  64.992  1.00  0.00     0.000 HD 
HETATM   14  O   UNL     1      -6.640   6.527  69.372  1.00  0.00    -0.041 OA 
HETATM   15  C   UNL     1      -7.900   5.084  67.857  1.00  0.00    -0.090 C  
HETATM   16  H1  UNL     1      -4.934   5.305  66.062  1.00  0.00     0.000 HD 
HETATM   17  H   UNL     1      -6.881   5.965  70.100  1.00  0.00     0.000 HD 
BRANCH   7  18
HETATM   18  O   UNL     1      -6.857   8.314  65.433  1.00  0.00    -0.061 OA 
BRANCH  18  19
HETATM   19  C   UNL     1      -7.100   9.704  65.266  1.00  0.00    -0.109 C  
HETATM   20  O   UNL     1      -9.187   8.979  64.135  1.00  0.00    -0.405 OA 
HETATM   21  C   UNL     1      -7.263  10.169  66.718  1.00  0.00    -0.093 C  
HETATM   22  C   UNL     1      -9.210  10.858  65.703  1.00  0.00    -0.203 C  
HETATM   23  H   UNL     1     -10.006   9.231  63.724  1.00  0.00     0.000 HD 
HETATM   24  O   UNL     1      -8.669  10.377  66.934  1.00  0.00    -0.127 OA 
HETATM   25  C   UNL     1      -8.429  10.113  64.596  1.00  0.00    -0.173 C  
BRANCH  21  26
HETATM   26  C   UNL     1      -6.439  11.410  67.070  1.00  0.00    -0.120 C  
HETATM   27  H   UNL     1      -4.851  12.387  66.382  1.00  0.00     0.000 HD 
HETATM   28  O   UNL     1      -5.363  11.617  66.164  1.00  0.00    -0.304 OA 
ENDBRANCH  21  26
BRANCH  22  29
HETATM   29  O   UNL     1      -9.055  12.280  65.609  1.00  0.00     0.003 OA 
BRANCH  29  30
HETATM   30  C   UNL     1     -10.262  13.102  65.758  1.00  0.00    -0.289 C  
HETATM   31  C   UNL     1     -11.536  12.255  65.507  1.00  0.00    -0.371 C  
HETATM   32  O   UNL     1     -11.974  11.689  66.762  1.00  0.00    -0.536 OA 
HETATM   33  C   UNL     1     -12.761  12.931  64.868  1.00  0.00    -0.403 C  
HETATM   34  C   UNL     1     -12.418  14.118  63.986  1.00  0.00    -0.206 C  
HETATM   35  N   UNL     1     -13.510  11.942  64.051  1.00  0.00    -0.421 NA 
HETATM   36  H   UNL     1     -12.755  11.171  66.608  1.00  0.00     0.000 HD 
HETATM   37  H1  UNL     1     -14.322  12.391  63.628  1.00  0.00     0.000 HD 
HETATM   38  H2  UNL     1     -13.766  11.115  64.589  1.00  0.00     0.000 HD 
HETATM   39  C   UNL     1     -11.536  15.104  64.752  1.00  0.00    -0.364 C  
HETATM   40  C   UNL     1     -10.149  14.468  65.024  1.00  0.00    -0.290 C  
HETATM   41  N   UNL     1     -11.417  16.345  63.955  1.00  0.00    -1.618 NA 
HETATM   42  H2  UNL     1     -12.324  16.740  63.708  1.00  0.00     0.000 HD 
HETATM   43  H1  UNL     1     -10.828  17.002  64.466  1.00  0.00     0.000 HD 
BRANCH  40  44
HETATM   44  O   UNL     1      -9.384  15.431  65.789  1.00  0.00    -0.325 OA 
BRANCH  44  45
HETATM   45  C   UNL     1     -10.155  16.357  66.560  1.00  0.00    -0.295 C  
HETATM   46  O   UNL     1     -10.920  15.694  67.569  1.00  0.00    -0.316 OA 
HETATM   47  C   UNL     1     -10.116  15.052  68.569  1.00  0.00    -0.225 C  
HETATM   48  C   UNL     1      -9.186  16.050  69.275  1.00  0.00    -0.243 C  
HETATM   49  H1  UNL     1      -7.793  18.860  66.566  1.00  0.00     0.000 HD 
HETATM   50  O   UNL     1      -8.338  15.415  70.242  1.00  0.00     0.026 OA 
HETATM   51  H2  UNL     1      -9.005  18.560  65.444  1.00  0.00     0.000 HD 
HETATM   52  C   UNL     1      -8.318  16.777  68.238  1.00  0.00    -0.213 C  
HETATM   53  H   UNL     1      -7.763  16.033  70.679  1.00  0.00     0.000 HD 
HETATM   54  O   UNL     1      -7.522  17.781  68.891  1.00  0.00    -0.275 OA 
HETATM   55  C   UNL     1      -9.218  17.433  67.175  1.00  0.00    -0.237 C  
HETATM   56  N   UNL     1      -8.408  18.153  66.163  1.00  0.00    -0.482 NA 
HETATM   57  H   UNL     1      -6.985  18.231  68.249  1.00  0.00     0.000 HD 
BRANCH  47  58
HETATM   58  C   UNL     1     -11.055  14.300  69.539  1.00  0.00    -0.204 C  
HETATM   59  H1  UNL     1     -12.707  12.991  69.526  1.00  0.00     0.000 HD 
HETATM   60  N   UNL     1     -12.087  13.487  68.886  1.00  0.00    -0.327 NA 
HETATM   61  H2  UNL     1     -11.659  12.834  68.228  1.00  0.00     0.000 HD 
ENDBRANCH  47  58
ENDBRANCH  44  45
ENDBRANCH  40  44
ENDBRANCH  29  30
ENDBRANCH  22  29
ENDBRANCH  18  19
ENDBRANCH   7  18
ENDBRANCH   2   5
TORSDOF 9
ENDMDL
MODEL       83
REMARK 921   NORMALIZED FREE ENERGY PREDICTED BY IDOCK:   -5.88 KCAL/MOL
REMARK 922        TOTAL FREE ENERGY PREDICTED BY IDOCK:  -11.79 KCAL/MOL
REMARK 923 INTER-LIGAND FREE ENERGY PREDICTED BY IDOCK:  -10.20 KCAL/MOL
REMARK 924 INTRA-LIGAND FREE ENERGY PREDICTED BY IDOCK:   -1.59 KCAL/MOL
REMARK 927      BINDING AFFINITY PREDICTED BY RF-SCORE:    0.00 PKD
ROOT
HETATM    1  N   UNL     1      -6.102  15.385  67.262  1.00  0.00    -0.313 NA 
HETATM    2  C   UNL     1      -6.674  16.441  68.103  1.00  0.00    -0.132 C  
HETATM    3  H1  UNL     1      -5.094  15.254  67.348  1.00  0.00     0.000 HD 
HETATM    4  H2  UNL     1      -6.351  15.543  66.286  1.00  0.00     0.000 HD 
ENDROOT
BRANCH   2   5
HETATM    5  C   UNL     1      -8.206  16.640  67.972  1.00  0.00    -0.185 C  
HETATM    6  O   UNL     1      -8.910  15.466  67.489  1.00  0.00    -0.172 OA 
HETATM    7  C   UNL     1     -10.331  15.685  67.514  1.00  0.00    -0.277 C  
HETATM    8  C   UNL     1     -10.723  16.848  66.546  1.00  0.00    -0.087 C  
HETATM    9  O   UNL     1      -7.858  17.534  65.731  1.00  0.00    -0.544 OA 
HETATM   10  H   UNL     1      -8.004  18.264  65.139  1.00  0.00     0.000 HD 
HETATM   11  N   UNL     1     -10.494  16.440  65.120  1.00  0.00    -0.657 NA 
HETATM   12  C   UNL     1      -9.945  18.119  66.885  1.00  0.00    -0.342 C  
HETATM   13  H2  UNL     1     -10.981  15.574  64.889  1.00  0.00     0.000 HD 
HETATM   14  O   UNL     1     -10.440  18.751  68.074  1.00  0.00    -0.380 OA 
HETATM   15  C   UNL     1      -8.444  17.830  67.008  1.00  0.00    -0.231 C  
HETATM   16  H1  UNL     1     -10.749  17.199  64.488  1.00  0.00     0.000 HD 
HETATM   17  H   UNL     1      -9.956  19.541  68.285  1.00  0.00     0.000 HD 
BRANCH   7  18
HETATM   18  O   UNL     1     -11.089  14.605  66.999  1.00  0.00    -0.315 OA 
BRANCH  18  19
HETATM   19  C   UNL     1     -10.440  13.434  66.524  1.00  0.00    -0.283 C  
HETATM   20  O   UNL     1     -10.082  12.924  68.926  1.00  0.00    -0.418 OA 
HETATM   21  C   UNL     1     -11.599  12.683  65.856  1.00  0.00    -0.396 C  
HETATM   22  C   UNL     1     -10.767  11.164  67.371  1.00  0.00    -0.250 C  
HETATM   23  H   UNL     1      -9.761  12.311  69.578  1.00  0.00     0.000 HD 
HETATM   24  O   UNL     1     -11.968  11.612  66.741  1.00  0.00    -0.536 OA 
HETATM   25  C   UNL     1      -9.918  12.438  67.581  1.00  0.00    -0.200 C  
BRANCH  21  26
HETATM   26  C   UNL     1     -11.282  12.179  64.446  1.00  0.00    -0.341 C  
HETATM   27  H   UNL     1      -9.976  12.541  62.993  1.00  0.00     0.000 HD 
HETATM   28  O   UNL     1     -10.173  12.854  63.868  1.00  0.00    -0.383 OA 
ENDBRANCH  21  26
BRANCH  22  29
HETATM   29  O   UNL     1     -10.100  10.200  66.547  1.00  0.00    -0.215 OA 
BRANCH  29  30
HETATM   30  C   UNL     1      -8.699   9.894  66.865  1.00  0.00    -0.128 C  
HETATM   31  C   UNL     1      -7.758  10.410  65.746  1.00  0.00    -0.146 C  
HETATM   32  O   UNL     1      -7.356  11.761  66.062  1.00  0.00    -0.281 OA 
HETATM   33  C   UNL     1      -6.475   9.621  65.435  1.00  0.00    -0.080 C  
HETATM   34  C   UNL     1      -6.566   8.143  65.768  1.00  0.00    -0.052 C  
HETATM   35  N   UNL     1      -6.141   9.757  63.994  1.00  0.00    -0.107 NA 
HETATM   36  H   UNL     1      -6.779  12.077  65.376  1.00  0.00     0.000 HD 
HETATM   37  H1  UNL     1      -5.289   9.234  63.788  1.00  0.00     0.000 HD 
HETATM   38  H2  UNL     1      -6.070  10.733  63.706  1.00  0.00     0.000 HD 
HETATM   39  C   UNL     1      -7.034   7.957  67.211  1.00  0.00    -0.074 C  
HETATM   40  C   UNL     1      -8.503   8.431  67.352  1.00  0.00    -0.124 C  
HETATM   41  N   UNL     1      -6.887   6.530  67.572  1.00  0.00    -0.073 NA 
HETATM   42  H2  UNL     1      -5.939   6.184  67.420  1.00  0.00     0.000 HD 
HETATM   43  H1  UNL     1      -7.199   6.407  68.535  1.00  0.00     0.000 HD 
BRANCH  40  44
HETATM   44  O   UNL     1      -8.866   8.272  68.746  1.00  0.00    -0.136 OA 
BRANCH  44  45
HETATM   45  C   UNL     1      -8.872   9.474  69.521  1.00  0.00    -0.179 C  
HETATM   46  O   UNL     1     -10.068   9.598  70.294  1.00  0.00    -0.243 OA 
HETATM   47  C   UNL     1     -10.210   8.582  71.297  1.00  0.00    -0.223 C  
HETATM   48  C   UNL     1      -9.026   8.582  72.275  1.00  0.00    -0.229 C  
HETATM   49  H1  UNL     1      -5.510   9.433  70.255  1.00  0.00     0.000 HD 
HETATM   50  O   UNL     1      -9.128   7.537  73.253  1.00  0.00    -0.152 OA 
HETATM   51  H2  UNL     1      -6.289  10.110  68.931  1.00  0.00     0.000 HD 
HETATM   52  C   UNL     1      -7.710   8.424  71.500  1.00  0.00    -0.103 C  
HETATM   53  H   UNL     1      -8.396   7.537  73.858  1.00  0.00     0.000 HD 
HETATM   54  O   UNL     1      -6.599   8.526  72.407  1.00  0.00    -0.088 OA 
HETATM   55  C   UNL     1      -7.607   9.520  70.423  1.00  0.00    -0.159 C  
HETATM   56  N   UNL     1      -6.340   9.402  69.663  1.00  0.00    -0.039 NA 
HETATM   57  H   UNL     1      -5.785   8.429  71.927  1.00  0.00     0.000 HD 
BRANCH  47  58
HETATM   58  C   UNL     1     -11.578   8.773  71.992  1.00  0.00    -0.366 C  
HETATM   59  H1  UNL     1     -13.011   7.696  73.101  1.00  0.00     0.000 HD 
HETATM   60  N   UNL     1     -12.107   7.570  72.643  1.00  0.00    -0.558 NA 
HETATM   61  H2  UNL     1     -11.425   7.194  73.301  1.00  0.00     0.000 HD 
ENDBRANCH  47  58
ENDBRANCH  44  45
ENDBRANCH  40  44
ENDBRANCH  29  30
ENDBRANCH  22  29
ENDBRANCH  18  19
ENDBRANCH   7  18
ENDBRANCH   2   5
TORSDOF 9
ENDMDL
MODEL       84
REMARK 921   NORMALIZED FREE ENERGY PREDICTED BY IDOCK:   -5.82 KCAL/MOL
REMARK 922        TOTAL FREE ENERGY PREDICTED BY IDOCK:  -11.70 KCAL/MOL
REMARK 923 INTER-LIGAND FREE ENERGY PREDICTED BY IDOCK:  -10.06 KCAL/MOL
REMARK 924 INTRA-LIGAND FREE ENERGY PREDICTED BY IDOCK:   -1.63 KCAL/MOL
REMARK 927      BINDING AFFINITY PREDICTED BY RF-SCORE:    0.00 PKD
ROOT
HETATM    1  N   UNL     1      -7.167  10.885  70.188  1.00  0.00    -0.454 NA 
HETATM    2  C   UNL     1      -7.548   9.470  70.141  1.00  0.00    -0.142 C  
HETATM    3  H1  UNL     1      -6.918  11.241  71.110  1.00  0.00     0.000 HD 
HETATM    4  H2  UNL     1      -7.905  11.458  69.779  1.00  0.00     0.000 HD 
ENDROOT
BRANCH   2   5
HETATM    5  C   UNL     1      -7.927   8.928  68.738  1.00  0.00    -0.102 C  
HETATM    6  O   UNL     1      -8.674   9.873  67.928  1.00  0.00    -0.128 OA 
HETATM    7  C   UNL     1      -8.878   9.349  66.604  1.00  0.00    -0.135 C  
HETATM    8  C   UNL     1      -9.747   8.050  66.657  1.00  0.00    -0.243 C  
HETATM    9  O   UNL     1      -9.937   7.944  69.705  1.00  0.00    -0.181 OA 
HETATM   10  H   UNL     1     -10.448   7.153  69.831  1.00  0.00     0.000 HD 
HETATM   11  N   UNL     1     -11.148   8.376  67.085  1.00  0.00    -0.254 NA 
HETATM   12  C   UNL     1      -9.115   7.015  67.587  1.00  0.00    -0.122 C  
HETATM   13  H2  UNL     1     -11.570   9.091  66.492  1.00  0.00     0.000 HD 
HETATM   14  O   UNL     1      -7.965   6.394  66.997  1.00  0.00    -0.106 OA 
HETATM   15  C   UNL     1      -8.760   7.637  68.943  1.00  0.00    -0.135 C  
HETATM   16  H1  UNL     1     -11.714   7.528  67.120  1.00  0.00     0.000 HD 
HETATM   17  H   UNL     1      -7.572   5.750  67.575  1.00  0.00     0.000 HD 
BRANCH   7  18
HETATM   18  O   UNL     1      -9.654  10.188  65.766  1.00  0.00    -0.195 OA 
BRANCH  18  19
HETATM   19  C   UNL     1     -10.135  11.436  66.247  1.00  0.00    -0.224 C  
HETATM   20  O   UNL     1      -7.743  12.094  66.285  1.00  0.00    -0.333 OA 
HETATM   21  C   UNL     1     -10.940  11.944  65.044  1.00  0.00    -0.312 C  
HETATM   22  C   UNL     1      -9.445  13.644  65.458  1.00  0.00     0.188 C  
HETATM   23  H   UNL     1      -7.101  12.778  66.434  1.00  0.00     0.000 HD 
HETATM   24  O   UNL     1     -10.150  12.967  64.416  1.00  0.00    -0.329 OA 
HETATM   25  C   UNL     1      -9.093  12.548  66.489  1.00  0.00    -0.177 C  
BRANCH  21  26
HETATM   26  C   UNL     1     -12.344  12.440  65.401  1.00  0.00    -0.237 C  
HETATM   27  H   UNL     1     -14.132  12.591  64.547  1.00  0.00     0.000 HD 
HETATM   28  O   UNL     1     -13.261  12.283  64.326  1.00  0.00    -0.785 OA 
ENDBRANCH  21  26
BRANCH  22  29
HETATM   29  O   UNL     1     -10.261  14.677  66.024  1.00  0.00    -0.282 OA 
BRANCH  29  30
HETATM   30  C   UNL     1      -9.624  15.592  66.980  1.00  0.00    -0.223 C  
HETATM   31  C   UNL     1      -8.761  16.646  66.239  1.00  0.00    -0.324 C  
HETATM   32  O   UNL     1      -9.582  17.797  65.945  1.00  0.00    -0.517 OA 
HETATM   33  C   UNL     1      -7.484  17.167  66.918  1.00  0.00    -0.204 C  
HETATM   34  C   UNL     1      -6.861  16.185  67.894  1.00  0.00    -0.153 C  
HETATM   35  N   UNL     1      -6.470  17.506  65.886  1.00  0.00    -0.187 NA 
HETATM   36  H   UNL     1      -9.053  18.443  65.491  1.00  0.00     0.000 HD 
HETATM   37  H1  UNL     1      -5.623  17.852  66.337  1.00  0.00     0.000 HD 
HETATM   38  H2  UNL     1      -6.832  18.162  65.194  1.00  0.00     0.000 HD 
HETATM   39  C   UNL     1      -7.908  15.710  68.900  1.00  0.00    -0.186 C  
HETATM   40  C   UNL     1      -8.976  14.847  68.180  1.00  0.00    -0.176 C  
HETATM   41  N   UNL     1      -7.223  14.947  69.967  1.00  0.00    -0.316 NA 
HETATM   42  H2  UNL     1      -6.471  15.478  70.406  1.00  0.00     0.000 HD 
HETATM   43  H1  UNL     1      -7.922  14.630  70.638  1.00  0.00     0.000 HD 
BRANCH  40  44
HETATM   44  O   UNL     1      -9.958  14.470  69.177  1.00  0.00    -0.197 OA 
BRANCH  44  45
HETATM   45  C   UNL     1     -11.324  14.601  68.774  1.00  0.00    -0.281 C  
HETATM   46  O   UNL     1     -11.985  13.334  68.731  1.00  0.00    -0.325 OA 
HETATM   47  C   UNL     1     -12.100  12.703  70.014  1.00  0.00    -0.269 C  
HETATM   48  C   UNL     1     -12.860  13.587  71.014  1.00  0.00    -0.267 C  
HETATM   49  H1  UNL     1     -11.891  17.571  70.416  1.00  0.00     0.000 HD 
HETATM   50  O   UNL     1     -12.938  12.992  72.317  1.00  0.00    -0.315 OA 
HETATM   51  H2  UNL     1     -11.304  17.324  68.863  1.00  0.00     0.000 HD 
HETATM   52  C   UNL     1     -12.177  14.959  71.122  1.00  0.00    -0.320 C  
HETATM   53  H   UNL     1     -13.408  13.539  72.936  1.00  0.00     0.000 HD 
HETATM   54  O   UNL     1     -12.948  15.817  71.980  1.00  0.00    -0.434 OA 
HETATM   55  C   UNL     1     -12.057  15.590  69.723  1.00  0.00    -0.349 C  
HETATM   56  N   UNL     1     -11.410  16.922  69.794  1.00  0.00     0.257 NA 
HETATM   57  H   UNL     1     -12.526  16.665  72.046  1.00  0.00     0.000 HD 
BRANCH  47  58
HETATM   58  C   UNL     1     -12.742  11.312  69.816  1.00  0.00     0.093 C  
HETATM   59  H1  UNL     1     -12.450   9.514  68.755  1.00  0.00     0.000 HD 
HETATM   60  N   UNL     1     -12.025  10.433  68.885  1.00  0.00    -0.680 NA 
HETATM   61  H2  UNL     1     -11.050  10.335  69.170  1.00  0.00     0.000 HD 
ENDBRANCH  47  58
ENDBRANCH  44  45
ENDBRANCH  40  44
ENDBRANCH  29  30
ENDBRANCH  22  29
ENDBRANCH  18  19
ENDBRANCH   7  18
ENDBRANCH   2   5
TORSDOF 9
ENDMDL
MODEL       85
REMARK 921   NORMALIZED FREE ENERGY PREDICTED BY IDOCK:   -5.74 KCAL/MOL
REMARK 922        TOTAL FREE ENERGY PREDICTED BY IDOCK:  -11.57 KCAL/MOL
REMARK 923 INTER-LIGAND FREE ENERGY PREDICTED BY IDOCK:   -8.99 KCAL/MOL
REMARK 924 INTRA-LIGAND FREE ENERGY PREDICTED BY IDOCK:   -2.59 KCAL/MOL
REMARK 927      BINDING AFFINITY PREDICTED BY RF-SCORE:    0.00 PKD
ROOT
HETATM    1  N   UNL     1      -8.611  18.061  66.236  1.00  0.00    -0.447 NA 
HETATM    2  C   UNL     1      -8.301  16.633  66.122  1.00  0.00    -0.270 C  
HETATM    3  H1  UNL     1      -8.043  18.680  65.659  1.00  0.00     0.000 HD 
HETATM    4  H2  UNL     1      -8.563  18.352  67.212  1.00  0.00     0.000 HD 
ENDROOT
BRANCH   2   5
HETATM    5  C   UNL     1      -9.165  15.691  67.001  1.00  0.00    -0.222 C  
HETATM    6  O   UNL     1      -9.031  14.287  66.659  1.00  0.00    -0.245 OA 
HETATM    7  C   UNL     1      -9.759  13.470  67.593  1.00  0.00    -0.229 C  
HETATM    8  C   UNL     1     -11.289  13.786  67.518  1.00  0.00    -0.309 C  
HETATM    9  O   UNL     1     -11.029  16.038  65.469  1.00  0.00    -0.295 OA 
HETATM   10  H   UNL     1     -11.935  16.308  65.375  1.00  0.00     0.000 HD 
HETATM   11  N   UNL     1     -11.852  13.335  66.202  1.00  0.00    -0.371 NA 
HETATM   12  C   UNL     1     -11.546  15.275  67.745  1.00  0.00    -0.265 C  
HETATM   13  H2  UNL     1     -11.658  12.350  66.023  1.00  0.00     0.000 HD 
HETATM   14  O   UNL     1     -11.390  15.644  69.122  1.00  0.00    -0.290 OA 
HETATM   15  C   UNL     1     -10.642  16.131  66.848  1.00  0.00    -0.283 C  
HETATM   16  H1  UNL     1     -12.850  13.541  66.153  1.00  0.00     0.000 HD 
HETATM   17  H   UNL     1     -11.550  16.570  69.263  1.00  0.00     0.000 HD 
BRANCH   7  18
HETATM   18  O   UNL     1      -9.730  12.086  67.292  1.00  0.00    -0.183 OA 
BRANCH  18  19
HETATM   19  C   UNL     1      -9.402  11.139  68.300  1.00  0.00    -0.176 C  
HETATM   20  O   UNL     1     -11.752  10.383  68.046  1.00  0.00    -0.729 OA 
HETATM   21  C   UNL     1      -8.351  10.278  67.588  1.00  0.00    -0.114 C  
HETATM   22  C   UNL     1      -9.939   8.755  68.263  1.00  0.00    -0.176 C  
HETATM   23  H   UNL     1     -12.426   9.761  68.293  1.00  0.00     0.000 HD 
HETATM   24  O   UNL     1      -8.996   9.044  67.230  1.00  0.00    -0.126 OA 
HETATM   25  C   UNL     1     -10.496  10.128  68.702  1.00  0.00    -0.202 C  
BRANCH  21  26
HETATM   26  C   UNL     1      -7.080  10.043  68.409  1.00  0.00    -0.072 C  
HETATM   27  H   UNL     1      -5.770  11.104  69.461  1.00  0.00     0.000 HD 
HETATM   28  O   UNL     1      -6.558  11.249  68.952  1.00  0.00    -0.057 OA 
ENDBRANCH  21  26
BRANCH  22  29
HETATM   29  O   UNL     1      -9.301   8.061  69.343  1.00  0.00    -0.155 OA 
BRANCH  29  30
HETATM   30  C   UNL     1      -9.918   6.810  69.800  1.00  0.00    -0.177 C  
HETATM   31  C   UNL     1     -10.942   7.085  70.932  1.00  0.00    -0.253 C  
HETATM   32  O   UNL     1     -12.241   7.311  70.340  1.00  0.00    -0.554 OA 
HETATM   33  C   UNL     1     -11.128   6.031  72.035  1.00  0.00    -0.274 C  
HETATM   34  C   UNL     1      -9.902   5.169  72.275  1.00  0.00    -0.216 C  
HETATM   35  N   UNL     1     -11.488   6.700  73.312  1.00  0.00    -0.428 NA 
HETATM   36  H   UNL     1     -12.868   7.480  71.034  1.00  0.00     0.000 HD 
HETATM   37  H1  UNL     1     -11.612   6.000  74.043  1.00  0.00     0.000 HD 
HETATM   38  H2  UNL     1     -12.306   7.301  73.213  1.00  0.00     0.000 HD 
HETATM   39  C   UNL     1      -9.421   4.562  70.959  1.00  0.00    -0.161 C  
HETATM   40  C   UNL     1      -8.878   5.679  70.032  1.00  0.00    -0.130 C  
HETATM   41  N   UNL     1      -8.381   3.553  71.259  1.00  0.00    -0.067 NA 
HETATM   42  H2  UNL     1      -8.701   2.847  71.922  1.00  0.00     0.000 HD 
HETATM   43  H1  UNL     1      -8.060   3.147  70.380  1.00  0.00     0.000 HD 
BRANCH  40  44
HETATM   44  O   UNL     1      -8.483   5.045  68.790  1.00  0.00    -0.087 OA 
BRANCH  44  45
HETATM   45  C   UNL     1      -9.541   4.807  67.857  1.00  0.00    -0.154 C  
HETATM   46  O   UNL     1      -9.500   5.731  66.766  1.00  0.00    -0.133 OA 
HETATM   47  C   UNL     1      -8.330   5.598  65.947  1.00  0.00    -0.128 C  
HETATM   48  C   UNL     1      -8.206   4.184  65.361  1.00  0.00    -0.105 C  
HETATM   49  H1  UNL     1      -9.484   1.377  68.128  1.00  0.00     0.000 HD 
HETATM   50  O   UNL     1      -7.012   4.020  64.582  1.00  0.00    -0.048 OA 
HETATM   51  H2  UNL     1     -10.345   2.490  69.044  1.00  0.00     0.000 HD 
HETATM   52  C   UNL     1      -8.218   3.147  66.494  1.00  0.00    -0.090 C  
HETATM   53  H   UNL     1      -6.936   3.145  64.219  1.00  0.00     0.000 HD 
HETATM   54  O   UNL     1      -8.204   1.821  65.936  1.00  0.00    -0.078 OA 
HETATM   55  C   UNL     1      -9.479   3.337  67.358  1.00  0.00    -0.154 C  
HETATM   56  N   UNL     1      -9.525   2.342  68.456  1.00  0.00    -0.189 NA 
HETATM   57  H   UNL     1      -8.212   1.180  66.637  1.00  0.00     0.000 HD 
BRANCH  47  58
HETATM   58  C   UNL     1      -8.362   6.706  64.870  1.00  0.00    -0.034 C  
HETATM   59  H1  UNL     1      -8.666   6.963  62.800  1.00  0.00     0.000 HD 
HETATM   60  N   UNL     1      -8.645   6.231  63.511  1.00  0.00    -0.312 NA 
HETATM   61  H2  UNL     1      -9.514   5.697  63.496  1.00  0.00     0.000 HD 
ENDBRANCH  47  58
ENDBRANCH  44  45
ENDBRANCH  40  44
ENDBRANCH  29  30
ENDBRANCH  22  29
ENDBRANCH  18  19
ENDBRANCH   7  18
ENDBRANCH   2   5
TORSDOF 9
ENDMDL
MODEL       86
REMARK 921   NORMALIZED FREE ENERGY PREDICTED BY IDOCK:   -5.70 KCAL/MOL
REMARK 922        TOTAL FREE ENERGY PREDICTED BY IDOCK:  -11.50 KCAL/MOL
REMARK 923 INTER-LIGAND FREE ENERGY PREDICTED BY IDOCK:  -10.25 KCAL/MOL
REMARK 924 INTRA-LIGAND FREE ENERGY PREDICTED BY IDOCK:   -1.25 KCAL/MOL
REMARK 927      BINDING AFFINITY PREDICTED BY RF-SCORE:    0.00 PKD
ROOT
HETATM    1  N   UNL     1      -9.386   1.928  67.089  1.00  0.00    -0.359 NA 
HETATM    2  C   UNL     1      -9.121   3.112  67.910  1.00  0.00    -0.177 C  
HETATM    3  H1  UNL     1     -10.066   1.272  67.472  1.00  0.00     0.000 HD 
HETATM    4  H2  UNL     1      -8.512   1.444  66.882  1.00  0.00     0.000 HD 
ENDROOT
BRANCH   2   5
HETATM    5  C   UNL     1      -8.086   4.110  67.328  1.00  0.00    -0.099 C  
HETATM    6  O   UNL     1      -8.483   5.501  67.446  1.00  0.00    -0.110 OA 
HETATM    7  C   UNL     1      -7.424   6.367  67.003  1.00  0.00    -0.084 C  
HETATM    8  C   UNL     1      -7.127   6.134  65.485  1.00  0.00    -0.069 C  
HETATM    9  O   UNL     1      -9.125   3.848  65.138  1.00  0.00    -0.128 OA 
HETATM   10  H   UNL     1      -8.995   3.626  64.223  1.00  0.00     0.000 HD 
HETATM   11  N   UNL     1      -8.282   6.599  64.649  1.00  0.00    -0.270 NA 
HETATM   12  C   UNL     1      -6.810   4.663  65.216  1.00  0.00    -0.060 C  
HETATM   13  H2  UNL     1      -8.526   7.570  64.843  1.00  0.00     0.000 HD 
HETATM   14  O   UNL     1      -5.500   4.303  65.675  1.00  0.00    -0.009 OA 
HETATM   15  C   UNL     1      -7.874   3.749  65.836  1.00  0.00    -0.090 C  
HETATM   16  H1  UNL     1      -8.089   6.447  63.659  1.00  0.00     0.000 HD 
HETATM   17  H   UNL     1      -5.303   3.388  65.508  1.00  0.00     0.000 HD 
BRANCH   7  18
HETATM   18  O   UNL     1      -7.756   7.744  67.029  1.00  0.00    -0.100 OA 
BRANCH  18  19
HETATM   19  C   UNL     1      -8.879   8.198  67.772  1.00  0.00    -0.130 C  
HETATM   20  O   UNL     1      -8.059  10.470  67.205  1.00  0.00    -0.117 OA 
HETATM   21  C   UNL     1     -10.046   7.685  66.920  1.00  0.00    -0.278 C  
HETATM   22  C   UNL     1     -10.446   9.945  67.089  1.00  0.00    -0.242 C  
HETATM   23  H   UNL     1      -8.203  11.408  67.245  1.00  0.00     0.000 HD 
HETATM   24  O   UNL     1     -10.581   8.820  66.219  1.00  0.00    -0.023 OA 
HETATM   25  C   UNL     1      -9.113   9.722  67.839  1.00  0.00    -0.121 C  
BRANCH  21  26
HETATM   26  C   UNL     1     -11.122   6.945  67.719  1.00  0.00    -0.146 C  
HETATM   27  H   UNL     1     -11.520   6.486  69.611  1.00  0.00     0.000 HD 
HETATM   28  O   UNL     1     -10.853   6.944  69.114  1.00  0.00    -0.233 OA 
ENDBRANCH  21  26
BRANCH  22  29
HETATM   29  O   UNL     1     -11.562  10.022  67.985  1.00  0.00    -0.166 OA 
BRANCH  29  30
HETATM   30  C   UNL     1     -11.390  10.806  69.214  1.00  0.00    -0.286 C  
HETATM   31  C   UNL     1     -11.728   9.949  70.462  1.00  0.00    -0.295 C  
HETATM   32  O   UNL     1     -10.525   9.291  70.916  1.00  0.00    -0.252 OA 
HETATM   33  C   UNL     1     -12.351  10.639  71.687  1.00  0.00    -0.234 C  
HETATM   34  C   UNL     1     -13.143  11.890  71.352  1.00  0.00    -0.303 C  
HETATM   35  N   UNL     1     -13.250   9.691  72.393  1.00  0.00    -0.550 NA 
HETATM   36  H   UNL     1     -10.732   8.767  71.680  1.00  0.00     0.000 HD 
HETATM   37  H1  UNL     1     -13.663  10.149  73.205  1.00  0.00     0.000 HD 
HETATM   38  H2  UNL     1     -12.775   8.824  72.642  1.00  0.00     0.000 HD 
HETATM   39  C   UNL     1     -12.292  12.842  70.512  1.00  0.00    -0.275 C  
HETATM   40  C   UNL     1     -12.028  12.219  69.117  1.00  0.00    -0.249 C  
HETATM   41  N   UNL     1     -13.002  14.135  70.404  1.00  0.00    -0.356 NA 
HETATM   42  H2  UNL     1     -13.244  14.526  71.314  1.00  0.00     0.000 HD 
HETATM   43  H1  UNL     1     -12.434  14.770  69.843  1.00  0.00     0.000 HD 
BRANCH  40  44
HETATM   44  O   UNL     1     -11.182  13.146  68.393  1.00  0.00    -0.240 OA 
BRANCH  44  45
HETATM   45  C   UNL     1     -11.870  14.167  67.665  1.00  0.00    -0.392 C  
HETATM   46  O   UNL     1     -11.421  15.473  68.033  1.00  0.00    -0.342 OA 
HETATM   47  C   UNL     1     -10.050  15.723  67.696  1.00  0.00    -0.247 C  
HETATM   48  C   UNL     1      -9.796  15.556  66.190  1.00  0.00    -0.316 C  
HETATM   49  H1  UNL     1     -12.060  12.419  64.707  1.00  0.00     0.000 HD 
HETATM   50  O   UNL     1      -8.418  15.752  65.845  1.00  0.00    -0.271 OA 
HETATM   51  H2  UNL     1     -13.130  12.416  66.000  1.00  0.00     0.000 HD 
HETATM   52  C   UNL     1     -10.238  14.155  65.740  1.00  0.00    -0.332 C  
HETATM   53  H   UNL     1      -8.262  15.649  64.913  1.00  0.00     0.000 HD 
HETATM   54  O   UNL     1     -10.095  14.038  64.314  1.00  0.00    -0.697 OA 
HETATM   55  C   UNL     1     -11.707  13.921  66.139  1.00  0.00    -0.376 C  
HETATM   56  N   UNL     1     -12.167  12.579  65.708  1.00  0.00    -0.626 NA 
HETATM   57  H   UNL     1     -10.368  13.172  64.036  1.00  0.00     0.000 HD 
BRANCH  47  58
HETATM   58  C   UNL     1      -9.666  17.122  68.229  1.00  0.00    -0.280 C  
HETATM   59  H1  UNL     1      -9.669  19.149  67.647  1.00  0.00     0.000 HD 
HETATM   60  N   UNL     1      -9.923  18.225  67.295  1.00  0.00    -0.320 NA 
HETATM   61  H2  UNL     1     -10.898  18.215  66.995  1.00  0.00     0.000 HD 
ENDBRANCH  47  58
ENDBRANCH  44  45
ENDBRANCH  40  44
ENDBRANCH  29  30
ENDBRANCH  22  29
ENDBRANCH  18  19
ENDBRANCH   7  18
ENDBRANCH   2   5
TORSDOF 9
ENDMDL
MODEL       87
REMARK 921   NORMALIZED FREE ENERGY PREDICTED BY IDOCK:   -5.69 KCAL/MOL
REMARK 922        TOTAL FREE ENERGY PREDICTED BY IDOCK:  -11.49 KCAL/MOL
REMARK 923 INTER-LIGAND FREE ENERGY PREDICTED BY IDOCK:   -9.96 KCAL/MOL
REMARK 924 INTRA-LIGAND FREE ENERGY PREDICTED BY IDOCK:   -1.53 KCAL/MOL
REMARK 927      BINDING AFFINITY PREDICTED BY RF-SCORE:    0.00 PKD
ROOT
HETATM    1  N   UNL     1      -6.231  12.318  70.630  1.00  0.00    -0.529 NA 
HETATM    2  C   UNL     1      -5.555  11.023  70.746  1.00  0.00    -0.115 C  
HETATM    3  H1  UNL     1      -5.648  13.135  70.807  1.00  0.00     0.000 HD 
HETATM    4  H2  UNL     1      -7.053  12.339  71.234  1.00  0.00     0.000 HD 
ENDROOT
BRANCH   2   5
HETATM    5  C   UNL     1      -6.443   9.780  70.477  1.00  0.00    -0.108 C  
HETATM    6  O   UNL     1      -7.858  10.012  70.704  1.00  0.00    -0.236 OA 
HETATM    7  C   UNL     1      -8.626   8.860  70.314  1.00  0.00    -0.167 C  
HETATM    8  C   UNL     1      -8.247   7.626  71.197  1.00  0.00    -0.100 C  
HETATM    9  O   UNL     1      -6.045   9.049  72.769  1.00  0.00    -0.224 OA 
HETATM   10  H   UNL     1      -5.739   8.348  73.333  1.00  0.00     0.000 HD 
HETATM   11  N   UNL     1      -8.697   7.838  72.613  1.00  0.00    -0.132 NA 
HETATM   12  C   UNL     1      -6.744   7.356  71.133  1.00  0.00    -0.047 C  
HETATM   13  H2  UNL     1      -9.693   8.052  72.667  1.00  0.00     0.000 HD 
HETATM   14  O   UNL     1      -6.357   6.765  69.885  1.00  0.00    -0.037 OA 
HETATM   15  C   UNL     1      -5.943   8.638  71.397  1.00  0.00    -0.047 C  
HETATM   16  H1  UNL     1      -8.449   7.034  73.189  1.00  0.00     0.000 HD 
HETATM   17  H   UNL     1      -5.423   6.597  69.845  1.00  0.00     0.000 HD 
BRANCH   7  18
HETATM   18  O   UNL     1     -10.015   8.983  70.563  1.00  0.00    -0.187 OA 
BRANCH  18  19
HETATM   19  C   UNL     1     -10.904   9.334  69.511  1.00  0.00    -0.195 C  
HETATM   20  O   UNL     1     -11.512  11.254  70.963  1.00  0.00    -0.150 OA 
HETATM   21  C   UNL     1      -9.929   9.652  68.371  1.00  0.00    -0.158 C  
HETATM   22  C   UNL     1     -11.193  11.566  68.557  1.00  0.00    -0.258 C  
HETATM   23  H   UNL     1     -12.010  12.056  71.065  1.00  0.00     0.000 HD 
HETATM   24  O   UNL     1      -9.885  11.083  68.246  1.00  0.00    -0.166 OA 
HETATM   25  C   UNL     1     -11.714  10.638  69.677  1.00  0.00    -0.296 C  
BRANCH  21  26
HETATM   26  C   UNL     1     -10.280   8.971  67.045  1.00  0.00    -0.266 C  
HETATM   27  H   UNL     1     -10.922   7.203  66.403  1.00  0.00     0.000 HD 
HETATM   28  O   UNL     1     -10.704   7.626  67.225  1.00  0.00    -0.306 OA 
ENDBRANCH  21  26
BRANCH  22  29
HETATM   29  O   UNL     1     -12.030  11.530  67.393  1.00  0.00    -0.623 OA 
BRANCH  29  30
HETATM   30  C   UNL     1     -11.848  12.594  66.398  1.00  0.00    -0.402 C  
HETATM   31  C   UNL     1     -11.957  12.025  64.960  1.00  0.00    -0.196 C  
HETATM   32  O   UNL     1     -13.335  12.095  64.534  1.00  0.00    -0.691 OA 
HETATM   33  C   UNL     1     -11.109  12.660  63.846  1.00  0.00    -0.427 C  
HETATM   34  C   UNL     1      -9.830  13.310  64.341  1.00  0.00     0.149 C  
HETATM   35  N   UNL     1     -10.751  11.628  62.839  1.00  0.00    -0.642 NA 
HETATM   36  H   UNL     1     -13.402  11.746  63.653  1.00  0.00     0.000 HD 
HETATM   37  H1  UNL     1     -10.189  12.050  62.100  1.00  0.00     0.000 HD 
HETATM   38  H2  UNL     1     -11.573  11.150  62.470  1.00  0.00     0.000 HD 
HETATM   39  C   UNL     1     -10.141  14.289  65.471  1.00  0.00    -0.345 C  
HETATM   40  C   UNL     1     -10.636  13.512  66.719  1.00  0.00    -0.272 C  
HETATM   41  N   UNL     1      -8.920  15.069  65.767  1.00  0.00    -0.336 NA 
HETATM   42  H2  UNL     1      -8.542  15.532  64.941  1.00  0.00     0.000 HD 
HETATM   43  H1  UNL     1      -9.128  15.723  66.522  1.00  0.00     0.000 HD 
BRANCH  40  44
HETATM   44  O   UNL     1     -10.956  14.497  67.732  1.00  0.00    -0.263 OA 
BRANCH  44  45
HETATM   45  C   UNL     1     -10.054  14.556  68.840  1.00  0.00    -0.224 C  
HETATM   46  O   UNL     1      -8.966  15.450  68.589  1.00  0.00    -0.173 OA 
HETATM   47  C   UNL     1      -9.372  16.819  68.448  1.00  0.00    -0.231 C  
HETATM   48  C   UNL     1     -10.107  17.324  69.698  1.00  0.00     0.137 C  
HETATM   49  H1  UNL     1     -12.473  14.310  71.274  1.00  0.00     0.000 HD 
HETATM   50  O   UNL     1     -10.565  18.676  69.551  1.00  0.00    -0.214 OA 
HETATM   51  H2  UNL     1     -11.651  13.080  70.481  1.00  0.00     0.000 HD 
HETATM   52  C   UNL     1     -11.305  16.413  70.002  1.00  0.00    -0.175 C  
HETATM   53  H   UNL     1     -11.019  18.989  70.325  1.00  0.00     0.000 HD 
HETATM   54  O   UNL     1     -11.931  16.829  71.228  1.00  0.00    -0.362 OA 
HETATM   55  C   UNL     1     -10.830  14.954  70.126  1.00  0.00    -0.134 C  
HETATM   56  N   UNL     1     -11.964  14.049  70.430  1.00  0.00    -0.323 NA 
HETATM   57  H   UNL     1     -12.672  16.264  71.416  1.00  0.00     0.000 HD 
BRANCH  47  58
HETATM   58  C   UNL     1      -8.126  17.660  68.090  1.00  0.00    -0.252 C  
HETATM   59  H1  UNL     1      -7.199  18.583  66.437  1.00  0.00     0.000 HD 
HETATM   60  N   UNL     1      -8.022  18.028  66.673  1.00  0.00    -0.240 NA 
HETATM   61  H2  UNL     1      -8.871  18.505  66.368  1.00  0.00     0.000 HD 
ENDBRANCH  47  58
ENDBRANCH  44  45
ENDBRANCH  40  44
ENDBRANCH  29  30
ENDBRANCH  22  29
ENDBRANCH  18  19
ENDBRANCH   7  18
ENDBRANCH   2   5
TORSDOF 9
ENDMDL
MODEL       88
REMARK 921   NORMALIZED FREE ENERGY PREDICTED BY IDOCK:   -5.68 KCAL/MOL
REMARK 922        TOTAL FREE ENERGY PREDICTED BY IDOCK:  -11.47 KCAL/MOL
REMARK 923 INTER-LIGAND FREE ENERGY PREDICTED BY IDOCK:   -9.57 KCAL/MOL
REMARK 924 INTRA-LIGAND FREE ENERGY PREDICTED BY IDOCK:   -1.91 KCAL/MOL
REMARK 927      BINDING AFFINITY PREDICTED BY RF-SCORE:    0.00 PKD
ROOT
HETATM    1  N   UNL     1      -6.308  15.188  67.899  1.00  0.00    -0.148 NA 
HETATM    2  C   UNL     1      -6.851  16.137  68.875  1.00  0.00    -0.152 C  
HETATM    3  H1  UNL     1      -5.316  14.977  67.998  1.00  0.00     0.000 HD 
HETATM    4  H2  UNL     1      -6.504  15.510  66.952  1.00  0.00     0.000 HD 
ENDROOT
BRANCH   2   5
HETATM    5  C   UNL     1      -8.361  16.458  68.725  1.00  0.00    -0.242 C  
HETATM    6  O   UNL     1      -9.079  15.514  67.888  1.00  0.00    -0.174 OA 
HETATM    7  C   UNL     1     -10.488  15.803  67.900  1.00  0.00    -0.270 C  
HETATM    8  C   UNL     1     -10.762  17.215  67.286  1.00  0.00    -0.208 C  
HETATM    9  O   UNL     1      -7.822  17.929  66.857  1.00  0.00    -0.206 OA 
HETATM   10  H   UNL     1      -7.895  18.804  66.492  1.00  0.00     0.000 HD 
HETATM   11  N   UNL     1     -10.454  17.215  65.817  1.00  0.00    -0.515 NA 
HETATM   12  C   UNL     1      -9.956  18.288  68.017  1.00  0.00    -0.347 C  
HETATM   13  H2  UNL     1     -10.961  16.481  65.322  1.00  0.00     0.000 HD 
HETATM   14  O   UNL     1     -10.504  18.585  69.308  1.00  0.00    -0.423 OA 
HETATM   15  C   UNL     1      -8.481  17.885  68.132  1.00  0.00    -0.267 C  
HETATM   16  H1  UNL     1     -10.632  18.136  65.416  1.00  0.00     0.000 HD 
HETATM   17  H   UNL     1     -10.003  19.252  69.763  1.00  0.00     0.000 HD 
BRANCH   7  18
HETATM   18  O   UNL     1     -11.255  14.962  67.056  1.00  0.00    -0.332 OA 
BRANCH  18  19
HETATM   19  C   UNL     1     -11.725  13.707  67.528  1.00  0.00    -0.371 C  
HETATM   20  O   UNL     1     -10.262  12.744  65.771  1.00  0.00    -0.280 OA 
HETATM   21  C   UNL     1     -11.156  13.675  68.952  1.00  0.00    -0.256 C  
HETATM   22  C   UNL     1     -10.353  11.740  68.000  1.00  0.00    -0.198 C  
HETATM   23  H   UNL     1      -9.901  11.964  65.365  1.00  0.00     0.000 HD 
HETATM   24  O   UNL     1     -10.036  12.774  68.933  1.00  0.00    -0.091 OA 
HETATM   25  C   UNL     1     -11.140  12.440  66.869  1.00  0.00    -0.287 C  
BRANCH  21  26
HETATM   26  C   UNL     1     -12.181  13.295  70.023  1.00  0.00    -0.275 C  
HETATM   27  H   UNL     1     -12.778  13.936  71.807  1.00  0.00     0.000 HD 
HETATM   28  O   UNL     1     -12.143  14.171  71.142  1.00  0.00    -0.343 OA 
ENDBRANCH  21  26
BRANCH  22  29
HETATM   29  O   UNL     1     -11.120  10.710  68.636  1.00  0.00    -0.227 OA 
BRANCH  29  30
HETATM   30  C   UNL     1     -10.427   9.458  68.966  1.00  0.00    -0.217 C  
HETATM   31  C   UNL     1     -10.955   8.876  70.303  1.00  0.00    -0.241 C  
HETATM   32  O   UNL     1     -12.061   7.990  70.021  1.00  0.00    -0.207 OA 
HETATM   33  C   UNL     1      -9.982   8.104  71.209  1.00  0.00    -0.181 C  
HETATM   34  C   UNL     1      -8.531   8.521  71.050  1.00  0.00    -0.185 C  
HETATM   35  N   UNL     1     -10.368   8.290  72.632  1.00  0.00    -0.322 NA 
HETATM   36  H   UNL     1     -12.384   7.634  70.840  1.00  0.00     0.000 HD 
HETATM   37  H1  UNL     1      -9.722   7.778  73.233  1.00  0.00     0.000 HD 
HETATM   38  H2  UNL     1     -11.339   8.030  72.803  1.00  0.00     0.000 HD 
HETATM   39  C   UNL     1      -8.128   8.467  69.577  1.00  0.00    -0.113 C  
HETATM   40  C   UNL     1      -8.887   9.561  68.784  1.00  0.00    -0.132 C  
HETATM   41  N   UNL     1      -6.662   8.648  69.484  1.00  0.00    -0.040 NA 
HETATM   42  H2  UNL     1      -6.148   7.977  70.055  1.00  0.00     0.000 HD 
HETATM   43  H1  UNL     1      -6.394   8.612  68.500  1.00  0.00     0.000 HD 
BRANCH  40  44
HETATM   44  O   UNL     1      -8.497   9.425  67.395  1.00  0.00    -0.124 OA 
BRANCH  44  45
HETATM   45  C   UNL     1      -9.304   8.541  66.612  1.00  0.00    -0.189 C  
HETATM   46  O   UNL     1      -9.971   9.232  65.554  1.00  0.00    -0.228 OA 
HETATM   47  C   UNL     1      -9.076   9.782  64.576  1.00  0.00    -0.249 C  
HETATM   48  C   UNL     1      -8.198   8.696  63.937  1.00  0.00    -0.146 C  
HETATM   49  H1  UNL     1      -7.147   5.864  66.773  1.00  0.00     0.000 HD 
HETATM   50  O   UNL     1      -7.262   9.238  62.995  1.00  0.00    -0.098 OA 
HETATM   51  H2  UNL     1      -8.379   6.287  67.833  1.00  0.00     0.000 HD 
HETATM   52  C   UNL     1      -7.434   7.934  65.030  1.00  0.00    -0.088 C  
HETATM   53  H   UNL     1      -6.718   8.565  62.599  1.00  0.00     0.000 HD 
HETATM   54  O   UNL     1      -6.692   6.854  64.438  1.00  0.00    -0.044 OA 
HETATM   55  C   UNL     1      -8.428   7.378  66.067  1.00  0.00    -0.148 C  
HETATM   56  N   UNL     1      -7.721   6.627  67.131  1.00  0.00    -0.099 NA 
HETATM   57  H   UNL     1      -6.220   6.382  65.115  1.00  0.00     0.000 HD 
BRANCH  47  58
HETATM   58  C   UNL     1      -9.911  10.577  63.547  1.00  0.00    -0.278 C  
HETATM   59  H1  UNL     1      -9.848  12.357  62.418  1.00  0.00     0.000 HD 
HETATM   60  N   UNL     1      -9.296  11.832  63.097  1.00  0.00    -0.629 NA 
HETATM   61  H2  UNL     1      -8.359  11.657  62.734  1.00  0.00     0.000 HD 
ENDBRANCH  47  58
ENDBRANCH  44  45
ENDBRANCH  40  44
ENDBRANCH  29  30
ENDBRANCH  22  29
ENDBRANCH  18  19
ENDBRANCH   7  18
ENDBRANCH   2   5
TORSDOF 9
ENDMDL
MODEL       89
REMARK 921   NORMALIZED FREE ENERGY PREDICTED BY IDOCK:   -5.64 KCAL/MOL
REMARK 922        TOTAL FREE ENERGY PREDICTED BY IDOCK:  -11.42 KCAL/MOL
REMARK 923 INTER-LIGAND FREE ENERGY PREDICTED BY IDOCK:   -9.53 KCAL/MOL
REMARK 924 INTRA-LIGAND FREE ENERGY PREDICTED BY IDOCK:   -1.89 KCAL/MOL
REMARK 927      BINDING AFFINITY PREDICTED BY RF-SCORE:    0.00 PKD
ROOT
HETATM    1  N   UNL     1     -10.966   4.967  73.394  1.00  0.00    -0.304 NA 
HETATM    2  C   UNL     1     -10.198   3.968  72.645  1.00  0.00    -0.167 C  
HETATM    3  H1  UNL     1     -11.583   4.595  74.115  1.00  0.00     0.000 HD 
HETATM    4  H2  UNL     1     -11.496   5.555  72.750  1.00  0.00     0.000 HD 
ENDROOT
BRANCH   2   5
HETATM    5  C   UNL     1      -9.259   4.534  71.547  1.00  0.00    -0.135 C  
HETATM    6  O   UNL     1      -9.926   5.413  70.604  1.00  0.00    -0.187 OA 
HETATM    7  C   UNL     1      -8.972   5.996  69.699  1.00  0.00    -0.132 C  
HETATM    8  C   UNL     1      -8.286   4.884  68.838  1.00  0.00    -0.082 C  
HETATM    9  O   UNL     1      -9.683   2.539  70.213  1.00  0.00    -0.078 OA 
HETATM   10  H   UNL     1      -9.301   1.801  69.751  1.00  0.00     0.000 HD 
HETATM   11  N   UNL     1      -9.277   4.267  67.895  1.00  0.00    -0.132 NA 
HETATM   12  C   UNL     1      -7.646   3.825  69.734  1.00  0.00    -0.052 C  
HETATM   13  H2  UNL     1      -9.736   4.968  67.314  1.00  0.00     0.000 HD 
HETATM   14  O   UNL     1      -6.439   4.297  70.347  1.00  0.00    -0.029 OA 
HETATM   15  C   UNL     1      -8.637   3.331  70.796  1.00  0.00    -0.071 C  
HETATM   16  H1  UNL     1      -8.830   3.542  67.334  1.00  0.00     0.000 HD 
HETATM   17  H   UNL     1      -6.041   3.638  70.904  1.00  0.00     0.000 HD 
BRANCH   7  18
HETATM   18  O   UNL     1      -9.552   6.821  68.704  1.00  0.00    -0.133 OA 
BRANCH  18  19
HETATM   19  C   UNL     1      -9.155   8.179  68.576  1.00  0.00    -0.136 C  
HETATM   20  O   UNL     1     -10.514   8.153  66.500  1.00  0.00    -0.435 OA 
HETATM   21  C   UNL     1      -9.828   8.817  69.798  1.00  0.00    -0.186 C  
HETATM   22  C   UNL     1     -10.616  10.060  68.029  1.00  0.00    -0.235 C  
HETATM   23  H   UNL     1     -10.867   8.642  65.766  1.00  0.00     0.000 HD 
HETATM   24  O   UNL     1     -10.969   9.544  69.313  1.00  0.00    -0.219 OA 
HETATM   25  C   UNL     1      -9.727   8.974  67.383  1.00  0.00    -0.168 C  
BRANCH  21  26
HETATM   26  C   UNL     1      -8.896   9.702  70.630  1.00  0.00    -0.023 C  
HETATM   27  H   UNL     1      -7.798   9.570  72.281  1.00  0.00     0.000 HD 
HETATM   28  O   UNL     1      -8.376   9.021  71.764  1.00  0.00    -0.353 OA 
ENDBRANCH  21  26
BRANCH  22  29
HETATM   29  O   UNL     1      -9.928  11.311  68.164  1.00  0.00    -0.170 OA 
BRANCH  29  30
HETATM   30  C   UNL     1     -10.543  12.491  67.544  1.00  0.00    -0.220 C  
HETATM   31  C   UNL     1     -10.745  12.268  66.023  1.00  0.00    -0.261 C  
HETATM   32  O   UNL     1     -12.049  11.686  65.806  1.00  0.00    -0.232 OA 
HETATM   33  C   UNL     1     -10.629  13.474  65.076  1.00  0.00    -0.372 C  
HETATM   34  C   UNL     1      -9.731  14.582  65.598  1.00  0.00    -0.282 C  
HETATM   35  N   UNL     1     -10.105  13.029  63.759  1.00  0.00    -0.744 NA 
HETATM   36  H   UNL     1     -12.172  11.549  64.874  1.00  0.00     0.000 HD 
HETATM   37  H1  UNL     1     -10.029  13.829  63.131  1.00  0.00     0.000 HD 
HETATM   38  H2  UNL     1     -10.666  12.278  63.357  1.00  0.00     0.000 HD 
HETATM   39  C   UNL     1     -10.158  14.983  67.009  1.00  0.00    -0.244 C  
HETATM   40  C   UNL     1      -9.876  13.820  67.994  1.00  0.00    -0.239 C  
HETATM   41  N   UNL     1      -9.424  16.209  67.392  1.00  0.00    -0.225 NA 
HETATM   42  H2  UNL     1      -9.545  16.964  66.716  1.00  0.00     0.000 HD 
HETATM   43  H1  UNL     1      -9.709  16.476  68.334  1.00  0.00     0.000 HD 
BRANCH  40  44
HETATM   44  O   UNL     1     -10.344  14.246  69.298  1.00  0.00    -0.176 OA 
BRANCH  44  45
HETATM   45  C   UNL     1     -11.699  14.701  69.346  1.00  0.00    -0.316 C  
HETATM   46  O   UNL     1     -12.569  13.708  69.894  1.00  0.00    -0.221 OA 
HETATM   47  C   UNL     1     -12.296  13.402  71.269  1.00  0.00    -0.194 C  
HETATM   48  C   UNL     1     -12.400  14.650  72.159  1.00  0.00    -0.298 C  
HETATM   49  H1  UNL     1     -10.945  17.963  70.140  1.00  0.00     0.000 HD 
HETATM   50  O   UNL     1     -12.078  14.370  73.529  1.00  0.00    -0.088 OA 
HETATM   51  H2  UNL     1     -11.083  17.255  68.625  1.00  0.00     0.000 HD 
HETATM   52  C   UNL     1     -11.462  15.746  71.631  1.00  0.00    -0.415 C  
HETATM   53  H   UNL     1     -12.142  15.142  74.079  1.00  0.00     0.000 HD 
HETATM   54  O   UNL     1     -11.637  16.946  72.404  1.00  0.00    -0.427 OA 
HETATM   55  C   UNL     1     -11.776  16.029  70.150  1.00  0.00    -0.281 C  
HETATM   56  N   UNL     1     -10.893  17.092  69.613  1.00  0.00    -0.131 NA 
HETATM   57  H   UNL     1     -11.057  17.623  72.077  1.00  0.00     0.000 HD 
BRANCH  47  58
HETATM   58  C   UNL     1     -13.237  12.258  71.709  1.00  0.00    -0.326 C  
HETATM   59  H1  UNL     1     -13.476  10.172  71.511  1.00  0.00     0.000 HD 
HETATM   60  N   UNL     1     -12.854  10.928  71.221  1.00  0.00    -0.410 NA 
HETATM   61  H2  UNL     1     -11.891  10.717  71.487  1.00  0.00     0.000 HD 
ENDBRANCH  47  58
ENDBRANCH  44  45
ENDBRANCH  40  44
ENDBRANCH  29  30
ENDBRANCH  22  29
ENDBRANCH  18  19
ENDBRANCH   7  18
ENDBRANCH   2   5
TORSDOF 9
ENDMDL
MODEL       90
REMARK 921   NORMALIZED FREE ENERGY PREDICTED BY IDOCK:   -5.63 KCAL/MOL
REMARK 922        TOTAL FREE ENERGY PREDICTED BY IDOCK:  -11.40 KCAL/MOL
REMARK 923 INTER-LIGAND FREE ENERGY PREDICTED BY IDOCK:   -9.89 KCAL/MOL
REMARK 924 INTRA-LIGAND FREE ENERGY PREDICTED BY IDOCK:   -1.51 KCAL/MOL
REMARK 927      BINDING AFFINITY PREDICTED BY RF-SCORE:    0.00 PKD
ROOT
HETATM    1  N   UNL     1     -11.623   4.678  64.997  1.00  0.00    -1.036 NA 
HETATM    2  C   UNL     1     -10.731   3.797  64.238  1.00  0.00    -0.201 C  
HETATM    3  H1  UNL     1     -12.515   4.889  64.549  1.00  0.00     0.000 HD 
HETATM    4  H2  UNL     1     -11.139   5.544  65.235  1.00  0.00     0.000 HD 
ENDROOT
BRANCH   2   5
HETATM    5  C   UNL     1      -9.374   3.477  64.918  1.00  0.00    -0.153 C  
HETATM    6  O   UNL     1      -8.983   4.443  65.928  1.00  0.00    -0.117 OA 
HETATM    7  C   UNL     1      -7.786   4.014  66.599  1.00  0.00    -0.089 C  
HETATM    8  C   UNL     1      -6.592   3.940  65.592  1.00  0.00    -0.041 C  
HETATM    9  O   UNL     1      -8.237   4.673  63.124  1.00  0.00    -0.088 OA 
HETATM   10  H   UNL     1      -7.576   4.634  62.442  1.00  0.00     0.000 HD 
HETATM   11  N   UNL     1      -6.214   5.315  65.127  1.00  0.00    -0.033 NA 
HETATM   12  C   UNL     1      -6.936   3.035  64.410  1.00  0.00    -0.045 C  
HETATM   13  H2  UNL     1      -6.013   5.939  65.909  1.00  0.00     0.000 HD 
HETATM   14  O   UNL     1      -6.908   1.647  64.769  1.00  0.00    -0.035 OA 
HETATM   15  C   UNL     1      -8.296   3.412  63.807  1.00  0.00    -0.090 C  
HETATM   16  H1  UNL     1      -5.435   5.267  64.470  1.00  0.00     0.000 HD 
HETATM   17  H   UNL     1      -7.122   1.084  64.034  1.00  0.00     0.000 HD 
BRANCH   7  18
HETATM   18  O   UNL     1      -7.302   4.935  67.560  1.00  0.00    -0.076 OA 
BRANCH  18  19
HETATM   19  C   UNL     1      -7.969   6.173  67.768  1.00  0.00    -0.106 C  
HETATM   20  O   UNL     1      -8.972   5.050  69.741  1.00  0.00    -0.102 OA 
HETATM   21  C   UNL     1      -6.796   7.113  68.070  1.00  0.00    -0.070 C  
HETATM   22  C   UNL     1      -8.174   7.357  69.896  1.00  0.00    -0.132 C  
HETATM   23  H   UNL     1      -9.524   5.122  70.511  1.00  0.00     0.000 HD 
HETATM   24  O   UNL     1      -6.805   7.351  69.487  1.00  0.00    -0.047 OA 
HETATM   25  C   UNL     1      -8.866   6.290  69.018  1.00  0.00    -0.124 C  
BRANCH  21  26
HETATM   26  C   UNL     1      -6.823   8.417  67.269  1.00  0.00    -0.070 C  
HETATM   27  H   UNL     1      -7.502   9.079  65.522  1.00  0.00     0.000 HD 
HETATM   28  O   UNL     1      -7.485   8.270  66.020  1.00  0.00    -0.075 OA 
ENDBRANCH  21  26
BRANCH  22  29
HETATM   29  O   UNL     1      -8.744   8.660  69.714  1.00  0.00    -0.127 OA 
BRANCH  29  30
HETATM   30  C   UNL     1      -9.614   9.171  70.781  1.00  0.00    -0.275 C  
HETATM   31  C   UNL     1      -9.613   8.209  71.998  1.00  0.00    -0.219 C  
HETATM   32  O   UNL     1      -8.558   8.605  72.902  1.00  0.00    -0.398 OA 
HETATM   33  C   UNL     1     -10.895   8.073  72.835  1.00  0.00    -0.330 C  
HETATM   34  C   UNL     1     -12.169   8.361  72.061  1.00  0.00    -0.419 C  
HETATM   35  N   UNL     1     -10.986   6.698  73.390  1.00  0.00    -0.484 NA 
HETATM   36  H   UNL     1      -8.558   8.016  73.648  1.00  0.00     0.000 HD 
HETATM   37  H1  UNL     1     -11.837   6.607  73.946  1.00  0.00     0.000 HD 
HETATM   38  H2  UNL     1     -10.153   6.441  73.920  1.00  0.00     0.000 HD 
HETATM   39  C   UNL     1     -12.065   9.718  71.366  1.00  0.00    -0.400 C  
HETATM   40  C   UNL     1     -10.992   9.655  70.248  1.00  0.00    -0.285 C  
HETATM   41  N   UNL     1     -13.394  10.070  70.822  1.00  0.00    -0.578 NA 
HETATM   42  H2  UNL     1     -14.126  10.050  71.533  1.00  0.00     0.000 HD 
HETATM   43  H1  UNL     1     -13.325  10.976  70.358  1.00  0.00     0.000 HD 
BRANCH  40  44
HETATM   44  O   UNL     1     -10.911  10.978  69.663  1.00  0.00    -0.251 OA 
BRANCH  44  45
HETATM   45  C   UNL     1     -11.703  11.181  68.490  1.00  0.00    -0.298 C  
HETATM   46  O   UNL     1     -12.027  12.560  68.304  1.00  0.00    -0.328 OA 
HETATM   47  C   UNL     1     -10.884  13.389  68.053  1.00  0.00    -0.247 C  
HETATM   48  C   UNL     1     -10.109  12.926  66.810  1.00  0.00    -0.238 C  
HETATM   49  H1  UNL     1     -10.124   8.788  66.585  1.00  0.00     0.000 HD 
HETATM   50  O   UNL     1      -8.933  13.713  66.577  1.00  0.00    -0.419 OA 
HETATM   51  H2  UNL     1     -11.437   8.613  67.617  1.00  0.00     0.000 HD 
HETATM   52  C   UNL     1      -9.710  11.450  66.966  1.00  0.00    -0.190 C  
HETATM   53  H   UNL     1      -8.454  13.426  65.808  1.00  0.00     0.000 HD 
HETATM   54  O   UNL     1      -9.074  10.992  65.760  1.00  0.00    -0.192 OA 
HETATM   55  C   UNL     1     -10.962  10.601  67.252  1.00  0.00    -0.284 C  
HETATM   56  N   UNL     1     -10.610   9.168  67.397  1.00  0.00    -0.274 NA 
HETATM   57  H   UNL     1      -8.828  10.079  65.856  1.00  0.00     0.000 HD 
BRANCH  47  58
HETATM   58  C   UNL     1     -11.357  14.858  67.965  1.00  0.00    -0.324 C  
HETATM   59  H1  UNL     1     -12.651  16.217  68.927  1.00  0.00     0.000 HD 
HETATM   60  N   UNL     1     -12.338  15.247  68.985  1.00  0.00    -0.602 NA 
HETATM   61  H2  UNL     1     -11.977  15.046  69.918  1.00  0.00     0.000 HD 
ENDBRANCH  47  58
ENDBRANCH  44  45
ENDBRANCH  40  44
ENDBRANCH  29  30
ENDBRANCH  22  29
ENDBRANCH  18  19
ENDBRANCH   7  18
ENDBRANCH   2   5
TORSDOF 9
ENDMDL
MODEL       91
REMARK 921   NORMALIZED FREE ENERGY PREDICTED BY IDOCK:   -5.63 KCAL/MOL
REMARK 922        TOTAL FREE ENERGY PREDICTED BY IDOCK:  -11.40 KCAL/MOL
REMARK 923 INTER-LIGAND FREE ENERGY PREDICTED BY IDOCK:  -10.62 KCAL/MOL
REMARK 924 INTRA-LIGAND FREE ENERGY PREDICTED BY IDOCK:   -0.78 KCAL/MOL
REMARK 927      BINDING AFFINITY PREDICTED BY RF-SCORE:    0.00 PKD
ROOT
HETATM    1  N   UNL     1     -11.390  16.545  64.061  1.00  0.00    -1.559 NA 
HETATM    2  C   UNL     1     -11.294  15.313  64.849  1.00  0.00    -0.384 C  
HETATM    3  H1  UNL     1     -12.241  16.647  63.509  1.00  0.00     0.000 HD 
HETATM    4  H2  UNL     1     -10.571  16.641  63.461  1.00  0.00     0.000 HD 
ENDROOT
BRANCH   2   5
HETATM    5  C   UNL     1      -9.998  15.159  65.689  1.00  0.00    -0.354 C  
HETATM    6  O   UNL     1     -10.057  14.084  66.662  1.00  0.00    -0.264 OA 
HETATM    7  C   UNL     1      -8.783  13.921  67.310  1.00  0.00    -0.217 C  
HETATM    8  C   UNL     1      -8.411  15.209  68.115  1.00  0.00    -0.147 C  
HETATM    9  O   UNL     1     -10.861  16.819  67.252  1.00  0.00    -0.258 OA 
HETATM   10  H   UNL     1     -10.703  17.646  67.694  1.00  0.00     0.000 HD 
HETATM   11  N   UNL     1      -9.336  15.381  69.284  1.00  0.00    -0.241 NA 
HETATM   12  C   UNL     1      -8.435  16.439  67.209  1.00  0.00    -0.175 C  
HETATM   13  H2  UNL     1      -9.355  14.552  69.879  1.00  0.00     0.000 HD 
HETATM   14  O   UNL     1      -7.300  16.485  66.334  1.00  0.00    -0.234 OA 
HETATM   15  C   UNL     1      -9.742  16.507  66.408  1.00  0.00    -0.285 C  
HETATM   16  H1  UNL     1      -9.094  16.220  69.809  1.00  0.00     0.000 HD 
HETATM   17  H   UNL     1      -7.315  17.250  65.770  1.00  0.00     0.000 HD 
BRANCH   7  18
HETATM   18  O   UNL     1      -8.774  12.929  68.321  1.00  0.00    -0.183 OA 
BRANCH  18  19
HETATM   19  C   UNL     1      -8.926  11.557  67.983  1.00  0.00    -0.170 C  
HETATM   20  O   UNL     1      -7.575  11.132  70.021  1.00  0.00    -0.349 OA 
HETATM   21  C   UNL     1     -10.439  11.363  68.142  1.00  0.00    -0.187 C  
HETATM   22  C   UNL     1      -9.535   9.756  69.519  1.00  0.00    -0.212 C  
HETATM   23  H   UNL     1      -7.200  10.494  70.617  1.00  0.00     0.000 HD 
HETATM   24  O   UNL     1     -10.641  10.648  69.373  1.00  0.00    -0.219 OA 
HETATM   25  C   UNL     1      -8.318  10.520  68.950  1.00  0.00    -0.147 C  
BRANCH  21  26
HETATM   26  C   UNL     1     -11.104  10.660  66.956  1.00  0.00    -0.145 C  
HETATM   27  H   UNL     1     -11.361  10.951  65.007  1.00  0.00     0.000 HD 
HETATM   28  O   UNL     1     -10.949  11.386  65.743  1.00  0.00    -0.266 OA 
ENDBRANCH  21  26
BRANCH  22  29
HETATM   29  O   UNL     1      -9.782   8.533  68.815  1.00  0.00    -0.158 OA 
BRANCH  29  30
HETATM   30  C   UNL     1     -10.579   7.508  69.502  1.00  0.00    -0.236 C  
HETATM   31  C   UNL     1     -11.137   8.053  70.842  1.00  0.00    -0.255 C  
HETATM   32  O   UNL     1     -12.429   8.651  70.599  1.00  0.00    -0.491 OA 
HETATM   33  C   UNL     1     -11.305   7.083  72.023  1.00  0.00    -0.264 C  
HETATM   34  C   UNL     1     -10.354   5.901  71.989  1.00  0.00    -0.250 C  
HETATM   35  N   UNL     1     -11.102   7.811  73.302  1.00  0.00    -0.461 NA 
HETATM   36  H   UNL     1     -12.771   8.985  71.420  1.00  0.00     0.000 HD 
HETATM   37  H1  UNL     1     -11.214   7.168  74.085  1.00  0.00     0.000 HD 
HETATM   38  H2  UNL     1     -11.712   8.624  73.382  1.00  0.00     0.000 HD 
HETATM   39  C   UNL     1     -10.438   5.197  70.636  1.00  0.00    -0.199 C  
HETATM   40  C   UNL     1      -9.876   6.122  69.526  1.00  0.00    -0.159 C  
HETATM   41  N   UNL     1      -9.684   3.927  70.719  1.00  0.00    -0.191 NA 
HETATM   42  H2  UNL     1      -9.997   3.336  71.488  1.00  0.00     0.000 HD 
HETATM   43  H1  UNL     1      -9.741   3.458  69.815  1.00  0.00     0.000 HD 
BRANCH  40  44
HETATM   44  O   UNL     1     -10.028   5.416  68.270  1.00  0.00    -0.142 OA 
BRANCH  44  45
HETATM   45  C   UNL     1      -8.916   4.604  67.882  1.00  0.00    -0.114 C  
HETATM   46  O   UNL     1      -9.235   3.772  66.763  1.00  0.00    -0.151 OA 
HETATM   47  C   UNL     1      -9.514   4.508  65.564  1.00  0.00    -0.173 C  
HETATM   48  C   UNL     1      -8.330   5.398  65.156  1.00  0.00    -0.144 C  
HETATM   49  H1  UNL     1      -6.508   6.976  68.526  1.00  0.00     0.000 HD 
HETATM   50  O   UNL     1      -8.614   6.179  63.987  1.00  0.00    -0.339 OA 
HETATM   51  H2  UNL     1      -7.165   5.836  69.568  1.00  0.00     0.000 HD 
HETATM   52  C   UNL     1      -7.959   6.335  66.315  1.00  0.00    -0.110 C  
HETATM   53  H   UNL     1      -7.882   6.730  63.735  1.00  0.00     0.000 HD 
HETATM   54  O   UNL     1      -6.788   7.094  65.967  1.00  0.00    -0.054 OA 
HETATM   55  C   UNL     1      -7.687   5.507  67.585  1.00  0.00    -0.093 C  
HETATM   56  N   UNL     1      -7.315   6.384  68.721  1.00  0.00    -0.084 NA 
HETATM   57  H   UNL     1      -6.559   7.673  66.685  1.00  0.00     0.000 HD 
BRANCH  47  58
HETATM   58  C   UNL     1      -9.932   3.505  64.465  1.00  0.00    -0.171 C  
HETATM   59  H1  UNL     1     -11.084   3.400  62.702  1.00  0.00     0.000 HD 
HETATM   60  N   UNL     1     -10.807   4.063  63.427  1.00  0.00    -0.383 NA 
HETATM   61  H2  UNL     1     -10.379   4.888  63.009  1.00  0.00     0.000 HD 
ENDBRANCH  47  58
ENDBRANCH  44  45
ENDBRANCH  40  44
ENDBRANCH  29  30
ENDBRANCH  22  29
ENDBRANCH  18  19
ENDBRANCH   7  18
ENDBRANCH   2   5
TORSDOF 9
ENDMDL
MODEL       92
REMARK 921   NORMALIZED FREE ENERGY PREDICTED BY IDOCK:   -5.58 KCAL/MOL
REMARK 922        TOTAL FREE ENERGY PREDICTED BY IDOCK:  -11.32 KCAL/MOL
REMARK 923 INTER-LIGAND FREE ENERGY PREDICTED BY IDOCK:   -8.72 KCAL/MOL
REMARK 924 INTRA-LIGAND FREE ENERGY PREDICTED BY IDOCK:   -2.60 KCAL/MOL
REMARK 927      BINDING AFFINITY PREDICTED BY RF-SCORE:    0.00 PKD
ROOT
HETATM    1  N   UNL     1     -13.544   8.037  72.255  1.00  0.00    -0.536 NA 
HETATM    2  C   UNL     1     -12.693   7.112  71.500  1.00  0.00    -0.393 C  
HETATM    3  H1  UNL     1     -14.521   8.067  71.966  1.00  0.00     0.000 HD 
HETATM    4  H2  UNL     1     -13.145   8.975  72.234  1.00  0.00     0.000 HD 
ENDROOT
BRANCH   2   5
HETATM    5  C   UNL     1     -11.206   7.066  71.939  1.00  0.00    -0.249 C  
HETATM    6  O   UNL     1     -10.348   6.337  71.023  1.00  0.00    -0.201 OA 
HETATM    7  C   UNL     1      -8.972   6.446  71.428  1.00  0.00    -0.138 C  
HETATM    8  C   UNL     1      -8.761   5.786  72.830  1.00  0.00    -0.118 C  
HETATM    9  O   UNL     1     -11.703   5.091  73.278  1.00  0.00    -0.491 OA 
HETATM   10  H   UNL     1     -11.669   4.690  74.139  1.00  0.00     0.000 HD 
HETATM   11  N   UNL     1      -8.945   4.299  72.741  1.00  0.00    -0.106 NA 
HETATM   12  C   UNL     1      -9.707   6.396  73.863  1.00  0.00    -0.212 C  
HETATM   13  H2  UNL     1      -8.343   3.883  72.031  1.00  0.00     0.000 HD 
HETATM   14  O   UNL     1      -9.294   7.711  74.259  1.00  0.00    -0.419 OA 
HETATM   15  C   UNL     1     -11.151   6.414  73.343  1.00  0.00    -0.037 C  
HETATM   16  H1  UNL     1      -8.808   3.869  73.655  1.00  0.00     0.000 HD 
HETATM   17  H   UNL     1      -9.883   8.091  74.902  1.00  0.00     0.000 HD 
BRANCH   7  18
HETATM   18  O   UNL     1      -8.074   5.708  70.618  1.00  0.00    -0.111 OA 
BRANCH  18  19
HETATM   19  C   UNL     1      -7.441   6.322  69.503  1.00  0.00    -0.093 C  
HETATM   20  O   UNL     1      -9.210   5.210  68.165  1.00  0.00    -0.110 OA 
HETATM   21  C   UNL     1      -7.672   7.810  69.795  1.00  0.00    -0.097 C  
HETATM   22  C   UNL     1      -8.563   7.521  67.693  1.00  0.00    -0.119 C  
HETATM   23  H   UNL     1      -9.611   5.081  67.313  1.00  0.00     0.000 HD 
HETATM   24  O   UNL     1      -8.716   8.252  68.911  1.00  0.00    -0.135 OA 
HETATM   25  C   UNL     1      -8.091   6.113  68.119  1.00  0.00    -0.111 C  
BRANCH  21  26
HETATM   26  C   UNL     1      -6.412   8.671  69.668  1.00  0.00    -0.039 C  
HETATM   27  H   UNL     1      -4.464   8.521  70.029  1.00  0.00     0.000 HD 
HETATM   28  O   UNL     1      -5.245   7.988  70.107  1.00  0.00    -0.023 OA 
ENDBRANCH  21  26
BRANCH  22  29
HETATM   29  O   UNL     1      -7.618   8.172  66.835  1.00  0.00    -0.092 OA 
BRANCH  29  30
HETATM   30  C   UNL     1      -7.980   8.321  65.420  1.00  0.00    -0.127 C  
HETATM   31  C   UNL     1      -7.542   7.074  64.608  1.00  0.00    -0.106 C  
HETATM   32  O   UNL     1      -8.622   6.115  64.608  1.00  0.00    -0.328 OA 
HETATM   33  C   UNL     1      -7.106   7.259  63.145  1.00  0.00    -0.062 C  
HETATM   34  C   UNL     1      -6.543   8.636  62.841  1.00  0.00    -0.091 C  
HETATM   35  N   UNL     1      -6.078   6.245  62.797  1.00  0.00    -0.026 NA 
HETATM   36  H   UNL     1      -8.354   5.352  64.110  1.00  0.00     0.000 HD 
HETATM   37  H1  UNL     1      -5.789   6.368  61.826  1.00  0.00     0.000 HD 
HETATM   38  H2  UNL     1      -6.397   5.295  62.985  1.00  0.00     0.000 HD 
HETATM   39  C   UNL     1      -7.518   9.717  63.303  1.00  0.00    -0.116 C  
HETATM   40  C   UNL     1      -7.607   9.718  64.850  1.00  0.00    -0.128 C  
HETATM   41  N   UNL     1      -7.053  11.022  62.785  1.00  0.00    -0.351 NA 
HETATM   42  H2  UNL     1      -6.923  11.018  61.773  1.00  0.00     0.000 HD 
HETATM   43  H1  UNL     1      -7.704  11.744  63.094  1.00  0.00     0.000 HD 
BRANCH  40  44
HETATM   44  O   UNL     1      -8.578  10.728  65.218  1.00  0.00    -0.183 OA 
BRANCH  44  45
HETATM   45  C   UNL     1      -9.945  10.385  64.977  1.00  0.00    -0.330 C  
HETATM   46  O   UNL     1     -10.615  10.005  66.182  1.00  0.00    -0.129 OA 
HETATM   47  C   UNL     1     -10.727  11.072  67.135  1.00  0.00    -0.265 C  
HETATM   48  C   UNL     1     -11.477  12.278  66.550  1.00  0.00    -0.381 C  
HETATM   49  H1  UNL     1     -10.485  12.771  62.557  1.00  0.00     0.000 HD 
HETATM   50  O   UNL     1     -11.552  13.373  67.474  1.00  0.00    -0.304 OA 
HETATM   51  H2  UNL     1      -9.907  11.205  62.379  1.00  0.00     0.000 HD 
HETATM   52  C   UNL     1     -10.785  12.747  65.262  1.00  0.00    -0.294 C  
HETATM   53  H   UNL     1     -12.016  14.119  67.112  1.00  0.00     0.000 HD 
HETATM   54  O   UNL     1     -11.546  13.810  64.663  1.00  0.00    -0.349 OA 
HETATM   55  C   UNL     1     -10.667  11.569  64.277  1.00  0.00    -0.355 C  
HETATM   56  N   UNL     1     -10.011  11.994  63.017  1.00  0.00    -0.303 NA 
HETATM   57  H   UNL     1     -11.117  14.100  63.866  1.00  0.00     0.000 HD 
BRANCH  47  58
HETATM   58  C   UNL     1     -11.380  10.510  68.418  1.00  0.00    -0.262 C  
HETATM   59  H1  UNL     1     -11.231  10.638  70.517  1.00  0.00     0.000 HD 
HETATM   60  N   UNL     1     -10.800  11.010  69.670  1.00  0.00    -0.401 NA 
HETATM   61  H2  UNL     1     -10.813  12.030  69.683  1.00  0.00     0.000 HD 
ENDBRANCH  47  58
ENDBRANCH  44  45
ENDBRANCH  40  44
ENDBRANCH  29  30
ENDBRANCH  22  29
ENDBRANCH  18  19
ENDBRANCH   7  18
ENDBRANCH   2   5
TORSDOF 9
ENDMDL
MODEL       93
REMARK 921   NORMALIZED FREE ENERGY PREDICTED BY IDOCK:   -5.55 KCAL/MOL
REMARK 922        TOTAL FREE ENERGY PREDICTED BY IDOCK:  -11.28 KCAL/MOL
REMARK 923 INTER-LIGAND FREE ENERGY PREDICTED BY IDOCK:   -8.70 KCAL/MOL
REMARK 924 INTRA-LIGAND FREE ENERGY PREDICTED BY IDOCK:   -2.58 KCAL/MOL
REMARK 927      BINDING AFFINITY PREDICTED BY RF-SCORE:    0.00 PKD
ROOT
HETATM    1  N   UNL     1     -12.528  14.114  63.554  1.00  0.00    -1.106 NA 
HETATM    2  C   UNL     1     -12.760  13.719  64.947  1.00  0.00    -0.271 C  
HETATM    3  H1  UNL     1     -13.346  14.461  63.055  1.00  0.00     0.000 HD 
HETATM    4  H2  UNL     1     -12.106  13.342  63.038  1.00  0.00     0.000 HD 
ENDROOT
BRANCH   2   5
HETATM    5  C   UNL     1     -11.514  13.190  65.706  1.00  0.00    -0.325 C  
HETATM    6  O   UNL     1     -11.722  11.904  66.345  1.00  0.00    -0.522 OA 
HETATM    7  C   UNL     1     -10.494  11.422  66.917  1.00  0.00    -0.240 C  
HETATM    8  C   UNL     1     -10.001  12.387  68.045  1.00  0.00    -0.207 C  
HETATM    9  O   UNL     1     -12.227  14.446  67.669  1.00  0.00    -0.598 OA 
HETATM   10  H   UNL     1     -11.990  15.096  68.321  1.00  0.00     0.000 HD 
HETATM   11  N   UNL     1     -10.934  12.338  69.219  1.00  0.00    -0.426 NA 
HETATM   12  C   UNL     1      -9.860  13.813  67.514  1.00  0.00    -0.230 C  
HETATM   13  H2  UNL     1     -11.063  11.387  69.563  1.00  0.00     0.000 HD 
HETATM   14  O   UNL     1      -8.703  13.964  66.680  1.00  0.00    -0.420 OA 
HETATM   15  C   UNL     1     -11.127  14.249  66.768  1.00  0.00    -0.314 C  
HETATM   16  H1  UNL     1     -10.613  12.967  69.955  1.00  0.00     0.000 HD 
HETATM   17  H   UNL     1      -8.615  14.850  66.350  1.00  0.00     0.000 HD 
BRANCH   7  18
HETATM   18  O   UNL     1     -10.626  10.197  67.616  1.00  0.00    -0.226 OA 
BRANCH  18  19
HETATM   19  C   UNL     1      -9.491   9.369  67.834  1.00  0.00    -0.132 C  
HETATM   20  O   UNL     1     -11.156   7.582  68.279  1.00  0.00    -0.442 OA 
HETATM   21  C   UNL     1      -8.852   9.342  66.440  1.00  0.00    -0.145 C  
HETATM   22  C   UNL     1      -9.161   7.118  66.940  1.00  0.00    -0.141 C  
HETATM   23  H   UNL     1     -11.317   6.666  68.471  1.00  0.00     0.000 HD 
HETATM   24  O   UNL     1      -9.154   8.059  65.866  1.00  0.00    -0.168 OA 
HETATM   25  C   UNL     1      -9.754   7.880  68.147  1.00  0.00    -0.159 C  
BRANCH  21  26
HETATM   26  C   UNL     1      -7.348   9.631  66.440  1.00  0.00    -0.094 C  
HETATM   27  H   UNL     1      -6.134  11.203  66.495  1.00  0.00     0.000 HD 
HETATM   28  O   UNL     1      -7.066  11.023  66.495  1.00  0.00    -0.131 OA 
ENDBRANCH  21  26
BRANCH  22  29
HETATM   29  O   UNL     1      -7.833   6.644  67.200  1.00  0.00    -0.102 OA 
BRANCH  29  30
HETATM   30  C   UNL     1      -7.570   5.217  66.979  1.00  0.00    -0.088 C  
HETATM   31  C   UNL     1      -7.373   4.922  65.469  1.00  0.00    -0.073 C  
HETATM   32  O   UNL     1      -5.971   5.056  65.148  1.00  0.00    -0.024 OA 
HETATM   33  C   UNL     1      -7.834   3.565  64.914  1.00  0.00    -0.085 C  
HETATM   34  C   UNL     1      -8.970   2.933  65.698  1.00  0.00    -0.143 C  
HETATM   35  N   UNL     1      -8.271   3.724  63.503  1.00  0.00    -0.088 NA 
HETATM   36  H   UNL     1      -5.851   4.875  64.223  1.00  0.00     0.000 HD 
HETATM   37  H1  UNL     1      -8.577   2.823  63.134  1.00  0.00     0.000 HD 
HETATM   38  H2  UNL     1      -7.549   4.151  62.923  1.00  0.00     0.000 HD 
HETATM   39  C   UNL     1      -8.611   2.867  67.181  1.00  0.00    -0.105 C  
HETATM   40  C   UNL     1      -8.545   4.300  67.770  1.00  0.00    -0.099 C  
HETATM   41  N   UNL     1      -9.625   2.043  67.874  1.00  0.00    -0.390 NA 
HETATM   42  H2  UNL     1      -9.730   1.118  67.456  1.00  0.00     0.000 HD 
HETATM   43  H1  UNL     1      -9.386   1.999  68.864  1.00  0.00     0.000 HD 
BRANCH  40  44
HETATM   44  O   UNL     1      -8.157   4.169  69.160  1.00  0.00    -0.066 OA 
BRANCH  44  45
HETATM   45  C   UNL     1      -9.057   4.751  70.107  1.00  0.00    -0.104 C  
HETATM   46  O   UNL     1      -9.920   3.770  70.687  1.00  0.00    -0.149 OA 
HETATM   47  C   UNL     1      -9.228   2.794  71.477  1.00  0.00    -0.115 C  
HETATM   48  C   UNL     1      -8.437   3.447  72.621  1.00  0.00    -0.085 C  
HETATM   49  H1  UNL     1      -6.815   7.044  71.356  1.00  0.00     0.000 HD 
HETATM   50  O   UNL     1      -7.697   2.487  73.388  1.00  0.00    -0.045 OA 
HETATM   51  H2  UNL     1      -7.859   7.198  70.050  1.00  0.00     0.000 HD 
HETATM   52  C   UNL     1      -7.470   4.496  72.052  1.00  0.00    -0.082 C  
HETATM   53  H   UNL     1      -7.208   2.892  74.096  1.00  0.00     0.000 HD 
HETATM   54  O   UNL     1      -6.806   5.176  73.131  1.00  0.00    -0.070 OA 
HETATM   55  C   UNL     1      -8.250   5.511  71.196  1.00  0.00    -0.120 C  
HETATM   56  N   UNL     1      -7.344   6.545  70.641  1.00  0.00    -0.077 NA 
HETATM   57  H   UNL     1      -6.208   5.826  72.779  1.00  0.00     0.000 HD 
BRANCH  47  58
HETATM   58  C   UNL     1     -10.254   1.746  71.964  1.00  0.00    -0.145 C  
HETATM   59  H1  UNL     1     -11.504   1.326  73.610  1.00  0.00     0.000 HD 
HETATM   60  N   UNL     1     -10.826   2.018  73.288  1.00  0.00    -0.147 NA 
HETATM   61  H2  UNL     1     -11.234   2.953  73.313  1.00  0.00     0.000 HD 
ENDBRANCH  47  58
ENDBRANCH  44  45
ENDBRANCH  40  44
ENDBRANCH  29  30
ENDBRANCH  22  29
ENDBRANCH  18  19
ENDBRANCH   7  18
ENDBRANCH   2   5
TORSDOF 9
ENDMDL
MODEL       94
REMARK 921   NORMALIZED FREE ENERGY PREDICTED BY IDOCK:   -5.54 KCAL/MOL
REMARK 922        TOTAL FREE ENERGY PREDICTED BY IDOCK:  -11.27 KCAL/MOL
REMARK 923 INTER-LIGAND FREE ENERGY PREDICTED BY IDOCK:   -9.05 KCAL/MOL
REMARK 924 INTRA-LIGAND FREE ENERGY PREDICTED BY IDOCK:   -2.22 KCAL/MOL
REMARK 927      BINDING AFFINITY PREDICTED BY RF-SCORE:    0.00 PKD
ROOT
HETATM    1  N   UNL     1      -8.100   3.454  69.393  1.00  0.00    -0.052 NA 
HETATM    2  C   UNL     1      -9.093   2.826  70.270  1.00  0.00    -0.113 C  
HETATM    3  H1  UNL     1      -7.649   2.830  68.726  1.00  0.00     0.000 HD 
HETATM    4  H2  UNL     1      -7.396   3.935  69.952  1.00  0.00     0.000 HD 
ENDROOT
BRANCH   2   5
HETATM    5  C   UNL     1      -9.779   3.776  71.287  1.00  0.00    -0.175 C  
HETATM    6  O   UNL     1      -9.657   5.182  70.949  1.00  0.00    -0.158 OA 
HETATM    7  C   UNL     1     -10.422   5.988  71.862  1.00  0.00    -0.218 C  
HETATM    8  C   UNL     1      -9.863   5.846  73.316  1.00  0.00    -0.170 C  
HETATM    9  O   UNL     1      -7.736   3.766  72.616  1.00  0.00    -0.065 OA 
HETATM   10  H   UNL     1      -7.348   3.605  73.468  1.00  0.00     0.000 HD 
HETATM   11  N   UNL     1      -8.501   6.467  73.415  1.00  0.00    -0.120 NA 
HETATM   12  C   UNL     1      -9.830   4.379  73.742  1.00  0.00    -0.135 C  
HETATM   13  H2  UNL     1      -8.502   7.438  73.101  1.00  0.00     0.000 HD 
HETATM   14  O   UNL     1     -11.139   3.877  74.042  1.00  0.00    -0.192 OA 
HETATM   15  C   UNL     1      -9.147   3.512  72.677  1.00  0.00    -0.099 C  
HETATM   16  H1  UNL     1      -8.136   6.375  74.363  1.00  0.00     0.000 HD 
HETATM   17  H   UNL     1     -11.119   2.965  74.308  1.00  0.00     0.000 HD 
BRANCH   7  18
HETATM   18  O   UNL     1     -10.305   7.381  71.637  1.00  0.00    -0.197 OA 
BRANCH  18  19
HETATM   19  C   UNL     1      -9.979   7.876  70.346  1.00  0.00    -0.192 C  
HETATM   20  O   UNL     1     -11.961   9.339  70.645  1.00  0.00    -0.410 OA 
HETATM   21  C   UNL     1      -8.622   8.543  70.600  1.00  0.00    -0.148 C  
HETATM   22  C   UNL     1      -9.894  10.227  69.684  1.00  0.00    -0.198 C  
HETATM   23  H   UNL     1     -12.499  10.042  70.301  1.00  0.00     0.000 HD 
HETATM   24  O   UNL     1      -8.852   9.962  70.624  1.00  0.00    -0.088 OA 
HETATM   25  C   UNL     1     -10.852   9.019  69.785  1.00  0.00    -0.205 C  
BRANCH  21  26
HETATM   26  C   UNL     1      -7.539   8.154  69.590  1.00  0.00    -0.099 C  
HETATM   27  H   UNL     1      -7.318   6.933  68.039  1.00  0.00     0.000 HD 
HETATM   28  O   UNL     1      -7.990   7.174  68.665  1.00  0.00    -0.119 OA 
ENDBRANCH  21  26
BRANCH  22  29
HETATM   29  O   UNL     1      -9.352  10.378  68.366  1.00  0.00    -0.141 OA 
BRANCH  29  30
HETATM   30  C   UNL     1      -8.690  11.650  68.049  1.00  0.00    -0.157 C  
HETATM   31  C   UNL     1      -7.348  11.775  68.815  1.00  0.00    -0.114 C  
HETATM   32  O   UNL     1      -6.293  11.218  67.999  1.00  0.00    -0.052 OA 
HETATM   33  C   UNL     1      -6.879  13.168  69.266  1.00  0.00    -0.024 C  
HETATM   34  C   UNL     1      -8.011  14.153  69.495  1.00  0.00     0.402 C  
HETATM   35  N   UNL     1      -6.098  13.051  70.524  1.00  0.00    -0.380 NA 
HETATM   36  H   UNL     1      -5.470  11.295  68.468  1.00  0.00     0.000 HD 
HETATM   37  H1  UNL     1      -5.788  13.975  70.823  1.00  0.00     0.000 HD 
HETATM   38  H2  UNL     1      -5.322  12.395  70.435  1.00  0.00     0.000 HD 
HETATM   39  C   UNL     1      -8.917  14.208  68.266  1.00  0.00    -0.188 C  
HETATM   40  C   UNL     1      -9.664  12.860  68.102  1.00  0.00    -0.227 C  
HETATM   41  N   UNL     1      -9.861  15.336  68.428  1.00  0.00    -0.212 NA 
HETATM   42  H2  UNL     1      -9.386  16.221  68.605  1.00  0.00     0.000 HD 
HETATM   43  H1  UNL     1     -10.465  15.372  67.607  1.00  0.00     0.000 HD 
BRANCH  40  44
HETATM   44  O   UNL     1     -10.465  12.963  66.899  1.00  0.00    -0.244 OA 
BRANCH  44  45
HETATM   45  C   UNL     1      -9.768  13.410  65.732  1.00  0.00    -0.129 C  
HETATM   46  O   UNL     1      -9.295  12.313  64.947  1.00  0.00     0.099 OA 
HETATM   47  C   UNL     1     -10.346  11.511  64.391  1.00  0.00    -0.312 C  
HETATM   48  C   UNL     1     -11.285  12.343  63.505  1.00  0.00    -0.469 C  
HETATM   49  H1  UNL     1     -11.801  16.120  65.128  1.00  0.00     0.000 HD 
HETATM   50  O   UNL     1     -12.372  11.565  62.983  1.00  0.00    -0.975 OA 
HETATM   51  H2  UNL     1     -10.429  16.029  66.091  1.00  0.00     0.000 HD 
HETATM   52  C   UNL     1     -11.847  13.526  64.307  1.00  0.00    -0.428 C  
HETATM   53  H   UNL     1     -12.953  12.080  62.435  1.00  0.00     0.000 HD 
HETATM   54  O   UNL     1     -12.644  14.358  63.447  1.00  0.00    -1.054 OA 
HETATM   55  C   UNL     1     -10.688  14.347  64.901  1.00  0.00    -0.426 C  
HETATM   56  N   UNL     1     -11.198  15.505  65.674  1.00  0.00    -0.218 NA 
HETATM   57  H   UNL     1     -12.991  15.090  63.943  1.00  0.00     0.000 HD 
BRANCH  47  58
HETATM   58  C   UNL     1      -9.705  10.316  63.650  1.00  0.00    -0.213 C  
HETATM   59  H1  UNL     1      -8.739   8.482  64.037  1.00  0.00     0.000 HD 
HETATM   60  N   UNL     1      -9.163   9.271  64.527  1.00  0.00    -0.434 NA 
HETATM   61  H2  UNL     1      -9.881   8.944  65.173  1.00  0.00     0.000 HD 
ENDBRANCH  47  58
ENDBRANCH  44  45
ENDBRANCH  40  44
ENDBRANCH  29  30
ENDBRANCH  22  29
ENDBRANCH  18  19
ENDBRANCH   7  18
ENDBRANCH   2   5
TORSDOF 9
ENDMDL
MODEL       95
REMARK 921   NORMALIZED FREE ENERGY PREDICTED BY IDOCK:   -5.52 KCAL/MOL
REMARK 922        TOTAL FREE ENERGY PREDICTED BY IDOCK:  -11.23 KCAL/MOL
REMARK 923 INTER-LIGAND FREE ENERGY PREDICTED BY IDOCK:   -9.16 KCAL/MOL
REMARK 924 INTRA-LIGAND FREE ENERGY PREDICTED BY IDOCK:   -2.08 KCAL/MOL
REMARK 927      BINDING AFFINITY PREDICTED BY RF-SCORE:    0.00 PKD
ROOT
HETATM    1  N   UNL     1     -12.711  15.509  69.493  1.00  0.00    -0.531 NA 
HETATM    2  C   UNL     1     -12.169  14.147  69.468  1.00  0.00    -0.305 C  
HETATM    3  H1  UNL     1     -12.747  15.949  70.412  1.00  0.00     0.000 HD 
HETATM    4  H2  UNL     1     -13.634  15.525  69.061  1.00  0.00     0.000 HD 
ENDROOT
BRANCH   2   5
HETATM    5  C   UNL     1     -12.114  13.477  68.070  1.00  0.00    -0.262 C  
HETATM    6  O   UNL     1     -11.086  12.459  67.949  1.00  0.00    -0.214 OA 
HETATM    7  C   UNL     1     -11.179  11.799  66.675  1.00  0.00    -0.323 C  
HETATM    8  C   UNL     1     -10.917  12.812  65.514  1.00  0.00    -0.280 C  
HETATM    9  O   UNL     1     -10.638  15.265  67.315  1.00  0.00    -0.278 OA 
HETATM   10  H   UNL     1     -10.490  15.950  66.673  1.00  0.00     0.000 HD 
HETATM   11  N   UNL     1      -9.487  13.265  65.528  1.00  0.00    -0.477 NA 
HETATM   12  C   UNL     1     -11.871  14.002  65.608  1.00  0.00    -0.377 C  
HETATM   13  H2  UNL     1      -8.838  12.478  65.499  1.00  0.00     0.000 HD 
HETATM   14  O   UNL     1     -13.202  13.658  65.200  1.00  0.00    -0.739 OA 
HETATM   15  C   UNL     1     -11.873  14.594  67.023  1.00  0.00    -0.337 C  
HETATM   16  H1  UNL     1      -9.315  13.926  64.771  1.00  0.00     0.000 HD 
HETATM   17  H   UNL     1     -13.795  14.398  65.259  1.00  0.00     0.000 HD 
BRANCH   7  18
HETATM   18  O   UNL     1     -10.170  10.830  66.453  1.00  0.00    -0.225 OA 
BRANCH  18  19
HETATM   19  C   UNL     1      -9.927   9.812  67.415  1.00  0.00    -0.191 C  
HETATM   20  O   UNL     1      -9.535   8.352  65.447  1.00  0.00    -0.423 OA 
HETATM   21  C   UNL     1      -8.665  10.334  68.111  1.00  0.00    -0.123 C  
HETATM   22  C   UNL     1      -8.064   8.231  67.398  1.00  0.00    -0.121 C  
HETATM   23  H   UNL     1      -9.277   7.498  65.120  1.00  0.00     0.000 HD 
HETATM   24  O   UNL     1      -7.564   9.550  67.623  1.00  0.00    -0.093 OA 
HETATM   25  C   UNL     1      -9.508   8.425  66.884  1.00  0.00    -0.185 C  
BRANCH  21  26
HETATM   26  C   UNL     1      -8.747  10.318  69.640  1.00  0.00    -0.105 C  
HETATM   27  H   UNL     1      -7.515  10.212  71.196  1.00  0.00     0.000 HD 
HETATM   28  O   UNL     1      -7.465  10.221  70.248  1.00  0.00    -0.208 OA 
ENDBRANCH  21  26
BRANCH  22  29
HETATM   29  O   UNL     1      -8.019   7.465  68.609  1.00  0.00    -0.119 OA 
BRANCH  29  30
HETATM   30  C   UNL     1      -9.133   6.545  68.868  1.00  0.00    -0.131 C  
HETATM   31  C   UNL     1      -9.678   6.735  70.307  1.00  0.00    -0.171 C  
HETATM   32  O   UNL     1     -10.727   7.727  70.281  1.00  0.00    -0.228 OA 
HETATM   33  C   UNL     1     -10.234   5.513  71.056  1.00  0.00    -0.223 C  
HETATM   34  C   UNL     1      -9.634   4.192  70.609  1.00  0.00    -0.264 C  
HETATM   35  N   UNL     1      -9.995   5.667  72.514  1.00  0.00    -0.167 NA 
HETATM   36  H   UNL     1     -11.061   7.844  71.163  1.00  0.00     0.000 HD 
HETATM   37  H1  UNL     1     -10.364   4.856  73.010  1.00  0.00     0.000 HD 
HETATM   38  H2  UNL     1     -10.372   6.542  72.875  1.00  0.00     0.000 HD 
HETATM   39  C   UNL     1      -9.745   4.051  69.092  1.00  0.00    -0.107 C  
HETATM   40  C   UNL     1      -8.832   5.094  68.399  1.00  0.00    -0.101 C  
HETATM   41  N   UNL     1      -9.370   2.669  68.720  1.00  0.00    -0.173 NA 
HETATM   42  H2  UNL     1      -9.917   1.968  69.219  1.00  0.00     0.000 HD 
HETATM   43  H1  UNL     1      -9.445   2.576  67.707  1.00  0.00     0.000 HD 
BRANCH  40  44
HETATM   44  O   UNL     1      -9.019   4.938  66.970  1.00  0.00    -0.109 OA 
BRANCH  44  45
HETATM   45  C   UNL     1      -8.040   4.134  66.306  1.00  0.00    -0.098 C  
HETATM   46  O   UNL     1      -8.639   3.031  65.621  1.00  0.00    -0.105 OA 
HETATM   47  C   UNL     1      -9.500   3.425  64.543  1.00  0.00    -0.149 C  
HETATM   48  C   UNL     1      -8.751   4.266  63.498  1.00  0.00    -0.121 C  
HETATM   49  H1  UNL     1      -6.015   6.753  65.368  1.00  0.00     0.000 HD 
HETATM   50  O   UNL     1      -9.611   4.711  62.440  1.00  0.00    -0.249 OA 
HETATM   51  H2  UNL     1      -5.992   5.864  66.792  1.00  0.00     0.000 HD 
HETATM   52  C   UNL     1      -8.106   5.484  64.175  1.00  0.00    -0.124 C  
HETATM   53  H   UNL     1      -9.147   5.232  61.794  1.00  0.00     0.000 HD 
HETATM   54  O   UNL     1      -7.322   6.213  63.214  1.00  0.00    -0.052 OA 
HETATM   55  C   UNL     1      -7.208   5.019  65.336  1.00  0.00    -0.068 C  
HETATM   56  N   UNL     1      -6.561   6.173  66.004  1.00  0.00    -0.046 NA 
HETATM   57  H   UNL     1      -6.923   6.966  63.633  1.00  0.00     0.000 HD 
BRANCH  47  58
HETATM   58  C   UNL     1     -10.151   2.155  63.953  1.00  0.00    -0.094 C  
HETATM   59  H1  UNL     1     -11.822   1.553  62.816  1.00  0.00     0.000 HD 
HETATM   60  N   UNL     1     -11.392   2.393  63.206  1.00  0.00    -0.463 NA 
HETATM   61  H2  UNL     1     -11.236   3.085  62.472  1.00  0.00     0.000 HD 
ENDBRANCH  47  58
ENDBRANCH  44  45
ENDBRANCH  40  44
ENDBRANCH  29  30
ENDBRANCH  22  29
ENDBRANCH  18  19
ENDBRANCH   7  18
ENDBRANCH   2   5
TORSDOF 9
ENDMDL
MODEL       96
REMARK 921   NORMALIZED FREE ENERGY PREDICTED BY IDOCK:   -5.52 KCAL/MOL
REMARK 922        TOTAL FREE ENERGY PREDICTED BY IDOCK:  -11.23 KCAL/MOL
REMARK 923 INTER-LIGAND FREE ENERGY PREDICTED BY IDOCK:   -9.21 KCAL/MOL
REMARK 924 INTRA-LIGAND FREE ENERGY PREDICTED BY IDOCK:   -2.03 KCAL/MOL
REMARK 927      BINDING AFFINITY PREDICTED BY RF-SCORE:    0.00 PKD
ROOT
HETATM    1  N   UNL     1     -11.604   4.265  64.665  1.00  0.00    -0.850 NA 
HETATM    2  C   UNL     1     -10.722   3.415  63.859  1.00  0.00    -0.218 C  
HETATM    3  H1  UNL     1     -12.574   4.306  64.355  1.00  0.00     0.000 HD 
HETATM    4  H2  UNL     1     -11.218   5.206  64.729  1.00  0.00     0.000 HD 
ENDROOT
BRANCH   2   5
HETATM    5  C   UNL     1      -9.245   3.352  64.330  1.00  0.00    -0.130 C  
HETATM    6  O   UNL     1      -8.885   4.400  65.267  1.00  0.00    -0.126 OA 
HETATM    7  C   UNL     1      -7.545   4.202  65.753  1.00  0.00    -0.085 C  
HETATM    8  C   UNL     1      -6.518   4.306  64.579  1.00  0.00    -0.042 C  
HETATM    9  O   UNL     1      -8.610   4.674  62.382  1.00  0.00    -0.093 OA 
HETATM   10  H   UNL     1      -8.059   4.730  61.610  1.00  0.00     0.000 HD 
HETATM   11  N   UNL     1      -6.458   5.712  64.059  1.00  0.00    -0.032 NA 
HETATM   12  C   UNL     1      -6.869   3.322  63.464  1.00  0.00    -0.039 C  
HETATM   13  H2  UNL     1      -6.256   6.383  64.800  1.00  0.00     0.000 HD 
HETATM   14  O   UNL     1      -6.547   1.970  63.818  1.00  0.00    -0.024 OA 
HETATM   15  C   UNL     1      -8.347   3.442  63.070  1.00  0.00    -0.084 C  
HETATM   16  H1  UNL     1      -5.788   5.780  63.293  1.00  0.00     0.000 HD 
HETATM   17  H   UNL     1      -6.765   1.358  63.125  1.00  0.00     0.000 HD 
BRANCH   7  18
HETATM   18  O   UNL     1      -7.094   5.220  66.629  1.00  0.00    -0.066 OA 
BRANCH  18  19
HETATM   19  C   UNL     1      -7.840   6.420  66.781  1.00  0.00    -0.104 C  
HETATM   20  O   UNL     1      -9.140   5.139  68.463  1.00  0.00    -0.107 OA 
HETATM   21  C   UNL     1      -6.784   7.375  67.350  1.00  0.00    -0.069 C  
HETATM   22  C   UNL     1      -8.484   7.455  68.899  1.00  0.00    -0.129 C  
HETATM   23  H   UNL     1      -9.827   5.143  69.119  1.00  0.00     0.000 HD 
HETATM   24  O   UNL     1      -7.064   7.519  68.753  1.00  0.00    -0.075 OA 
HETATM   25  C   UNL     1      -8.956   6.427  67.847  1.00  0.00    -0.114 C  
BRANCH  21  26
HETATM   26  C   UNL     1      -6.719   8.727  66.636  1.00  0.00    -0.072 C  
HETATM   27  H   UNL     1      -7.056   9.473  64.826  1.00  0.00     0.000 HD 
HETATM   28  O   UNL     1      -7.096   8.635  65.269  1.00  0.00    -0.080 OA 
ENDBRANCH  21  26
BRANCH  22  29
HETATM   29  O   UNL     1      -9.066   8.748  68.691  1.00  0.00    -0.141 OA 
BRANCH  29  30
HETATM   30  C   UNL     1      -9.759   9.368  69.828  1.00  0.00    -0.199 C  
HETATM   31  C   UNL     1      -9.311   8.718  71.163  1.00  0.00    -0.233 C  
HETATM   32  O   UNL     1      -8.175   9.446  71.677  1.00  0.00    -0.242 OA 
HETATM   33  C   UNL     1     -10.329   8.606  72.309  1.00  0.00    -0.306 C  
HETATM   34  C   UNL     1     -11.773   8.539  71.846  1.00  0.00    -0.409 C  
HETATM   35  N   UNL     1     -10.041   7.394  73.119  1.00  0.00    -0.259 NA 
HETATM   36  H   UNL     1      -7.901   9.047  72.495  1.00  0.00     0.000 HD 
HETATM   37  H1  UNL     1     -10.717   7.320  73.879  1.00  0.00     0.000 HD 
HETATM   38  H2  UNL     1      -9.079   7.378  73.457  1.00  0.00     0.000 HD 
HETATM   39  C   UNL     1     -12.077   9.703  70.903  1.00  0.00    -0.300 C  
HETATM   40  C   UNL     1     -11.285   9.530  69.582  1.00  0.00    -0.108 C  
HETATM   41  N   UNL     1     -13.536   9.742  70.660  1.00  0.00    -0.592 NA 
HETATM   42  H2  UNL     1     -14.075   9.787  71.525  1.00  0.00     0.000 HD 
HETATM   43  H1  UNL     1     -13.738  10.519  70.031  1.00  0.00     0.000 HD 
BRANCH  40  44
HETATM   44  O   UNL     1     -11.580  10.684  68.757  1.00  0.00    -0.276 OA 
BRANCH  44  45
HETATM   45  C   UNL     1     -10.509  11.619  68.601  1.00  0.00    -0.213 C  
HETATM   46  O   UNL     1      -9.945  11.562  67.289  1.00  0.00    -0.189 OA 
HETATM   47  C   UNL     1     -10.856  11.960  66.256  1.00  0.00    -0.282 C  
HETATM   48  C   UNL     1     -11.372  13.390  66.474  1.00  0.00    -0.320 C  
HETATM   49  H1  UNL     1     -11.929  14.100  70.518  1.00  0.00     0.000 HD 
HETATM   50  O   UNL     1     -12.325  13.784  65.477  1.00  0.00    -0.415 OA 
HETATM   51  H2  UNL     1     -10.944  12.830  71.004  1.00  0.00     0.000 HD 
HETATM   52  C   UNL     1     -12.015  13.505  67.864  1.00  0.00    -0.337 C  
HETATM   53  H   UNL     1     -12.644  14.669  65.612  1.00  0.00     0.000 HD 
HETATM   54  O   UNL     1     -12.405  14.868  68.105  1.00  0.00    -0.578 OA 
HETATM   55  C   UNL     1     -11.011  13.051  68.940  1.00  0.00    -0.230 C  
HETATM   56  N   UNL     1     -11.600  13.161  70.296  1.00  0.00    -0.097 NA 
HETATM   57  H   UNL     1     -12.802  14.939  68.965  1.00  0.00     0.000 HD 
BRANCH  47  58
HETATM   58  C   UNL     1     -10.159  11.763  64.891  1.00  0.00    -0.259 C  
HETATM   59  H1  UNL     1      -9.358  12.877  63.290  1.00  0.00     0.000 HD 
HETATM   60  N   UNL     1      -9.819  13.008  64.191  1.00  0.00    -0.681 NA 
HETATM   61  H2  UNL     1      -9.256  13.610  64.793  1.00  0.00     0.000 HD 
ENDBRANCH  47  58
ENDBRANCH  44  45
ENDBRANCH  40  44
ENDBRANCH  29  30
ENDBRANCH  22  29
ENDBRANCH  18  19
ENDBRANCH   7  18
ENDBRANCH   2   5
TORSDOF 9
ENDMDL
MODEL       97
REMARK 921   NORMALIZED FREE ENERGY PREDICTED BY IDOCK:   -5.50 KCAL/MOL
REMARK 922        TOTAL FREE ENERGY PREDICTED BY IDOCK:  -11.21 KCAL/MOL
REMARK 923 INTER-LIGAND FREE ENERGY PREDICTED BY IDOCK:   -9.91 KCAL/MOL
REMARK 924 INTRA-LIGAND FREE ENERGY PREDICTED BY IDOCK:   -1.29 KCAL/MOL
REMARK 927      BINDING AFFINITY PREDICTED BY RF-SCORE:    0.00 PKD
ROOT
HETATM    1  N   UNL     1      -5.214   6.528  69.404  1.00  0.00    -0.013 NA 
HETATM    2  C   UNL     1      -6.575   7.066  69.333  1.00  0.00    -0.045 C  
HETATM    3  H1  UNL     1      -4.889   6.281  70.339  1.00  0.00     0.000 HD 
HETATM    4  H2  UNL     1      -4.559   7.174  68.966  1.00  0.00     0.000 HD 
ENDROOT
BRANCH   2   5
HETATM    5  C   UNL     1      -7.070   7.441  67.911  1.00  0.00    -0.085 C  
HETATM    6  O   UNL     1      -8.491   7.725  67.842  1.00  0.00    -0.122 OA 
HETATM    7  C   UNL     1      -8.849   8.185  66.528  1.00  0.00    -0.149 C  
HETATM    8  C   UNL     1      -8.583   7.069  65.466  1.00  0.00    -0.081 C  
HETATM    9  O   UNL     1      -7.370   5.070  67.433  1.00  0.00    -0.079 OA 
HETATM   10  H   UNL     1      -7.157   4.347  66.854  1.00  0.00     0.000 HD 
HETATM   11  N   UNL     1      -9.530   5.922  65.664  1.00  0.00    -0.369 NA 
HETATM   12  C   UNL     1      -7.130   6.599  65.527  1.00  0.00    -0.064 C  
HETATM   13  H2  UNL     1     -10.503   6.227  65.659  1.00  0.00     0.000 HD 
HETATM   14  O   UNL     1      -6.231   7.558  64.956  1.00  0.00    -0.038 OA 
HETATM   15  C   UNL     1      -6.722   6.263  66.967  1.00  0.00    -0.061 C  
HETATM   16  H1  UNL     1      -9.356   5.193  64.972  1.00  0.00     0.000 HD 
HETATM   17  H   UNL     1      -5.327   7.267  64.994  1.00  0.00     0.000 HD 
BRANCH   7  18
HETATM   18  O   UNL     1     -10.235   8.426  66.359  1.00  0.00    -0.265 OA 
BRANCH  18  19
HETATM   19  C   UNL     1     -10.762   9.736  66.523  1.00  0.00     0.011 C  
HETATM   20  O   UNL     1     -10.806   9.178  68.941  1.00  0.00    -0.371 OA 
HETATM   21  C   UNL     1      -9.584  10.605  66.068  1.00  0.00    -0.198 C  
HETATM   22  C   UNL     1     -10.045  11.377  68.186  1.00  0.00    -0.189 C  
HETATM   23  H   UNL     1     -10.974   9.471  69.829  1.00  0.00     0.000 HD 
HETATM   24  O   UNL     1      -8.985  11.152  67.255  1.00  0.00    -0.145 OA 
HETATM   25  C   UNL     1     -11.035  10.212  67.966  1.00  0.00    -0.270 C  
BRANCH  21  26
HETATM   26  C   UNL     1      -9.968  11.696  65.064  1.00  0.00    -0.259 C  
HETATM   27  H   UNL     1     -11.604  12.403  64.187  1.00  0.00     0.000 HD 
HETATM   28  O   UNL     1     -11.366  11.727  64.809  1.00  0.00    -0.308 OA 
ENDBRANCH  21  26
BRANCH  22  29
HETATM   29  O   UNL     1     -10.653  12.654  67.953  1.00  0.00    -0.211 OA 
BRANCH  29  30
HETATM   30  C   UNL     1     -10.694  13.598  69.077  1.00  0.00    -0.165 C  
HETATM   31  C   UNL     1     -11.995  13.414  69.900  1.00  0.00    -0.338 C  
HETATM   32  O   UNL     1     -11.753  12.445  70.944  1.00  0.00    -0.281 OA 
HETATM   33  C   UNL     1     -12.629  14.645  70.568  1.00  0.00    -0.350 C  
HETATM   34  C   UNL     1     -12.321  15.954  69.864  1.00  0.00    -0.098 C  
HETATM   35  N   UNL     1     -14.104  14.480  70.625  1.00  0.00    -0.218 NA 
HETATM   36  H   UNL     1     -12.551  12.333  71.448  1.00  0.00     0.000 HD 
HETATM   37  H1  UNL     1     -14.525  15.297  71.069  1.00  0.00     0.000 HD 
HETATM   38  H2  UNL     1     -14.376  13.612  71.085  1.00  0.00     0.000 HD 
HETATM   39  C   UNL     1     -10.813  16.104  69.669  1.00  0.00    -0.338 C  
HETATM   40  C   UNL     1     -10.306  15.044  68.659  1.00  0.00    -0.236 C  
HETATM   41  N   UNL     1     -10.535  17.479  69.199  1.00  0.00    -0.392 NA 
HETATM   42  H2  UNL     1     -10.922  18.190  69.819  1.00  0.00     0.000 HD 
HETATM   43  H1  UNL     1      -9.528  17.578  69.069  1.00  0.00     0.000 HD 
BRANCH  40  44
HETATM   44  O   UNL     1      -8.870  15.210  68.556  1.00  0.00    -0.170 OA 
BRANCH  44  45
HETATM   45  C   UNL     1      -8.331  15.101  67.235  1.00  0.00    -0.201 C  
HETATM   46  O   UNL     1      -9.354  14.855  66.266  1.00  0.00    -0.286 OA 
HETATM   47  C   UNL     1     -10.287  15.936  66.132  1.00  0.00    -0.328 C  
HETATM   48  C   UNL     1      -9.585  17.245  65.741  1.00  0.00     0.066 C  
HETATM   49  H1  UNL     1      -5.914  17.516  67.643  1.00  0.00     0.000 HD 
HETATM   50  O   UNL     1     -10.499  18.347  65.653  1.00  0.00    -0.624 OA 
HETATM   51  H2  UNL     1      -5.824  15.872  67.973  1.00  0.00     0.000 HD 
HETATM   52  C   UNL     1      -8.489  17.575  66.765  1.00  0.00    -0.250 C  
HETATM   53  H   UNL     1     -10.065  19.157  65.411  1.00  0.00     0.000 HD 
HETATM   54  O   UNL     1      -7.768  18.745  66.342  1.00  0.00    -0.250 OA 
HETATM   55  C   UNL     1      -7.523  16.383  66.892  1.00  0.00    -0.234 C  
HETATM   56  N   UNL     1      -6.445  16.675  67.868  1.00  0.00    -0.130 NA 
HETATM   57  H   UNL     1      -7.090  18.948  66.975  1.00  0.00     0.000 HD 
BRANCH  47  58
HETATM   58  C   UNL     1     -11.385  15.508  65.131  1.00  0.00    -0.241 C  
HETATM   59  H1  UNL     1     -12.265  16.115  63.314  1.00  0.00     0.000 HD 
HETATM   60  N   UNL     1     -11.540  16.397  63.974  1.00  0.00    -1.542 NA 
HETATM   61  H2  UNL     1     -10.647  16.511  63.493  1.00  0.00     0.000 HD 
ENDBRANCH  47  58
ENDBRANCH  44  45
ENDBRANCH  40  44
ENDBRANCH  29  30
ENDBRANCH  22  29
ENDBRANCH  18  19
ENDBRANCH   7  18
ENDBRANCH   2   5
TORSDOF 9
ENDMDL
MODEL       98
REMARK 921   NORMALIZED FREE ENERGY PREDICTED BY IDOCK:   -5.49 KCAL/MOL
REMARK 922        TOTAL FREE ENERGY PREDICTED BY IDOCK:  -11.19 KCAL/MOL
REMARK 923 INTER-LIGAND FREE ENERGY PREDICTED BY IDOCK:   -9.50 KCAL/MOL
REMARK 924 INTRA-LIGAND FREE ENERGY PREDICTED BY IDOCK:   -1.69 KCAL/MOL
REMARK 927      BINDING AFFINITY PREDICTED BY RF-SCORE:    0.00 PKD
ROOT
HETATM    1  N   UNL     1      -7.997  21.078  66.733  1.00  0.00    -0.519 NA 
HETATM    2  C   UNL     1      -8.846  20.043  66.138  1.00  0.00    -0.258 C  
HETATM    3  H1  UNL     1      -8.303  22.038  66.579  1.00  0.00     0.000 HD 
HETATM    4  H2  UNL     1      -7.034  20.964  66.417  1.00  0.00     0.000 HD 
ENDROOT
BRANCH   2   5
HETATM    5  C   UNL     1      -8.380  18.582  66.372  1.00  0.00    -0.259 C  
HETATM    6  O   UNL     1      -9.451  17.680  66.752  1.00  0.00    -0.262 OA 
HETATM    7  C   UNL     1      -8.967  16.328  66.827  1.00  0.00    -0.231 C  
HETATM    8  C   UNL     1      -7.881  16.197  67.944  1.00  0.00    -0.141 C  
HETATM    9  O   UNL     1      -7.852  19.163  68.680  1.00  0.00    -0.331 OA 
HETATM   10  H   UNL     1      -7.187  19.178  69.360  1.00  0.00     0.000 HD 
HETATM   11  N   UNL     1      -8.498  16.384  69.299  1.00  0.00    -0.167 NA 
HETATM   12  C   UNL     1      -6.746  17.194  67.714  1.00  0.00    -0.149 C  
HETATM   13  H2  UNL     1      -9.279  15.746  69.452  1.00  0.00     0.000 HD 
HETATM   14  O   UNL     1      -5.891  16.796  66.634  1.00  0.00    -0.288 OA 
HETATM   15  C   UNL     1      -7.296  18.607  67.479  1.00  0.00    -0.219 C  
HETATM   16  H1  UNL     1      -7.790  16.299  70.027  1.00  0.00     0.000 HD 
HETATM   17  H   UNL     1      -5.185  17.417  66.491  1.00  0.00     0.000 HD 
BRANCH   7  18
HETATM   18  O   UNL     1      -9.941  15.391  67.253  1.00  0.00    -0.224 OA 
BRANCH  18  19
HETATM   19  C   UNL     1      -9.574  14.043  67.517  1.00  0.00    -0.228 C  
HETATM   20  O   UNL     1     -10.541  14.450  69.766  1.00  0.00    -0.442 OA 
HETATM   21  C   UNL     1     -10.474  13.277  66.540  1.00  0.00    -0.281 C  
HETATM   22  C   UNL     1     -10.978  12.352  68.586  1.00  0.00    -0.247 C  
HETATM   23  H   UNL     1     -10.774  14.095  70.615  1.00  0.00     0.000 HD 
HETATM   24  O   UNL     1     -11.536  12.698  67.317  1.00  0.00    -0.301 OA 
HETATM   25  C   UNL     1      -9.952  13.465  68.897  1.00  0.00     0.046 C  
BRANCH  21  26
HETATM   26  C   UNL     1      -9.735  12.227  65.706  1.00  0.00    -0.216 C  
HETATM   27  H   UNL     1     -10.153  10.851  64.335  1.00  0.00     0.000 HD 
HETATM   28  O   UNL     1     -10.611  11.503  64.852  1.00  0.00    -0.279 OA 
ENDBRANCH  21  26
BRANCH  22  29
HETATM   29  O   UNL     1     -10.368  11.056  68.528  1.00  0.00    -0.174 OA 
BRANCH  29  30
HETATM   30  C   UNL     1     -11.025   9.967  69.261  1.00  0.00    -0.228 C  
HETATM   31  C   UNL     1     -12.179  10.516  70.140  1.00  0.00    -0.280 C  
HETATM   32  O   UNL     1     -13.399  10.504  69.368  1.00  0.00    -0.160 OA 
HETATM   33  C   UNL     1     -12.486   9.821  71.476  1.00  0.00    -0.403 C  
HETATM   34  C   UNL     1     -11.290   9.119  72.094  1.00  0.00    -0.209 C  
HETATM   35  N   UNL     1     -13.000  10.816  72.452  1.00  0.00    -0.281 NA 
HETATM   36  H   UNL     1     -14.106  10.840  69.907  1.00  0.00     0.000 HD 
HETATM   37  H1  UNL     1     -13.204  10.354  73.339  1.00  0.00     0.000 HD 
HETATM   38  H2  UNL     1     -13.806  11.327  72.091  1.00  0.00     0.000 HD 
HETATM   39  C   UNL     1     -10.651   8.176  71.076  1.00  0.00    -0.210 C  
HETATM   40  C   UNL     1     -10.010   8.998  69.928  1.00  0.00    -0.191 C  
HETATM   41  N   UNL     1      -9.646   7.343  71.773  1.00  0.00    -0.150 NA 
HETATM   42  H2  UNL     1     -10.037   6.848  72.575  1.00  0.00     0.000 HD 
HETATM   43  H1  UNL     1      -9.219   6.714  71.093  1.00  0.00     0.000 HD 
BRANCH  40  44
HETATM   44  O   UNL     1      -9.466   8.047  68.980  1.00  0.00    -0.151 OA 
BRANCH  44  45
HETATM   45  C   UNL     1     -10.385   7.566  67.995  1.00  0.00    -0.204 C  
HETATM   46  O   UNL     1      -9.963   7.902  66.671  1.00  0.00    -0.245 OA 
HETATM   47  C   UNL     1      -8.735   7.270  66.283  1.00  0.00    -0.149 C  
HETATM   48  C   UNL     1      -8.835   5.740  66.362  1.00  0.00    -0.131 C  
HETATM   49  H1  UNL     1     -11.136   4.629  69.623  1.00  0.00     0.000 HD 
HETATM   50  O   UNL     1      -7.598   5.095  66.027  1.00  0.00    -0.085 OA 
HETATM   51  H2  UNL     1     -11.865   6.134  69.779  1.00  0.00     0.000 HD 
HETATM   52  C   UNL     1      -9.261   5.317  67.776  1.00  0.00    -0.112 C  
HETATM   53  H   UNL     1      -7.660   4.148  66.076  1.00  0.00     0.000 HD 
HETATM   54  O   UNL     1      -9.452   3.893  67.818  1.00  0.00    -0.174 OA 
HETATM   55  C   UNL     1     -10.570   6.032  68.159  1.00  0.00    -0.262 C  
HETATM   56  N   UNL     1     -11.014   5.636  69.516  1.00  0.00    -0.294 NA 
HETATM   57  H   UNL     1      -9.716   3.632  68.693  1.00  0.00     0.000 HD 
BRANCH  47  58
HETATM   58  C   UNL     1      -8.345   7.786  64.879  1.00  0.00    -0.063 C  
HETATM   59  H1  UNL     1      -8.950   9.194  63.431  1.00  0.00     0.000 HD 
HETATM   60  N   UNL     1      -9.207   8.854  64.358  1.00  0.00    -0.344 NA 
HETATM   61  H2  UNL     1      -9.251   9.629  65.021  1.00  0.00     0.000 HD 
ENDBRANCH  47  58
ENDBRANCH  44  45
ENDBRANCH  40  44
ENDBRANCH  29  30
ENDBRANCH  22  29
ENDBRANCH  18  19
ENDBRANCH   7  18
ENDBRANCH   2   5
TORSDOF 9
ENDMDL
MODEL       99
REMARK 921   NORMALIZED FREE ENERGY PREDICTED BY IDOCK:   -5.42 KCAL/MOL
REMARK 922        TOTAL FREE ENERGY PREDICTED BY IDOCK:  -11.08 KCAL/MOL
REMARK 923 INTER-LIGAND FREE ENERGY PREDICTED BY IDOCK:   -8.30 KCAL/MOL
REMARK 924 INTRA-LIGAND FREE ENERGY PREDICTED BY IDOCK:   -2.78 KCAL/MOL
REMARK 927      BINDING AFFINITY PREDICTED BY RF-SCORE:    0.00 PKD
ROOT
HETATM    1  N   UNL     1     -11.223   6.178  66.611  1.00  0.00    -0.758 NA 
HETATM    2  C   UNL     1     -10.127   5.235  66.371  1.00  0.00    -0.226 C  
HETATM    3  H1  UNL     1     -12.156   5.770  66.632  1.00  0.00     0.000 HD 
HETATM    4  H2  UNL     1     -11.188   6.934  65.928  1.00  0.00     0.000 HD 
ENDROOT
BRANCH   2   5
HETATM    5  C   UNL     1      -8.707   5.857  66.339  1.00  0.00    -0.131 C  
HETATM    6  O   UNL     1      -8.565   6.941  65.384  1.00  0.00    -0.131 OA 
HETATM    7  C   UNL     1      -7.266   7.547  65.501  1.00  0.00    -0.069 C  
HETATM    8  C   UNL     1      -6.147   6.515  65.146  1.00  0.00    -0.034 C  
HETATM    9  O   UNL     1      -8.042   4.154  64.725  1.00  0.00    -0.092 OA 
HETATM   10  H   UNL     1      -7.428   3.459  64.517  1.00  0.00     0.000 HD 
HETATM   11  N   UNL     1      -6.200   6.167  63.687  1.00  0.00    -0.028 NA 
HETATM   12  C   UNL     1      -6.270   5.263  66.014  1.00  0.00    -0.034 C  
HETATM   13  H2  UNL     1      -6.152   6.997  63.096  1.00  0.00     0.000 HD 
HETATM   14  O   UNL     1      -5.829   5.496  67.358  1.00  0.00    -0.016 OA 
HETATM   15  C   UNL     1      -7.706   4.724  66.000  1.00  0.00    -0.091 C  
HETATM   16  H1  UNL     1      -5.470   5.493  63.455  1.00  0.00     0.000 HD 
HETATM   17  H   UNL     1      -5.905   4.718  67.899  1.00  0.00     0.000 HD 
BRANCH   7  18
HETATM   18  O   UNL     1      -7.024   8.578  64.559  1.00  0.00    -0.072 OA 
BRANCH  18  19
HETATM   19  C   UNL     1      -7.202   9.940  64.923  1.00  0.00    -0.136 C  
HETATM   20  O   UNL     1      -9.493   9.657  64.013  1.00  0.00    -0.410 OA 
HETATM   21  C   UNL     1      -7.085   9.872  66.451  1.00  0.00    -0.096 C  
HETATM   22  C   UNL     1      -9.127  10.875  66.103  1.00  0.00    -0.183 C  
HETATM   23  H   UNL     1     -10.351  10.037  63.868  1.00  0.00     0.000 HD 
HETATM   24  O   UNL     1      -8.417   9.996  66.977  1.00  0.00    -0.124 OA 
HETATM   25  C   UNL     1      -8.596  10.559  64.687  1.00  0.00    -0.161 C  
BRANCH  21  26
HETATM   26  C   UNL     1      -6.134  10.913  67.048  1.00  0.00    -0.074 C  
HETATM   27  H   UNL     1      -5.209  12.580  66.489  1.00  0.00     0.000 HD 
HETATM   28  O   UNL     1      -5.799  11.934  66.119  1.00  0.00    -0.070 OA 
ENDBRANCH  21  26
BRANCH  22  29
HETATM   29  O   UNL     1      -8.897  12.241  66.473  1.00  0.00    -0.197 OA 
BRANCH  29  30
HETATM   30  C   UNL     1     -10.075  13.074  66.744  1.00  0.00    -0.247 C  
HETATM   31  C   UNL     1     -10.365  14.019  65.549  1.00  0.00    -0.339 C  
HETATM   32  O   UNL     1     -11.260  13.350  64.633  1.00  0.00    -0.330 OA 
HETATM   33  C   UNL     1     -10.965  15.406  65.830  1.00  0.00    -0.309 C  
HETATM   34  C   UNL     1     -10.626  15.956  67.203  1.00  0.00    -0.316 C  
HETATM   35  N   UNL     1     -10.489  16.374  64.808  1.00  0.00    -0.618 NA 
HETATM   36  H   UNL     1     -11.438  13.929  63.901  1.00  0.00     0.000 HD 
HETATM   37  H1  UNL     1     -10.887  17.294  64.995  1.00  0.00     0.000 HD 
HETATM   38  H2  UNL     1     -10.684  16.057  63.859  1.00  0.00     0.000 HD 
HETATM   39  C   UNL     1     -10.983  14.934  68.281  1.00  0.00    -0.264 C  
HETATM   40  C   UNL     1     -10.051  13.701  68.166  1.00  0.00    -0.245 C  
HETATM   41  N   UNL     1     -10.863  15.584  69.604  1.00  0.00    -0.259 NA 
HETATM   42  H2  UNL     1     -11.419  16.436  69.674  1.00  0.00     0.000 HD 
HETATM   43  H1  UNL     1     -11.101  14.901  70.324  1.00  0.00     0.000 HD 
BRANCH  40  44
HETATM   44  O   UNL     1     -10.471  12.756  69.181  1.00  0.00    -0.055 OA 
BRANCH  44  45
HETATM   45  C   UNL     1     -11.703  12.078  68.918  1.00  0.00    -0.326 C  
HETATM   46  O   UNL     1     -11.489  10.707  68.573  1.00  0.00    -0.286 OA 
HETATM   47  C   UNL     1     -10.929   9.929  69.641  1.00  0.00    -0.252 C  
HETATM   48  C   UNL     1     -11.821   9.957  70.891  1.00  0.00    -0.356 C  
HETATM   49  H1  UNL     1     -13.523  13.708  71.341  1.00  0.00     0.000 HD 
HETATM   50  O   UNL     1     -11.250   9.226  71.985  1.00  0.00    -0.343 OA 
HETATM   51  H2  UNL     1     -13.260  14.156  69.745  1.00  0.00     0.000 HD 
HETATM   52  C   UNL     1     -12.066  11.411  71.324  1.00  0.00     0.018 C  
HETATM   53  H   UNL     1     -11.802   9.244  72.758  1.00  0.00     0.000 HD 
HETATM   54  O   UNL     1     -12.982  11.438  72.432  1.00  0.00    -0.311 OA 
HETATM   55  C   UNL     1     -12.647  12.213  70.146  1.00  0.00     0.093 C  
HETATM   56  N   UNL     1     -12.904  13.620  70.536  1.00  0.00    -0.166 NA 
HETATM   57  H   UNL     1     -13.133  12.337  72.699  1.00  0.00     0.000 HD 
BRANCH  47  58
HETATM   58  C   UNL     1     -10.662   8.502  69.113  1.00  0.00    -0.110 C  
HETATM   59  H1  UNL     1      -9.066   7.216  68.616  1.00  0.00     0.000 HD 
HETATM   60  N   UNL     1      -9.242   8.159  68.966  1.00  0.00    -0.148 NA 
HETATM   61  H2  UNL     1      -8.749   8.310  69.846  1.00  0.00     0.000 HD 
ENDBRANCH  47  58
ENDBRANCH  44  45
ENDBRANCH  40  44
ENDBRANCH  29  30
ENDBRANCH  22  29
ENDBRANCH  18  19
ENDBRANCH   7  18
ENDBRANCH   2   5
TORSDOF 9
ENDMDL
MODEL      100
REMARK 921   NORMALIZED FREE ENERGY PREDICTED BY IDOCK:   -5.40 KCAL/MOL
REMARK 922        TOTAL FREE ENERGY PREDICTED BY IDOCK:  -11.06 KCAL/MOL
REMARK 923 INTER-LIGAND FREE ENERGY PREDICTED BY IDOCK:  -10.17 KCAL/MOL
REMARK 924 INTRA-LIGAND FREE ENERGY PREDICTED BY IDOCK:   -0.88 KCAL/MOL
REMARK 927      BINDING AFFINITY PREDICTED BY RF-SCORE:    0.00 PKD
ROOT
HETATM    1  N   UNL     1     -11.193   3.298  63.881  1.00  0.00    -0.513 NA 
HETATM    2  C   UNL     1      -9.821   3.060  64.339  1.00  0.00    -0.126 C  
HETATM    3  H1  UNL     1     -11.508   2.705  63.114  1.00  0.00     0.000 HD 
HETATM    4  H2  UNL     1     -11.313   4.280  63.634  1.00  0.00     0.000 HD 
ENDROOT
BRANCH   2   5
HETATM    5  C   UNL     1      -9.341   3.964  65.506  1.00  0.00    -0.160 C  
HETATM    6  O   UNL     1      -9.059   5.331  65.109  1.00  0.00    -0.143 OA 
HETATM    7  C   UNL     1      -8.744   6.134  66.259  1.00  0.00    -0.143 C  
HETATM    8  C   UNL     1      -7.443   5.611  66.952  1.00  0.00    -0.088 C  
HETATM    9  O   UNL     1      -7.058   3.216  65.093  1.00  0.00    -0.058 OA 
HETATM   10  H   UNL     1      -6.277   2.819  65.463  1.00  0.00     0.000 HD 
HETATM   11  N   UNL     1      -6.251   5.845  66.071  1.00  0.00    -0.036 NA 
HETATM   12  C   UNL     1      -7.579   4.132  67.311  1.00  0.00    -0.077 C  
HETATM   13  H2  UNL     1      -6.168   6.824  65.797  1.00  0.00     0.000 HD 
HETATM   14  O   UNL     1      -8.436   3.930  68.443  1.00  0.00    -0.089 OA 
HETATM   15  C   UNL     1      -8.069   3.317  66.108  1.00  0.00    -0.092 C  
HETATM   16  H1  UNL     1      -5.403   5.504  66.523  1.00  0.00     0.000 HD 
HETATM   17  H   UNL     1      -8.520   3.010  68.667  1.00  0.00     0.000 HD 
BRANCH   7  18
HETATM   18  O   UNL     1      -8.394   7.471  65.950  1.00  0.00    -0.125 OA 
BRANCH  18  19
HETATM   19  C   UNL     1      -9.307   8.530  66.205  1.00  0.00    -0.224 C  
HETATM   20  O   UNL     1     -10.786   6.747  67.095  1.00  0.00    -0.324 OA 
HETATM   21  C   UNL     1      -8.551   9.347  67.260  1.00  0.00    -0.128 C  
HETATM   22  C   UNL     1     -10.564   8.880  68.272  1.00  0.00    -0.152 C  
HETATM   23  H   UNL     1     -11.603   6.522  67.525  1.00  0.00     0.000 HD 
HETATM   24  O   UNL     1      -9.171   9.070  68.526  1.00  0.00    -0.136 OA 
HETATM   25  C   UNL     1     -10.635   8.165  66.904  1.00  0.00    -0.241 C  
BRANCH  21  26
HETATM   26  C   UNL     1      -8.500  10.849  66.963  1.00  0.00    -0.134 C  
HETATM   27  H   UNL     1      -8.782  12.073  65.424  1.00  0.00     0.000 HD 
HETATM   28  O   UNL     1      -8.814  11.142  65.609  1.00  0.00    -0.196 OA 
ENDBRANCH  21  26
BRANCH  22  29
HETATM   29  O   UNL     1     -11.247  10.140  68.260  1.00  0.00    -0.255 OA 
BRANCH  29  30
HETATM   30  C   UNL     1     -11.248  10.920  69.503  1.00  0.00    -0.277 C  
HETATM   31  C   UNL     1     -11.603  10.019  70.715  1.00  0.00    -0.360 C  
HETATM   32  O   UNL     1     -10.383   9.471  71.261  1.00  0.00    -0.312 OA 
HETATM   33  C   UNL     1     -12.385  10.632  71.889  1.00  0.00     0.053 C  
HETATM   34  C   UNL     1     -13.262  11.807  71.498  1.00  0.00    -0.292 C  
HETATM   35  N   UNL     1     -13.244   9.594  72.514  1.00  0.00    -0.562 NA 
HETATM   36  H   UNL     1     -10.601   8.919  72.003  1.00  0.00     0.000 HD 
HETATM   37  H1  UNL     1     -13.762  10.000  73.293  1.00  0.00     0.000 HD 
HETATM   38  H2  UNL     1     -12.710   8.772  72.796  1.00  0.00     0.000 HD 
HETATM   39  C   UNL     1     -12.440  12.845  70.735  1.00  0.00    -0.286 C  
HETATM   40  C   UNL     1     -12.008  12.268  69.363  1.00  0.00    -0.259 C  
HETATM   41  N   UNL     1     -13.258  14.067  70.577  1.00  0.00    -0.229 NA 
HETATM   42  H2  UNL     1     -13.608  14.422  71.467  1.00  0.00     0.000 HD 
HETATM   43  H1  UNL     1     -12.709  14.760  70.068  1.00  0.00     0.000 HD 
BRANCH  40  44
HETATM   44  O   UNL     1     -11.198  13.280  68.715  1.00  0.00    -0.248 OA 
BRANCH  44  45
HETATM   45  C   UNL     1     -11.916  14.227  67.920  1.00  0.00    -0.329 C  
HETATM   46  O   UNL     1     -11.587  15.572  68.274  1.00  0.00    -0.357 OA 
HETATM   47  C   UNL     1     -10.221  15.917  68.007  1.00  0.00    -0.238 C  
HETATM   48  C   UNL     1      -9.869  15.732  66.523  1.00  0.00    -0.269 C  
HETATM   49  H1  UNL     1     -11.805  12.396  65.008  1.00  0.00     0.000 HD 
HETATM   50  O   UNL     1      -8.492  16.023  66.250  1.00  0.00    -0.312 OA 
HETATM   51  H2  UNL     1     -12.945  12.344  66.239  1.00  0.00     0.000 HD 
HETATM   52  C   UNL     1     -10.179  14.291  66.091  1.00  0.00    -0.307 C  
HETATM   53  H   UNL     1      -8.274  15.908  65.332  1.00  0.00     0.000 HD 
HETATM   54  O   UNL     1      -9.945  14.149  64.679  1.00  0.00    -0.572 OA 
HETATM   55  C   UNL     1     -11.647  13.956  66.413  1.00  0.00    -0.367 C  
HETATM   56  N   UNL     1     -11.981  12.573  65.997  1.00  0.00    -0.561 NA 
HETATM   57  H   UNL     1     -10.137  13.258  64.412  1.00  0.00     0.000 HD 
BRANCH  47  58
HETATM   58  C   UNL     1      -9.974  17.354  68.519  1.00  0.00    -0.331 C  
HETATM   59  H1  UNL     1      -9.799  19.333  67.812  1.00  0.00     0.000 HD 
HETATM   60  N   UNL     1      -9.963  18.384  67.473  1.00  0.00    -0.321 NA 
HETATM   61  H2  UNL     1     -10.826  18.345  66.929  1.00  0.00     0.000 HD 
ENDBRANCH  47  58
ENDBRANCH  44  45
ENDBRANCH  40  44
ENDBRANCH  29  30
ENDBRANCH  22  29
ENDBRANCH  18  19
ENDBRANCH   7  18
ENDBRANCH   2   5
TORSDOF 9
ENDMDL
MODEL      101
REMARK 921   NORMALIZED FREE ENERGY PREDICTED BY IDOCK:   -5.39 KCAL/MOL
REMARK 922        TOTAL FREE ENERGY PREDICTED BY IDOCK:  -11.03 KCAL/MOL
REMARK 923 INTER-LIGAND FREE ENERGY PREDICTED BY IDOCK:   -9.37 KCAL/MOL
REMARK 924 INTRA-LIGAND FREE ENERGY PREDICTED BY IDOCK:   -1.66 KCAL/MOL
REMARK 927      BINDING AFFINITY PREDICTED BY RF-SCORE:    0.00 PKD
ROOT
HETATM    1  N   UNL     1      -9.728  11.901  62.881  1.00  0.00    -0.582 NA 
HETATM    2  C   UNL     1      -8.847  10.848  62.368  1.00  0.00    -0.313 C  
HETATM    3  H1  UNL     1     -10.160  12.494  62.173  1.00  0.00     0.000 HD 
HETATM    4  H2  UNL     1      -9.228  12.475  63.559  1.00  0.00     0.000 HD 
ENDROOT
BRANCH   2   5
HETATM    5  C   UNL     1      -8.190   9.946  63.446  1.00  0.00    -0.161 C  
HETATM    6  O   UNL     1      -8.168  10.538  64.771  1.00  0.00    -0.162 OA 
HETATM    7  C   UNL     1      -7.662   9.597  65.734  1.00  0.00    -0.106 C  
HETATM    8  C   UNL     1      -6.179   9.224  65.407  1.00  0.00    -0.064 C  
HETATM    9  O   UNL     1      -6.017  10.870  62.837  1.00  0.00    -0.333 OA 
HETATM   10  H   UNL     1      -5.130  10.682  62.553  1.00  0.00     0.000 HD 
HETATM   11  N   UNL     1      -5.282  10.407  65.624  1.00  0.00    -0.067 NA 
HETATM   12  C   UNL     1      -6.057   8.696  63.978  1.00  0.00    -0.071 C  
HETATM   13  H2  UNL     1      -5.379  10.790  66.564  1.00  0.00     0.000 HD 
HETATM   14  O   UNL     1      -6.572   7.363  63.851  1.00  0.00    -0.050 OA 
HETATM   15  C   UNL     1      -6.743   9.639  62.982  1.00  0.00    -0.107 C  
HETATM   16  H1  UNL     1      -4.315  10.164  65.410  1.00  0.00     0.000 HD 
HETATM   17  H   UNL     1      -6.496   7.035  62.963  1.00  0.00     0.000 HD 
BRANCH   7  18
HETATM   18  O   UNL     1      -7.551  10.120  67.046  1.00  0.00    -0.092 OA 
BRANCH  18  19
HETATM   19  C   UNL     1      -8.714  10.505  67.767  1.00  0.00    -0.122 C  
HETATM   20  O   UNL     1      -8.354  12.729  66.727  1.00  0.00    -0.378 OA 
HETATM   21  C   UNL     1      -9.792   9.635  67.108  1.00  0.00    -0.186 C  
HETATM   22  C   UNL     1     -10.602  11.776  66.878  1.00  0.00    -0.235 C  
HETATM   23  H   UNL     1      -8.670  13.616  66.600  1.00  0.00     0.000 HD 
HETATM   24  O   UNL     1     -10.554  10.496  66.245  1.00  0.00    -0.212 OA 
HETATM   25  C   UNL     1      -9.227  11.946  67.561  1.00  0.00    -0.177 C  
BRANCH  21  26
HETATM   26  C   UNL     1     -10.682   8.888  68.104  1.00  0.00    -0.092 C  
HETATM   27  H   UNL     1     -10.481   7.766  69.732  1.00  0.00     0.000 HD 
HETATM   28  O   UNL     1      -9.929   8.230  69.114  1.00  0.00    -0.185 OA 
ENDBRANCH  21  26
BRANCH  22  29
HETATM   29  O   UNL     1     -11.683  11.829  67.817  1.00  0.00    -0.464 OA 
BRANCH  29  30
HETATM   30  C   UNL     1     -11.452  12.554  69.073  1.00  0.00    -0.304 C  
HETATM   31  C   UNL     1     -11.915  11.709  70.288  1.00  0.00    -0.358 C  
HETATM   32  O   UNL     1     -10.805  10.906  70.746  1.00  0.00    -0.154 OA 
HETATM   33  C   UNL     1     -12.484  12.432  71.519  1.00  0.00    -0.018 C  
HETATM   34  C   UNL     1     -13.122  13.773  71.205  1.00  0.00    -0.370 C  
HETATM   35  N   UNL     1     -13.502  11.573  72.178  1.00  0.00    -0.523 NA 
HETATM   36  H   UNL     1     -11.089  10.388  71.490  1.00  0.00     0.000 HD 
HETATM   37  H1  UNL     1     -13.879  12.053  72.995  1.00  0.00     0.000 HD 
HETATM   38  H2  UNL     1     -13.134  10.651  72.411  1.00  0.00     0.000 HD 
HETATM   39  C   UNL     1     -12.149  14.644  70.412  1.00  0.00    -0.319 C  
HETATM   40  C   UNL     1     -11.924  14.033  69.005  1.00  0.00    -0.357 C  
HETATM   41  N   UNL     1     -12.704  16.012  70.327  1.00  0.00    -0.597 NA 
HETATM   42  H2  UNL     1     -12.922  16.404  71.243  1.00  0.00     0.000 HD 
HETATM   43  H1  UNL     1     -12.055  16.593  69.797  1.00  0.00     0.000 HD 
BRANCH  40  44
HETATM   44  O   UNL     1     -10.961  14.877  68.326  1.00  0.00    -0.248 OA 
BRANCH  44  45
HETATM   45  C   UNL     1     -10.319  15.859  69.144  1.00  0.00    -0.237 C  
HETATM   46  O   UNL     1      -9.123  15.349  69.739  1.00  0.00    -0.243 OA 
HETATM   47  C   UNL     1      -8.102  15.023  68.786  1.00  0.00    -0.166 C  
HETATM   48  C   UNL     1      -7.711  16.242  67.936  1.00  0.00    -0.141 C  
HETATM   49  H1  UNL     1     -11.060  18.541  67.120  1.00  0.00     0.000 HD 
HETATM   50  O   UNL     1      -6.728  15.920  66.942  1.00  0.00    -0.266 OA 
HETATM   51  H2  UNL     1     -11.969  17.884  68.368  1.00  0.00     0.000 HD 
HETATM   52  C   UNL     1      -8.958  16.819  67.248  1.00  0.00    -0.212 C  
HETATM   53  H   UNL     1      -6.486  16.673  66.416  1.00  0.00     0.000 HD 
HETATM   54  O   UNL     1      -8.606  18.017  66.535  1.00  0.00    -0.256 OA 
HETATM   55  C   UNL     1     -10.033  17.135  68.303  1.00  0.00    -0.300 C  
HETATM   56  N   UNL     1     -11.247  17.704  67.671  1.00  0.00     0.072 NA 
HETATM   57  H   UNL     1      -9.377  18.374  66.111  1.00  0.00     0.000 HD 
BRANCH  47  58
HETATM   58  C   UNL     1      -6.909  14.400  69.545  1.00  0.00    -0.133 C  
HETATM   59  H1  UNL     1      -5.293  13.080  69.247  1.00  0.00     0.000 HD 
HETATM   60  N   UNL     1      -6.080  13.492  68.745  1.00  0.00    -0.082 NA 
HETATM   61  H2  UNL     1      -5.755  13.961  67.899  1.00  0.00     0.000 HD 
ENDBRANCH  47  58
ENDBRANCH  44  45
ENDBRANCH  40  44
ENDBRANCH  29  30
ENDBRANCH  22  29
ENDBRANCH  18  19
ENDBRANCH   7  18
ENDBRANCH   2   5
TORSDOF 9
ENDMDL
MODEL      102
REMARK 921   NORMALIZED FREE ENERGY PREDICTED BY IDOCK:   -5.38 KCAL/MOL
REMARK 922        TOTAL FREE ENERGY PREDICTED BY IDOCK:  -11.02 KCAL/MOL
REMARK 923 INTER-LIGAND FREE ENERGY PREDICTED BY IDOCK:  -10.52 KCAL/MOL
REMARK 924 INTRA-LIGAND FREE ENERGY PREDICTED BY IDOCK:   -0.50 KCAL/MOL
REMARK 927      BINDING AFFINITY PREDICTED BY RF-SCORE:    0.00 PKD
ROOT
HETATM    1  N   UNL     1      -6.133  19.180  64.165  1.00  0.00    -0.449 NA 
HETATM    2  C   UNL     1      -7.111  19.903  64.982  1.00  0.00     0.025 C  
HETATM    3  H1  UNL     1      -5.816  19.668  63.327  1.00  0.00     0.000 HD 
HETATM    4  H2  UNL     1      -6.496  18.261  63.916  1.00  0.00     0.000 HD 
ENDROOT
BRANCH   2   5
HETATM    5  C   UNL     1      -7.594  19.160  66.256  1.00  0.00    -0.274 C  
HETATM    6  O   UNL     1      -8.135  17.839  65.993  1.00  0.00    -0.484 OA 
HETATM    7  C   UNL     1      -8.442  17.167  67.227  1.00  0.00    -0.196 C  
HETATM    8  C   UNL     1      -9.555  17.939  68.008  1.00  0.00    -0.290 C  
HETATM    9  O   UNL     1      -9.760  20.255  66.025  1.00  0.00    -0.611 OA 
HETATM   10  H   UNL     1     -10.420  20.797  66.441  1.00  0.00     0.000 HD 
HETATM   11  N   UNL     1     -10.861  17.858  67.274  1.00  0.00    -0.256 NA 
HETATM   12  C   UNL     1      -9.144  19.392  68.240  1.00  0.00    -0.345 C  
HETATM   13  H2  UNL     1     -11.131  16.893  67.083  1.00  0.00     0.000 HD 
HETATM   14  O   UNL     1      -8.144  19.512  69.260  1.00  0.00    -0.268 OA 
HETATM   15  C   UNL     1      -8.670  20.044  66.935  1.00  0.00    -0.341 C  
HETATM   16  H1  UNL     1     -11.587  18.361  67.783  1.00  0.00     0.000 HD 
HETATM   17  H   UNL     1      -7.888  20.416  69.404  1.00  0.00     0.000 HD 
BRANCH   7  18
HETATM   18  O   UNL     1      -9.035  15.892  67.056  1.00  0.00    -0.197 OA 
BRANCH  18  19
HETATM   19  C   UNL     1      -8.854  14.878  68.035  1.00  0.00    -0.167 C  
HETATM   20  O   UNL     1     -11.326  14.672  67.961  1.00  0.00    -0.283 OA 
HETATM   21  C   UNL     1      -8.079  13.816  67.247  1.00  0.00    -0.139 C  
HETATM   22  C   UNL     1      -9.913  12.676  68.040  1.00  0.00    -0.220 C  
HETATM   23  H   UNL     1     -12.102  14.212  68.258  1.00  0.00     0.000 HD 
HETATM   24  O   UNL     1      -9.009  12.764  66.938  1.00  0.00    -0.214 OA 
HETATM   25  C   UNL     1     -10.115  14.131  68.520  1.00  0.00    -0.243 C  
BRANCH  21  26
HETATM   26  C   UNL     1      -6.836  13.289  67.969  1.00  0.00    -0.122 C  
HETATM   27  H   UNL     1      -4.984  12.721  67.524  1.00  0.00     0.000 HD 
HETATM   28  O   UNL     1      -5.756  13.048  67.077  1.00  0.00    -0.298 OA 
ENDBRANCH  21  26
BRANCH  22  29
HETATM   29  O   UNL     1      -9.370  11.838  69.068  1.00  0.00     0.016 OA 
BRANCH  29  30
HETATM   30  C   UNL     1     -10.044  10.560  69.326  1.00  0.00    -0.224 C  
HETATM   31  C   UNL     1     -11.494  10.796  69.824  1.00  0.00    -0.311 C  
HETATM   32  O   UNL     1     -12.378  10.838  68.683  1.00  0.00    -0.825 OA 
HETATM   33  C   UNL     1     -12.102   9.802  70.827  1.00  0.00    -0.279 C  
HETATM   34  C   UNL     1     -11.075   9.098  71.696  1.00  0.00    -0.445 C  
HETATM   35  N   UNL     1     -13.059  10.510  71.716  1.00  0.00    -0.460 NA 
HETATM   36  H   UNL     1     -13.266  10.982  68.989  1.00  0.00     0.000 HD 
HETATM   37  H1  UNL     1     -13.463   9.851  72.381  1.00  0.00     0.000 HD 
HETATM   38  H2  UNL     1     -13.775  11.010  71.189  1.00  0.00     0.000 HD 
HETATM   39  C   UNL     1      -9.996   8.461  70.822  1.00  0.00    -0.189 C  
HETATM   40  C   UNL     1      -9.159   9.568  70.130  1.00  0.00    -0.240 C  
HETATM   41  N   UNL     1      -9.152   7.595  71.673  1.00  0.00    -0.133 NA 
HETATM   42  H2  UNL     1      -9.697   6.903  72.188  1.00  0.00     0.000 HD 
HETATM   43  H1  UNL     1      -8.432   7.170  71.089  1.00  0.00     0.000 HD 
BRANCH  40  44
HETATM   44  O   UNL     1      -8.190   8.900  69.285  1.00  0.00    -0.110 OA 
BRANCH  44  45
HETATM   45  C   UNL     1      -8.276   7.473  69.259  1.00  0.00    -0.130 C  
HETATM   46  O   UNL     1      -9.492   7.028  68.652  1.00  0.00    -0.137 OA 
HETATM   47  C   UNL     1      -9.596   7.370  67.262  1.00  0.00    -0.150 C  
HETATM   48  C   UNL     1      -8.433   6.788  66.446  1.00  0.00    -0.126 C  
HETATM   49  H1  UNL     1      -4.932   6.930  68.658  1.00  0.00     0.000 HD 
HETATM   50  O   UNL     1      -8.495   7.165  65.064  1.00  0.00    -0.298 OA 
HETATM   51  H2  UNL     1      -5.722   7.097  70.130  1.00  0.00     0.000 HD 
HETATM   52  C   UNL     1      -7.095   7.255  67.040  1.00  0.00    -0.087 C  
HETATM   53  H   UNL     1      -7.775   6.805  64.559  1.00  0.00     0.000 HD 
HETATM   54  O   UNL     1      -6.009   6.628  66.337  1.00  0.00    -0.027 OA 
HETATM   55  C   UNL     1      -7.033   6.886  68.534  1.00  0.00    -0.076 C  
HETATM   56  N   UNL     1      -5.747   7.315  69.134  1.00  0.00    -0.018 NA 
HETATM   57  H   UNL     1      -5.182   6.917  66.705  1.00  0.00     0.000 HD 
BRANCH  47  58
HETATM   58  C   UNL     1     -10.985   6.920  66.755  1.00  0.00    -0.125 C  
HETATM   59  H1  UNL     1     -11.965   5.230  65.963  1.00  0.00     0.000 HD 
HETATM   60  N   UNL     1     -11.048   5.527  66.299  1.00  0.00    -0.770 NA 
HETATM   61  H2  UNL     1     -10.718   4.899  67.033  1.00  0.00     0.000 HD 
ENDBRANCH  47  58
ENDBRANCH  44  45
ENDBRANCH  40  44
ENDBRANCH  29  30
ENDBRANCH  22  29
ENDBRANCH  18  19
ENDBRANCH   7  18
ENDBRANCH   2   5
TORSDOF 9
ENDMDL
MODEL      103
REMARK 921   NORMALIZED FREE ENERGY PREDICTED BY IDOCK:   -5.37 KCAL/MOL
REMARK 922        TOTAL FREE ENERGY PREDICTED BY IDOCK:  -11.01 KCAL/MOL
REMARK 923 INTER-LIGAND FREE ENERGY PREDICTED BY IDOCK:   -8.44 KCAL/MOL
REMARK 924 INTRA-LIGAND FREE ENERGY PREDICTED BY IDOCK:   -2.57 KCAL/MOL
REMARK 927      BINDING AFFINITY PREDICTED BY RF-SCORE:    0.00 PKD
ROOT
HETATM    1  N   UNL     1      -5.970   3.836  66.042  1.00  0.00    -0.026 NA 
HETATM    2  C   UNL     1      -7.083   3.589  65.121  1.00  0.00    -0.065 C  
HETATM    3  H1  UNL     1      -5.188   3.185  65.969  1.00  0.00     0.000 HD 
HETATM    4  H2  UNL     1      -6.312   3.863  67.003  1.00  0.00     0.000 HD 
ENDROOT
BRANCH   2   5
HETATM    5  C   UNL     1      -8.272   4.579  65.233  1.00  0.00    -0.112 C  
HETATM    6  O   UNL     1      -7.894   5.897  65.707  1.00  0.00    -0.096 OA 
HETATM    7  C   UNL     1      -9.021   6.790  65.663  1.00  0.00     0.047 C  
HETATM    8  C   UNL     1     -10.148   6.295  66.627  1.00  0.00    -0.155 C  
HETATM    9  O   UNL     1      -8.711   3.736  67.478  1.00  0.00    -0.099 OA 
HETATM   10  H   UNL     1      -9.350   3.352  68.067  1.00  0.00     0.000 HD 
HETATM   11  N   UNL     1      -9.706   6.418  68.056  1.00  0.00    -0.121 NA 
HETATM   12  C   UNL     1     -10.549   4.858  66.297  1.00  0.00    -0.255 C  
HETATM   13  H2  UNL     1      -9.404   7.366  68.280  1.00  0.00     0.000 HD 
HETATM   14  O   UNL     1     -11.337   4.780  65.102  1.00  0.00    -0.881 OA 
HETATM   15  C   UNL     1      -9.314   3.953  66.193  1.00  0.00    -0.175 C  
HETATM   16  H1  UNL     1     -10.441   6.095  68.684  1.00  0.00     0.000 HD 
HETATM   17  H   UNL     1     -11.587   3.886  64.897  1.00  0.00     0.000 HD 
BRANCH   7  18
HETATM   18  O   UNL     1      -8.749   8.085  66.170  1.00  0.00    -0.138 OA 
BRANCH  18  19
HETATM   19  C   UNL     1      -9.695   9.133  66.007  1.00  0.00    -0.287 C  
HETATM   20  O   UNL     1      -9.363   9.514  68.436  1.00  0.00    -0.133 OA 
HETATM   21  C   UNL     1      -8.941  10.093  65.079  1.00  0.00    -0.195 C  
HETATM   22  C   UNL     1      -9.493  11.403  66.888  1.00  0.00    -0.179 C  
HETATM   23  H   UNL     1      -9.560  10.044  69.200  1.00  0.00     0.000 HD 
HETATM   24  O   UNL     1      -8.493  11.192  65.890  1.00  0.00    -0.165 OA 
HETATM   25  C   UNL     1     -10.016   9.994  67.247  1.00  0.00    -0.197 C  
BRANCH  21  26
HETATM   26  C   UNL     1      -9.759  10.566  63.875  1.00  0.00    -0.325 C  
HETATM   27  H   UNL     1      -9.751  10.366  61.898  1.00  0.00     0.000 HD 
HETATM   28  O   UNL     1      -9.244  10.073  62.645  1.00  0.00    -0.270 OA 
ENDBRANCH  21  26
BRANCH  22  29
HETATM   29  O   UNL     1     -10.532  12.253  66.383  1.00  0.00    -0.230 OA 
BRANCH  29  30
HETATM   30  C   UNL     1     -10.778  13.514  67.092  1.00  0.00    -0.279 C  
HETATM   31  C   UNL     1     -10.634  14.722  66.129  1.00  0.00    -0.311 C  
HETATM   32  O   UNL     1     -11.922  15.001  65.538  1.00  0.00    -0.172 OA 
HETATM   33  C   UNL     1     -10.097  16.051  66.684  1.00  0.00    -0.279 C  
HETATM   34  C   UNL     1      -9.187  15.892  67.889  1.00  0.00    -0.198 C  
HETATM   35  N   UNL     1      -9.346  16.770  65.622  1.00  0.00    -0.480 NA 
HETATM   36  H   UNL     1     -11.834  15.741  64.948  1.00  0.00     0.000 HD 
HETATM   37  H1  UNL     1      -8.990  17.652  65.990  1.00  0.00     0.000 HD 
HETATM   38  H2  UNL     1      -9.906  16.903  64.780  1.00  0.00     0.000 HD 
HETATM   39  C   UNL     1      -9.875  15.046  68.959  1.00  0.00    -0.236 C  
HETATM   40  C   UNL     1     -10.034  13.589  68.455  1.00  0.00    -0.232 C  
HETATM   41  N   UNL     1      -9.069  15.108  70.197  1.00  0.00    -0.280 NA 
HETATM   42  H2  UNL     1      -8.897  16.065  70.505  1.00  0.00     0.000 HD 
HETATM   43  H1  UNL     1      -9.529  14.543  70.911  1.00  0.00     0.000 HD 
BRANCH  40  44
HETATM   44  O   UNL     1     -10.731  12.856  69.492  1.00  0.00     0.091 OA 
BRANCH  44  45
HETATM   45  C   UNL     1     -12.110  12.578  69.229  1.00  0.00    -0.161 C  
HETATM   46  O   UNL     1     -12.364  11.173  69.176  1.00  0.00    -0.438 OA 
HETATM   47  C   UNL     1     -12.147  10.503  70.426  1.00  0.00    -0.329 C  
HETATM   48  C   UNL     1     -13.023  11.089  71.543  1.00  0.00    -0.448 C  
HETATM   49  H1  UNL     1     -13.354  15.194  71.086  1.00  0.00     0.000 HD 
HETATM   50  O   UNL     1     -12.779  10.465  72.811  1.00  0.00     0.147 OA 
HETATM   51  H2  UNL     1     -12.891  15.177  69.473  1.00  0.00     0.000 HD 
HETATM   52  C   UNL     1     -12.772  12.600  71.664  1.00  0.00    -0.187 C  
HETATM   53  H   UNL     1     -13.322  10.828  73.502  1.00  0.00     0.000 HD 
HETATM   54  O   UNL     1     -13.666  13.162  72.640  1.00  0.00    -0.651 OA 
HETATM   55  C   UNL     1     -12.997  13.275  70.298  1.00  0.00     0.305 C  
HETATM   56  N   UNL     1     -12.772  14.737  70.385  1.00  0.00    -0.339 NA 
HETATM   57  H   UNL     1     -13.510  14.096  72.714  1.00  0.00     0.000 HD 
BRANCH  47  58
HETATM   58  C   UNL     1     -12.364   8.988  70.210  1.00  0.00     0.493 C  
HETATM   59  H1  UNL     1     -13.668   7.429  70.768  1.00  0.00     0.000 HD 
HETATM   60  N   UNL     1     -13.526   8.430  70.911  1.00  0.00    -0.399 NA 
HETATM   61  H2  UNL     1     -14.370   8.947  70.665  1.00  0.00     0.000 HD 
ENDBRANCH  47  58
ENDBRANCH  44  45
ENDBRANCH  40  44
ENDBRANCH  29  30
ENDBRANCH  22  29
ENDBRANCH  18  19
ENDBRANCH   7  18
ENDBRANCH   2   5
TORSDOF 9
ENDMDL
MODEL      104
REMARK 921   NORMALIZED FREE ENERGY PREDICTED BY IDOCK:   -5.37 KCAL/MOL
REMARK 922        TOTAL FREE ENERGY PREDICTED BY IDOCK:  -11.00 KCAL/MOL
REMARK 923 INTER-LIGAND FREE ENERGY PREDICTED BY IDOCK:   -9.04 KCAL/MOL
REMARK 924 INTRA-LIGAND FREE ENERGY PREDICTED BY IDOCK:   -1.96 KCAL/MOL
REMARK 927      BINDING AFFINITY PREDICTED BY RF-SCORE:    0.00 PKD
ROOT
HETATM    1  N   UNL     1     -10.312  19.818  69.079  1.00  0.00    -0.605 NA 
HETATM    2  C   UNL     1      -9.805  20.249  67.773  1.00  0.00    -0.393 C  
HETATM    3  H1  UNL     1     -11.098  20.356  69.443  1.00  0.00     0.000 HD 
HETATM    4  H2  UNL     1      -9.554  19.803  69.760  1.00  0.00     0.000 HD 
ENDROOT
BRANCH   2   5
HETATM    5  C   UNL     1      -8.609  19.430  67.219  1.00  0.00    -0.296 C  
HETATM    6  O   UNL     1      -8.437  18.140  67.861  1.00  0.00    -0.244 OA 
HETATM    7  C   UNL     1      -7.394  17.391  67.212  1.00  0.00    -0.170 C  
HETATM    8  C   UNL     1      -6.022  18.127  67.355  1.00  0.00    -0.148 C  
HETATM    9  O   UNL     1      -7.146  20.575  68.798  1.00  0.00    -0.094 OA 
HETATM   10  H   UNL     1      -6.361  21.099  68.911  1.00  0.00     0.000 HD 
HETATM   11  N   UNL     1      -5.570  18.118  68.785  1.00  0.00    -0.182 NA 
HETATM   12  C   UNL     1      -6.116  19.554  66.816  1.00  0.00    -0.175 C  
HETATM   13  H2  UNL     1      -5.535  17.173  69.167  1.00  0.00     0.000 HD 
HETATM   14  O   UNL     1      -6.148  19.587  65.383  1.00  0.00    -0.195 OA 
HETATM   15  C   UNL     1      -7.330  20.285  67.404  1.00  0.00    -0.306 C  
HETATM   16  H1  UNL     1      -4.675  18.599  68.879  1.00  0.00     0.000 HD 
HETATM   17  H   UNL     1      -6.206  20.475  65.048  1.00  0.00     0.000 HD 
BRANCH   7  18
HETATM   18  O   UNL     1      -7.120  16.140  67.819  1.00  0.00    -0.121 OA 
BRANCH  18  19
HETATM   19  C   UNL     1      -7.546  14.933  67.201  1.00  0.00    -0.110 C  
HETATM   20  O   UNL     1      -6.418  13.816  69.108  1.00  0.00    -0.098 OA 
HETATM   21  C   UNL     1      -9.071  15.047  67.311  1.00  0.00    -0.201 C  
HETATM   22  C   UNL     1      -8.600  13.036  68.324  1.00  0.00    -0.167 C  
HETATM   23  H   UNL     1      -6.218  13.004  69.558  1.00  0.00     0.000 HD 
HETATM   24  O   UNL     1      -9.481  14.159  68.364  1.00  0.00    -0.207 OA 
HETATM   25  C   UNL     1      -7.221  13.613  67.931  1.00  0.00    -0.148 C  
BRANCH  21  26
HETATM   26  C   UNL     1      -9.812  14.764  66.001  1.00  0.00    -0.324 C  
HETATM   27  H   UNL     1     -10.975  15.728  64.710  1.00  0.00     0.000 HD 
HETATM   28  O   UNL     1     -10.515  15.903  65.522  1.00  0.00    -0.359 OA 
ENDBRANCH  21  26
BRANCH  22  29
HETATM   29  O   UNL     1      -9.069  12.066  67.378  1.00  0.00    -0.168 OA 
BRANCH  29  30
HETATM   30  C   UNL     1     -10.112  11.134  67.826  1.00  0.00    -0.178 C  
HETATM   31  C   UNL     1     -11.270  11.900  68.516  1.00  0.00    -0.256 C  
HETATM   32  O   UNL     1     -12.254  12.254  67.519  1.00  0.00    -0.457 OA 
HETATM   33  C   UNL     1     -12.025  11.218  69.669  1.00  0.00    -0.353 C  
HETATM   34  C   UNL     1     -11.199  10.193  70.425  1.00  0.00    -0.402 C  
HETATM   35  N   UNL     1     -12.496  12.243  70.636  1.00  0.00    -0.285 NA 
HETATM   36  H   UNL     1     -12.964  12.723  67.942  1.00  0.00     0.000 HD 
HETATM   37  H1  UNL     1     -12.997  11.791  71.400  1.00  0.00     0.000 HD 
HETATM   38  H2  UNL     1     -13.056  12.967  70.186  1.00  0.00     0.000 HD 
HETATM   39  C   UNL     1     -10.588   9.189  69.449  1.00  0.00    -0.223 C  
HETATM   40  C   UNL     1      -9.531   9.894  68.561  1.00  0.00    -0.146 C  
HETATM   41  N   UNL     1      -9.991   8.081  70.226  1.00  0.00    -0.188 NA 
HETATM   42  H2  UNL     1     -10.657   7.649  70.867  1.00  0.00     0.000 HD 
HETATM   43  H1  UNL     1      -9.583   7.411  69.575  1.00  0.00     0.000 HD 
BRANCH  40  44
HETATM   44  O   UNL     1      -9.027   8.902  67.633  1.00  0.00    -0.133 OA 
BRANCH  44  45
HETATM   45  C   UNL     1      -9.934   8.511  66.599  1.00  0.00    -0.293 C  
HETATM   46  O   UNL     1      -9.693   9.228  65.385  1.00  0.00    -0.251 OA 
HETATM   47  C   UNL     1      -8.415   8.947  64.798  1.00  0.00    -0.176 C  
HETATM   48  C   UNL     1      -8.248   7.451  64.492  1.00  0.00    -0.020 C  
HETATM   49  H1  UNL     1     -10.034   5.182  67.463  1.00  0.00     0.000 HD 
HETATM   50  O   UNL     1      -6.954   7.147  63.952  1.00  0.00    -0.052 OA 
HETATM   51  H2  UNL     1     -10.989   6.443  68.025  1.00  0.00     0.000 HD 
HETATM   52  C   UNL     1      -8.472   6.629  65.770  1.00  0.00    -0.148 C  
HETATM   53  H   UNL     1      -6.851   6.221  63.762  1.00  0.00     0.000 HD 
HETATM   54  O   UNL     1      -8.415   5.226  65.459  1.00  0.00    -0.129 OA 
HETATM   55  C   UNL     1      -9.844   6.975  66.377  1.00  0.00    -0.035 C  
HETATM   56  N   UNL     1     -10.093   6.189  67.609  1.00  0.00    -0.140 NA 
HETATM   57  H   UNL     1      -8.553   4.718  66.250  1.00  0.00     0.000 HD 
BRANCH  47  58
HETATM   58  C   UNL     1      -8.243   9.849  63.555  1.00  0.00    -0.163 C  
HETATM   59  H1  UNL     1      -6.769  10.955  62.532  1.00  0.00     0.000 HD 
HETATM   60  N   UNL     1      -6.882  10.359  63.353  1.00  0.00    -0.299 NA 
HETATM   61  H2  UNL     1      -6.214   9.588  63.326  1.00  0.00     0.000 HD 
ENDBRANCH  47  58
ENDBRANCH  44  45
ENDBRANCH  40  44
ENDBRANCH  29  30
ENDBRANCH  22  29
ENDBRANCH  18  19
ENDBRANCH   7  18
ENDBRANCH   2   5
TORSDOF 9
ENDMDL
MODEL      105
REMARK 921   NORMALIZED FREE ENERGY PREDICTED BY IDOCK:   -5.36 KCAL/MOL
REMARK 922        TOTAL FREE ENERGY PREDICTED BY IDOCK:  -11.00 KCAL/MOL
REMARK 923 INTER-LIGAND FREE ENERGY PREDICTED BY IDOCK:   -9.23 KCAL/MOL
REMARK 924 INTRA-LIGAND FREE ENERGY PREDICTED BY IDOCK:   -1.77 KCAL/MOL
REMARK 927      BINDING AFFINITY PREDICTED BY RF-SCORE:    0.00 PKD
ROOT
HETATM    1  N   UNL     1      -5.766  20.533  68.574  1.00  0.00    -0.277 NA 
HETATM    2  C   UNL     1      -6.329  19.569  67.624  1.00  0.00    -0.207 C  
HETATM    3  H1  UNL     1      -4.783  20.764  68.433  1.00  0.00     0.000 HD 
HETATM    4  H2  UNL     1      -5.915  20.210  69.529  1.00  0.00     0.000 HD 
ENDROOT
BRANCH   2   5
HETATM    5  C   UNL     1      -7.825  19.218  67.839  1.00  0.00    -0.289 C  
HETATM    6  O   UNL     1      -8.246  18.010  67.152  1.00  0.00    -0.214 OA 
HETATM    7  C   UNL     1      -9.603  17.682  67.500  1.00  0.00    -0.267 C  
HETATM    8  C   UNL     1     -10.577  18.808  67.024  1.00  0.00    -0.420 C  
HETATM    9  O   UNL     1      -8.393  20.662  65.959  1.00  0.00    -0.452 OA 
HETATM   10  H   UNL     1      -8.909  21.401  65.658  1.00  0.00     0.000 HD 
HETATM   11  N   UNL     1     -10.639  18.848  65.525  1.00  0.00    -0.521 NA 
HETATM   12  C   UNL     1     -10.157  20.163  67.593  1.00  0.00    -0.402 C  
HETATM   13  H2  UNL     1     -10.886  17.940  65.130  1.00  0.00     0.000 HD 
HETATM   14  O   UNL     1     -10.471  20.281  68.987  1.00  0.00    -0.483 OA 
HETATM   15  C   UNL     1      -8.666  20.423  67.349  1.00  0.00    -0.320 C  
HETATM   16  H1  UNL     1     -11.274  19.583  65.215  1.00  0.00     0.000 HD 
HETATM   17  H   UNL     1     -10.210  21.123  69.341  1.00  0.00     0.000 HD 
BRANCH   7  18
HETATM   18  O   UNL     1     -10.112  16.547  66.821  1.00  0.00    -0.270 OA 
BRANCH  18  19
HETATM   19  C   UNL     1     -10.156  15.283  67.469  1.00  0.00    -0.232 C  
HETATM   20  O   UNL     1      -9.691  14.357  65.213  1.00  0.00    -0.540 OA 
HETATM   21  C   UNL     1      -8.947  15.371  68.408  1.00  0.00    -0.189 C  
HETATM   22  C   UNL     1      -8.549  13.464  67.184  1.00  0.00    -0.195 C  
HETATM   23  H   UNL     1      -9.510  13.591  64.682  1.00  0.00     0.000 HD 
HETATM   24  O   UNL     1      -7.908  14.566  67.827  1.00  0.00    -0.132 OA 
HETATM   25  C   UNL     1      -9.863  14.037  66.606  1.00  0.00    -0.284 C  
BRANCH  21  26
HETATM   26  C   UNL     1      -9.250  14.961  69.852  1.00  0.00     0.323 C  
HETATM   27  H   UNL     1     -10.745  15.092  71.154  1.00  0.00     0.000 HD 
HETATM   28  O   UNL     1     -10.557  15.346  70.259  1.00  0.00    -0.301 OA 
ENDBRANCH  21  26
BRANCH  22  29
HETATM   29  O   UNL     1      -8.787  12.406  68.122  1.00  0.00    -0.182 OA 
BRANCH  29  30
HETATM   30  C   UNL     1     -10.015  11.619  67.955  1.00  0.00    -0.188 C  
HETATM   31  C   UNL     1     -10.853  11.626  69.261  1.00  0.00    -0.152 C  
HETATM   32  O   UNL     1     -11.767  12.744  69.222  1.00  0.00    -0.289 OA 
HETATM   33  C   UNL     1     -11.681  10.381  69.616  1.00  0.00    -0.212 C  
HETATM   34  C   UNL     1     -11.127   9.089  69.043  1.00  0.00     0.104 C  
HETATM   35  N   UNL     1     -11.766  10.240  71.092  1.00  0.00    -0.361 NA 
HETATM   36  H   UNL     1     -12.279  12.748  70.022  1.00  0.00     0.000 HD 
HETATM   37  H1  UNL     1     -12.316   9.414  71.327  1.00  0.00     0.000 HD 
HETATM   38  H2  UNL     1     -12.129  11.082  71.538  1.00  0.00     0.000 HD 
HETATM   39  C   UNL     1     -10.903   9.235  67.539  1.00  0.00    -0.112 C  
HETATM   40  C   UNL     1      -9.758  10.247  67.273  1.00  0.00    -0.166 C  
HETATM   41  N   UNL     1     -10.589   7.902  66.979  1.00  0.00    -0.384 NA 
HETATM   42  H2  UNL     1     -11.301   7.207  67.203  1.00  0.00     0.000 HD 
HETATM   43  H1  UNL     1     -10.440   8.000  65.975  1.00  0.00     0.000 HD 
BRANCH  40  44
HETATM   44  O   UNL     1      -9.630  10.373  65.836  1.00  0.00    -0.184 OA 
BRANCH  44  45
HETATM   45  C   UNL     1      -8.289  10.444  65.342  1.00  0.00    -0.165 C  
HETATM   46  O   UNL     1      -7.392   9.661  66.134  1.00  0.00    -0.095 OA 
HETATM   47  C   UNL     1      -7.666   8.254  66.087  1.00  0.00    -0.097 C  
HETATM   48  C   UNL     1      -7.605   7.713  64.650  1.00  0.00    -0.111 C  
HETATM   49  H1  UNL     1      -9.146  10.510  62.010  1.00  0.00     0.000 HD 
HETATM   50  O   UNL     1      -7.928   6.317  64.580  1.00  0.00    -0.113 OA 
HETATM   51  H2  UNL     1      -8.977  11.794  63.078  1.00  0.00     0.000 HD 
HETATM   52  C   UNL     1      -8.572   8.503  63.755  1.00  0.00     0.068 C  
HETATM   53  H   UNL     1      -7.890   5.982  63.691  1.00  0.00     0.000 HD 
HETATM   54  O   UNL     1      -8.439   8.062  62.393  1.00  0.00    -0.329 OA 
HETATM   55  C   UNL     1      -8.257  10.007  63.851  1.00  0.00    -0.159 C  
HETATM   56  N   UNL     1      -9.168  10.797  62.988  1.00  0.00    -0.276 NA 
HETATM   57  H   UNL     1      -9.037   8.551  61.839  1.00  0.00     0.000 HD 
BRANCH  47  58
HETATM   58  C   UNL     1      -6.694   7.537  67.051  1.00  0.00    -0.066 C  
HETATM   59  H1  UNL     1      -6.638   6.683  68.977  1.00  0.00     0.000 HD 
HETATM   60  N   UNL     1      -7.281   7.155  68.341  1.00  0.00    -0.088 NA 
HETATM   61  H2  UNL     1      -8.117   6.589  68.195  1.00  0.00     0.000 HD 
ENDBRANCH  47  58
ENDBRANCH  44  45
ENDBRANCH  40  44
ENDBRANCH  29  30
ENDBRANCH  22  29
ENDBRANCH  18  19
ENDBRANCH   7  18
ENDBRANCH   2   5
TORSDOF 9
ENDMDL
MODEL      106
REMARK 921   NORMALIZED FREE ENERGY PREDICTED BY IDOCK:   -5.33 KCAL/MOL
REMARK 922        TOTAL FREE ENERGY PREDICTED BY IDOCK:  -10.95 KCAL/MOL
REMARK 923 INTER-LIGAND FREE ENERGY PREDICTED BY IDOCK:   -9.13 KCAL/MOL
REMARK 924 INTRA-LIGAND FREE ENERGY PREDICTED BY IDOCK:   -1.82 KCAL/MOL
REMARK 927      BINDING AFFINITY PREDICTED BY RF-SCORE:    0.00 PKD
ROOT
HETATM    1  N   UNL     1      -9.445   1.893  69.913  1.00  0.00    -0.092 NA 
HETATM    2  C   UNL     1      -8.952   3.270  69.822  1.00  0.00    -0.109 C  
HETATM    3  H1  UNL     1      -9.004   1.227  69.280  1.00  0.00     0.000 HD 
HETATM    4  H2  UNL     1     -10.457   1.876  69.787  1.00  0.00     0.000 HD 
ENDROOT
BRANCH   2   5
HETATM    5  C   UNL     1      -9.624   4.284  70.785  1.00  0.00    -0.186 C  
HETATM    6  O   UNL     1      -9.306   5.669  70.492  1.00  0.00    -0.155 OA 
HETATM    7  C   UNL     1     -10.061   6.550  71.341  1.00  0.00    -0.191 C  
HETATM    8  C   UNL     1      -9.674   6.329  72.840  1.00  0.00    -0.158 C  
HETATM    9  O   UNL     1      -7.742   4.021  72.312  1.00  0.00    -0.075 OA 
HETATM   10  H   UNL     1      -7.464   3.807  73.195  1.00  0.00     0.000 HD 
HETATM   11  N   UNL     1      -8.266   6.785  73.089  1.00  0.00    -0.111 NA 
HETATM   12  C   UNL     1      -9.855   4.864  73.236  1.00  0.00    -0.148 C  
HETATM   13  H2  UNL     1      -8.123   7.753  72.798  1.00  0.00     0.000 HD 
HETATM   14  O   UNL     1     -11.237   4.517  73.392  1.00  0.00    -0.293 OA 
HETATM   15  C   UNL     1      -9.172   3.934  72.225  1.00  0.00    -0.117 C  
HETATM   16  H1  UNL     1      -8.013   6.641  74.066  1.00  0.00     0.000 HD 
HETATM   17  H   UNL     1     -11.350   3.606  73.638  1.00  0.00     0.000 HD 
BRANCH   7  18
HETATM   18  O   UNL     1      -9.762   7.923  71.160  1.00  0.00    -0.158 OA 
BRANCH  18  19
HETATM   19  C   UNL     1      -9.515   8.438  69.858  1.00  0.00    -0.166 C  
HETATM   20  O   UNL     1     -10.743  10.441  70.658  1.00  0.00    -0.416 OA 
HETATM   21  C   UNL     1      -7.986   8.559  69.855  1.00  0.00    -0.106 C  
HETATM   22  C   UNL     1      -8.702  10.681  69.329  1.00  0.00    -0.077 C  
HETATM   23  H   UNL     1     -11.040  11.325  70.477  1.00  0.00     0.000 HD 
HETATM   24  O   UNL     1      -7.677   9.954  70.008  1.00  0.00    -0.151 OA 
HETATM   25  C   UNL     1      -9.999   9.873  69.564  1.00  0.00    -0.222 C  
BRANCH  21  26
HETATM   26  C   UNL     1      -7.318   7.956  68.616  1.00  0.00    -0.090 C  
HETATM   27  H   UNL     1      -7.851   7.140  66.884  1.00  0.00     0.000 HD 
HETATM   28  O   UNL     1      -8.265   7.514  67.653  1.00  0.00    -0.116 OA 
ENDBRANCH  21  26
BRANCH  22  29
HETATM   29  O   UNL     1      -8.388  10.806  67.936  1.00  0.00    -0.114 OA 
BRANCH  29  30
HETATM   30  C   UNL     1      -9.464  11.243  67.038  1.00  0.00    -0.171 C  
HETATM   31  C   UNL     1      -9.760  10.159  65.969  1.00  0.00    -0.226 C  
HETATM   32  O   UNL     1     -10.778   9.269  66.478  1.00  0.00    -0.107 OA 
HETATM   33  C   UNL     1     -10.212  10.603  64.568  1.00  0.00    -0.329 C  
HETATM   34  C   UNL     1      -9.723  11.985  64.174  1.00  0.00    -0.123 C  
HETATM   35  N   UNL     1      -9.732   9.629  63.554  1.00  0.00    -0.405 NA 
HETATM   36  H   UNL     1     -10.959   8.604  65.823  1.00  0.00     0.000 HD 
HETATM   37  H1  UNL     1     -10.032   9.925  62.625  1.00  0.00     0.000 HD 
HETATM   38  H2  UNL     1     -10.026   8.676  63.768  1.00  0.00     0.000 HD 
HETATM   39  C   UNL     1     -10.085  13.000  65.256  1.00  0.00    -0.231 C  
HETATM   40  C   UNL     1      -9.277  12.705  66.546  1.00  0.00    -0.200 C  
HETATM   41  N   UNL     1      -9.807  14.358  64.740  1.00  0.00    -0.526 NA 
HETATM   42  H2  UNL     1     -10.279  14.544  63.855  1.00  0.00     0.000 HD 
HETATM   43  H1  UNL     1     -10.050  15.035  65.463  1.00  0.00     0.000 HD 
BRANCH  40  44
HETATM   44  O   UNL     1      -9.700  13.669  67.541  1.00  0.00    -0.218 OA 
BRANCH  44  45
HETATM   45  C   UNL     1     -11.063  14.092  67.447  1.00  0.00    -0.306 C  
HETATM   46  O   UNL     1     -11.887  13.439  68.416  1.00  0.00    -0.337 OA 
HETATM   47  C   UNL     1     -11.552  13.772  69.771  1.00  0.00    -0.257 C  
HETATM   48  C   UNL     1     -11.652  15.283  70.024  1.00  0.00    -0.305 C  
HETATM   49  H1  UNL     1     -10.360  17.374  66.687  1.00  0.00     0.000 HD 
HETATM   50  O   UNL     1     -11.269  15.638  71.360  1.00  0.00    -0.370 OA 
HETATM   51  H2  UNL     1     -10.540  16.069  65.646  1.00  0.00     0.000 HD 
HETATM   52  C   UNL     1     -10.763  16.039  69.024  1.00  0.00    -0.274 C  
HETATM   53  H   UNL     1     -11.331  16.573  71.517  1.00  0.00     0.000 HD 
HETATM   54  O   UNL     1     -10.937  17.456  69.197  1.00  0.00    -0.276 OA 
HETATM   55  C   UNL     1     -11.142  15.638  67.586  1.00  0.00    -0.305 C  
HETATM   56  N   UNL     1     -10.308  16.360  66.596  1.00  0.00    -0.290 NA 
HETATM   57  H   UNL     1     -10.387  17.923  68.579  1.00  0.00     0.000 HD 
BRANCH  47  58
HETATM   58  C   UNL     1     -12.446  12.934  70.712  1.00  0.00    -0.286 C  
HETATM   59  H1  UNL     1     -13.945  13.166  72.176  1.00  0.00     0.000 HD 
HETATM   60  N   UNL     1     -13.355  13.720  71.554  1.00  0.00    -0.337 NA 
HETATM   61  H2  UNL     1     -13.927  14.337  70.978  1.00  0.00     0.000 HD 
ENDBRANCH  47  58
ENDBRANCH  44  45
ENDBRANCH  40  44
ENDBRANCH  29  30
ENDBRANCH  22  29
ENDBRANCH  18  19
ENDBRANCH   7  18
ENDBRANCH   2   5
TORSDOF 9
ENDMDL
MODEL      107
REMARK 921   NORMALIZED FREE ENERGY PREDICTED BY IDOCK:   -5.33 KCAL/MOL
REMARK 922        TOTAL FREE ENERGY PREDICTED BY IDOCK:  -10.95 KCAL/MOL
REMARK 923 INTER-LIGAND FREE ENERGY PREDICTED BY IDOCK:   -9.17 KCAL/MOL
REMARK 924 INTRA-LIGAND FREE ENERGY PREDICTED BY IDOCK:   -1.77 KCAL/MOL
REMARK 927      BINDING AFFINITY PREDICTED BY RF-SCORE:    0.00 PKD
ROOT
HETATM    1  N   UNL     1     -11.846   4.861  73.436  1.00  0.00    -0.387 NA 
HETATM    2  C   UNL     1     -11.033   3.645  73.530  1.00  0.00    -0.239 C  
HETATM    3  H1  UNL     1     -12.846   4.731  73.583  1.00  0.00     0.000 HD 
HETATM    4  H2  UNL     1     -11.681   5.323  72.542  1.00  0.00     0.000 HD 
ENDROOT
BRANCH   2   5
HETATM    5  C   UNL     1      -9.510   3.843  73.306  1.00  0.00    -0.111 C  
HETATM    6  O   UNL     1      -9.191   4.700  72.179  1.00  0.00    -0.125 OA 
HETATM    7  C   UNL     1      -7.774   4.937  72.113  1.00  0.00    -0.094 C  
HETATM    8  C   UNL     1      -7.007   3.598  71.864  1.00  0.00    -0.030 C  
HETATM    9  O   UNL     1      -9.485   1.813  71.956  1.00  0.00    -0.083 OA 
HETATM   10  H   UNL     1      -9.099   0.954  71.828  1.00  0.00     0.000 HD 
HETATM   11  N   UNL     1      -7.301   3.075  70.488  1.00  0.00    -0.037 NA 
HETATM   12  C   UNL     1      -7.361   2.564  72.932  1.00  0.00    -0.040 C  
HETATM   13  H2  UNL     1      -7.100   3.768  69.767  1.00  0.00     0.000 HD 
HETATM   14  O   UNL     1      -6.736   2.855  74.189  1.00  0.00    -0.028 OA 
HETATM   15  C   UNL     1      -8.881   2.442  73.097  1.00  0.00    -0.070 C  
HETATM   16  H1  UNL     1      -6.801   2.201  70.325  1.00  0.00     0.000 HD 
HETATM   17  H   UNL     1      -6.956   2.212  74.854  1.00  0.00     0.000 HD 
BRANCH   7  18
HETATM   18  O   UNL     1      -7.372   5.718  71.002  1.00  0.00    -0.080 OA 
BRANCH  18  19
HETATM   19  C   UNL     1      -7.863   7.041  70.838  1.00  0.00    -0.096 C  
HETATM   20  O   UNL     1      -6.116   7.238  69.086  1.00  0.00    -0.029 OA 
HETATM   21  C   UNL     1      -9.285   6.786  70.325  1.00  0.00    -0.156 C  
HETATM   22  C   UNL     1      -8.359   8.139  68.711  1.00  0.00    -0.126 C  
HETATM   23  H   UNL     1      -5.720   7.766  68.403  1.00  0.00     0.000 HD 
HETATM   24  O   UNL     1      -9.277   7.064  68.915  1.00  0.00    -0.138 OA 
HETATM   25  C   UNL     1      -7.220   7.901  69.729  1.00  0.00    -0.066 C  
BRANCH  21  26
HETATM   26  C   UNL     1     -10.364   7.584  71.061  1.00  0.00    -0.199 C  
HETATM   27  H   UNL     1     -12.319   7.919  70.930  1.00  0.00     0.000 HD 
HETATM   28  O   UNL     1     -11.649   7.424  70.474  1.00  0.00    -0.283 OA 
ENDBRANCH  21  26
BRANCH  22  29
HETATM   29  O   UNL     1      -9.011   9.399  68.915  1.00  0.00    -0.132 OA 
BRANCH  29  30
HETATM   30  C   UNL     1      -9.758   9.965  67.785  1.00  0.00    -0.150 C  
HETATM   31  C   UNL     1      -9.662   9.037  66.546  1.00  0.00    -0.244 C  
HETATM   32  O   UNL     1     -10.760   8.098  66.581  1.00  0.00    -0.342 OA 
HETATM   33  C   UNL     1      -9.658   9.670  65.145  1.00  0.00    -0.254 C  
HETATM   34  C   UNL     1      -9.113  11.086  65.112  1.00  0.00    -0.199 C  
HETATM   35  N   UNL     1      -8.849   8.835  64.220  1.00  0.00    -0.417 NA 
HETATM   36  H   UNL     1     -10.701   7.530  65.822  1.00  0.00     0.000 HD 
HETATM   37  H1  UNL     1      -8.846   9.255  63.291  1.00  0.00     0.000 HD 
HETATM   38  H2  UNL     1      -9.164   7.865  64.202  1.00  0.00     0.000 HD 
HETATM   39  C   UNL     1      -9.834  11.951  66.144  1.00  0.00    -0.232 C  
HETATM   40  C   UNL     1      -9.470  11.477  67.574  1.00  0.00    -0.169 C  
HETATM   41  N   UNL     1      -9.450  13.363  65.926  1.00  0.00    -0.494 NA 
HETATM   42  H2  UNL     1      -9.620  13.671  64.968  1.00  0.00     0.000 HD 
HETATM   43  H1  UNL     1      -9.931  13.940  66.615  1.00  0.00     0.000 HD 
BRANCH  40  44
HETATM   44  O   UNL     1     -10.219  12.304  68.498  1.00  0.00    -0.221 OA 
BRANCH  44  45
HETATM   45  C   UNL     1     -11.636  12.316  68.303  1.00  0.00    -0.331 C  
HETATM   46  O   UNL     1     -12.301  11.427  69.204  1.00  0.00    -0.356 OA 
HETATM   47  C   UNL     1     -12.174  11.809  70.582  1.00  0.00    -0.349 C  
HETATM   48  C   UNL     1     -12.727  13.219  70.833  1.00  0.00    -0.254 C  
HETATM   49  H1  UNL     1     -11.865  15.679  67.611  1.00  0.00     0.000 HD 
HETATM   50  O   UNL     1     -12.561  13.635  72.195  1.00  0.00    -0.191 OA 
HETATM   51  H2  UNL     1     -11.584  14.405  66.555  1.00  0.00     0.000 HD 
HETATM   52  C   UNL     1     -12.028  14.225  69.906  1.00  0.00    -0.339 C  
HETATM   53  H   UNL     1     -12.903  14.508  72.350  1.00  0.00     0.000 HD 
HETATM   54  O   UNL     1     -12.618  15.526  70.071  1.00  0.00    -0.560 OA 
HETATM   55  C   UNL     1     -12.171  13.769  68.442  1.00  0.00    -0.146 C  
HETATM   56  N   UNL     1     -11.514  14.726  67.520  1.00  0.00    -0.344 NA 
HETATM   57  H   UNL     1     -12.186  16.148  69.497  1.00  0.00     0.000 HD 
BRANCH  47  58
HETATM   58  C   UNL     1     -12.851  10.724  71.450  1.00  0.00    -0.452 C  
HETATM   59  H1  UNL     1     -13.913   8.912  71.265  1.00  0.00     0.000 HD 
HETATM   60  N   UNL     1     -13.466   9.628  70.692  1.00  0.00    -0.580 NA 
HETATM   61  H2  UNL     1     -12.783   9.204  70.064  1.00  0.00     0.000 HD 
ENDBRANCH  47  58
ENDBRANCH  44  45
ENDBRANCH  40  44
ENDBRANCH  29  30
ENDBRANCH  22  29
ENDBRANCH  18  19
ENDBRANCH   7  18
ENDBRANCH   2   5
TORSDOF 9
ENDMDL
MODEL      108
REMARK 921   NORMALIZED FREE ENERGY PREDICTED BY IDOCK:   -5.33 KCAL/MOL
REMARK 922        TOTAL FREE ENERGY PREDICTED BY IDOCK:  -10.94 KCAL/MOL
REMARK 923 INTER-LIGAND FREE ENERGY PREDICTED BY IDOCK:   -8.56 KCAL/MOL
REMARK 924 INTRA-LIGAND FREE ENERGY PREDICTED BY IDOCK:   -2.38 KCAL/MOL
REMARK 927      BINDING AFFINITY PREDICTED BY RF-SCORE:    0.00 PKD
ROOT
HETATM    1  N   UNL     1     -11.219  14.814  66.690  1.00  0.00    -0.341 NA 
HETATM    2  C   UNL     1     -10.649  15.706  65.676  1.00  0.00    -0.378 C  
HETATM    3  H1  UNL     1     -12.153  14.459  66.487  1.00  0.00     0.000 HD 
HETATM    4  H2  UNL     1     -11.210  15.271  67.602  1.00  0.00     0.000 HD 
ENDROOT
BRANCH   2   5
HETATM    5  C   UNL     1      -9.229  16.246  65.986  1.00  0.00    -0.316 C  
HETATM    6  O   UNL     1      -8.440  15.368  66.831  1.00  0.00    -0.214 OA 
HETATM    7  C   UNL     1      -7.100  15.872  66.969  1.00  0.00    -0.172 C  
HETATM    8  C   UNL     1      -7.110  17.261  67.686  1.00  0.00    -0.164 C  
HETATM    9  O   UNL     1     -10.152  17.477  67.877  1.00  0.00    -0.299 OA 
HETATM   10  H   UNL     1     -10.251  18.325  68.296  1.00  0.00     0.000 HD 
HETATM   11  N   UNL     1      -7.535  17.109  69.116  1.00  0.00    -0.200 NA 
HETATM   12  C   UNL     1      -8.014  18.246  66.945  1.00  0.00    -0.236 C  
HETATM   13  H2  UNL     1      -6.960  16.429  69.614  1.00  0.00     0.000 HD 
HETATM   14  O   UNL     1      -7.416  18.716  65.730  1.00  0.00    -0.459 OA 
HETATM   15  C   UNL     1      -9.390  17.627  66.669  1.00  0.00    -0.278 C  
HETATM   16  H1  UNL     1      -7.542  18.015  69.584  1.00  0.00     0.000 HD 
HETATM   17  H   UNL     1      -7.978  19.328  65.269  1.00  0.00     0.000 HD 
BRANCH   7  18
HETATM   18  O   UNL     1      -6.281  15.102  67.831  1.00  0.00    -0.133 OA 
BRANCH  18  19
HETATM   19  C   UNL     1      -6.859  14.134  68.696  1.00  0.00    -0.101 C  
HETATM   20  O   UNL     1      -6.868  12.670  66.692  1.00  0.00    -0.368 OA 
HETATM   21  C   UNL     1      -5.720  13.884  69.691  1.00  0.00    -0.098 C  
HETATM   22  C   UNL     1      -6.200  11.787  68.874  1.00  0.00    -0.058 C  
HETATM   23  H   UNL     1      -7.043  11.810  66.327  1.00  0.00     0.000 HD 
HETATM   24  O   UNL     1      -5.137  12.615  69.349  1.00  0.00    -0.072 OA 
HETATM   25  C   UNL     1      -7.144  12.738  68.103  1.00  0.00    -0.105 C  
BRANCH  21  26
HETATM   26  C   UNL     1      -6.152  13.939  71.159  1.00  0.00    -0.039 C  
HETATM   27  H   UNL     1      -5.701  13.052  72.878  1.00  0.00     0.000 HD 
HETATM   28  O   UNL     1      -5.433  13.018  71.968  1.00  0.00    -0.392 OA 
ENDBRANCH  21  26
BRANCH  22  29
HETATM   29  O   UNL     1      -6.860  11.143  69.971  1.00  0.00    -0.126 OA 
BRANCH  29  30
HETATM   30  C   UNL     1      -7.315   9.762  69.768  1.00  0.00    -0.116 C  
HETATM   31  C   UNL     1      -7.047   8.905  71.033  1.00  0.00    -0.090 C  
HETATM   32  O   UNL     1      -8.201   8.978  71.898  1.00  0.00    -0.362 OA 
HETATM   33  C   UNL     1      -6.709   7.415  70.860  1.00  0.00    -0.044 C  
HETATM   34  C   UNL     1      -6.056   7.083  69.530  1.00  0.00    -0.030 C  
HETATM   35  N   UNL     1      -5.800   6.978  71.950  1.00  0.00    -0.037 NA 
HETATM   36  H   UNL     1      -8.037   8.453  72.673  1.00  0.00     0.000 HD 
HETATM   37  H1  UNL     1      -5.576   5.989  71.835  1.00  0.00     0.000 HD 
HETATM   38  H2  UNL     1      -6.183   7.179  72.873  1.00  0.00     0.000 HD 
HETATM   39  C   UNL     1      -6.899   7.631  68.379  1.00  0.00    -0.070 C  
HETATM   40  C   UNL     1      -6.870   9.180  68.398  1.00  0.00    -0.064 C  
HETATM   41  N   UNL     1      -6.365   7.093  67.109  1.00  0.00    -0.051 NA 
HETATM   42  H2  UNL     1      -6.314   6.074  67.106  1.00  0.00     0.000 HD 
HETATM   43  H1  UNL     1      -6.928   7.459  66.341  1.00  0.00     0.000 HD 
BRANCH  40  44
HETATM   44  O   UNL     1      -7.721   9.633  67.316  1.00  0.00    -0.091 OA 
BRANCH  44  45
HETATM   45  C   UNL     1      -8.983   8.969  67.208  1.00  0.00    -0.127 C  
HETATM   46  O   UNL     1     -10.010   9.667  67.918  1.00  0.00    -0.153 OA 
HETATM   47  C   UNL     1     -10.295  10.966  67.380  1.00  0.00    -0.211 C  
HETATM   48  C   UNL     1     -10.724  10.888  65.907  1.00  0.00    -0.124 C  
HETATM   49  H1  UNL     1      -8.563   7.944  63.950  1.00  0.00     0.000 HD 
HETATM   50  O   UNL     1     -10.963  12.184  65.340  1.00  0.00    -0.285 OA 
HETATM   51  H2  UNL     1      -8.108   7.163  65.365  1.00  0.00     0.000 HD 
HETATM   52  C   UNL     1      -9.643  10.167  65.088  1.00  0.00    -0.292 C  
HETATM   53  H   UNL     1     -11.228  12.136  64.429  1.00  0.00     0.000 HD 
HETATM   54  O   UNL     1     -10.091  10.006  63.731  1.00  0.00    -0.471 OA 
HETATM   55  C   UNL     1      -9.353   8.789  65.709  1.00  0.00    -0.191 C  
HETATM   56  N   UNL     1      -8.320   8.063  64.933  1.00  0.00    -0.134 NA 
HETATM   57  H   UNL     1      -9.423   9.560  63.224  1.00  0.00     0.000 HD 
BRANCH  47  58
HETATM   58  C   UNL     1     -11.346  11.647  68.287  1.00  0.00    -0.285 C  
HETATM   59  H1  UNL     1     -13.029  11.184  69.469  1.00  0.00     0.000 HD 
HETATM   60  N   UNL     1     -12.335  10.734  68.870  1.00  0.00    -0.786 NA 
HETATM   61  H2  UNL     1     -11.867   9.980  69.374  1.00  0.00     0.000 HD 
ENDBRANCH  47  58
ENDBRANCH  44  45
ENDBRANCH  40  44
ENDBRANCH  29  30
ENDBRANCH  22  29
ENDBRANCH  18  19
ENDBRANCH   7  18
ENDBRANCH   2   5
TORSDOF 9
ENDMDL
MODEL      109
REMARK 921   NORMALIZED FREE ENERGY PREDICTED BY IDOCK:   -5.32 KCAL/MOL
REMARK 922        TOTAL FREE ENERGY PREDICTED BY IDOCK:  -10.94 KCAL/MOL
REMARK 923 INTER-LIGAND FREE ENERGY PREDICTED BY IDOCK:   -9.14 KCAL/MOL
REMARK 924 INTRA-LIGAND FREE ENERGY PREDICTED BY IDOCK:   -1.80 KCAL/MOL
REMARK 927      BINDING AFFINITY PREDICTED BY RF-SCORE:    0.00 PKD
ROOT
HETATM    1  N   UNL     1      -6.064  19.455  65.076  1.00  0.00    -0.250 NA 
HETATM    2  C   UNL     1      -6.481  18.140  65.572  1.00  0.00    -0.200 C  
HETATM    3  H1  UNL     1      -5.539  19.447  64.203  1.00  0.00     0.000 HD 
HETATM    4  H2  UNL     1      -5.537  19.948  65.796  1.00  0.00     0.000 HD 
ENDROOT
BRANCH   2   5
HETATM    5  C   UNL     1      -7.280  18.151  66.901  1.00  0.00    -0.205 C  
HETATM    6  O   UNL     1      -8.139  16.994  67.077  1.00  0.00    -0.184 OA 
HETATM    7  C   UNL     1      -8.747  17.012  68.380  1.00  0.00    -0.247 C  
HETATM    8  C   UNL     1      -9.674  18.262  68.534  1.00  0.00    -0.362 C  
HETATM    9  O   UNL     1      -9.018  19.457  65.799  1.00  0.00    -0.385 OA 
HETATM   10  H   UNL     1      -9.540  20.252  65.815  1.00  0.00     0.000 HD 
HETATM   11  N   UNL     1     -10.868  18.140  67.633  1.00  0.00    -0.334 NA 
HETATM   12  C   UNL     1      -8.899  19.548  68.250  1.00  0.00    -0.335 C  
HETATM   13  H2  UNL     1     -11.375  17.269  67.789  1.00  0.00     0.000 HD 
HETATM   14  O   UNL     1      -8.016  19.892  69.326  1.00  0.00    -0.145 OA 
HETATM   15  C   UNL     1      -8.130  19.446  66.927  1.00  0.00    -0.277 C  
HETATM   16  H1  UNL     1     -11.473  18.955  67.733  1.00  0.00     0.000 HD 
HETATM   17  H   UNL     1      -7.534  20.692  69.149  1.00  0.00     0.000 HD 
BRANCH   7  18
HETATM   18  O   UNL     1      -9.651  15.946  68.609  1.00  0.00    -0.196 OA 
BRANCH  18  19
HETATM   19  C   UNL     1      -9.755  14.880  67.674  1.00  0.00    -0.212 C  
HETATM   20  O   UNL     1      -8.038  13.770  69.081  1.00  0.00    -0.337 OA 
HETATM   21  C   UNL     1     -11.197  14.409  67.898  1.00  0.00    -0.286 C  
HETATM   22  C   UNL     1      -9.946  12.504  68.217  1.00  0.00    -0.229 C  
HETATM   23  H   UNL     1      -7.517  12.993  69.248  1.00  0.00     0.000 HD 
HETATM   24  O   UNL     1     -11.125  13.185  68.649  1.00  0.00    -0.245 OA 
HETATM   25  C   UNL     1      -8.909  13.618  67.945  1.00  0.00    -0.188 C  
BRANCH  21  26
HETATM   26  C   UNL     1     -12.005  14.243  66.608  1.00  0.00    -0.430 C  
HETATM   27  H   UNL     1     -11.955  14.883  64.728  1.00  0.00     0.000 HD 
HETATM   28  O   UNL     1     -11.454  14.986  65.528  1.00  0.00    -0.336 OA 
ENDBRANCH  21  26
BRANCH  22  29
HETATM   29  O   UNL     1     -10.219  11.723  67.046  1.00  0.00    -0.210 OA 
BRANCH  29  30
HETATM   30  C   UNL     1      -9.315  10.603  66.756  1.00  0.00    -0.157 C  
HETATM   31  C   UNL     1      -8.452  10.905  65.504  1.00  0.00    -0.115 C  
HETATM   32  O   UNL     1      -7.233  11.556  65.925  1.00  0.00    -0.350 OA 
HETATM   33  C   UNL     1      -8.045   9.741  64.586  1.00  0.00    -0.148 C  
HETATM   34  C   UNL     1      -9.011   8.570  64.612  1.00  0.00     0.186 C  
HETATM   35  N   UNL     1      -7.932  10.223  63.185  1.00  0.00    -0.153 NA 
HETATM   36  H   UNL     1      -6.704  11.742  65.158  1.00  0.00     0.000 HD 
HETATM   37  H1  UNL     1      -7.661   9.450  62.577  1.00  0.00     0.000 HD 
HETATM   38  H2  UNL     1      -7.297  11.017  63.103  1.00  0.00     0.000 HD 
HETATM   39  C   UNL     1      -9.256   8.124  66.053  1.00  0.00    -0.147 C  
HETATM   40  C   UNL     1     -10.031   9.225  66.820  1.00  0.00    -0.245 C  
HETATM   41  N   UNL     1     -10.006   6.849  66.028  1.00  0.00    -0.336 NA 
HETATM   42  H2  UNL     1      -9.542   6.132  65.470  1.00  0.00     0.000 HD 
HETATM   43  H1  UNL     1     -10.170   6.551  66.990  1.00  0.00     0.000 HD 
BRANCH  40  44
HETATM   44  O   UNL     1     -10.189   8.760  68.183  1.00  0.00    -0.189 OA 
BRANCH  44  45
HETATM   45  C   UNL     1      -9.251   7.767  68.607  1.00  0.00    -0.138 C  
HETATM   46  O   UNL     1      -8.099   8.355  69.216  1.00  0.00    -0.111 OA 
HETATM   47  C   UNL     1      -8.388   9.049  70.438  1.00  0.00    -0.164 C  
HETATM   48  C   UNL     1      -9.037   8.122  71.476  1.00  0.00    -0.158 C  
HETATM   49  H1  UNL     1     -11.606   5.464  69.604  1.00  0.00     0.000 HD 
HETATM   50  O   UNL     1      -9.379   8.815  72.685  1.00  0.00    -0.300 OA 
HETATM   51  H2  UNL     1     -10.919   5.676  68.087  1.00  0.00     0.000 HD 
HETATM   52  C   UNL     1     -10.300   7.480  70.884  1.00  0.00    -0.201 C  
HETATM   53  H   UNL     1      -9.781   8.241  73.328  1.00  0.00     0.000 HD 
HETATM   54  O   UNL     1     -10.848   6.537  71.821  1.00  0.00    -0.227 OA 
HETATM   55  C   UNL     1      -9.949   6.764  69.567  1.00  0.00    -0.162 C  
HETATM   56  N   UNL     1     -11.148   6.123  68.975  1.00  0.00    -0.379 NA 
HETATM   57  H   UNL     1     -11.629   6.139  71.454  1.00  0.00     0.000 HD 
BRANCH  47  58
HETATM   58  C   UNL     1      -7.085   9.712  70.939  1.00  0.00    -0.010 C  
HETATM   59  H1  UNL     1      -5.139   9.212  71.577  1.00  0.00     0.000 HD 
HETATM   60  N   UNL     1      -5.999   8.774  71.245  1.00  0.00    -0.043 NA 
HETATM   61  H2  UNL     1      -5.806   8.180  70.438  1.00  0.00     0.000 HD 
ENDBRANCH  47  58
ENDBRANCH  44  45
ENDBRANCH  40  44
ENDBRANCH  29  30
ENDBRANCH  22  29
ENDBRANCH  18  19
ENDBRANCH   7  18
ENDBRANCH   2   5
TORSDOF 9
ENDMDL
MODEL      110
REMARK 921   NORMALIZED FREE ENERGY PREDICTED BY IDOCK:   -5.31 KCAL/MOL
REMARK 922        TOTAL FREE ENERGY PREDICTED BY IDOCK:  -10.91 KCAL/MOL
REMARK 923 INTER-LIGAND FREE ENERGY PREDICTED BY IDOCK:   -9.28 KCAL/MOL
REMARK 924 INTRA-LIGAND FREE ENERGY PREDICTED BY IDOCK:   -1.63 KCAL/MOL
REMARK 927      BINDING AFFINITY PREDICTED BY RF-SCORE:    0.00 PKD
ROOT
HETATM    1  N   UNL     1     -11.399   5.030  73.478  1.00  0.00    -0.455 NA 
HETATM    2  C   UNL     1     -10.522   4.858  72.316  1.00  0.00    -0.204 C  
HETATM    3  H1  UNL     1     -12.319   4.599  73.400  1.00  0.00     0.000 HD 
HETATM    4  H2  UNL     1     -11.496   6.021  73.698  1.00  0.00     0.000 HD 
ENDROOT
BRANCH   2   5
HETATM    5  C   UNL     1      -9.122   5.515  72.434  1.00  0.00    -0.141 C  
HETATM    6  O   UNL     1      -8.597   6.003  71.172  1.00  0.00    -0.127 OA 
HETATM    7  C   UNL     1      -7.361   6.708  71.381  1.00  0.00    -0.083 C  
HETATM    8  C   UNL     1      -6.271   5.744  71.954  1.00  0.00    -0.044 C  
HETATM    9  O   UNL     1      -8.110   3.313  72.172  1.00  0.00    -0.061 OA 
HETATM   10  H   UNL     1      -7.519   2.665  72.539  1.00  0.00     0.000 HD 
HETATM   11  N   UNL     1      -5.881   4.725  70.924  1.00  0.00    -0.016 NA 
HETATM   12  C   UNL     1      -6.765   5.070  73.234  1.00  0.00    -0.068 C  
HETATM   13  H2  UNL     1      -5.581   5.161  70.052  1.00  0.00     0.000 HD 
HETATM   14  O   UNL     1      -6.761   5.970  74.351  1.00  0.00    -0.075 OA 
HETATM   15  C   UNL     1      -8.158   4.460  73.033  1.00  0.00    -0.095 C  
HETATM   16  H1  UNL     1      -5.171   4.095  71.298  1.00  0.00     0.000 HD 
HETATM   17  H   UNL     1      -7.068   5.552  75.147  1.00  0.00     0.000 HD 
BRANCH   7  18
HETATM   18  O   UNL     1      -6.749   7.165  70.187  1.00  0.00    -0.049 OA 
BRANCH  18  19
HETATM   19  C   UNL     1      -7.031   8.465  69.688  1.00  0.00    -0.048 C  
HETATM   20  O   UNL     1      -5.611   7.796  67.766  1.00  0.00    -0.033 OA 
HETATM   21  C   UNL     1      -8.544   8.387  69.449  1.00  0.00    -0.129 C  
HETATM   22  C   UNL     1      -7.701   9.015  67.403  1.00  0.00    -0.092 C  
HETATM   23  H   UNL     1      -5.258   8.019  66.913  1.00  0.00     0.000 HD 
HETATM   24  O   UNL     1      -8.737   8.258  68.030  1.00  0.00    -0.134 OA 
HETATM   25  C   UNL     1      -6.458   8.829  68.302  1.00  0.00    -0.060 C  
BRANCH  21  26
HETATM   26  C   UNL     1      -9.327   9.568  70.029  1.00  0.00    -0.234 C  
HETATM   27  H   UNL     1     -10.476   9.964  71.601  1.00  0.00     0.000 HD 
HETATM   28  O   UNL     1      -9.990   9.232  71.241  1.00  0.00    -0.296 OA 
ENDBRANCH  21  26
BRANCH  22  29
HETATM   29  O   UNL     1      -8.084  10.391  67.289  1.00  0.00    -0.113 OA 
BRANCH  29  30
HETATM   30  C   UNL     1      -9.245  10.701  66.445  1.00  0.00    -0.168 C  
HETATM   31  C   UNL     1      -9.335   9.714  65.253  1.00  0.00    -0.260 C  
HETATM   32  O   UNL     1     -10.140   8.580  65.646  1.00  0.00    -0.308 OA 
HETATM   33  C   UNL     1      -9.897  10.219  63.914  1.00  0.00    -0.183 C  
HETATM   34  C   UNL     1      -9.708  11.709  63.690  1.00  0.00    -0.310 C  
HETATM   35  N   UNL     1      -9.249   9.492  62.792  1.00  0.00    -0.509 NA 
HETATM   36  H   UNL     1     -10.195   7.976  64.916  1.00  0.00     0.000 HD 
HETATM   37  H1  UNL     1      -9.622   9.827  61.904  1.00  0.00     0.000 HD 
HETATM   38  H2  UNL     1      -9.338   8.480  62.888  1.00  0.00     0.000 HD 
HETATM   39  C   UNL     1     -10.247  12.492  64.885  1.00  0.00    -0.278 C  
HETATM   40  C   UNL     1      -9.369  12.219  66.133  1.00  0.00    -0.176 C  
HETATM   41  N   UNL     1     -10.262  13.930  64.537  1.00  0.00    -0.683 NA 
HETATM   42  H2  UNL     1     -10.780  14.119  63.679  1.00  0.00     0.000 HD 
HETATM   43  H1  UNL     1     -10.623  14.453  65.335  1.00  0.00     0.000 HD 
BRANCH  40  44
HETATM   44  O   UNL     1      -9.960  12.951  67.235  1.00  0.00    -0.219 OA 
BRANCH  44  45
HETATM   45  C   UNL     1     -11.375  13.142  67.159  1.00  0.00    -0.316 C  
HETATM   46  O   UNL     1     -12.084  12.126  67.874  1.00  0.00    -0.502 OA 
HETATM   47  C   UNL     1     -11.844  12.148  69.288  1.00  0.00    -0.313 C  
HETATM   48  C   UNL     1     -12.226  13.501  69.907  1.00  0.00    -0.292 C  
HETATM   49  H1  UNL     1     -11.273  16.578  67.301  1.00  0.00     0.000 HD 
HETATM   50  O   UNL     1     -11.944  13.556  71.312  1.00  0.00    -0.387 OA 
HETATM   51  H2  UNL     1     -11.188  15.579  65.955  1.00  0.00     0.000 HD 
HETATM   52  C   UNL     1     -11.472  14.632  69.192  1.00  0.00    -0.294 C  
HETATM   53  H   UNL     1     -12.180  14.393  71.695  1.00  0.00     0.000 HD 
HETATM   54  O   UNL     1     -11.907  15.903  69.705  1.00  0.00    -0.336 OA 
HETATM   55  C   UNL     1     -11.740  14.560  67.678  1.00  0.00    -0.382 C  
HETATM   56  N   UNL     1     -11.033  15.648  66.961  1.00  0.00    -0.301 NA 
HETATM   57  H   UNL     1     -11.441  16.603  69.263  1.00  0.00     0.000 HD 
BRANCH  47  58
HETATM   58  C   UNL     1     -12.588  10.953  69.925  1.00  0.00    -0.144 C  
HETATM   59  H1  UNL     1     -13.026  10.119  71.811  1.00  0.00     0.000 HD 
HETATM   60  N   UNL     1     -12.535  10.909  71.391  1.00  0.00    -0.369 NA 
HETATM   61  H2  UNL     1     -12.874  11.787  71.784  1.00  0.00     0.000 HD 
ENDBRANCH  47  58
ENDBRANCH  44  45
ENDBRANCH  40  44
ENDBRANCH  29  30
ENDBRANCH  22  29
ENDBRANCH  18  19
ENDBRANCH   7  18
ENDBRANCH   2   5
TORSDOF 9
ENDMDL
MODEL      111
REMARK 921   NORMALIZED FREE ENERGY PREDICTED BY IDOCK:   -5.30 KCAL/MOL
REMARK 922        TOTAL FREE ENERGY PREDICTED BY IDOCK:  -10.91 KCAL/MOL
REMARK 923 INTER-LIGAND FREE ENERGY PREDICTED BY IDOCK:   -8.86 KCAL/MOL
REMARK 924 INTRA-LIGAND FREE ENERGY PREDICTED BY IDOCK:   -2.04 KCAL/MOL
REMARK 927      BINDING AFFINITY PREDICTED BY RF-SCORE:    0.00 PKD
ROOT
HETATM    1  N   UNL     1     -12.961   7.625  72.184  1.00  0.00    -0.502 NA 
HETATM    2  C   UNL     1     -11.871   6.707  71.841  1.00  0.00    -0.332 C  
HETATM    3  H1  UNL     1     -13.900   7.290  71.969  1.00  0.00     0.000 HD 
HETATM    4  H2  UNL     1     -12.806   8.532  71.745  1.00  0.00     0.000 HD 
ENDROOT
BRANCH   2   5
HETATM    5  C   UNL     1     -10.443   7.217  72.167  1.00  0.00    -0.203 C  
HETATM    6  O   UNL     1      -9.530   7.160  71.041  1.00  0.00    -0.159 OA 
HETATM    7  C   UNL     1      -8.270   7.763  71.383  1.00  0.00    -0.100 C  
HETATM    8  C   UNL     1      -7.578   6.967  72.538  1.00  0.00    -0.089 C  
HETATM    9  O   UNL     1      -9.864   4.979  72.941  1.00  0.00    -0.149 OA 
HETATM   10  H   UNL     1      -9.527   4.453  73.657  1.00  0.00     0.000 HD 
HETATM   11  N   UNL     1      -7.155   5.610  72.057  1.00  0.00    -0.084 NA 
HETATM   12  C   UNL     1      -8.503   6.857  73.749  1.00  0.00    -0.130 C  
HETATM   13  H2  UNL     1      -6.563   5.668  71.228  1.00  0.00     0.000 HD 
HETATM   14  O   UNL     1      -8.600   8.095  74.466  1.00  0.00    -0.426 OA 
HETATM   15  C   UNL     1      -9.894   6.360  73.335  1.00  0.00    -0.178 C  
HETATM   16  H1  UNL     1      -6.704   5.091  72.809  1.00  0.00     0.000 HD 
HETATM   17  H   UNL     1      -9.175   8.027  75.219  1.00  0.00     0.000 HD 
BRANCH   7  18
HETATM   18  O   UNL     1      -7.299   7.692  70.354  1.00  0.00    -0.068 OA 
BRANCH  18  19
HETATM   19  C   UNL     1      -7.315   8.628  69.285  1.00  0.00    -0.074 C  
HETATM   20  O   UNL     1      -9.172   7.244  68.393  1.00  0.00    -0.138 OA 
HETATM   21  C   UNL     1      -7.738   9.915  70.003  1.00  0.00    -0.178 C  
HETATM   22  C   UNL     1      -9.300   9.686  68.330  1.00  0.00    -0.133 C  
HETATM   23  H   UNL     1      -9.837   7.128  67.725  1.00  0.00     0.000 HD 
HETATM   24  O   UNL     1      -9.117  10.146  69.669  1.00  0.00    -0.206 OA 
HETATM   25  C   UNL     1      -8.395   8.440  68.199  1.00  0.00    -0.128 C  
BRANCH  21  26
HETATM   26  C   UNL     1      -6.859  11.126  69.678  1.00  0.00    -0.117 C  
HETATM   27  H   UNL     1      -5.215  11.537  68.639  1.00  0.00     0.000 HD 
HETATM   28  O   UNL     1      -5.761  10.786  68.841  1.00  0.00    -0.041 OA 
ENDBRANCH  21  26
BRANCH  22  29
HETATM   29  O   UNL     1      -8.944  10.713  67.395  1.00  0.00    -0.136 OA 
BRANCH  29  30
HETATM   30  C   UNL     1      -9.981  11.161  66.457  1.00  0.00    -0.214 C  
HETATM   31  C   UNL     1      -9.623  10.745  65.006  1.00  0.00    -0.254 C  
HETATM   32  O   UNL     1     -10.189   9.442  64.742  1.00  0.00    -0.107 OA 
HETATM   33  C   UNL     1     -10.049  11.662  63.847  1.00  0.00    -0.357 C  
HETATM   34  C   UNL     1     -10.186  13.123  64.236  1.00  0.00    -0.283 C  
HETATM   35  N   UNL     1      -9.061  11.563  62.742  1.00  0.00    -0.566 NA 
HETATM   36  H   UNL     1      -9.970   9.188  63.853  1.00  0.00     0.000 HD 
HETATM   37  H1  UNL     1      -9.343  12.171  61.973  1.00  0.00     0.000 HD 
HETATM   38  H2  UNL     1      -8.920  10.600  62.437  1.00  0.00     0.000 HD 
HETATM   39  C   UNL     1     -11.096  13.258  65.456  1.00  0.00    -0.281 C  
HETATM   40  C   UNL     1     -10.409  12.636  66.697  1.00  0.00    -0.236 C  
HETATM   41  N   UNL     1     -11.395  14.692  65.662  1.00  0.00    -0.334 NA 
HETATM   42  H2  UNL     1     -11.786  15.135  64.830  1.00  0.00     0.000 HD 
HETATM   43  H1  UNL     1     -12.003  14.782  66.476  1.00  0.00     0.000 HD 
BRANCH  40  44
HETATM   44  O   UNL     1     -11.339  12.755  67.801  1.00  0.00    -0.258 OA 
BRANCH  44  45
HETATM   45  C   UNL     1     -10.745  12.884  69.096  1.00  0.00    -0.016 C  
HETATM   46  O   UNL     1     -10.213  14.195  69.304  1.00  0.00    -0.114 OA 
HETATM   47  C   UNL     1     -11.213  15.223  69.319  1.00  0.00    -0.284 C  
HETATM   48  C   UNL     1     -12.267  14.974  70.408  1.00  0.00    -0.341 C  
HETATM   49  H1  UNL     1     -13.044  10.917  70.735  1.00  0.00     0.000 HD 
HETATM   50  O   UNL     1     -13.303  15.966  70.401  1.00  0.00    -0.726 OA 
HETATM   51  H2  UNL     1     -11.624  10.457  69.967  1.00  0.00     0.000 HD 
HETATM   52  C   UNL     1     -12.894  13.584  70.218  1.00  0.00     0.059 C  
HETATM   53  H   UNL     1     -13.955  15.812  71.075  1.00  0.00     0.000 HD 
HETATM   54  O   UNL     1     -13.805  13.313  71.297  1.00  0.00     0.106 OA 
HETATM   55  C   UNL     1     -11.786  12.515  70.189  1.00  0.00    -0.258 C  
HETATM   56  N   UNL     1     -12.361  11.159  70.017  1.00  0.00    -0.298 NA 
HETATM   57  H   UNL     1     -14.192  12.454  71.180  1.00  0.00     0.000 HD 
BRANCH  47  58
HETATM   58  C   UNL     1     -10.503  16.589  69.456  1.00  0.00    -0.298 C  
HETATM   59  H1  UNL     1      -8.597  17.466  69.256  1.00  0.00     0.000 HD 
HETATM   60  N   UNL     1      -9.065  16.564  69.165  1.00  0.00    -0.229 NA 
HETATM   61  H2  UNL     1      -8.899  16.170  68.239  1.00  0.00     0.000 HD 
ENDBRANCH  47  58
ENDBRANCH  44  45
ENDBRANCH  40  44
ENDBRANCH  29  30
ENDBRANCH  22  29
ENDBRANCH  18  19
ENDBRANCH   7  18
ENDBRANCH   2   5
TORSDOF 9
ENDMDL
MODEL      112
REMARK 921   NORMALIZED FREE ENERGY PREDICTED BY IDOCK:   -5.29 KCAL/MOL
REMARK 922        TOTAL FREE ENERGY PREDICTED BY IDOCK:  -10.89 KCAL/MOL
REMARK 923 INTER-LIGAND FREE ENERGY PREDICTED BY IDOCK:  -10.40 KCAL/MOL
REMARK 924 INTRA-LIGAND FREE ENERGY PREDICTED BY IDOCK:   -0.49 KCAL/MOL
REMARK 927      BINDING AFFINITY PREDICTED BY RF-SCORE:    0.00 PKD
ROOT
HETATM    1  N   UNL     1     -10.593   5.466  69.781  1.00  0.00    -0.313 NA 
HETATM    2  C   UNL     1     -10.814   5.614  68.340  1.00  0.00    -0.086 C  
HETATM    3  H1  UNL     1     -11.397   5.676  70.372  1.00  0.00     0.000 HD 
HETATM    4  H2  UNL     1      -9.792   6.026  70.071  1.00  0.00     0.000 HD 
ENDROOT
BRANCH   2   5
HETATM    5  C   UNL     1      -9.591   5.294  67.442  1.00  0.00    -0.134 C  
HETATM    6  O   UNL     1      -9.124   6.427  66.664  1.00  0.00    -0.136 OA 
HETATM    7  C   UNL     1      -7.918   6.090  65.957  1.00  0.00    -0.109 C  
HETATM    8  C   UNL     1      -8.189   4.946  64.927  1.00  0.00    -0.124 C  
HETATM    9  O   UNL     1     -11.118   4.538  65.698  1.00  0.00    -0.763 OA 
HETATM   10  H   UNL     1     -11.365   3.828  65.117  1.00  0.00     0.000 HD 
HETATM   11  N   UNL     1      -9.074   5.438  63.819  1.00  0.00    -0.323 NA 
HETATM   12  C   UNL     1      -8.801   3.728  65.620  1.00  0.00    -0.123 C  
HETATM   13  H2  UNL     1      -8.693   6.271  63.370  1.00  0.00     0.000 HD 
HETATM   14  O   UNL     1      -7.832   3.003  66.388  1.00  0.00    -0.076 OA 
HETATM   15  C   UNL     1      -9.993   4.136  66.495  1.00  0.00    -0.141 C  
HETATM   16  H1  UNL     1      -9.251   4.691  63.148  1.00  0.00     0.000 HD 
HETATM   17  H   UNL     1      -8.212   2.246  66.818  1.00  0.00     0.000 HD 
BRANCH   7  18
HETATM   18  O   UNL     1      -7.430   7.126  65.123  1.00  0.00    -0.083 OA 
BRANCH  18  19
HETATM   19  C   UNL     1      -7.909   8.456  65.275  1.00  0.00    -0.111 C  
HETATM   20  O   UNL     1      -6.847   8.349  67.515  1.00  0.00    -0.068 OA 
HETATM   21  C   UNL     1      -7.109   9.201  64.200  1.00  0.00    -0.095 C  
HETATM   22  C   UNL     1      -6.633  10.356  66.132  1.00  0.00    -0.112 C  
HETATM   23  H   UNL     1      -6.623   8.803  68.319  1.00  0.00     0.000 HD 
HETATM   24  O   UNL     1      -6.082   9.941  64.881  1.00  0.00    -0.087 OA 
HETATM   25  C   UNL     1      -7.546   9.193  66.581  1.00  0.00    -0.089 C  
BRANCH  21  26
HETATM   26  C   UNL     1      -7.962  10.099  63.300  1.00  0.00    -0.155 C  
HETATM   27  H   UNL     1      -9.869  10.616  63.090  1.00  0.00     0.000 HD 
HETATM   28  O   UNL     1      -9.339  10.059  63.648  1.00  0.00    -0.268 OA 
ENDBRANCH  21  26
BRANCH  22  29
HETATM   29  O   UNL     1      -7.358  11.583  65.977  1.00  0.00     0.118 OA 
BRANCH  29  30
HETATM   30  C   UNL     1      -8.278  11.965  67.056  1.00  0.00    -0.170 C  
HETATM   31  C   UNL     1      -7.736  11.494  68.430  1.00  0.00    -0.129 C  
HETATM   32  O   UNL     1      -6.914  12.541  68.991  1.00  0.00    -0.117 OA 
HETATM   33  C   UNL     1      -8.739  11.080  69.519  1.00  0.00     0.373 C  
HETATM   34  C   UNL     1     -10.060  10.566  68.975  1.00  0.00    -0.230 C  
HETATM   35  N   UNL     1      -8.142  10.022  70.374  1.00  0.00    -0.411 NA 
HETATM   36  H   UNL     1      -6.582  12.253  69.833  1.00  0.00     0.000 HD 
HETATM   37  H1  UNL     1      -8.808   9.748  71.097  1.00  0.00     0.000 HD 
HETATM   38  H2  UNL     1      -7.245  10.307  70.768  1.00  0.00     0.000 HD 
HETATM   39  C   UNL     1     -10.649  11.573  67.988  1.00  0.00    -0.190 C  
HETATM   40  C   UNL     1      -9.761  11.645  66.719  1.00  0.00    -0.201 C  
HETATM   41  N   UNL     1     -12.030  11.157  67.660  1.00  0.00    -0.566 NA 
HETATM   42  H2  UNL     1     -12.610  11.038  68.491  1.00  0.00     0.000 HD 
HETATM   43  H1  UNL     1     -12.423  11.829  67.001  1.00  0.00     0.000 HD 
BRANCH  40  44
HETATM   44  O   UNL     1     -10.346  12.646  65.850  1.00  0.00    -0.265 OA 
BRANCH  44  45
HETATM   45  C   UNL     1     -11.281  13.531  66.472  1.00  0.00    -0.306 C  
HETATM   46  O   UNL     1     -10.673  14.289  67.521  1.00  0.00    -0.265 OA 
HETATM   47  C   UNL     1      -9.654  15.188  67.062  1.00  0.00    -0.226 C  
HETATM   48  C   UNL     1     -10.201  16.185  66.029  1.00  0.00    -0.356 C  
HETATM   49  H1  UNL     1     -12.985  14.324  63.590  1.00  0.00     0.000 HD 
HETATM   50  O   UNL     1      -9.181  17.057  65.521  1.00  0.00    -0.416 OA 
HETATM   51  H2  UNL     1     -13.255  13.055  64.655  1.00  0.00     0.000 HD 
HETATM   52  C   UNL     1     -10.846  15.424  64.861  1.00  0.00    -0.425 C  
HETATM   53  H   UNL     1      -9.520  17.674  64.883  1.00  0.00     0.000 HD 
HETATM   54  O   UNL     1     -11.446  16.359  63.947  1.00  0.00    -1.569 OA 
HETATM   55  C   UNL     1     -11.918  14.458  65.399  1.00  0.00    -0.369 C  
HETATM   56  N   UNL     1     -12.567  13.715  64.293  1.00  0.00    -0.664 NA 
HETATM   57  H   UNL     1     -11.845  15.888  63.226  1.00  0.00     0.000 HD 
BRANCH  47  58
HETATM   58  C   UNL     1      -9.017  15.871  68.293  1.00  0.00    -0.184 C  
HETATM   59  H1  UNL     1      -8.471  15.461  70.288  1.00  0.00     0.000 HD 
HETATM   60  N   UNL     1      -8.892  15.009  69.475  1.00  0.00    -0.435 NA 
HETATM   61  H2  UNL     1      -8.382  14.157  69.239  1.00  0.00     0.000 HD 
ENDBRANCH  47  58
ENDBRANCH  44  45
ENDBRANCH  40  44
ENDBRANCH  29  30
ENDBRANCH  22  29
ENDBRANCH  18  19
ENDBRANCH   7  18
ENDBRANCH   2   5
TORSDOF 9
ENDMDL
MODEL      113
REMARK 921   NORMALIZED FREE ENERGY PREDICTED BY IDOCK:   -5.29 KCAL/MOL
REMARK 922        TOTAL FREE ENERGY PREDICTED BY IDOCK:  -10.88 KCAL/MOL
REMARK 923 INTER-LIGAND FREE ENERGY PREDICTED BY IDOCK:   -8.90 KCAL/MOL
REMARK 924 INTRA-LIGAND FREE ENERGY PREDICTED BY IDOCK:   -1.98 KCAL/MOL
REMARK 927      BINDING AFFINITY PREDICTED BY RF-SCORE:    0.00 PKD
ROOT
HETATM    1  N   UNL     1     -11.932  11.655  70.714  1.00  0.00    -0.433 NA 
HETATM    2  C   UNL     1     -12.034  12.971  70.079  1.00  0.00    -0.312 C  
HETATM    3  H1  UNL     1     -12.217  11.616  71.692  1.00  0.00     0.000 HD 
HETATM    4  H2  UNL     1     -10.984  11.291  70.614  1.00  0.00     0.000 HD 
ENDROOT
BRANCH   2   5
HETATM    5  C   UNL     1     -11.599  13.030  68.591  1.00  0.00    -0.318 C  
HETATM    6  O   UNL     1     -10.166  12.903  68.396  1.00  0.00    -0.235 OA 
HETATM    7  C   UNL     1      -9.853  12.839  66.994  1.00  0.00    -0.231 C  
HETATM    8  C   UNL     1     -10.267  14.167  66.280  1.00  0.00    -0.295 C  
HETATM    9  O   UNL     1     -11.510  15.460  68.754  1.00  0.00    -0.301 OA 
HETATM   10  H   UNL     1     -11.812  16.288  68.398  1.00  0.00     0.000 HD 
HETATM   11  N   UNL     1      -9.401  15.301  66.742  1.00  0.00    -0.228 NA 
HETATM   12  C   UNL     1     -11.746  14.471  66.519  1.00  0.00    -0.368 C  
HETATM   13  H2  UNL     1      -8.409  15.097  66.619  1.00  0.00     0.000 HD 
HETATM   14  O   UNL     1     -12.602  13.620  65.746  1.00  0.00    -0.476 OA 
HETATM   15  C   UNL     1     -12.092  14.379  68.011  1.00  0.00    -0.231 C  
HETATM   16  H1  UNL     1      -9.671  16.168  66.277  1.00  0.00     0.000 HD 
HETATM   17  H   UNL     1     -13.521  13.809  65.894  1.00  0.00     0.000 HD 
BRANCH   7  18
HETATM   18  O   UNL     1      -8.466  12.776  66.715  1.00  0.00    -0.144 OA 
BRANCH  18  19
HETATM   19  C   UNL     1      -7.781  11.531  66.751  1.00  0.00    -0.136 C  
HETATM   20  O   UNL     1      -7.567  11.969  69.185  1.00  0.00    -0.315 OA 
HETATM   21  C   UNL     1      -8.892  10.552  66.352  1.00  0.00    -0.153 C  
HETATM   22  C   UNL     1      -8.144   9.736  68.369  1.00  0.00    -0.104 C  
HETATM   23  H   UNL     1      -7.282  11.654  70.035  1.00  0.00     0.000 HD 
HETATM   24  O   UNL     1      -9.308   9.880  67.553  1.00  0.00    -0.139 OA 
HETATM   25  C   UNL     1      -7.318  11.019  68.132  1.00  0.00    -0.086 C  
BRANCH  21  26
HETATM   26  C   UNL     1      -8.487   9.566  65.253  1.00  0.00    -0.148 C  
HETATM   27  H   UNL     1      -9.256   8.783  63.597  1.00  0.00     0.000 HD 
HETATM   28  O   UNL     1      -9.507   9.394  64.279  1.00  0.00    -0.052 OA 
ENDBRANCH  21  26
BRANCH  22  29
HETATM   29  O   UNL     1      -7.422   8.552  68.005  1.00  0.00    -0.094 OA 
BRANCH  29  30
HETATM   30  C   UNL     1      -8.102   7.264  68.182  1.00  0.00    -0.124 C  
HETATM   31  C   UNL     1      -7.990   6.403  66.896  1.00  0.00    -0.109 C  
HETATM   32  O   UNL     1      -6.798   5.592  66.981  1.00  0.00    -0.060 OA 
HETATM   33  C   UNL     1      -9.149   5.461  66.532  1.00  0.00    -0.135 C  
HETATM   34  C   UNL     1     -10.498   5.912  67.063  1.00  0.00    -0.341 C  
HETATM   35  N   UNL     1      -9.247   5.334  65.055  1.00  0.00    -0.350 NA 
HETATM   36  H   UNL     1      -6.730   5.065  66.194  1.00  0.00     0.000 HD 
HETATM   37  H1  UNL     1     -10.016   4.709  64.814  1.00  0.00     0.000 HD 
HETATM   38  H2  UNL     1      -8.365   5.037  64.637  1.00  0.00     0.000 HD 
HETATM   39  C   UNL     1     -10.409   6.180  68.565  1.00  0.00    -0.207 C  
HETATM   40  C   UNL     1      -9.508   7.413  68.827  1.00  0.00    -0.143 C  
HETATM   41  N   UNL     1     -11.778   6.386  69.087  1.00  0.00    -0.491 NA 
HETATM   42  H2  UNL     1     -12.403   5.612  68.864  1.00  0.00     0.000 HD 
HETATM   43  H1  UNL     1     -11.718   6.565  70.090  1.00  0.00     0.000 HD 
BRANCH  40  44
HETATM   44  O   UNL     1      -9.429   7.583  70.263  1.00  0.00    -0.165 OA 
BRANCH  44  45
HETATM   45  C   UNL     1      -8.687   6.578  70.961  1.00  0.00    -0.138 C  
HETATM   46  O   UNL     1      -7.352   7.006  71.240  1.00  0.00    -0.078 OA 
HETATM   47  C   UNL     1      -7.285   8.122  72.140  1.00  0.00    -0.091 C  
HETATM   48  C   UNL     1      -7.959   7.809  73.483  1.00  0.00    -0.159 C  
HETATM   49  H1  UNL     1     -11.321   5.464  72.875  1.00  0.00     0.000 HD 
HETATM   50  O   UNL     1      -7.946   8.933  74.375  1.00  0.00    -0.335 OA 
HETATM   51  H2  UNL     1     -10.846   4.961  71.346  1.00  0.00     0.000 HD 
HETATM   52  C   UNL     1      -9.411   7.366  73.246  1.00  0.00    -0.214 C  
HETATM   53  H   UNL     1      -8.363   8.739  75.206  1.00  0.00     0.000 HD 
HETATM   54  O   UNL     1     -10.008   6.977  74.495  1.00  0.00    -0.469 OA 
HETATM   55  C   UNL     1      -9.439   6.182  72.262  1.00  0.00    -0.149 C  
HETATM   56  N   UNL     1     -10.828   5.725  72.021  1.00  0.00    -0.243 NA 
HETATM   57  H   UNL     1     -10.906   6.703  74.349  1.00  0.00     0.000 HD 
BRANCH  47  58
HETATM   58  C   UNL     1      -5.804   8.542  72.282  1.00  0.00    -0.061 C  
HETATM   59  H1  UNL     1      -4.177   8.366  73.612  1.00  0.00     0.000 HD 
HETATM   60  N   UNL     1      -5.155   8.088  73.518  1.00  0.00    -0.041 NA 
HETATM   61  H2  UNL     1      -5.247   7.076  73.615  1.00  0.00     0.000 HD 
ENDBRANCH  47  58
ENDBRANCH  44  45
ENDBRANCH  40  44
ENDBRANCH  29  30
ENDBRANCH  22  29
ENDBRANCH  18  19
ENDBRANCH   7  18
ENDBRANCH   2   5
TORSDOF 9
ENDMDL
MODEL      114
REMARK 921   NORMALIZED FREE ENERGY PREDICTED BY IDOCK:   -5.28 KCAL/MOL
REMARK 922        TOTAL FREE ENERGY PREDICTED BY IDOCK:  -10.87 KCAL/MOL
REMARK 923 INTER-LIGAND FREE ENERGY PREDICTED BY IDOCK:   -9.55 KCAL/MOL
REMARK 924 INTRA-LIGAND FREE ENERGY PREDICTED BY IDOCK:   -1.32 KCAL/MOL
REMARK 927      BINDING AFFINITY PREDICTED BY RF-SCORE:    0.00 PKD
ROOT
HETATM    1  N   UNL     1     -10.459  17.508  65.883  1.00  0.00    -0.504 NA 
HETATM    2  C   UNL     1     -10.655  16.157  65.350  1.00  0.00    -0.380 C  
HETATM    3  H1  UNL     1     -10.642  18.268  65.229  1.00  0.00     0.000 HD 
HETATM    4  H2  UNL     1      -9.519  17.598  66.268  1.00  0.00     0.000 HD 
ENDROOT
BRANCH   2   5
HETATM    5  C   UNL     1     -10.376  15.000  66.345  1.00  0.00    -0.287 C  
HETATM    6  O   UNL     1     -10.077  13.734  65.702  1.00  0.00    -0.302 OA 
HETATM    7  C   UNL     1      -9.706  12.748  66.680  1.00  0.00    -0.252 C  
HETATM    8  C   UNL     1     -10.900  12.465  67.650  1.00  0.00    -0.225 C  
HETATM    9  O   UNL     1     -12.771  14.556  66.439  1.00  0.00    -0.416 OA 
HETATM   10  H   UNL     1     -13.536  14.462  66.994  1.00  0.00     0.000 HD 
HETATM   11  N   UNL     1     -12.016  11.777  66.919  1.00  0.00    -0.561 NA 
HETATM   12  C   UNL     1     -11.385  13.758  68.303  1.00  0.00    -0.285 C  
HETATM   13  H2  UNL     1     -11.698  10.929  66.451  1.00  0.00     0.000 HD 
HETATM   14  O   UNL     1     -10.483  14.220  69.317  1.00  0.00    -0.363 OA 
HETATM   15  C   UNL     1     -11.623  14.849  67.251  1.00  0.00    -0.324 C  
HETATM   16  H1  UNL     1     -12.795  11.593  67.551  1.00  0.00     0.000 HD 
HETATM   17  H   UNL     1     -10.784  15.024  69.723  1.00  0.00     0.000 HD 
BRANCH   7  18
HETATM   18  O   UNL     1      -9.458  11.463  66.137  1.00  0.00    -0.203 OA 
BRANCH  18  19
HETATM   19  C   UNL     1      -9.223  10.354  66.994  1.00  0.00    -0.147 C  
HETATM   20  O   UNL     1      -9.647   8.980  64.971  1.00  0.00    -0.438 OA 
HETATM   21  C   UNL     1      -7.746  10.551  67.360  1.00  0.00    -0.102 C  
HETATM   22  C   UNL     1      -7.814   8.421  66.492  1.00  0.00    -0.092 C  
HETATM   23  H   UNL     1      -9.670   8.116  64.579  1.00  0.00     0.000 HD 
HETATM   24  O   UNL     1      -6.996   9.587  66.602  1.00  0.00    -0.083 OA 
HETATM   25  C   UNL     1      -9.260   8.949  66.358  1.00  0.00    -0.189 C  
BRANCH  21  26
HETATM   26  C   UNL     1      -7.459  10.449  68.861  1.00  0.00    -0.099 C  
HETATM   27  H   UNL     1      -8.457  10.138  70.551  1.00  0.00     0.000 HD 
HETATM   28  O   UNL     1      -8.635  10.201  69.620  1.00  0.00    -0.176 OA 
ENDBRANCH  21  26
BRANCH  22  29
HETATM   29  O   UNL     1      -7.649   7.583  67.643  1.00  0.00    -0.107 OA 
BRANCH  29  30
HETATM   30  C   UNL     1      -7.390   6.157  67.409  1.00  0.00    -0.077 C  
HETATM   31  C   UNL     1      -6.681   5.945  66.046  1.00  0.00    -0.059 C  
HETATM   32  O   UNL     1      -5.252   5.997  66.251  1.00  0.00    -0.009 OA 
HETATM   33  C   UNL     1      -6.974   4.663  65.251  1.00  0.00    -0.062 C  
HETATM   34  C   UNL     1      -8.342   4.066  65.528  1.00  0.00    -0.109 C  
HETATM   35  N   UNL     1      -6.872   4.942  63.795  1.00  0.00    -0.046 NA 
HETATM   36  H   UNL     1      -4.818   5.867  65.416  1.00  0.00     0.000 HD 
HETATM   37  H1  UNL     1      -7.067   4.091  63.268  1.00  0.00     0.000 HD 
HETATM   38  H2  UNL     1      -5.972   5.351  63.545  1.00  0.00     0.000 HD 
HETATM   39  C   UNL     1      -8.540   3.882  67.032  1.00  0.00    -0.106 C  
HETATM   40  C   UNL     1      -8.623   5.266  67.725  1.00  0.00    -0.104 C  
HETATM   41  N   UNL     1      -9.771   3.091  67.250  1.00  0.00    -0.349 NA 
HETATM   42  H2  UNL     1      -9.762   2.205  66.745  1.00  0.00     0.000 HD 
HETATM   43  H1  UNL     1      -9.902   2.968  68.254  1.00  0.00     0.000 HD 
BRANCH  40  44
HETATM   44  O   UNL     1      -8.762   5.020  69.146  1.00  0.00    -0.091 OA 
BRANCH  44  45
HETATM   45  C   UNL     1     -10.107   4.938  69.627  1.00  0.00    -0.230 C  
HETATM   46  O   UNL     1     -10.154   4.879  71.055  1.00  0.00    -0.209 OA 
HETATM   47  C   UNL     1      -9.668   6.068  71.694  1.00  0.00    -0.158 C  
HETATM   48  C   UNL     1     -10.459   7.310  71.257  1.00  0.00    -0.201 C  
HETATM   49  H1  UNL     1     -11.457   7.023  67.246  1.00  0.00     0.000 HD 
HETATM   50  O   UNL     1      -9.951   8.514  71.848  1.00  0.00    -0.237 OA 
HETATM   51  H2  UNL     1     -11.226   5.362  67.179  1.00  0.00     0.000 HD 
HETATM   52  C   UNL     1     -10.421   7.440  69.727  1.00  0.00    -0.229 C  
HETATM   53  H   UNL     1     -10.440   9.283  71.578  1.00  0.00     0.000 HD 
HETATM   54  O   UNL     1     -11.245   8.544  69.315  1.00  0.00    -0.433 OA 
HETATM   55  C   UNL     1     -10.931   6.138  69.082  1.00  0.00    -0.381 C  
HETATM   56  N   UNL     1     -10.916   6.236  67.603  1.00  0.00    -0.343 NA 
HETATM   57  H   UNL     1     -11.221   8.624  68.369  1.00  0.00     0.000 HD 
BRANCH  47  58
HETATM   58  C   UNL     1      -9.685   5.839  73.222  1.00  0.00    -0.152 C  
HETATM   59  H1  UNL     1     -10.890   6.197  74.915  1.00  0.00     0.000 HD 
HETATM   60  N   UNL     1     -10.880   6.348  73.905  1.00  0.00    -0.432 NA 
HETATM   61  H2  UNL     1     -11.723   5.961  73.480  1.00  0.00     0.000 HD 
ENDBRANCH  47  58
ENDBRANCH  44  45
ENDBRANCH  40  44
ENDBRANCH  29  30
ENDBRANCH  22  29
ENDBRANCH  18  19
ENDBRANCH   7  18
ENDBRANCH   2   5
TORSDOF 9
ENDMDL
MODEL      115
REMARK 921   NORMALIZED FREE ENERGY PREDICTED BY IDOCK:   -5.27 KCAL/MOL
REMARK 922        TOTAL FREE ENERGY PREDICTED BY IDOCK:  -10.86 KCAL/MOL
REMARK 923 INTER-LIGAND FREE ENERGY PREDICTED BY IDOCK:   -8.54 KCAL/MOL
REMARK 924 INTRA-LIGAND FREE ENERGY PREDICTED BY IDOCK:   -2.32 KCAL/MOL
REMARK 927      BINDING AFFINITY PREDICTED BY RF-SCORE:    0.00 PKD
ROOT
HETATM    1  N   UNL     1     -12.304  15.214  69.502  1.00  0.00    -0.566 NA 
HETATM    2  C   UNL     1     -11.593  13.940  69.357  1.00  0.00    -0.297 C  
HETATM    3  H1  UNL     1     -13.081  15.209  70.163  1.00  0.00     0.000 HD 
HETATM    4  H2  UNL     1     -12.624  15.541  68.591  1.00  0.00     0.000 HD 
ENDROOT
BRANCH   2   5
HETATM    5  C   UNL     1     -10.412  13.947  68.352  1.00  0.00    -0.247 C  
HETATM    6  O   UNL     1      -9.515  12.815  68.495  1.00  0.00    -0.187 OA 
HETATM    7  C   UNL     1      -8.524  12.823  67.453  1.00  0.00    -0.191 C  
HETATM    8  C   UNL     1      -7.626  14.098  67.562  1.00  0.00    -0.184 C  
HETATM    9  O   UNL     1      -9.147  15.334  69.907  1.00  0.00    -0.423 OA 
HETATM   10  H   UNL     1      -8.666  16.144  70.033  1.00  0.00     0.000 HD 
HETATM   11  N   UNL     1      -6.779  14.036  68.799  1.00  0.00    -0.093 NA 
HETATM   12  C   UNL     1      -8.480  15.365  67.544  1.00  0.00    -0.173 C  
HETATM   13  H2  UNL     1      -6.228  13.179  68.841  1.00  0.00     0.000 HD 
HETATM   14  O   UNL     1      -8.983  15.656  66.233  1.00  0.00    -0.298 OA 
HETATM   15  C   UNL     1      -9.629  15.268  68.556  1.00  0.00    -0.211 C  
HETATM   16  H1  UNL     1      -6.193  14.868  68.871  1.00  0.00     0.000 HD 
HETATM   17  H   UNL     1      -9.514  16.443  66.221  1.00  0.00     0.000 HD 
BRANCH   7  18
HETATM   18  O   UNL     1      -7.570  11.782  67.558  1.00  0.00    -0.118 OA 
BRANCH  18  19
HETATM   19  C   UNL     1      -7.912  10.554  68.187  1.00  0.00    -0.111 C  
HETATM   20  O   UNL     1      -8.035   9.657  65.877  1.00  0.00    -0.109 OA 
HETATM   21  C   UNL     1      -6.625  10.227  68.955  1.00  0.00    -0.052 C  
HETATM   22  C   UNL     1      -6.979   8.358  67.660  1.00  0.00    -0.075 C  
HETATM   23  H   UNL     1      -8.162   8.901  65.315  1.00  0.00     0.000 HD 
HETATM   24  O   UNL     1      -5.959   9.182  68.226  1.00  0.00    -0.044 OA 
HETATM   25  C   UNL     1      -8.119   9.326  67.275  1.00  0.00    -0.113 C  
BRANCH  21  26
HETATM   26  C   UNL     1      -6.854   9.848  70.420  1.00  0.00    -0.140 C  
HETATM   27  H   UNL     1      -5.840   9.039  71.925  1.00  0.00     0.000 HD 
HETATM   28  O   UNL     1      -5.699   9.274  71.016  1.00  0.00    -0.044 OA 
ENDBRANCH  21  26
BRANCH  22  29
HETATM   29  O   UNL     1      -7.406   7.370  68.607  1.00  0.00    -0.090 OA 
BRANCH  29  30
HETATM   30  C   UNL     1      -7.990   6.132  68.075  1.00  0.00    -0.110 C  
HETATM   31  C   UNL     1      -7.004   5.435  67.102  1.00  0.00    -0.065 C  
HETATM   32  O   UNL     1      -6.177   4.519  67.853  1.00  0.00    -0.033 OA 
HETATM   33  C   UNL     1      -7.574   4.650  65.909  1.00  0.00    -0.090 C  
HETATM   34  C   UNL     1      -8.929   5.145  65.437  1.00  0.00    -0.157 C  
HETATM   35  N   UNL     1      -6.626   4.719  64.766  1.00  0.00    -0.042 NA 
HETATM   36  H   UNL     1      -5.574   4.092  67.256  1.00  0.00     0.000 HD 
HETATM   37  H1  UNL     1      -7.004   4.197  63.975  1.00  0.00     0.000 HD 
HETATM   38  H2  UNL     1      -5.691   4.402  65.023  1.00  0.00     0.000 HD 
HETATM   39  C   UNL     1      -9.902   5.212  66.612  1.00  0.00    -0.189 C  
HETATM   40  C   UNL     1      -9.458   6.320  67.600  1.00  0.00    -0.115 C  
HETATM   41  N   UNL     1     -11.260   5.468  66.084  1.00  0.00    -0.761 NA 
HETATM   42  H2  UNL     1     -11.542   4.785  65.381  1.00  0.00     0.000 HD 
HETATM   43  H1  UNL     1     -11.910   5.512  66.869  1.00  0.00     0.000 HD 
BRANCH  40  44
HETATM   44  O   UNL     1     -10.391   6.299  68.708  1.00  0.00    -0.168 OA 
BRANCH  44  45
HETATM   45  C   UNL     1      -9.921   6.895  69.920  1.00  0.00    -0.176 C  
HETATM   46  O   UNL     1     -10.168   8.303  69.946  1.00  0.00    -0.193 OA 
HETATM   47  C   UNL     1     -11.562   8.641  69.956  1.00  0.00     0.172 C  
HETATM   48  C   UNL     1     -12.287   8.023  71.161  1.00  0.00    -0.218 C  
HETATM   49  H1  UNL     1     -10.761   4.254  71.959  1.00  0.00     0.000 HD 
HETATM   50  O   UNL     1     -13.692   8.308  71.156  1.00  0.00    -0.556 OA 
HETATM   51  H2  UNL     1      -9.338   4.513  71.107  1.00  0.00     0.000 HD 
HETATM   52  C   UNL     1     -12.077   6.501  71.170  1.00  0.00    -0.258 C  
HETATM   53  H   UNL     1     -14.140   7.926  71.902  1.00  0.00     0.000 HD 
HETATM   54  O   UNL     1     -12.670   5.939  72.353  1.00  0.00    -0.415 OA 
HETATM   55  C   UNL     1     -10.571   6.184  71.140  1.00  0.00    -0.246 C  
HETATM   56  N   UNL     1     -10.335   4.720  71.159  1.00  0.00    -0.165 NA 
HETATM   57  H   UNL     1     -12.540   4.998  72.359  1.00  0.00     0.000 HD 
BRANCH  47  58
HETATM   58  C   UNL     1     -11.690  10.179  69.889  1.00  0.00    -0.179 C  
HETATM   59  H1  UNL     1     -12.228  11.717  68.550  1.00  0.00     0.000 HD 
HETATM   60  N   UNL     1     -12.144  10.701  68.594  1.00  0.00    -0.812 NA 
HETATM   61  H2  UNL     1     -13.023  10.260  68.323  1.00  0.00     0.000 HD 
ENDBRANCH  47  58
ENDBRANCH  44  45
ENDBRANCH  40  44
ENDBRANCH  29  30
ENDBRANCH  22  29
ENDBRANCH  18  19
ENDBRANCH   7  18
ENDBRANCH   2   5
TORSDOF 9
ENDMDL
MODEL      116
REMARK 921   NORMALIZED FREE ENERGY PREDICTED BY IDOCK:   -5.24 KCAL/MOL
REMARK 922        TOTAL FREE ENERGY PREDICTED BY IDOCK:  -10.81 KCAL/MOL
REMARK 923 INTER-LIGAND FREE ENERGY PREDICTED BY IDOCK:   -8.90 KCAL/MOL
REMARK 924 INTRA-LIGAND FREE ENERGY PREDICTED BY IDOCK:   -1.91 KCAL/MOL
REMARK 927      BINDING AFFINITY PREDICTED BY RF-SCORE:    0.00 PKD
ROOT
HETATM    1  N   UNL     1      -5.523  19.522  71.723  1.00  0.00    -0.381 NA 
HETATM    2  C   UNL     1      -6.219  20.402  70.781  1.00  0.00    -0.112 C  
HETATM    3  H1  UNL     1      -5.176  19.973  72.569  1.00  0.00     0.000 HD 
HETATM    4  H2  UNL     1      -4.762  19.036  71.250  1.00  0.00     0.000 HD 
ENDROOT
BRANCH   2   5
HETATM    5  C   UNL     1      -6.747  19.716  69.493  1.00  0.00    -0.344 C  
HETATM    6  O   UNL     1      -6.000  18.530  69.114  1.00  0.00    -0.220 OA 
HETATM    7  C   UNL     1      -6.622  17.881  67.992  1.00  0.00    -0.194 C  
HETATM    8  C   UNL     1      -6.603  18.818  66.740  1.00  0.00    -0.189 C  
HETATM    9  O   UNL     1      -5.339  21.204  68.171  1.00  0.00    -0.279 OA 
HETATM   10  H   UNL     1      -5.306  21.844  67.469  1.00  0.00     0.000 HD 
HETATM   11  N   UNL     1      -5.197  19.010  66.251  1.00  0.00    -0.151 NA 
HETATM   12  C   UNL     1      -7.263  20.159  67.058  1.00  0.00    -0.255 C  
HETATM   13  H2  UNL     1      -4.734  18.120  66.067  1.00  0.00     0.000 HD 
HETATM   14  O   UNL     1      -8.690  20.051  67.135  1.00  0.00    -0.314 OA 
HETATM   15  C   UNL     1      -6.693  20.759  68.349  1.00  0.00    -0.117 C  
HETATM   16  H1  UNL     1      -5.185  19.621  65.435  1.00  0.00     0.000 HD 
HETATM   17  H   UNL     1      -9.101  20.885  67.333  1.00  0.00     0.000 HD 
BRANCH   7  18
HETATM   18  O   UNL     1      -5.917  16.746  67.520  1.00  0.00    -0.127 OA 
BRANCH  18  19
HETATM   19  C   UNL     1      -6.623  15.593  67.084  1.00  0.00     0.013 C  
HETATM   20  O   UNL     1      -5.127  14.361  68.635  1.00  0.00    -0.086 OA 
HETATM   21  C   UNL     1      -8.035  15.873  67.612  1.00  0.00    -0.146 C  
HETATM   22  C   UNL     1      -7.511  13.823  68.516  1.00  0.00    -0.119 C  
HETATM   23  H   UNL     1      -4.895  13.532  69.037  1.00  0.00     0.000 HD 
HETATM   24  O   UNL     1      -8.223  15.035  68.766  1.00  0.00    -0.149 OA 
HETATM   25  C   UNL     1      -6.246  14.245  67.736  1.00  0.00    -0.137 C  
BRANCH  21  26
HETATM   26  C   UNL     1      -9.140  15.671  66.571  1.00  0.00    -0.303 C  
HETATM   27  H   UNL     1      -9.951  16.659  65.050  1.00  0.00     0.000 HD 
HETATM   28  O   UNL     1      -9.266  16.783  65.696  1.00  0.00    -0.503 OA 
ENDBRANCH  21  26
BRANCH  22  29
HETATM   29  O   UNL     1      -8.326  12.908  67.771  1.00  0.00    -0.152 OA 
BRANCH  29  30
HETATM   30  C   UNL     1      -8.297  11.497  68.172  1.00  0.00    -0.152 C  
HETATM   31  C   UNL     1      -7.088  10.768  67.529  1.00  0.00    -0.089 C  
HETATM   32  O   UNL     1      -5.957  10.868  68.421  1.00  0.00    -0.043 OA 
HETATM   33  C   UNL     1      -7.233   9.285  67.152  1.00  0.00    -0.087 C  
HETATM   34  C   UNL     1      -8.660   8.864  66.847  1.00  0.00    -0.121 C  
HETATM   35  N   UNL     1      -6.393   8.986  65.964  1.00  0.00    -0.063 NA 
HETATM   36  H   UNL     1      -5.216  10.421  68.027  1.00  0.00     0.000 HD 
HETATM   37  H1  UNL     1      -6.489   8.001  65.714  1.00  0.00     0.000 HD 
HETATM   38  H2  UNL     1      -5.419   9.252  66.106  1.00  0.00     0.000 HD 
HETATM   39  C   UNL     1      -9.584   9.270  67.993  1.00  0.00    -0.142 C  
HETATM   40  C   UNL     1      -9.690  10.815  68.061  1.00  0.00    -0.162 C  
HETATM   41  N   UNL     1     -10.907   8.645  67.775  1.00  0.00    -0.495 NA 
HETATM   42  H2  UNL     1     -10.847   7.633  67.659  1.00  0.00     0.000 HD 
HETATM   43  H1  UNL     1     -11.524   8.916  68.540  1.00  0.00     0.000 HD 
BRANCH  40  44
HETATM   44  O   UNL     1     -10.538  11.132  69.192  1.00  0.00    -0.213 OA 
BRANCH  44  45
HETATM   45  C   UNL     1     -11.910  11.389  68.879  1.00  0.00    -0.347 C  
HETATM   46  O   UNL     1     -12.783  10.459  69.525  1.00  0.00    -0.095 OA 
HETATM   47  C   UNL     1     -12.768  10.560  70.956  1.00  0.00    -0.408 C  
HETATM   48  C   UNL     1     -13.160  11.967  71.430  1.00  0.00    -0.197 C  
HETATM   49  H1  UNL     1     -11.625  14.818  68.844  1.00  0.00     0.000 HD 
HETATM   50  O   UNL     1     -13.100  12.098  72.857  1.00  0.00     0.080 OA 
HETATM   51  H2  UNL     1     -11.389  13.731  67.587  1.00  0.00     0.000 HD 
HETATM   52  C   UNL     1     -12.236  13.011  70.784  1.00  0.00    -0.272 C  
HETATM   53  H   UNL     1     -13.343  12.969  73.150  1.00  0.00     0.000 HD 
HETATM   54  O   UNL     1     -12.669  14.332  71.149  1.00  0.00    -0.319 OA 
HETATM   55  C   UNL     1     -12.266  12.855  69.253  1.00  0.00    -0.065 C  
HETATM   56  N   UNL     1     -11.391  13.857  68.599  1.00  0.00    -0.260 NA 
HETATM   57  H   UNL     1     -12.098  14.977  70.750  1.00  0.00     0.000 HD 
BRANCH  47  58
HETATM   58  C   UNL     1     -13.673   9.447  71.530  1.00  0.00    -0.294 C  
HETATM   59  H1  UNL     1     -14.082   8.446  73.340  1.00  0.00     0.000 HD 
HETATM   60  N   UNL     1     -13.484   9.181  72.961  1.00  0.00    -0.887 NA 
HETATM   61  H2  UNL     1     -13.596  10.041  73.499  1.00  0.00     0.000 HD 
ENDBRANCH  47  58
ENDBRANCH  44  45
ENDBRANCH  40  44
ENDBRANCH  29  30
ENDBRANCH  22  29
ENDBRANCH  18  19
ENDBRANCH   7  18
ENDBRANCH   2   5
TORSDOF 9
ENDMDL
MODEL      117
REMARK 921   NORMALIZED FREE ENERGY PREDICTED BY IDOCK:   -5.24 KCAL/MOL
REMARK 922        TOTAL FREE ENERGY PREDICTED BY IDOCK:  -10.80 KCAL/MOL
REMARK 923 INTER-LIGAND FREE ENERGY PREDICTED BY IDOCK:   -9.80 KCAL/MOL
REMARK 924 INTRA-LIGAND FREE ENERGY PREDICTED BY IDOCK:   -1.01 KCAL/MOL
REMARK 927      BINDING AFFINITY PREDICTED BY RF-SCORE:    0.00 PKD
ROOT
HETATM    1  N   UNL     1      -5.357  19.134  71.130  1.00  0.00    -0.269 NA 
HETATM    2  C   UNL     1      -5.908  20.255  70.363  1.00  0.00    -0.348 C  
HETATM    3  H1  UNL     1      -4.847  19.390  71.975  1.00  0.00     0.000 HD 
HETATM    4  H2  UNL     1      -4.769  18.556  70.530  1.00  0.00     0.000 HD 
ENDROOT
BRANCH   2   5
HETATM    5  C   UNL     1      -6.683  19.866  69.077  1.00  0.00    -0.320 C  
HETATM    6  O   UNL     1      -6.236  18.621  68.479  1.00  0.00    -0.205 OA 
HETATM    7  C   UNL     1      -7.081  18.264  67.371  1.00  0.00    -0.200 C  
HETATM    8  C   UNL     1      -6.985  19.341  66.241  1.00  0.00    -0.226 C  
HETATM    9  O   UNL     1      -5.128  21.220  67.777  1.00  0.00    -0.290 OA 
HETATM   10  H   UNL     1      -5.028  21.931  67.154  1.00  0.00     0.000 HD 
HETATM   11  N   UNL     1      -5.622  19.322  65.615  1.00  0.00    -0.156 NA 
HETATM   12  C   UNL     1      -7.321  20.728  66.787  1.00  0.00    -0.201 C  
HETATM   13  H2  UNL     1      -5.372  18.393  65.276  1.00  0.00     0.000 HD 
HETATM   14  O   UNL     1      -8.726  20.889  67.020  1.00  0.00    -0.577 OA 
HETATM   15  C   UNL     1      -6.522  21.025  68.062  1.00  0.00    -0.263 C  
HETATM   16  H1  UNL     1      -5.559  20.024  64.878  1.00  0.00     0.000 HD 
HETATM   17  H   UNL     1      -8.935  21.751  67.359  1.00  0.00     0.000 HD 
BRANCH   7  18
HETATM   18  O   UNL     1      -6.673  17.089  66.692  1.00  0.00    -0.200 OA 
BRANCH  18  19
HETATM   19  C   UNL     1      -7.550  15.975  66.594  1.00  0.00    -0.165 C  
HETATM   20  O   UNL     1      -5.965  14.869  68.150  1.00  0.00    -0.117 OA 
HETATM   21  C   UNL     1      -8.829  16.527  67.236  1.00  0.00    -0.192 C  
HETATM   22  C   UNL     1      -8.381  14.629  68.457  1.00  0.00    -0.162 C  
HETATM   23  H   UNL     1      -5.759  14.105  68.677  1.00  0.00     0.000 HD 
HETATM   24  O   UNL     1      -8.920  15.948  68.548  1.00  0.00    -0.185 OA 
HETATM   25  C   UNL     1      -7.215  14.734  67.448  1.00  0.00    -0.173 C  
BRANCH  21  26
HETATM   26  C   UNL     1     -10.095  16.280  66.411  1.00  0.00    -0.305 C  
HETATM   27  H   UNL     1     -10.960  16.980  64.764  1.00  0.00     0.000 HD 
HETATM   28  O   UNL     1     -10.174  17.133  65.276  1.00  0.00    -0.591 OA 
ENDBRANCH  21  26
BRANCH  22  29
HETATM   29  O   UNL     1      -9.388  13.705  68.024  1.00  0.00    -0.194 OA 
BRANCH  29  30
HETATM   30  C   UNL     1      -9.431  12.395  68.684  1.00  0.00    -0.011 C  
HETATM   31  C   UNL     1      -8.558  11.366  67.919  1.00  0.00    -0.140 C  
HETATM   32  O   UNL     1      -7.217  11.403  68.456  1.00  0.00    -0.080 OA 
HETATM   33  C   UNL     1      -8.995   9.892  67.901  1.00  0.00    -0.128 C  
HETATM   34  C   UNL     1     -10.491   9.692  68.058  1.00  0.00    -0.276 C  
HETATM   35  N   UNL     1      -8.570   9.260  66.626  1.00  0.00    -0.126 NA 
HETATM   36  H   UNL     1      -6.683  10.773  67.987  1.00  0.00     0.000 HD 
HETATM   37  H1  UNL     1      -8.859   8.282  66.614  1.00  0.00     0.000 HD 
HETATM   38  H2  UNL     1      -7.569   9.366  66.459  1.00  0.00     0.000 HD 
HETATM   39  C   UNL     1     -10.994  10.437  69.294  1.00  0.00    -0.242 C  
HETATM   40  C   UNL     1     -10.874  11.967  69.070  1.00  0.00    -0.190 C  
HETATM   41  N   UNL     1     -12.394  10.034  69.548  1.00  0.00    -0.306 NA 
HETATM   42  H2  UNL     1     -12.501   9.023  69.631  1.00  0.00     0.000 HD 
HETATM   43  H1  UNL     1     -12.729  10.532  70.373  1.00  0.00     0.000 HD 
BRANCH  40  44
HETATM   44  O   UNL     1     -11.321  12.609  70.289  1.00  0.00     0.064 OA 
BRANCH  44  45
HETATM   45  C   UNL     1     -12.634  13.175  70.241  1.00  0.00    -0.063 C  
HETATM   46  O   UNL     1     -13.114  13.508  71.546  1.00  0.00    -0.351 OA 
HETATM   47  C   UNL     1     -12.354  14.542  72.189  1.00  0.00    -0.260 C  
HETATM   48  C   UNL     1     -12.340  15.834  71.358  1.00  0.00    -0.448 C  
HETATM   49  H1  UNL     1     -12.153  14.928  67.319  1.00  0.00     0.000 HD 
HETATM   50  O   UNL     1     -11.541  16.861  71.963  1.00  0.00    -0.487 OA 
HETATM   51  H2  UNL     1     -12.683  13.348  67.522  1.00  0.00     0.000 HD 
HETATM   52  C   UNL     1     -11.807  15.541  69.948  1.00  0.00    -0.362 C  
HETATM   53  H   UNL     1     -11.532  17.660  71.449  1.00  0.00     0.000 HD 
HETATM   54  O   UNL     1     -11.889  16.729  69.143  1.00  0.00    -0.009 OA 
HETATM   55  C   UNL     1     -12.636  14.414  69.303  1.00  0.00     0.136 C  
HETATM   56  N   UNL     1     -12.152  14.115  67.935  1.00  0.00    -0.334 NA 
HETATM   57  H   UNL     1     -11.560  16.547  68.270  1.00  0.00     0.000 HD 
BRANCH  47  58
HETATM   58  C   UNL     1     -12.913  14.739  73.616  1.00  0.00    -0.153 C  
HETATM   59  H1  UNL     1     -14.135  16.051  74.725  1.00  0.00     0.000 HD 
HETATM   60  N   UNL     1     -13.767  15.921  73.782  1.00  0.00    -0.695 NA 
HETATM   61  H2  UNL     1     -14.528  15.906  73.103  1.00  0.00     0.000 HD 
ENDBRANCH  47  58
ENDBRANCH  44  45
ENDBRANCH  40  44
ENDBRANCH  29  30
ENDBRANCH  22  29
ENDBRANCH  18  19
ENDBRANCH   7  18
ENDBRANCH   2   5
TORSDOF 9
ENDMDL
MODEL      118
REMARK 921   NORMALIZED FREE ENERGY PREDICTED BY IDOCK:   -5.22 KCAL/MOL
REMARK 922        TOTAL FREE ENERGY PREDICTED BY IDOCK:  -10.78 KCAL/MOL
REMARK 923 INTER-LIGAND FREE ENERGY PREDICTED BY IDOCK:   -9.13 KCAL/MOL
REMARK 924 INTRA-LIGAND FREE ENERGY PREDICTED BY IDOCK:   -1.65 KCAL/MOL
REMARK 927      BINDING AFFINITY PREDICTED BY RF-SCORE:    0.00 PKD
ROOT
HETATM    1  N   UNL     1     -11.095   6.373  70.450  1.00  0.00    -0.310 NA 
HETATM    2  C   UNL     1     -11.142   6.063  69.018  1.00  0.00    -0.307 C  
HETATM    3  H1  UNL     1     -11.982   6.291  70.946  1.00  0.00     0.000 HD 
HETATM    4  H2  UNL     1     -10.700   7.301  70.594  1.00  0.00     0.000 HD 
ENDROOT
BRANCH   2   5
HETATM    5  C   UNL     1      -9.792   6.188  68.265  1.00  0.00    -0.125 C  
HETATM    6  O   UNL     1      -9.836   7.095  67.132  1.00  0.00    -0.156 OA 
HETATM    7  C   UNL     1      -8.524   7.255  66.565  1.00  0.00    -0.125 C  
HETATM    8  C   UNL     1      -8.002   5.893  66.003  1.00  0.00    -0.108 C  
HETATM    9  O   UNL     1     -10.408   4.248  66.923  1.00  0.00    -0.235 OA 
HETATM   10  H   UNL     1     -10.160   3.378  66.630  1.00  0.00     0.000 HD 
HETATM   11  N   UNL     1      -8.810   5.474  64.810  1.00  0.00    -0.338 NA 
HETATM   12  C   UNL     1      -8.024   4.816  67.087  1.00  0.00    -0.102 C  
HETATM   13  H2  UNL     1      -8.831   6.199  64.092  1.00  0.00     0.000 HD 
HETATM   14  O   UNL     1      -6.969   4.992  68.041  1.00  0.00    -0.058 OA 
HETATM   15  C   UNL     1      -9.388   4.770  67.788  1.00  0.00    -0.136 C  
HETATM   16  H1  UNL     1      -8.469   4.586  64.444  1.00  0.00     0.000 HD 
HETATM   17  H   UNL     1      -6.982   4.323  68.716  1.00  0.00     0.000 HD 
BRANCH   7  18
HETATM   18  O   UNL     1      -8.492   8.079  65.413  1.00  0.00    -0.149 OA 
BRANCH  18  19
HETATM   19  C   UNL     1      -8.201   9.466  65.530  1.00  0.00    -0.126 C  
HETATM   20  O   UNL     1     -10.253   9.787  64.171  1.00  0.00    -0.320 OA 
HETATM   21  C   UNL     1      -8.365   9.693  67.038  1.00  0.00    -0.117 C  
HETATM   22  C   UNL     1      -9.797  11.228  66.095  1.00  0.00    -0.225 C  
HETATM   23  H   UNL     1     -10.870  10.395  63.782  1.00  0.00     0.000 HD 
HETATM   24  O   UNL     1      -9.620  10.371  67.223  1.00  0.00    -0.153 OA 
HETATM   25  C   UNL     1      -9.203  10.454  64.897  1.00  0.00    -0.221 C  
BRANCH  21  26
HETATM   26  C   UNL     1      -7.203  10.453  67.682  1.00  0.00    -0.086 C  
HETATM   27  H   UNL     1      -5.884  10.193  69.146  1.00  0.00     0.000 HD 
HETATM   28  O   UNL     1      -6.605   9.723  68.746  1.00  0.00    -0.046 OA 
ENDBRANCH  21  26
BRANCH  22  29
HETATM   29  O   UNL     1      -9.135  12.481  66.310  1.00  0.00    -0.179 OA 
BRANCH  29  30
HETATM   30  C   UNL     1      -9.979  13.666  66.509  1.00  0.00    -0.288 C  
HETATM   31  C   UNL     1     -11.320  13.519  65.745  1.00  0.00    -0.305 C  
HETATM   32  O   UNL     1     -12.287  12.893  66.618  1.00  0.00    -0.422 OA 
HETATM   33  C   UNL     1     -11.986  14.779  65.168  1.00  0.00    -0.278 C  
HETATM   34  C   UNL     1     -11.010  15.893  64.838  1.00  0.00    -0.427 C  
HETATM   35  N   UNL     1     -12.732  14.429  63.932  1.00  0.00    -0.781 NA 
HETATM   36  H   UNL     1     -13.109  12.803  66.149  1.00  0.00     0.000 HD 
HETATM   37  H1  UNL     1     -13.174  15.265  63.549  1.00  0.00     0.000 HD 
HETATM   38  H2  UNL     1     -13.404  13.678  64.089  1.00  0.00     0.000 HD 
HETATM   39  C   UNL     1     -10.130  16.198  66.049  1.00  0.00    -0.351 C  
HETATM   40  C   UNL     1      -9.194  14.996  66.335  1.00  0.00    -0.295 C  
HETATM   41  N   UNL     1      -9.362  17.431  65.774  1.00  0.00    -0.508 NA 
HETATM   42  H2  UNL     1      -9.960  18.216  65.518  1.00  0.00     0.000 HD 
HETATM   43  H1  UNL     1      -8.775  17.634  66.584  1.00  0.00     0.000 HD 
BRANCH  40  44
HETATM   44  O   UNL     1      -8.425  15.329  67.517  1.00  0.00    -0.159 OA 
BRANCH  44  45
HETATM   45  C   UNL     1      -7.005  15.343  67.343  1.00  0.00    -0.189 C  
HETATM   46  O   UNL     1      -6.545  16.605  66.854  1.00  0.00    -0.187 OA 
HETATM   47  C   UNL     1      -6.756  17.687  67.774  1.00  0.00    -0.183 C  
HETATM   48  C   UNL     1      -6.059  17.431  69.119  1.00  0.00    -0.216 C  
HETATM   49  H1  UNL     1      -6.297  13.413  70.102  1.00  0.00     0.000 HD 
HETATM   50  O   UNL     1      -6.304  18.479  70.066  1.00  0.00    -0.153 OA 
HETATM   51  H2  UNL     1      -6.631  12.920  68.533  1.00  0.00     0.000 HD 
HETATM   52  C   UNL     1      -6.536  16.094  69.706  1.00  0.00    -0.137 C  
HETATM   53  H   UNL     1      -5.873  18.321  70.899  1.00  0.00     0.000 HD 
HETATM   54  O   UNL     1      -5.809  15.809  70.913  1.00  0.00     0.026 OA 
HETATM   55  C   UNL     1      -6.311  14.967  68.682  1.00  0.00    -0.084 C  
HETATM   56  N   UNL     1      -6.753  13.660  69.224  1.00  0.00    -0.111 NA 
HETATM   57  H   UNL     1      -6.104  14.982  71.276  1.00  0.00     0.000 HD 
BRANCH  47  58
HETATM   58  C   UNL     1      -6.305  18.998  67.092  1.00  0.00    -0.187 C  
HETATM   59  H1  UNL     1      -6.628  20.122  65.337  1.00  0.00     0.000 HD 
HETATM   60  N   UNL     1      -6.926  19.256  65.788  1.00  0.00    -0.273 NA 
HETATM   61  H2  UNL     1      -7.943  19.229  65.868  1.00  0.00     0.000 HD 
ENDBRANCH  47  58
ENDBRANCH  44  45
ENDBRANCH  40  44
ENDBRANCH  29  30
ENDBRANCH  22  29
ENDBRANCH  18  19
ENDBRANCH   7  18
ENDBRANCH   2   5
TORSDOF 9
ENDMDL
MODEL      119
REMARK 921   NORMALIZED FREE ENERGY PREDICTED BY IDOCK:   -5.21 KCAL/MOL
REMARK 922        TOTAL FREE ENERGY PREDICTED BY IDOCK:  -10.77 KCAL/MOL
REMARK 923 INTER-LIGAND FREE ENERGY PREDICTED BY IDOCK:   -8.65 KCAL/MOL
REMARK 924 INTRA-LIGAND FREE ENERGY PREDICTED BY IDOCK:   -2.12 KCAL/MOL
REMARK 927      BINDING AFFINITY PREDICTED BY RF-SCORE:    0.00 PKD
ROOT
HETATM    1  N   UNL     1      -8.924   1.527  69.605  1.00  0.00    -0.071 NA 
HETATM    2  C   UNL     1      -9.646   1.482  70.880  1.00  0.00    -0.112 C  
HETATM    3  H1  UNL     1      -8.756   0.623  69.165  1.00  0.00     0.000 HD 
HETATM    4  H2  UNL     1      -8.044   2.028  69.720  1.00  0.00     0.000 HD 
ENDROOT
BRANCH   2   5
HETATM    5  C   UNL     1      -9.902   2.857  71.551  1.00  0.00    -0.125 C  
HETATM    6  O   UNL     1      -9.531   3.990  70.722  1.00  0.00    -0.140 OA 
HETATM    7  C   UNL     1      -9.913   5.223  71.356  1.00  0.00    -0.185 C  
HETATM    8  C   UNL     1      -9.141   5.407  72.704  1.00  0.00    -0.135 C  
HETATM    9  O   UNL     1      -7.703   2.712  72.594  1.00  0.00    -0.051 OA 
HETATM   10  H   UNL     1      -7.211   2.732  73.407  1.00  0.00     0.000 HD 
HETATM   11  N   UNL     1      -7.680   5.627  72.444  1.00  0.00    -0.101 NA 
HETATM   12  C   UNL     1      -9.361   4.204  73.621  1.00  0.00    -0.103 C  
HETATM   13  H2  UNL     1      -7.521   6.407  71.806  1.00  0.00     0.000 HD 
HETATM   14  O   UNL     1     -10.671   4.205  74.204  1.00  0.00    -0.232 OA 
HETATM   15  C   UNL     1      -9.100   2.889  72.876  1.00  0.00    -0.086 C  
HETATM   16  H1  UNL     1      -7.177   5.747  73.323  1.00  0.00     0.000 HD 
HETATM   17  H   UNL     1     -10.808   3.458  74.775  1.00  0.00     0.000 HD 
BRANCH   7  18
HETATM   18  O   UNL     1      -9.530   6.382  70.638  1.00  0.00    -0.164 OA 
BRANCH  18  19
HETATM   19  C   UNL     1      -9.857   6.516  69.262  1.00  0.00    -0.148 C  
HETATM   20  O   UNL     1      -9.988   8.945  69.754  1.00  0.00    -0.182 OA 
HETATM   21  C   UNL     1      -8.563   6.048  68.585  1.00  0.00    -0.112 C  
HETATM   22  C   UNL     1      -8.909   8.147  67.708  1.00  0.00    -0.130 C  
HETATM   23  H   UNL     1     -10.112   9.825  69.421  1.00  0.00     0.000 HD 
HETATM   24  O   UNL     1      -7.892   7.226  68.107  1.00  0.00    -0.114 OA 
HETATM   25  C   UNL     1     -10.060   7.947  68.719  1.00  0.00    -0.193 C  
BRANCH  21  26
HETATM   26  C   UNL     1      -8.779   5.020  67.472  1.00  0.00    -0.103 C  
HETATM   27  H   UNL     1     -10.285   4.047  66.615  1.00  0.00     0.000 HD 
HETATM   28  O   UNL     1     -10.151   4.685  67.306  1.00  0.00    -0.179 OA 
ENDBRANCH  21  26
BRANCH  22  29
HETATM   29  O   UNL     1      -9.321   7.884  66.361  1.00  0.00    -0.182 OA 
BRANCH  29  30
HETATM   30  C   UNL     1      -8.519   8.474  65.282  1.00  0.00    -0.174 C  
HETATM   31  C   UNL     1      -7.676   7.385  64.568  1.00  0.00    -0.126 C  
HETATM   32  O   UNL     1      -8.445   6.846  63.470  1.00  0.00    -0.342 OA 
HETATM   33  C   UNL     1      -6.297   7.768  64.005  1.00  0.00    -0.057 C  
HETATM   34  C   UNL     1      -5.636   8.926  64.730  1.00  0.00    -0.061 C  
HETATM   35  N   UNL     1      -5.387   6.595  64.069  1.00  0.00    -0.026 NA 
HETATM   36  H   UNL     1      -7.928   6.180  63.033  1.00  0.00     0.000 HD 
HETATM   37  H1  UNL     1      -4.473   6.849  63.695  1.00  0.00     0.000 HD 
HETATM   38  H2  UNL     1      -5.780   5.778  63.601  1.00  0.00     0.000 HD 
HETATM   39  C   UNL     1      -6.591  10.116  64.799  1.00  0.00    -0.124 C  
HETATM   40  C   UNL     1      -7.791   9.775  65.720  1.00  0.00    -0.110 C  
HETATM   41  N   UNL     1      -5.843  11.291  65.296  1.00  0.00    -0.438 NA 
HETATM   42  H2  UNL     1      -5.011  11.489  64.740  1.00  0.00     0.000 HD 
HETATM   43  H1  UNL     1      -6.481  12.086  65.342  1.00  0.00     0.000 HD 
BRANCH  40  44
HETATM   44  O   UNL     1      -8.676  10.922  65.705  1.00  0.00    -0.185 OA 
BRANCH  44  45
HETATM   45  C   UNL     1     -10.059  10.628  65.485  1.00  0.00    -0.280 C  
HETATM   46  O   UNL     1     -10.821  10.745  66.689  1.00  0.00    -0.237 OA 
HETATM   47  C   UNL     1     -10.867  12.081  67.210  1.00  0.00    -0.246 C  
HETATM   48  C   UNL     1     -11.458  13.067  66.191  1.00  0.00    -0.340 C  
HETATM   49  H1  UNL     1     -10.229  12.065  62.363  1.00  0.00     0.000 HD 
HETATM   50  O   UNL     1     -11.462  14.416  66.679  1.00  0.00    -0.339 OA 
HETATM   51  H2  UNL     1      -9.810  10.493  62.775  1.00  0.00     0.000 HD 
HETATM   52  C   UNL     1     -10.659  13.003  64.881  1.00  0.00    -0.337 C  
HETATM   53  H   UNL     1     -11.828  15.026  66.048  1.00  0.00     0.000 HD 
HETATM   54  O   UNL     1     -11.275  13.852  63.897  1.00  0.00    -0.569 OA 
HETATM   55  C   UNL     1     -10.618  11.552  64.368  1.00  0.00    -0.334 C  
HETATM   56  N   UNL     1      -9.861  11.460  63.096  1.00  0.00    -0.379 NA 
HETATM   57  H   UNL     1     -10.781  13.812  63.087  1.00  0.00     0.000 HD 
BRANCH  47  58
HETATM   58  C   UNL     1     -11.636  12.053  68.550  1.00  0.00    -0.309 C  
HETATM   59  H1  UNL     1     -12.853  10.780  69.709  1.00  0.00     0.000 HD 
HETATM   60  N   UNL     1     -12.345  10.798  68.824  1.00  0.00    -0.792 NA 
HETATM   61  H2  UNL     1     -11.701  10.008  68.768  1.00  0.00     0.000 HD 
ENDBRANCH  47  58
ENDBRANCH  44  45
ENDBRANCH  40  44
ENDBRANCH  29  30
ENDBRANCH  22  29
ENDBRANCH  18  19
ENDBRANCH   7  18
ENDBRANCH   2   5
TORSDOF 9
ENDMDL
MODEL      120
REMARK 921   NORMALIZED FREE ENERGY PREDICTED BY IDOCK:   -5.20 KCAL/MOL
REMARK 922        TOTAL FREE ENERGY PREDICTED BY IDOCK:  -10.75 KCAL/MOL
REMARK 923 INTER-LIGAND FREE ENERGY PREDICTED BY IDOCK:   -8.84 KCAL/MOL
REMARK 924 INTRA-LIGAND FREE ENERGY PREDICTED BY IDOCK:   -1.92 KCAL/MOL
REMARK 927      BINDING AFFINITY PREDICTED BY RF-SCORE:    0.00 PKD
ROOT
HETATM    1  N   UNL     1      -6.635  10.250  70.815  1.00  0.00    -0.334 NA 
HETATM    2  C   UNL     1      -6.233   9.428  71.960  1.00  0.00     0.156 C  
HETATM    3  H1  UNL     1      -6.142  11.137  70.717  1.00  0.00     0.000 HD 
HETATM    4  H2  UNL     1      -7.642  10.412  70.838  1.00  0.00     0.000 HD 
ENDROOT
BRANCH   2   5
HETATM    5  C   UNL     1      -6.984   8.079  72.108  1.00  0.00    -0.077 C  
HETATM    6  O   UNL     1      -8.310   8.080  71.520  1.00  0.00    -0.102 OA 
HETATM    7  C   UNL     1      -8.890   6.766  71.585  1.00  0.00    -0.129 C  
HETATM    8  C   UNL     1      -9.082   6.326  73.073  1.00  0.00    -0.129 C  
HETATM    9  O   UNL     1      -7.790   8.814  74.288  1.00  0.00    -0.402 OA 
HETATM   10  H   UNL     1      -7.849   8.618  75.217  1.00  0.00     0.000 HD 
HETATM   11  N   UNL     1     -10.134   7.165  73.735  1.00  0.00    -0.338 NA 
HETATM   12  C   UNL     1      -7.759   6.401  73.834  1.00  0.00    -0.087 C  
HETATM   13  H2  UNL     1     -11.014   7.150  73.218  1.00  0.00     0.000 HD 
HETATM   14  O   UNL     1      -6.874   5.330  73.480  1.00  0.00    -0.075 OA 
HETATM   15  C   UNL     1      -7.079   7.760  73.621  1.00  0.00    -0.103 C  
HETATM   16  H1  UNL     1     -10.259   6.879  74.706  1.00  0.00     0.000 HD 
HETATM   17  H   UNL     1      -6.051   5.377  73.953  1.00  0.00     0.000 HD 
BRANCH   7  18
HETATM   18  O   UNL     1     -10.214   6.695  71.085  1.00  0.00    -0.193 OA 
BRANCH  18  19
HETATM   19  C   UNL     1     -10.465   6.841  69.694  1.00  0.00    -0.214 C  
HETATM   20  O   UNL     1     -10.526   9.273  70.183  1.00  0.00    -0.202 OA 
HETATM   21  C   UNL     1      -9.157   6.323  69.084  1.00  0.00    -0.130 C  
HETATM   22  C   UNL     1      -9.375   8.434  68.194  1.00  0.00    -0.133 C  
HETATM   23  H   UNL     1     -10.599  10.158  69.845  1.00  0.00     0.000 HD 
HETATM   24  O   UNL     1      -8.417   7.474  68.643  1.00  0.00    -0.128 OA 
HETATM   25  C   UNL     1     -10.584   8.279  69.144  1.00  0.00    -0.165 C  
BRANCH  21  26
HETATM   26  C   UNL     1      -9.356   5.304  67.959  1.00  0.00    -0.117 C  
HETATM   27  H   UNL     1      -8.298   3.927  66.993  1.00  0.00     0.000 HD 
HETATM   28  O   UNL     1      -8.175   4.560  67.690  1.00  0.00    -0.099 OA 
ENDBRANCH  21  26
BRANCH  22  29
HETATM   29  O   UNL     1      -9.728   8.187  66.827  1.00  0.00    -0.195 OA 
BRANCH  29  30
HETATM   30  C   UNL     1      -8.810   8.680  65.793  1.00  0.00    -0.193 C  
HETATM   31  C   UNL     1      -7.916   7.531  65.259  1.00  0.00    -0.126 C  
HETATM   32  O   UNL     1      -8.577   6.910  64.135  1.00  0.00    -0.335 OA 
HETATM   33  C   UNL     1      -6.481   7.856  64.813  1.00  0.00    -0.048 C  
HETATM   34  C   UNL     1      -5.879   9.064  65.508  1.00  0.00    -0.050 C  
HETATM   35  N   UNL     1      -5.601   6.685  65.065  1.00  0.00    -0.029 NA 
HETATM   36  H   UNL     1      -8.029   6.206  63.809  1.00  0.00     0.000 HD 
HETATM   37  H1  UNL     1      -4.649   6.901  64.769  1.00  0.00     0.000 HD 
HETATM   38  H2  UNL     1      -5.957   5.836  64.626  1.00  0.00     0.000 HD 
HETATM   39  C   UNL     1      -6.817  10.263  65.382  1.00  0.00    -0.140 C  
HETATM   40  C   UNL     1      -8.110  10.007  66.198  1.00  0.00    -0.122 C  
HETATM   41  N   UNL     1      -6.105  11.469  65.858  1.00  0.00    -0.461 NA 
HETATM   42  H2  UNL     1      -5.217  11.615  65.377  1.00  0.00     0.000 HD 
HETATM   43  H1  UNL     1      -6.732  12.270  65.774  1.00  0.00     0.000 HD 
BRANCH  40  44
HETATM   44  O   UNL     1      -8.971  11.156  66.000  1.00  0.00    -0.191 OA 
BRANCH  44  45
HETATM   45  C   UNL     1     -10.368  10.867  65.896  1.00  0.00    -0.250 C  
HETATM   46  O   UNL     1     -11.069  11.216  67.092  1.00  0.00    -0.282 OA 
HETATM   47  C   UNL     1     -11.064  12.624  67.369  1.00  0.00    -0.273 C  
HETATM   48  C   UNL     1     -11.683  13.430  66.218  1.00  0.00    -0.366 C  
HETATM   49  H1  UNL     1     -10.660  11.733  62.579  1.00  0.00     0.000 HD 
HETATM   50  O   UNL     1     -11.638  14.844  66.457  1.00  0.00    -0.339 OA 
HETATM   51  H2  UNL     1     -10.253  10.247  63.246  1.00  0.00     0.000 HD 
HETATM   52  C   UNL     1     -10.950  13.113  64.906  1.00  0.00    -0.318 C  
HETATM   53  H   UNL     1     -12.021  15.343  65.744  1.00  0.00     0.000 HD 
HETATM   54  O   UNL     1     -11.596  13.791  63.814  1.00  0.00    -0.632 OA 
HETATM   55  C   UNL     1     -10.962  11.594  64.658  1.00  0.00    -0.301 C  
HETATM   56  N   UNL     1     -10.270  11.256  63.391  1.00  0.00    -0.380 NA 
HETATM   57  H   UNL     1     -11.142  13.595  63.003  1.00  0.00     0.000 HD 
BRANCH  47  58
HETATM   58  C   UNL     1     -11.767  12.855  68.725  1.00  0.00    -0.323 C  
HETATM   59  H1  UNL     1     -11.808  12.101  70.694  1.00  0.00     0.000 HD 
HETATM   60  N   UNL     1     -11.343  11.948  69.798  1.00  0.00    -0.478 NA 
HETATM   61  H2  UNL     1     -10.330  11.986  69.914  1.00  0.00     0.000 HD 
ENDBRANCH  47  58
ENDBRANCH  44  45
ENDBRANCH  40  44
ENDBRANCH  29  30
ENDBRANCH  22  29
ENDBRANCH  18  19
ENDBRANCH   7  18
ENDBRANCH   2   5
TORSDOF 9
ENDMDL
MODEL      121
REMARK 921   NORMALIZED FREE ENERGY PREDICTED BY IDOCK:   -5.17 KCAL/MOL
REMARK 922        TOTAL FREE ENERGY PREDICTED BY IDOCK:  -10.70 KCAL/MOL
REMARK 923 INTER-LIGAND FREE ENERGY PREDICTED BY IDOCK:   -8.44 KCAL/MOL
REMARK 924 INTRA-LIGAND FREE ENERGY PREDICTED BY IDOCK:   -2.26 KCAL/MOL
REMARK 927      BINDING AFFINITY PREDICTED BY RF-SCORE:    0.00 PKD
ROOT
HETATM    1  N   UNL     1      -9.325  17.065  67.792  1.00  0.00    -0.234 NA 
HETATM    2  C   UNL     1     -10.388  16.965  66.789  1.00  0.00    -0.298 C  
HETATM    3  H1  UNL     1      -8.995  18.010  67.988  1.00  0.00     0.000 HD 
HETATM    4  H2  UNL     1      -8.540  16.469  67.530  1.00  0.00     0.000 HD 
ENDROOT
BRANCH   2   5
HETATM    5  C   UNL     1     -10.890  15.528  66.490  1.00  0.00    -0.284 C  
HETATM    6  O   UNL     1      -9.828  14.542  66.414  1.00  0.00    -0.266 OA 
HETATM    7  C   UNL     1     -10.377  13.221  66.262  1.00  0.00    -0.290 C  
HETATM    8  C   UNL     1     -11.164  13.108  64.915  1.00  0.00    -0.310 C  
HETATM    9  O   UNL     1     -10.792  16.032  64.107  1.00  0.00    -0.884 OA 
HETATM   10  H   UNL     1     -11.267  16.058  63.284  1.00  0.00     0.000 HD 
HETATM   11  N   UNL     1     -10.222  13.192  63.751  1.00  0.00    -0.706 NA 
HETATM   12  C   UNL     1     -12.243  14.187  64.828  1.00  0.00    -0.440 C  
HETATM   13  H2  UNL     1      -9.476  12.498  63.814  1.00  0.00     0.000 HD 
HETATM   14  O   UNL     1     -13.364  13.896  65.673  1.00  0.00    -0.632 OA 
HETATM   15  C   UNL     1     -11.665  15.570  65.149  1.00  0.00     0.040 C  
HETATM   16  H1  UNL     1     -10.735  13.118  62.872  1.00  0.00     0.000 HD 
HETATM   17  H   UNL     1     -14.035  14.566  65.619  1.00  0.00     0.000 HD 
BRANCH   7  18
HETATM   18  O   UNL     1      -9.401  12.204  66.118  1.00  0.00    -0.231 OA 
BRANCH  18  19
HETATM   19  C   UNL     1      -9.346  11.126  67.042  1.00  0.00    -0.170 C  
HETATM   20  O   UNL     1     -10.195   9.755  65.155  1.00  0.00    -0.324 OA 
HETATM   21  C   UNL     1      -7.840  11.020  67.309  1.00  0.00    -0.122 C  
HETATM   22  C   UNL     1      -8.419   8.907  66.608  1.00  0.00    -0.119 C  
HETATM   23  H   UNL     1     -10.428   8.893  64.831  1.00  0.00     0.000 HD 
HETATM   24  O   UNL     1      -7.366   9.872  66.585  1.00  0.00    -0.096 OA 
HETATM   25  C   UNL     1      -9.726   9.725  66.516  1.00  0.00    -0.209 C  
BRANCH  21  26
HETATM   26  C   UNL     1      -7.475  10.952  68.794  1.00  0.00    -0.112 C  
HETATM   27  H   UNL     1      -6.272  11.878  70.076  1.00  0.00     0.000 HD 
HETATM   28  O   UNL     1      -6.499  11.920  69.155  1.00  0.00    -0.082 OA 
ENDBRANCH  21  26
BRANCH  22  29
HETATM   29  O   UNL     1      -8.354   8.125  67.808  1.00  0.00    -0.126 OA 
BRANCH  29  30
HETATM   30  C   UNL     1      -8.967   6.792  67.780  1.00  0.00    -0.116 C  
HETATM   31  C   UNL     1     -10.167   6.719  68.760  1.00  0.00    -0.175 C  
HETATM   32  O   UNL     1     -11.368   7.099  68.055  1.00  0.00    -0.493 OA 
HETATM   33  C   UNL     1     -10.464   5.387  69.469  1.00  0.00    -0.273 C  
HETATM   34  C   UNL     1      -9.246   4.500  69.648  1.00  0.00    -0.195 C  
HETATM   35  N   UNL     1     -11.051   5.652  70.807  1.00  0.00    -0.198 NA 
HETATM   36  H   UNL     1     -12.103   7.055  68.656  1.00  0.00     0.000 HD 
HETATM   37  H1  UNL     1     -11.249   4.768  71.277  1.00  0.00     0.000 HD 
HETATM   38  H2  UNL     1     -11.875   6.250  70.754  1.00  0.00     0.000 HD 
HETATM   39  C   UNL     1      -8.535   4.306  68.309  1.00  0.00    -0.093 C  
HETATM   40  C   UNL     1      -7.916   5.649  67.844  1.00  0.00    -0.097 C  
HETATM   41  N   UNL     1      -7.502   3.260  68.473  1.00  0.00    -0.050 NA 
HETATM   42  H2  UNL     1      -7.882   2.389  68.844  1.00  0.00     0.000 HD 
HETATM   43  H1  UNL     1      -7.028   3.131  67.579  1.00  0.00     0.000 HD 
BRANCH  40  44
HETATM   44  O   UNL     1      -7.301   5.407  66.554  1.00  0.00    -0.082 OA 
BRANCH  44  45
HETATM   45  C   UNL     1      -8.207   5.298  65.452  1.00  0.00    -0.127 C  
HETATM   46  O   UNL     1      -8.108   6.423  64.575  1.00  0.00    -0.121 OA 
HETATM   47  C   UNL     1      -6.836   6.529  63.921  1.00  0.00    -0.045 C  
HETATM   48  C   UNL     1      -6.514   5.273  63.098  1.00  0.00    -0.026 C  
HETATM   49  H1  UNL     1      -7.883   1.894  65.068  1.00  0.00     0.000 HD 
HETATM   50  O   UNL     1      -5.221   5.342  62.481  1.00  0.00    -0.012 OA 
HETATM   51  H2  UNL     1      -8.948   2.745  66.048  1.00  0.00     0.000 HD 
HETATM   52  C   UNL     1      -6.580   4.030  63.999  1.00  0.00    -0.042 C  
HETATM   53  H   UNL     1      -5.022   4.565  61.972  1.00  0.00     0.000 HD 
HETATM   54  O   UNL     1      -6.378   2.847  63.206  1.00  0.00    -0.017 OA 
HETATM   55  C   UNL     1      -7.952   3.965  64.695  1.00  0.00    -0.086 C  
HETATM   56  N   UNL     1      -8.050   2.769  65.565  1.00  0.00    -0.086 NA 
HETATM   57  H   UNL     1      -6.419   2.079  63.763  1.00  0.00     0.000 HD 
BRANCH  47  58
HETATM   58  C   UNL     1      -6.828   7.827  63.082  1.00  0.00    -0.075 C  
HETATM   59  H1  UNL     1      -7.797   9.695  62.954  1.00  0.00     0.000 HD 
HETATM   60  N   UNL     1      -7.803   8.838  63.508  1.00  0.00    -0.141 NA 
HETATM   61  H2  UNL     1      -7.679   9.055  64.497  1.00  0.00     0.000 HD 
ENDBRANCH  47  58
ENDBRANCH  44  45
ENDBRANCH  40  44
ENDBRANCH  29  30
ENDBRANCH  22  29
ENDBRANCH  18  19
ENDBRANCH   7  18
ENDBRANCH   2   5
TORSDOF 9
ENDMDL
MODEL      122
REMARK 921   NORMALIZED FREE ENERGY PREDICTED BY IDOCK:   -5.17 KCAL/MOL
REMARK 922        TOTAL FREE ENERGY PREDICTED BY IDOCK:  -10.70 KCAL/MOL
REMARK 923 INTER-LIGAND FREE ENERGY PREDICTED BY IDOCK:   -8.77 KCAL/MOL
REMARK 924 INTRA-LIGAND FREE ENERGY PREDICTED BY IDOCK:   -1.92 KCAL/MOL
REMARK 927      BINDING AFFINITY PREDICTED BY RF-SCORE:    0.00 PKD
ROOT
HETATM    1  N   UNL     1      -9.668   4.412  67.869  1.00  0.00    -0.153 NA 
HETATM    2  C   UNL     1      -9.911   3.797  66.561  1.00  0.00    -0.039 C  
HETATM    3  H1  UNL     1     -10.371   4.218  68.582  1.00  0.00     0.000 HD 
HETATM    4  H2  UNL     1      -9.546   5.419  67.764  1.00  0.00     0.000 HD 
ENDROOT
BRANCH   2   5
HETATM    5  C   UNL     1      -8.842   4.093  65.476  1.00  0.00    -0.123 C  
HETATM    6  O   UNL     1      -8.388   5.471  65.464  1.00  0.00    -0.124 OA 
HETATM    7  C   UNL     1      -7.312   5.638  64.523  1.00  0.00    -0.068 C  
HETATM    8  C   UNL     1      -7.805   5.335  63.070  1.00  0.00    -0.083 C  
HETATM    9  O   UNL     1     -10.635   4.514  63.880  1.00  0.00    -0.412 OA 
HETATM   10  H   UNL     1     -11.011   4.290  63.036  1.00  0.00     0.000 HD 
HETATM   11  N   UNL     1      -8.780   6.382  62.620  1.00  0.00    -0.328 NA 
HETATM   12  C   UNL     1      -8.421   3.939  62.988  1.00  0.00    -0.088 C  
HETATM   13  H2  UNL     1      -8.393   7.323  62.701  1.00  0.00     0.000 HD 
HETATM   14  O   UNL     1      -7.424   2.909  63.019  1.00  0.00    -0.051 OA 
HETATM   15  C   UNL     1      -9.455   3.727  64.101  1.00  0.00    -0.156 C  
HETATM   16  H1  UNL     1      -9.102   6.185  61.672  1.00  0.00     0.000 HD 
HETATM   17  H   UNL     1      -7.807   2.040  62.968  1.00  0.00     0.000 HD 
BRANCH   7  18
HETATM   18  O   UNL     1      -6.852   6.972  64.405  1.00  0.00    -0.044 OA 
BRANCH  18  19
HETATM   19  C   UNL     1      -7.583   8.039  64.995  1.00  0.00    -0.104 C  
HETATM   20  O   UNL     1      -6.346   7.449  67.064  1.00  0.00    -0.048 OA 
HETATM   21  C   UNL     1      -7.043   9.251  64.226  1.00  0.00    -0.098 C  
HETATM   22  C   UNL     1      -6.664   9.791  66.431  1.00  0.00    -0.080 C  
HETATM   23  H   UNL     1      -6.157   7.654  67.972  1.00  0.00     0.000 HD 
HETATM   24  O   UNL     1      -6.141   9.938  65.110  1.00  0.00    -0.082 OA 
HETATM   25  C   UNL     1      -7.277   8.372  66.471  1.00  0.00    -0.076 C  
BRANCH  21  26
HETATM   26  C   UNL     1      -8.133  10.179  63.684  1.00  0.00    -0.163 C  
HETATM   27  H   UNL     1      -9.784  10.055  62.585  1.00  0.00     0.000 HD 
HETATM   28  O   UNL     1      -9.107   9.480  62.922  1.00  0.00    -0.254 OA 
ENDBRANCH  21  26
BRANCH  22  29
HETATM   29  O   UNL     1      -7.637  10.808  66.699  1.00  0.00    -0.121 OA 
BRANCH  29  30
HETATM   30  C   UNL     1      -8.097  10.953  68.086  1.00  0.00    -0.119 C  
HETATM   31  C   UNL     1      -7.053  10.371  69.074  1.00  0.00    -0.076 C  
HETATM   32  O   UNL     1      -6.132  11.419  69.449  1.00  0.00    -0.061 OA 
HETATM   33  C   UNL     1      -7.548   9.721  70.376  1.00  0.00    -0.148 C  
HETATM   34  C   UNL     1      -8.949   9.145  70.283  1.00  0.00    -0.245 C  
HETATM   35  N   UNL     1      -6.620   8.631  70.776  1.00  0.00    -0.041 NA 
HETATM   36  H   UNL     1      -5.493  11.062  70.054  1.00  0.00     0.000 HD 
HETATM   37  H1  UNL     1      -6.948   8.200  71.640  1.00  0.00     0.000 HD 
HETATM   38  H2  UNL     1      -5.656   8.956  70.851  1.00  0.00     0.000 HD 
HETATM   39  C   UNL     1      -9.916  10.201  69.750  1.00  0.00    -0.220 C  
HETATM   40  C   UNL     1      -9.580  10.526  68.272  1.00  0.00    -0.158 C  
HETATM   41  N   UNL     1     -11.297   9.688  69.893  1.00  0.00    -0.379 NA 
HETATM   42  H2  UNL     1     -11.513   9.406  70.849  1.00  0.00     0.000 HD 
HETATM   43  H1  UNL     1     -11.942  10.394  69.538  1.00  0.00     0.000 HD 
BRANCH  40  44
HETATM   44  O   UNL     1     -10.499  11.561  67.846  1.00  0.00    -0.176 OA 
BRANCH  44  45
HETATM   45  C   UNL     1      -9.938  12.574  67.006  1.00  0.00    -0.214 C  
HETATM   46  O   UNL     1     -10.316  12.395  65.639  1.00  0.00    -0.248 OA 
HETATM   47  C   UNL     1     -11.724  12.548  65.410  1.00  0.00    -0.398 C  
HETATM   48  C   UNL     1     -12.224  13.932  65.850  1.00  0.00    -0.467 C  
HETATM   49  H1  UNL     1     -10.246  15.131  69.288  1.00  0.00     0.000 HD 
HETATM   50  O   UNL     1     -13.640  14.080  65.675  1.00  0.00    -0.659 OA 
HETATM   51  H2  UNL     1      -8.977  14.053  69.083  1.00  0.00     0.000 HD 
HETATM   52  C   UNL     1     -11.867  14.170  67.325  1.00  0.00    -0.419 C  
HETATM   53  H   UNL     1     -13.949  14.937  65.948  1.00  0.00     0.000 HD 
HETATM   54  O   UNL     1     -12.245  15.504  67.705  1.00  0.00    -0.199 OA 
HETATM   55  C   UNL     1     -10.353  13.977  67.530  1.00  0.00    -0.245 C  
HETATM   56  N   UNL     1      -9.974  14.211  68.944  1.00  0.00    -0.178 NA 
HETATM   57  H   UNL     1     -12.024  15.651  68.617  1.00  0.00     0.000 HD 
BRANCH  47  58
HETATM   58  C   UNL     1     -12.010  12.239  63.923  1.00  0.00    -0.491 C  
HETATM   59  H1  UNL     1     -12.497  13.212  62.117  1.00  0.00     0.000 HD 
HETATM   60  N   UNL     1     -12.307  13.416  63.099  1.00  0.00    -0.940 NA 
HETATM   61  H2  UNL     1     -11.558  14.104  63.180  1.00  0.00     0.000 HD 
ENDBRANCH  47  58
ENDBRANCH  44  45
ENDBRANCH  40  44
ENDBRANCH  29  30
ENDBRANCH  22  29
ENDBRANCH  18  19
ENDBRANCH   7  18
ENDBRANCH   2   5
TORSDOF 9
ENDMDL
MODEL      123
REMARK 921   NORMALIZED FREE ENERGY PREDICTED BY IDOCK:   -5.13 KCAL/MOL
REMARK 922        TOTAL FREE ENERGY PREDICTED BY IDOCK:  -10.65 KCAL/MOL
REMARK 923 INTER-LIGAND FREE ENERGY PREDICTED BY IDOCK:   -8.40 KCAL/MOL
REMARK 924 INTRA-LIGAND FREE ENERGY PREDICTED BY IDOCK:   -2.25 KCAL/MOL
REMARK 927      BINDING AFFINITY PREDICTED BY RF-SCORE:    0.00 PKD
ROOT
HETATM    1  N   UNL     1     -13.610  15.412  70.690  1.00  0.00    -0.826 NA 
HETATM    2  C   UNL     1     -12.961  14.172  70.253  1.00  0.00    -0.003 C  
HETATM    3  H1  UNL     1     -14.311  15.305  71.422  1.00  0.00     0.000 HD 
HETATM    4  H2  UNL     1     -14.014  15.895  69.888  1.00  0.00     0.000 HD 
ENDROOT
BRANCH   2   5
HETATM    5  C   UNL     1     -11.895  14.335  69.138  1.00  0.00    -0.330 C  
HETATM    6  O   UNL     1     -11.068  13.158  68.944  1.00  0.00    -0.255 OA 
HETATM    7  C   UNL     1     -10.194  13.338  67.816  1.00  0.00    -0.228 C  
HETATM    8  C   UNL     1      -9.204  14.521  68.075  1.00  0.00    -0.190 C  
HETATM    9  O   UNL     1     -10.382  15.309  70.782  1.00  0.00    -0.462 OA 
HETATM   10  H   UNL     1      -9.836  16.053  71.012  1.00  0.00     0.000 HD 
HETATM   11  N   UNL     1      -8.237  14.165  69.166  1.00  0.00    -0.346 NA 
HETATM   12  C   UNL     1      -9.967  15.801  68.412  1.00  0.00    -0.217 C  
HETATM   13  H2  UNL     1      -7.745  13.294  68.968  1.00  0.00     0.000 HD 
HETATM   14  O   UNL     1     -10.583  16.381  67.255  1.00  0.00    -0.314 OA 
HETATM   15  C   UNL     1     -11.007  15.548  69.511  1.00  0.00    -0.273 C  
HETATM   16  H1  UNL     1      -7.592  14.936  69.335  1.00  0.00     0.000 HD 
HETATM   17  H   UNL     1     -11.058  17.177  67.465  1.00  0.00     0.000 HD 
BRANCH   7  18
HETATM   18  O   UNL     1      -9.307  12.256  67.596  1.00  0.00    -0.175 OA 
BRANCH  18  19
HETATM   19  C   UNL     1      -9.581  10.978  68.153  1.00  0.00    -0.171 C  
HETATM   20  O   UNL     1     -10.271  10.365  65.849  1.00  0.00    -0.254 OA 
HETATM   21  C   UNL     1      -8.181  10.511  68.569  1.00  0.00    -0.123 C  
HETATM   22  C   UNL     1      -8.934   8.823  67.199  1.00  0.00    -0.131 C  
HETATM   23  H   UNL     1     -10.569   9.687  65.254  1.00  0.00     0.000 HD 
HETATM   24  O   UNL     1      -7.762   9.533  67.602  1.00  0.00    -0.094 OA 
HETATM   25  C   UNL     1     -10.066   9.876  67.187  1.00  0.00    -0.215 C  
BRANCH  21  26
HETATM   26  C   UNL     1      -8.105   9.971  70.000  1.00  0.00    -0.136 C  
HETATM   27  H   UNL     1      -9.345   9.441  71.459  1.00  0.00     0.000 HD 
HETATM   28  O   UNL     1      -9.391   9.776  70.572  1.00  0.00    -0.219 OA 
ENDBRANCH  21  26
BRANCH  22  29
HETATM   29  O   UNL     1      -9.205   7.748  68.107  1.00  0.00    -0.139 OA 
BRANCH  29  30
HETATM   30  C   UNL     1      -8.482   6.488  67.898  1.00  0.00    -0.118 C  
HETATM   31  C   UNL     1      -7.441   6.636  66.757  1.00  0.00    -0.079 C  
HETATM   32  O   UNL     1      -6.185   7.064  67.326  1.00  0.00    -0.037 OA 
HETATM   33  C   UNL     1      -7.140   5.418  65.868  1.00  0.00    -0.068 C  
HETATM   34  C   UNL     1      -8.290   4.434  65.761  1.00  0.00    -0.113 C  
HETATM   35  N   UNL     1      -6.785   5.874  64.499  1.00  0.00    -0.045 NA 
HETATM   36  H   UNL     1      -5.547   7.155  66.627  1.00  0.00     0.000 HD 
HETATM   37  H1  UNL     1      -6.585   5.066  63.909  1.00  0.00     0.000 HD 
HETATM   38  H2  UNL     1      -6.017   6.545  64.504  1.00  0.00     0.000 HD 
HETATM   39  C   UNL     1      -8.772   4.036  67.155  1.00  0.00    -0.112 C  
HETATM   40  C   UNL     1      -9.428   5.256  67.853  1.00  0.00    -0.125 C  
HETATM   41  N   UNL     1      -9.724   2.912  67.021  1.00  0.00    -0.371 NA 
HETATM   42  H2  UNL     1      -9.330   2.126  66.504  1.00  0.00     0.000 HD 
HETATM   43  H1  UNL     1     -10.045   2.646  67.951  1.00  0.00     0.000 HD 
BRANCH  40  44
HETATM   44  O   UNL     1      -9.819   4.825  69.180  1.00  0.00    -0.175 OA 
BRANCH  44  45
HETATM   45  C   UNL     1      -8.856   5.059  70.211  1.00  0.00    -0.115 C  
HETATM   46  O   UNL     1      -9.274   6.101  71.097  1.00  0.00    -0.152 OA 
HETATM   47  C   UNL     1     -10.455   5.778  71.844  1.00  0.00    -0.221 C  
HETATM   48  C   UNL     1     -10.264   4.506  72.684  1.00  0.00    -0.179 C  
HETATM   49  H1  UNL     1      -7.957   1.761  70.607  1.00  0.00     0.000 HD 
HETATM   50  O   UNL     1     -11.454   4.140  73.396  1.00  0.00    -0.256 OA 
HETATM   51  H2  UNL     1      -7.323   2.904  69.553  1.00  0.00     0.000 HD 
HETATM   52  C   UNL     1      -9.838   3.342  71.777  1.00  0.00    -0.159 C  
HETATM   53  H   UNL     1     -11.336   3.353  73.916  1.00  0.00     0.000 HD 
HETATM   54  O   UNL     1      -9.562   2.180  72.578  1.00  0.00    -0.085 OA 
HETATM   55  C   UNL     1      -8.581   3.737  70.980  1.00  0.00    -0.072 C  
HETATM   56  N   UNL     1      -8.138   2.629  70.102  1.00  0.00    -0.042 NA 
HETATM   57  H   UNL     1      -9.298   1.460  72.017  1.00  0.00     0.000 HD 
BRANCH  47  58
HETATM   58  C   UNL     1     -10.850   7.012  72.685  1.00  0.00    -0.270 C  
HETATM   59  H1  UNL     1     -12.544   8.144  73.229  1.00  0.00     0.000 HD 
HETATM   60  N   UNL     1     -12.283   7.328  72.673  1.00  0.00    -0.504 NA 
HETATM   61  H2  UNL     1     -12.828   6.514  72.960  1.00  0.00     0.000 HD 
ENDBRANCH  47  58
ENDBRANCH  44  45
ENDBRANCH  40  44
ENDBRANCH  29  30
ENDBRANCH  22  29
ENDBRANCH  18  19
ENDBRANCH   7  18
ENDBRANCH   2   5
TORSDOF 9
ENDMDL
MODEL      124
REMARK 921   NORMALIZED FREE ENERGY PREDICTED BY IDOCK:   -5.11 KCAL/MOL
REMARK 922        TOTAL FREE ENERGY PREDICTED BY IDOCK:  -10.61 KCAL/MOL
REMARK 923 INTER-LIGAND FREE ENERGY PREDICTED BY IDOCK:   -8.48 KCAL/MOL
REMARK 924 INTRA-LIGAND FREE ENERGY PREDICTED BY IDOCK:   -2.13 KCAL/MOL
REMARK 927      BINDING AFFINITY PREDICTED BY RF-SCORE:    0.00 PKD
ROOT
HETATM    1  N   UNL     1      -7.337   4.306  70.596  1.00  0.00    -0.047 NA 
HETATM    2  C   UNL     1      -8.596   3.774  71.125  1.00  0.00    -0.076 C  
HETATM    3  H1  UNL     1      -6.694   3.612  70.216  1.00  0.00     0.000 HD 
HETATM    4  H2  UNL     1      -6.867   4.863  71.309  1.00  0.00     0.000 HD 
ENDROOT
BRANCH   2   5
HETATM    5  C   UNL     1      -9.574   4.830  71.704  1.00  0.00    -0.158 C  
HETATM    6  O   UNL     1      -9.066   6.189  71.652  1.00  0.00    -0.145 OA 
HETATM    7  C   UNL     1     -10.073   7.119  72.087  1.00  0.00    -0.180 C  
HETATM    8  C   UNL     1     -10.450   6.858  73.582  1.00  0.00    -0.369 C  
HETATM    9  O   UNL     1      -8.650   4.412  73.921  1.00  0.00    -0.101 OA 
HETATM   10  H   UNL     1      -8.834   4.170  74.821  1.00  0.00     0.000 HD 
HETATM   11  N   UNL     1      -9.297   7.202  74.479  1.00  0.00    -0.429 NA 
HETATM   12  C   UNL     1     -10.890   5.409  73.784  1.00  0.00    -0.233 C  
HETATM   13  H2  UNL     1      -8.972   8.158  74.331  1.00  0.00     0.000 HD 
HETATM   14  O   UNL     1     -12.203   5.168  73.262  1.00  0.00    -0.422 OA 
HETATM   15  C   UNL     1      -9.875   4.436  73.172  1.00  0.00    -0.137 C  
HETATM   16  H1  UNL     1      -9.542   7.032  75.454  1.00  0.00     0.000 HD 
HETATM   17  H   UNL     1     -12.477   4.267  73.387  1.00  0.00     0.000 HD 
BRANCH   7  18
HETATM   18  O   UNL     1      -9.635   8.465  72.125  1.00  0.00    -0.240 OA 
BRANCH  18  19
HETATM   19  C   UNL     1      -9.732   9.285  70.968  1.00  0.00    -0.271 C  
HETATM   20  O   UNL     1      -7.656   8.132  70.246  1.00  0.00    -0.076 OA 
HETATM   21  C   UNL     1     -11.028   8.772  70.329  1.00  0.00    -0.235 C  
HETATM   22  C   UNL     1      -9.467   8.545  68.654  1.00  0.00    -0.143 C  
HETATM   23  H   UNL     1      -7.003   8.005  69.568  1.00  0.00     0.000 HD 
HETATM   24  O   UNL     1     -10.647   7.959  69.207  1.00  0.00    -0.221 OA 
HETATM   25  C   UNL     1      -8.671   9.079  69.866  1.00  0.00    -0.156 C  
BRANCH  21  26
HETATM   26  C   UNL     1     -12.005   9.881  69.929  1.00  0.00     0.058 C  
HETATM   27  H   UNL     1     -12.387  11.772  70.404  1.00  0.00     0.000 HD 
HETATM   28  O   UNL     1     -11.782  11.084  70.652  1.00  0.00    -0.329 OA 
ENDBRANCH  21  26
BRANCH  22  29
HETATM   29  O   UNL     1      -9.811   9.587  67.731  1.00  0.00    -0.150 OA 
BRANCH  29  30
HETATM   30  C   UNL     1      -8.719  10.192  66.958  1.00  0.00    -0.132 C  
HETATM   31  C   UNL     1      -7.529   9.206  66.827  1.00  0.00    -0.087 C  
HETATM   32  O   UNL     1      -7.709   8.415  65.631  1.00  0.00    -0.092 OA 
HETATM   33  C   UNL     1      -6.100   9.772  66.780  1.00  0.00    -0.063 C  
HETATM   34  C   UNL     1      -5.944  11.106  67.487  1.00  0.00    -0.048 C  
HETATM   35  N   UNL     1      -5.157   8.803  67.394  1.00  0.00    -0.033 NA 
HETATM   36  H   UNL     1      -6.980   7.812  65.551  1.00  0.00     0.000 HD 
HETATM   37  H1  UNL     1      -4.209   9.179  67.362  1.00  0.00     0.000 HD 
HETATM   38  H2  UNL     1      -5.218   7.881  66.962  1.00  0.00     0.000 HD 
HETATM   39  C   UNL     1      -6.985  12.099  66.973  1.00  0.00    -0.068 C  
HETATM   40  C   UNL     1      -8.403  11.646  67.407  1.00  0.00    -0.152 C  
HETATM   41  N   UNL     1      -6.658  13.440  67.505  1.00  0.00    -0.225 NA 
HETATM   42  H2  UNL     1      -5.703  13.726  67.286  1.00  0.00     0.000 HD 
HETATM   43  H1  UNL     1      -7.353  14.103  67.162  1.00  0.00     0.000 HD 
BRANCH  40  44
HETATM   44  O   UNL     1      -9.341  12.600  66.851  1.00  0.00    -0.215 OA 
BRANCH  44  45
HETATM   45  C   UNL     1      -9.916  13.514  67.788  1.00  0.00    -0.232 C  
HETATM   46  O   UNL     1      -9.288  14.797  67.728  1.00  0.00    -0.194 OA 
HETATM   47  C   UNL     1      -9.484  15.472  66.477  1.00  0.00    -0.273 C  
HETATM   48  C   UNL     1     -10.975  15.672  66.168  1.00  0.00    -0.206 C  
HETATM   49  H1  UNL     1     -13.148  12.383  67.443  1.00  0.00     0.000 HD 
HETATM   50  O   UNL     1     -11.187  16.299  64.896  1.00  0.00    -0.357 OA 
HETATM   51  H2  UNL     1     -11.950  11.839  68.486  1.00  0.00     0.000 HD 
HETATM   52  C   UNL     1     -11.699  14.318  66.194  1.00  0.00    -0.390 C  
HETATM   53  H   UNL     1     -12.110  16.424  64.704  1.00  0.00     0.000 HD 
HETATM   54  O   UNL     1     -13.110  14.520  66.004  1.00  0.00    -0.309 OA 
HETATM   55  C   UNL     1     -11.447  13.620  67.543  1.00  0.00    -0.329 C  
HETATM   56  N   UNL     1     -12.143  12.313  67.603  1.00  0.00    -0.473 NA 
HETATM   57  H   UNL     1     -13.557  13.683  66.021  1.00  0.00     0.000 HD 
BRANCH  47  58
HETATM   58  C   UNL     1      -8.682  16.793  66.508  1.00  0.00    -0.275 C  
HETATM   59  H1  UNL     1      -8.895  18.820  67.048  1.00  0.00     0.000 HD 
HETATM   60  N   UNL     1      -9.424  17.947  67.028  1.00  0.00    -0.265 NA 
HETATM   61  H2  UNL     1      -9.800  17.739  67.954  1.00  0.00     0.000 HD 
ENDBRANCH  47  58
ENDBRANCH  44  45
ENDBRANCH  40  44
ENDBRANCH  29  30
ENDBRANCH  22  29
ENDBRANCH  18  19
ENDBRANCH   7  18
ENDBRANCH   2   5
TORSDOF 9
ENDMDL
MODEL      125
REMARK 921   NORMALIZED FREE ENERGY PREDICTED BY IDOCK:   -5.10 KCAL/MOL
REMARK 922        TOTAL FREE ENERGY PREDICTED BY IDOCK:  -10.59 KCAL/MOL
REMARK 923 INTER-LIGAND FREE ENERGY PREDICTED BY IDOCK:   -8.29 KCAL/MOL
REMARK 924 INTRA-LIGAND FREE ENERGY PREDICTED BY IDOCK:   -2.30 KCAL/MOL
REMARK 927      BINDING AFFINITY PREDICTED BY RF-SCORE:    0.00 PKD
ROOT
HETATM    1  N   UNL     1     -13.062  14.572  70.428  1.00  0.00    -0.519 NA 
HETATM    2  C   UNL     1     -11.821  14.043  69.855  1.00  0.00    -0.329 C  
HETATM    3  H1  UNL     1     -12.974  14.988  71.355  1.00  0.00     0.000 HD 
HETATM    4  H2  UNL     1     -13.779  13.847  70.438  1.00  0.00     0.000 HD 
ENDROOT
BRANCH   2   5
HETATM    5  C   UNL     1     -11.955  13.409  68.445  1.00  0.00    -0.324 C  
HETATM    6  O   UNL     1     -11.015  12.332  68.196  1.00  0.00    -0.208 OA 
HETATM    7  C   UNL     1     -11.283  11.714  66.925  1.00  0.00    -0.313 C  
HETATM    8  C   UNL     1     -11.076  12.741  65.764  1.00  0.00    -0.285 C  
HETATM    9  O   UNL     1     -10.452  15.120  67.577  1.00  0.00    -0.251 OA 
HETATM   10  H   UNL     1     -10.327  15.812  66.937  1.00  0.00     0.000 HD 
HETATM   11  N   UNL     1      -9.625  13.102  65.637  1.00  0.00    -0.480 NA 
HETATM   12  C   UNL     1     -11.935  13.985  65.983  1.00  0.00    -0.416 C  
HETATM   13  H2  UNL     1      -9.036  12.277  65.524  1.00  0.00     0.000 HD 
HETATM   14  O   UNL     1     -13.321  13.737  65.710  1.00  0.00    -0.512 OA 
HETATM   15  C   UNL     1     -11.752  14.537  67.403  1.00  0.00    -0.400 C  
HETATM   16  H1  UNL     1      -9.490  13.772  64.880  1.00  0.00     0.000 HD 
HETATM   17  H   UNL     1     -13.855  14.511  65.846  1.00  0.00     0.000 HD 
BRANCH   7  18
HETATM   18  O   UNL     1     -10.367  10.691  66.579  1.00  0.00    -0.232 OA 
BRANCH  18  19
HETATM   19  C   UNL     1      -9.732   9.922  67.591  1.00  0.00    -0.155 C  
HETATM   20  O   UNL     1     -11.276   8.114  66.880  1.00  0.00    -0.115 OA 
HETATM   21  C   UNL     1      -8.300   9.817  67.052  1.00  0.00    -0.117 C  
HETATM   22  C   UNL     1      -8.928   7.625  67.362  1.00  0.00    -0.126 C  
HETATM   23  H   UNL     1     -11.550   7.209  66.974  1.00  0.00     0.000 HD 
HETATM   24  O   UNL     1      -8.146   8.485  66.532  1.00  0.00    -0.101 OA 
HETATM   25  C   UNL     1     -10.176   8.452  67.745  1.00  0.00    -0.224 C  
BRANCH  21  26
HETATM   26  C   UNL     1      -7.221  10.158  68.083  1.00  0.00    -0.081 C  
HETATM   27  H   UNL     1      -5.291   9.799  68.393  1.00  0.00     0.000 HD 
HETATM   28  O   UNL     1      -5.961   9.587  67.754  1.00  0.00    -0.051 OA 
ENDBRANCH  21  26
BRANCH  22  29
HETATM   29  O   UNL     1      -8.175   7.219  68.513  1.00  0.00    -0.123 OA 
BRANCH  29  30
HETATM   30  C   UNL     1      -7.729   5.822  68.569  1.00  0.00    -0.093 C  
HETATM   31  C   UNL     1      -6.501   5.601  67.648  1.00  0.00    -0.047 C  
HETATM   32  O   UNL     1      -5.297   5.838  68.412  1.00  0.00    -0.003 OA 
HETATM   33  C   UNL     1      -6.331   4.239  66.955  1.00  0.00    -0.040 C  
HETATM   34  C   UNL     1      -7.638   3.504  66.715  1.00  0.00    -0.080 C  
HETATM   35  N   UNL     1      -5.653   4.425  65.646  1.00  0.00    -0.017 NA 
HETATM   36  H   UNL     1      -4.545   5.702  67.847  1.00  0.00     0.000 HD 
HETATM   37  H1  UNL     1      -5.540   3.521  65.186  1.00  0.00     0.000 HD 
HETATM   38  H2  UNL     1      -4.766   4.920  65.740  1.00  0.00     0.000 HD 
HETATM   39  C   UNL     1      -8.430   3.403  68.018  1.00  0.00    -0.090 C  
HETATM   40  C   UNL     1      -8.905   4.813  68.454  1.00  0.00    -0.104 C  
HETATM   41  N   UNL     1      -9.572   2.488  67.804  1.00  0.00    -0.361 NA 
HETATM   42  H2  UNL     1      -9.282   1.576  67.451  1.00  0.00     0.000 HD 
HETATM   43  H1  UNL     1     -10.101   2.421  68.674  1.00  0.00     0.000 HD 
BRANCH  40  44
HETATM   44  O   UNL     1      -9.606   4.653  69.712  1.00  0.00    -0.150 OA 
BRANCH  44  45
HETATM   45  C   UNL     1      -8.773   4.519  70.867  1.00  0.00    -0.101 C  
HETATM   46  O   UNL     1      -8.843   5.675  71.705  1.00  0.00    -0.135 OA 
HETATM   47  C   UNL     1     -10.139   5.888  72.281  1.00  0.00    -0.182 C  
HETATM   48  C   UNL     1     -10.592   4.683  73.119  1.00  0.00    -0.218 C  
HETATM   49  H1  UNL     1      -9.351   1.159  71.328  1.00  0.00     0.000 HD 
HETATM   50  O   UNL     1     -11.910   4.859  73.659  1.00  0.00    -0.372 OA 
HETATM   51  H2  UNL     1      -8.177   1.904  70.388  1.00  0.00     0.000 HD 
HETATM   52  C   UNL     1     -10.562   3.410  72.259  1.00  0.00     0.133 C  
HETATM   53  H   UNL     1     -12.190   4.114  74.177  1.00  0.00     0.000 HD 
HETATM   54  O   UNL     1     -10.889   2.270  73.072  1.00  0.00    -0.158 OA 
HETATM   55  C   UNL     1      -9.161   3.231  71.646  1.00  0.00    -0.117 C  
HETATM   56  N   UNL     1      -9.097   2.004  70.817  1.00  0.00    -0.083 NA 
HETATM   57  H   UNL     1     -10.870   1.483  72.540  1.00  0.00     0.000 HD 
BRANCH  47  58
HETATM   58  C   UNL     1     -10.104   7.210  73.081  1.00  0.00    -0.251 C  
HETATM   59  H1  UNL     1      -9.995   7.917  75.065  1.00  0.00     0.000 HD 
HETATM   60  N   UNL     1     -10.017   7.043  74.537  1.00  0.00    -0.460 NA 
HETATM   61  H2  UNL     1      -9.215   6.461  74.779  1.00  0.00     0.000 HD 
ENDBRANCH  47  58
ENDBRANCH  44  45
ENDBRANCH  40  44
ENDBRANCH  29  30
ENDBRANCH  22  29
ENDBRANCH  18  19
ENDBRANCH   7  18
ENDBRANCH   2   5
TORSDOF 9
ENDMDL
MODEL      126
REMARK 921   NORMALIZED FREE ENERGY PREDICTED BY IDOCK:   -5.10 KCAL/MOL
REMARK 922        TOTAL FREE ENERGY PREDICTED BY IDOCK:  -10.59 KCAL/MOL
REMARK 923 INTER-LIGAND FREE ENERGY PREDICTED BY IDOCK:  -10.07 KCAL/MOL
REMARK 924 INTRA-LIGAND FREE ENERGY PREDICTED BY IDOCK:   -0.52 KCAL/MOL
REMARK 927      BINDING AFFINITY PREDICTED BY RF-SCORE:    0.00 PKD
ROOT
HETATM    1  N   UNL     1      -9.178  17.027  67.707  1.00  0.00    -0.233 NA 
HETATM    2  C   UNL     1     -10.449  16.428  68.123  1.00  0.00    -0.302 C  
HETATM    3  H1  UNL     1      -8.754  17.666  68.378  1.00  0.00     0.000 HD 
HETATM    4  H2  UNL     1      -9.290  17.492  66.806  1.00  0.00     0.000 HD 
ENDROOT
BRANCH   2   5
HETATM    5  C   UNL     1     -11.095  15.457  67.101  1.00  0.00    -0.291 C  
HETATM    6  O   UNL     1     -10.819  14.057  67.370  1.00  0.00    -0.276 OA 
HETATM    7  C   UNL     1     -11.551  13.217  66.460  1.00  0.00    -0.356 C  
HETATM    8  C   UNL     1     -11.088  13.471  64.988  1.00  0.00    -0.328 C  
HETATM    9  O   UNL     1      -9.138  15.721  65.673  1.00  0.00    -0.263 OA 
HETATM   10  H   UNL     1      -8.814  15.954  64.810  1.00  0.00     0.000 HD 
HETATM   11  N   UNL     1      -9.680  12.991  64.793  1.00  0.00    -0.543 NA 
HETATM   12  C   UNL     1     -11.221  14.949  64.627  1.00  0.00    -0.341 C  
HETATM   13  H2  UNL     1      -9.570  12.014  65.062  1.00  0.00     0.000 HD 
HETATM   14  O   UNL     1     -12.587  15.331  64.416  1.00  0.00    -0.432 OA 
HETATM   15  C   UNL     1     -10.569  15.837  65.695  1.00  0.00    -0.377 C  
HETATM   16  H1  UNL     1      -9.378  13.157  63.833  1.00  0.00     0.000 HD 
HETATM   17  H   UNL     1     -12.670  16.250  64.191  1.00  0.00     0.000 HD 
BRANCH   7  18
HETATM   18  O   UNL     1     -11.288  11.834  66.617  1.00  0.00    -0.324 OA 
BRANCH  18  19
HETATM   19  C   UNL     1     -10.413  11.380  67.641  1.00  0.00    -0.194 C  
HETATM   20  O   UNL     1     -12.472  10.480  68.696  1.00  0.00    -0.699 OA 
HETATM   21  C   UNL     1      -9.556  10.355  66.888  1.00  0.00    -0.172 C  
HETATM   22  C   UNL     1     -10.415   9.155  68.653  1.00  0.00    -0.207 C  
HETATM   23  H   UNL     1     -12.856   9.977  69.404  1.00  0.00     0.000 HD 
HETATM   24  O   UNL     1     -10.016   9.053  67.286  1.00  0.00    -0.183 OA 
HETATM   25  C   UNL     1     -11.038  10.563  68.792  1.00  0.00    -0.265 C  
BRANCH  21  26
HETATM   26  C   UNL     1      -8.050  10.523  67.108  1.00  0.00    -0.120 C  
HETATM   27  H   UNL     1      -6.712  11.989  67.193  1.00  0.00     0.000 HD 
HETATM   28  O   UNL     1      -7.646  11.885  67.056  1.00  0.00    -0.151 OA 
ENDBRANCH  21  26
BRANCH  22  29
HETATM   29  O   UNL     1      -9.287   8.976  69.519  1.00  0.00    -0.154 OA 
BRANCH  29  30
HETATM   30  C   UNL     1      -9.363   7.899  70.514  1.00  0.00    -0.162 C  
HETATM   31  C   UNL     1      -9.336   8.478  71.952  1.00  0.00    -0.267 C  
HETATM   32  O   UNL     1     -10.693   8.734  72.376  1.00  0.00    -0.315 OA 
HETATM   33  C   UNL     1      -8.664   7.661  73.067  1.00  0.00    -0.163 C  
HETATM   34  C   UNL     1      -7.573   6.728  72.574  1.00  0.00    -0.095 C  
HETATM   35  N   UNL     1      -8.075   8.579  74.075  1.00  0.00    -0.382 NA 
HETATM   36  H   UNL     1     -10.677   9.089  73.257  1.00  0.00     0.000 HD 
HETATM   37  H1  UNL     1      -7.629   8.037  74.815  1.00  0.00     0.000 HD 
HETATM   38  H2  UNL     1      -8.761   9.238  74.443  1.00  0.00     0.000 HD 
HETATM   39  C   UNL     1      -8.105   5.850  71.442  1.00  0.00    -0.115 C  
HETATM   40  C   UNL     1      -8.400   6.721  70.195  1.00  0.00    -0.135 C  
HETATM   41  N   UNL     1      -7.101   4.804  71.148  1.00  0.00    -0.050 NA 
HETATM   42  H2  UNL     1      -6.844   4.264  71.975  1.00  0.00     0.000 HD 
HETATM   43  H1  UNL     1      -7.456   4.218  70.393  1.00  0.00     0.000 HD 
BRANCH  40  44
HETATM   44  O   UNL     1      -8.942   5.839  69.181  1.00  0.00    -0.117 OA 
BRANCH  44  45
HETATM   45  C   UNL     1      -7.978   5.068  68.458  1.00  0.00    -0.086 C  
HETATM   46  O   UNL     1      -8.599   4.230  67.480  1.00  0.00    -0.102 OA 
HETATM   47  C   UNL     1      -9.258   4.960  66.435  1.00  0.00    -0.138 C  
HETATM   48  C   UNL     1      -8.287   5.892  65.696  1.00  0.00    -0.143 C  
HETATM   49  H1  UNL     1      -5.566   7.521  68.363  1.00  0.00     0.000 HD 
HETATM   50  O   UNL     1      -8.942   6.668  64.682  1.00  0.00    -0.188 OA 
HETATM   51  H2  UNL     1      -5.833   6.354  69.540  1.00  0.00     0.000 HD 
HETATM   52  C   UNL     1      -7.606   6.837  66.698  1.00  0.00    -0.086 C  
HETATM   53  H   UNL     1      -8.341   7.245  64.225  1.00  0.00     0.000 HD 
HETATM   54  O   UNL     1      -6.625   7.639  66.017  1.00  0.00    -0.045 OA 
HETATM   55  C   UNL     1      -6.930   6.015  67.810  1.00  0.00    -0.069 C  
HETATM   56  N   UNL     1      -6.254   6.900  68.789  1.00  0.00    -0.026 NA 
HETATM   57  H   UNL     1      -6.204   8.223  66.637  1.00  0.00     0.000 HD 
BRANCH  47  58
HETATM   58  C   UNL     1      -9.961   3.947  65.504  1.00  0.00    -0.120 C  
HETATM   59  H1  UNL     1     -11.714   3.732  64.352  1.00  0.00     0.000 HD 
HETATM   60  N   UNL     1     -11.249   4.401  64.966  1.00  0.00    -1.057 NA 
HETATM   61  H2  UNL     1     -11.138   5.299  64.494  1.00  0.00     0.000 HD 
ENDBRANCH  47  58
ENDBRANCH  44  45
ENDBRANCH  40  44
ENDBRANCH  29  30
ENDBRANCH  22  29
ENDBRANCH  18  19
ENDBRANCH   7  18
ENDBRANCH   2   5
TORSDOF 9
ENDMDL
MODEL      127
REMARK 921   NORMALIZED FREE ENERGY PREDICTED BY IDOCK:   -5.07 KCAL/MOL
REMARK 922        TOTAL FREE ENERGY PREDICTED BY IDOCK:  -10.55 KCAL/MOL
REMARK 923 INTER-LIGAND FREE ENERGY PREDICTED BY IDOCK:   -8.76 KCAL/MOL
REMARK 924 INTRA-LIGAND FREE ENERGY PREDICTED BY IDOCK:   -1.80 KCAL/MOL
REMARK 927      BINDING AFFINITY PREDICTED BY RF-SCORE:    0.00 PKD
ROOT
HETATM    1  N   UNL     1     -12.534  13.322  70.472  1.00  0.00    -0.296 NA 
HETATM    2  C   UNL     1     -11.536  13.744  69.486  1.00  0.00    -0.297 C  
HETATM    3  H1  UNL     1     -12.327  13.568  71.439  1.00  0.00     0.000 HD 
HETATM    4  H2  UNL     1     -12.698  12.318  70.396  1.00  0.00     0.000 HD 
ENDROOT
BRANCH   2   5
HETATM    5  C   UNL     1     -11.852  13.368  68.014  1.00  0.00    -0.357 C  
HETATM    6  O   UNL     1     -10.923  12.410  67.443  1.00  0.00    -0.236 OA 
HETATM    7  C   UNL     1     -11.352  12.016  66.128  1.00  0.00    -0.351 C  
HETATM    8  C   UNL     1     -11.349  13.246  65.161  1.00  0.00    -0.297 C  
HETATM    9  O   UNL     1     -10.546  15.292  67.284  1.00  0.00    -0.278 OA 
HETATM   10  H   UNL     1     -10.537  16.094  66.773  1.00  0.00     0.000 HD 
HETATM   11  N   UNL     1      -9.944  13.708  64.908  1.00  0.00    -0.618 NA 
HETATM   12  C   UNL     1     -12.207  14.378  65.723  1.00  0.00    -0.343 C  
HETATM   13  H2  UNL     1      -9.351  12.952  64.563  1.00  0.00     0.000 HD 
HETATM   14  O   UNL     1     -13.608  14.102  65.600  1.00  0.00    -0.671 OA 
HETATM   15  C   UNL     1     -11.838  14.675  67.182  1.00  0.00    -0.345 C  
HETATM   16  H1  UNL     1      -9.941  14.509  64.277  1.00  0.00     0.000 HD 
HETATM   17  H   UNL     1     -14.142  14.807  65.950  1.00  0.00     0.000 HD 
BRANCH   7  18
HETATM   18  O   UNL     1     -10.463  11.127  65.475  1.00  0.00    -0.262 OA 
BRANCH  18  19
HETATM   19  C   UNL     1      -9.388  10.533  66.189  1.00  0.00    -0.176 C  
HETATM   20  O   UNL     1     -11.150   9.150  67.257  1.00  0.00    -0.360 OA 
HETATM   21  C   UNL     1      -8.605   9.849  65.062  1.00  0.00    -0.161 C  
HETATM   22  C   UNL     1      -9.041   8.139  66.539  1.00  0.00    -0.176 C  
HETATM   23  H   UNL     1     -11.362   8.438  67.850  1.00  0.00     0.000 HD 
HETATM   24  O   UNL     1      -8.887   8.442  65.151  1.00  0.00    -0.143 OA 
HETATM   25  C   UNL     1      -9.732   9.378  67.152  1.00  0.00    -0.173 C  
BRANCH  21  26
HETATM   26  C   UNL     1      -7.101  10.135  65.087  1.00  0.00    -0.137 C  
HETATM   27  H   UNL     1      -5.591  10.282  63.804  1.00  0.00     0.000 HD 
HETATM   28  O   UNL     1      -6.524  10.104  63.789  1.00  0.00    -0.131 OA 
ENDBRANCH  21  26
BRANCH  22  29
HETATM   29  O   UNL     1      -7.765   7.880  67.139  1.00  0.00    -0.098 OA 
BRANCH  29  30
HETATM   30  C   UNL     1      -7.435   6.483  67.448  1.00  0.00    -0.092 C  
HETATM   31  C   UNL     1      -7.152   5.686  66.149  1.00  0.00    -0.068 C  
HETATM   32  O   UNL     1      -5.743   5.773  65.846  1.00  0.00    -0.013 OA 
HETATM   33  C   UNL     1      -7.532   4.197  66.096  1.00  0.00    -0.084 C  
HETATM   34  C   UNL     1      -8.679   3.821  67.017  1.00  0.00    -0.120 C  
HETATM   35  N   UNL     1      -7.904   3.823  64.708  1.00  0.00    -0.085 NA 
HETATM   36  H   UNL     1      -5.570   5.284  65.050  1.00  0.00     0.000 HD 
HETATM   37  H1  UNL     1      -8.156   2.835  64.673  1.00  0.00     0.000 HD 
HETATM   38  H2  UNL     1      -7.171   4.056  64.038  1.00  0.00     0.000 HD 
HETATM   39  C   UNL     1      -8.392   4.304  68.438  1.00  0.00    -0.092 C  
HETATM   40  C   UNL     1      -8.411   5.853  68.481  1.00  0.00    -0.111 C  
HETATM   41  N   UNL     1      -9.406   3.723  69.345  1.00  0.00    -0.162 NA 
HETATM   42  H2  UNL     1      -9.454   2.706  69.279  1.00  0.00     0.000 HD 
HETATM   43  H1  UNL     1      -9.215   4.045  70.293  1.00  0.00     0.000 HD 
BRANCH  40  44
HETATM   44  O   UNL     1      -8.088   6.243  69.838  1.00  0.00    -0.115 OA 
BRANCH  44  45
HETATM   45  C   UNL     1      -8.596   7.515  70.250  1.00  0.00    -0.144 C  
HETATM   46  O   UNL     1      -9.833   7.386  70.955  1.00  0.00    -0.180 OA 
HETATM   47  C   UNL     1      -9.713   6.683  72.200  1.00  0.00    -0.153 C  
HETATM   48  C   UNL     1      -8.713   7.367  73.143  1.00  0.00    -0.144 C  
HETATM   49  H1  UNL     1      -5.530   8.898  70.977  1.00  0.00     0.000 HD 
HETATM   50  O   UNL     1      -8.543   6.646  74.372  1.00  0.00    -0.136 OA 
HETATM   51  H2  UNL     1      -6.354   8.878  69.515  1.00  0.00     0.000 HD 
HETATM   52  C   UNL     1      -7.352   7.510  72.446  1.00  0.00    -0.074 C  
HETATM   53  H   UNL     1      -7.924   7.070  74.956  1.00  0.00     0.000 HD 
HETATM   54  O   UNL     1      -6.448   8.240  73.293  1.00  0.00    -0.094 OA 
HETATM   55  C   UNL     1      -7.529   8.251  71.108  1.00  0.00    -0.076 C  
HETATM   56  N   UNL     1      -6.229   8.414  70.415  1.00  0.00    -0.034 NA 
HETATM   57  H   UNL     1      -5.607   8.329  72.861  1.00  0.00     0.000 HD 
BRANCH  47  58
HETATM   58  C   UNL     1     -11.125   6.532  72.810  1.00  0.00    -0.245 C  
HETATM   59  H1  UNL     1     -12.780   7.694  73.405  1.00  0.00     0.000 HD 
HETATM   60  N   UNL     1     -11.848   7.794  73.001  1.00  0.00    -0.631 NA 
HETATM   61  H2  UNL     1     -11.895   8.312  72.123  1.00  0.00     0.000 HD 
ENDBRANCH  47  58
ENDBRANCH  44  45
ENDBRANCH  40  44
ENDBRANCH  29  30
ENDBRANCH  22  29
ENDBRANCH  18  19
ENDBRANCH   7  18
ENDBRANCH   2   5
TORSDOF 9
ENDMDL
MODEL      128
REMARK 921   NORMALIZED FREE ENERGY PREDICTED BY IDOCK:   -5.07 KCAL/MOL
REMARK 922        TOTAL FREE ENERGY PREDICTED BY IDOCK:  -10.55 KCAL/MOL
REMARK 923 INTER-LIGAND FREE ENERGY PREDICTED BY IDOCK:   -8.19 KCAL/MOL
REMARK 924 INTRA-LIGAND FREE ENERGY PREDICTED BY IDOCK:   -2.35 KCAL/MOL
REMARK 927      BINDING AFFINITY PREDICTED BY RF-SCORE:    0.00 PKD
ROOT
HETATM    1  N   UNL     1     -10.698   2.117  74.050  1.00  0.00    -0.148 NA 
HETATM    2  C   UNL     1     -10.481   2.527  72.660  1.00  0.00    -0.122 C  
HETATM    3  H1  UNL     1     -10.746   1.110  74.207  1.00  0.00     0.000 HD 
HETATM    4  H2  UNL     1     -11.534   2.568  74.420  1.00  0.00     0.000 HD 
ENDROOT
BRANCH   2   5
HETATM    5  C   UNL     1     -10.408   4.058  72.420  1.00  0.00    -0.137 C  
HETATM    6  O   UNL     1      -9.396   4.452  71.457  1.00  0.00    -0.129 OA 
HETATM    7  C   UNL     1      -9.474   5.864  71.195  1.00  0.00    -0.161 C  
HETATM    8  C   UNL     1      -9.170   6.679  72.494  1.00  0.00    -0.137 C  
HETATM    9  O   UNL     1      -8.886   4.242  74.316  1.00  0.00    -0.095 OA 
HETATM   10  H   UNL     1      -8.713   4.657  75.153  1.00  0.00     0.000 HD 
HETATM   11  N   UNL     1      -7.732   6.514  72.891  1.00  0.00    -0.100 NA 
HETATM   12  C   UNL     1     -10.105   6.260  73.628  1.00  0.00    -0.230 C  
HETATM   13  H2  UNL     1      -7.097   6.759  72.131  1.00  0.00     0.000 HD 
HETATM   14  O   UNL     1     -11.433   6.769  73.446  1.00  0.00    -0.447 OA 
HETATM   15  C   UNL     1     -10.126   4.734  73.786  1.00  0.00    -0.175 C  
HETATM   16  H1  UNL     1      -7.534   7.045  73.739  1.00  0.00     0.000 HD 
HETATM   17  H   UNL     1     -12.014   6.508  74.150  1.00  0.00     0.000 HD 
BRANCH   7  18
HETATM   18  O   UNL     1      -8.477   6.341  70.309  1.00  0.00    -0.130 OA 
BRANCH  18  19
HETATM   19  C   UNL     1      -8.726   7.477  69.492  1.00  0.00    -0.137 C  
HETATM   20  O   UNL     1      -7.446   6.240  67.762  1.00  0.00    -0.089 OA 
HETATM   21  C   UNL     1     -10.251   7.428  69.345  1.00  0.00    -0.201 C  
HETATM   22  C   UNL     1      -9.495   7.440  67.172  1.00  0.00    -0.149 C  
HETATM   23  H   UNL     1      -7.132   6.208  66.867  1.00  0.00     0.000 HD 
HETATM   24  O   UNL     1     -10.528   6.940  68.022  1.00  0.00    -0.182 OA 
HETATM   25  C   UNL     1      -8.214   7.426  68.037  1.00  0.00    -0.124 C  
BRANCH  21  26
HETATM   26  C   UNL     1     -10.945   8.765  69.621  1.00  0.00    -0.105 C  
HETATM   27  H   UNL     1     -10.486  10.564  70.329  1.00  0.00     0.000 HD 
HETATM   28  O   UNL     1     -10.056   9.734  70.159  1.00  0.00    -0.238 OA 
ENDBRANCH  21  26
BRANCH  22  29
HETATM   29  O   UNL     1      -9.820   8.758  66.711  1.00  0.00    -0.201 OA 
BRANCH  29  30
HETATM   30  C   UNL     1      -8.853   9.423  65.830  1.00  0.00    -0.162 C  
HETATM   31  C   UNL     1      -8.004   8.379  65.060  1.00  0.00    -0.139 C  
HETATM   32  O   UNL     1      -8.666   8.068  63.814  1.00  0.00    -0.371 OA 
HETATM   33  C   UNL     1      -6.543   8.718  64.720  1.00  0.00    -0.066 C  
HETATM   34  C   UNL     1      -5.900   9.701  65.680  1.00  0.00    -0.060 C  
HETATM   35  N   UNL     1      -5.730   7.474  64.708  1.00  0.00    -0.037 NA 
HETATM   36  H   UNL     1      -8.145   7.428  63.342  1.00  0.00     0.000 HD 
HETATM   37  H1  UNL     1      -4.761   7.700  64.483  1.00  0.00     0.000 HD 
HETATM   38  H2  UNL     1      -6.116   6.769  64.082  1.00  0.00     0.000 HD 
HETATM   39  C   UNL     1      -6.773  10.947  65.820  1.00  0.00     0.006 C  
HETATM   40  C   UNL     1      -8.098  10.582  66.539  1.00  0.00    -0.134 C  
HETATM   41  N   UNL     1      -6.014  11.972  66.570  1.00  0.00    -0.499 NA 
HETATM   42  H2  UNL     1      -5.108  12.174  66.147  1.00  0.00     0.000 HD 
HETATM   43  H1  UNL     1      -6.597  12.803  66.663  1.00  0.00     0.000 HD 
BRANCH  40  44
HETATM   44  O   UNL     1      -8.894  11.791  66.597  1.00  0.00    -0.182 OA 
BRANCH  44  45
HETATM   45  C   UNL     1      -9.330  12.179  67.903  1.00  0.00    -0.192 C  
HETATM   46  O   UNL     1      -8.519  13.225  68.441  1.00  0.00    -0.165 OA 
HETATM   47  C   UNL     1      -8.609  14.455  67.708  1.00  0.00    -0.171 C  
HETATM   48  C   UNL     1     -10.053  14.975  67.647  1.00  0.00    -0.231 C  
HETATM   49  H1  UNL     1     -12.693  11.803  67.276  1.00  0.00     0.000 HD 
HETATM   50  O   UNL     1     -10.167  16.176  66.872  1.00  0.00    -0.270 OA 
HETATM   51  H2  UNL     1     -11.591  10.660  67.823  1.00  0.00     0.000 HD 
HETATM   52  C   UNL     1     -10.970  13.896  67.050  1.00  0.00    -0.295 C  
HETATM   53  H   UNL     1     -11.060  16.498  66.835  1.00  0.00     0.000 HD 
HETATM   54  O   UNL     1     -12.335  14.347  67.089  1.00  0.00    -0.598 OA 
HETATM   55  C   UNL     1     -10.828  12.591  67.854  1.00  0.00    -0.222 C  
HETATM   56  N   UNL     1     -11.710  11.532  67.308  1.00  0.00    -0.603 NA 
HETATM   57  H   UNL     1     -12.902  13.680  66.720  1.00  0.00     0.000 HD 
BRANCH  47  58
HETATM   58  C   UNL     1      -7.620  15.466  68.331  1.00  0.00    -0.116 C  
HETATM   59  H1  UNL     1      -7.580  17.386  69.200  1.00  0.00     0.000 HD 
HETATM   60  N   UNL     1      -8.233  16.719  68.789  1.00  0.00    -0.248 NA 
HETATM   61  H2  UNL     1      -8.996  16.523  69.437  1.00  0.00     0.000 HD 
ENDBRANCH  47  58
ENDBRANCH  44  45
ENDBRANCH  40  44
ENDBRANCH  29  30
ENDBRANCH  22  29
ENDBRANCH  18  19
ENDBRANCH   7  18
ENDBRANCH   2   5
TORSDOF 9
ENDMDL
MODEL      129
REMARK 921   NORMALIZED FREE ENERGY PREDICTED BY IDOCK:   -5.06 KCAL/MOL
REMARK 922        TOTAL FREE ENERGY PREDICTED BY IDOCK:  -10.54 KCAL/MOL
REMARK 923 INTER-LIGAND FREE ENERGY PREDICTED BY IDOCK:   -8.82 KCAL/MOL
REMARK 924 INTRA-LIGAND FREE ENERGY PREDICTED BY IDOCK:   -1.71 KCAL/MOL
REMARK 927      BINDING AFFINITY PREDICTED BY RF-SCORE:    0.00 PKD
ROOT
HETATM    1  N   UNL     1     -10.594  15.439  67.583  1.00  0.00    -0.274 NA 
HETATM    2  C   UNL     1     -11.919  14.952  67.187  1.00  0.00    -0.114 C  
HETATM    3  H1  UNL     1     -10.591  16.278  68.161  1.00  0.00     0.000 HD 
HETATM    4  H2  UNL     1     -10.014  15.583  66.757  1.00  0.00     0.000 HD 
ENDROOT
BRANCH   2   5
HETATM    5  C   UNL     1     -11.924  13.675  66.306  1.00  0.00    -0.423 C  
HETATM    6  O   UNL     1     -10.785  12.804  66.532  1.00  0.00    -0.254 OA 
HETATM    7  C   UNL     1     -10.924  11.588  65.776  1.00  0.00    -0.246 C  
HETATM    8  C   UNL     1     -10.931  11.896  64.243  1.00  0.00    -0.353 C  
HETATM    9  O   UNL     1     -10.799  14.934  64.547  1.00  0.00    -0.609 OA 
HETATM   10  H   UNL     1     -10.817  15.211  63.638  1.00  0.00     0.000 HD 
HETATM   11  N   UNL     1      -9.584  12.386  63.801  1.00  0.00    -0.655 NA 
HETATM   12  C   UNL     1     -12.025  12.907  63.899  1.00  0.00    -0.480 C  
HETATM   13  H2  UNL     1      -8.840  11.735  64.055  1.00  0.00     0.000 HD 
HETATM   14  O   UNL     1     -13.331  12.318  63.933  1.00  0.00    -0.657 OA 
HETATM   15  C   UNL     1     -11.955  14.128  64.824  1.00  0.00    -0.431 C  
HETATM   16  H1  UNL     1      -9.588  12.587  62.801  1.00  0.00     0.000 HD 
HETATM   17  H   UNL     1     -14.011  12.946  63.719  1.00  0.00     0.000 HD 
BRANCH   7  18
HETATM   18  O   UNL     1      -9.821  10.708  65.894  1.00  0.00    -0.219 OA 
BRANCH  18  19
HETATM   19  C   UNL     1      -9.267  10.417  67.170  1.00  0.00    -0.143 C  
HETATM   20  O   UNL     1      -9.742   8.050  66.592  1.00  0.00    -0.210 OA 
HETATM   21  C   UNL     1      -7.811  10.861  66.987  1.00  0.00    -0.132 C  
HETATM   22  C   UNL     1      -7.632   8.669  67.664  1.00  0.00    -0.098 C  
HETATM   23  H   UNL     1      -9.671   7.135  66.836  1.00  0.00     0.000 HD 
HETATM   24  O   UNL     1      -7.025   9.666  66.841  1.00  0.00    -0.083 OA 
HETATM   25  C   UNL     1      -9.152   8.930  67.567  1.00  0.00    -0.133 C  
BRANCH  21  26
HETATM   26  C   UNL     1      -7.288  11.756  68.114  1.00  0.00    -0.094 C  
HETATM   27  H   UNL     1      -5.571  12.570  68.694  1.00  0.00     0.000 HD 
HETATM   28  O   UNL     1      -5.895  12.015  67.995  1.00  0.00    -0.048 OA 
ENDBRANCH  21  26
BRANCH  22  29
HETATM   29  O   UNL     1      -7.151   8.771  69.010  1.00  0.00    -0.063 OA 
BRANCH  29  30
HETATM   30  C   UNL     1      -7.602   7.754  69.968  1.00  0.00    -0.085 C  
HETATM   31  C   UNL     1      -8.033   8.412  71.304  1.00  0.00    -0.121 C  
HETATM   32  O   UNL     1      -9.441   8.727  71.236  1.00  0.00    -0.201 OA 
HETATM   33  C   UNL     1      -7.809   7.642  72.616  1.00  0.00    -0.101 C  
HETATM   34  C   UNL     1      -6.658   6.654  72.560  1.00  0.00    -0.063 C  
HETATM   35  N   UNL     1      -7.551   8.599  73.722  1.00  0.00    -0.406 NA 
HETATM   36  H   UNL     1      -9.705   9.131  72.054  1.00  0.00     0.000 HD 
HETATM   37  H1  UNL     1      -7.403   8.087  74.592  1.00  0.00     0.000 HD 
HETATM   38  H2  UNL     1      -8.292   9.295  73.808  1.00  0.00     0.000 HD 
HETATM   39  C   UNL     1      -6.818   5.728  71.355  1.00  0.00    -0.063 C  
HETATM   40  C   UNL     1      -6.641   6.536  70.044  1.00  0.00    -0.048 C  
HETATM   41  N   UNL     1      -5.820   4.641  71.462  1.00  0.00    -0.015 NA 
HETATM   42  H2  UNL     1      -5.878   4.142  72.350  1.00  0.00     0.000 HD 
HETATM   43  H1  UNL     1      -5.927   4.023  70.658  1.00  0.00     0.000 HD 
BRANCH  40  44
HETATM   44  O   UNL     1      -6.850   5.613  68.947  1.00  0.00    -0.054 OA 
BRANCH  44  45
HETATM   45  C   UNL     1      -7.594   4.434  69.267  1.00  0.00    -0.055 C  
HETATM   46  O   UNL     1      -8.839   4.750  69.895  1.00  0.00    -0.087 OA 
HETATM   47  C   UNL     1      -9.744   5.466  69.043  1.00  0.00    -0.152 C  
HETATM   48  C   UNL     1     -10.060   4.679  67.763  1.00  0.00    -0.035 C  
HETATM   49  H1  UNL     1      -6.680   2.668  66.459  1.00  0.00     0.000 HD 
HETATM   50  O   UNL     1     -10.923   5.405  66.876  1.00  0.00    -0.428 OA 
HETATM   51  H2  UNL     1      -5.902   2.758  67.944  1.00  0.00     0.000 HD 
HETATM   52  C   UNL     1      -8.755   4.333  67.030  1.00  0.00    -0.109 C  
HETATM   53  H   UNL     1     -11.118   4.918  66.084  1.00  0.00     0.000 HD 
HETATM   54  O   UNL     1      -9.046   3.510  65.886  1.00  0.00    -0.142 OA 
HETATM   55  C   UNL     1      -7.806   3.584  67.984  1.00  0.00    -0.068 C  
HETATM   56  N   UNL     1      -6.540   3.226  67.301  1.00  0.00    -0.037 NA 
HETATM   57  H   UNL     1      -8.239   3.296  65.433  1.00  0.00     0.000 HD 
BRANCH  47  58
HETATM   58  C   UNL     1     -11.002   5.826  69.865  1.00  0.00    -0.319 C  
HETATM   59  H1  UNL     1     -12.451   7.346  70.054  1.00  0.00     0.000 HD 
HETATM   60  N   UNL     1     -11.620   7.109  69.511  1.00  0.00    -0.518 NA 
HETATM   61  H2  UNL     1     -11.829   7.137  68.513  1.00  0.00     0.000 HD 
ENDBRANCH  47  58
ENDBRANCH  44  45
ENDBRANCH  40  44
ENDBRANCH  29  30
ENDBRANCH  22  29
ENDBRANCH  18  19
ENDBRANCH   7  18
ENDBRANCH   2   5
TORSDOF 9
ENDMDL
MODEL      130
REMARK 921   NORMALIZED FREE ENERGY PREDICTED BY IDOCK:   -5.05 KCAL/MOL
REMARK 922        TOTAL FREE ENERGY PREDICTED BY IDOCK:  -10.52 KCAL/MOL
REMARK 923 INTER-LIGAND FREE ENERGY PREDICTED BY IDOCK:   -8.26 KCAL/MOL
REMARK 924 INTRA-LIGAND FREE ENERGY PREDICTED BY IDOCK:   -2.26 KCAL/MOL
REMARK 927      BINDING AFFINITY PREDICTED BY RF-SCORE:    0.00 PKD
ROOT
HETATM    1  N   UNL     1      -5.336  19.986  70.061  1.00  0.00    -0.220 NA 
HETATM    2  C   UNL     1      -6.733  20.097  69.632  1.00  0.00    -0.202 C  
HETATM    3  H1  UNL     1      -5.040  20.658  70.768  1.00  0.00     0.000 HD 
HETATM    4  H2  UNL     1      -4.718  20.035  69.252  1.00  0.00     0.000 HD 
ENDROOT
BRANCH   2   5
HETATM    5  C   UNL     1      -7.184  19.075  68.556  1.00  0.00    -0.300 C  
HETATM    6  O   UNL     1      -6.709  17.724  68.797  1.00  0.00    -0.216 OA 
HETATM    7  C   UNL     1      -7.269  16.815  67.834  1.00  0.00    -0.148 C  
HETATM    8  C   UNL     1      -6.793  17.185  66.391  1.00  0.00    -0.249 C  
HETATM    9  O   UNL     1      -5.234  19.679  67.223  1.00  0.00    -0.162 OA 
HETATM   10  H   UNL     1      -4.916  19.987  66.381  1.00  0.00     0.000 HD 
HETATM   11  N   UNL     1      -5.321  16.930  66.244  1.00  0.00    -0.323 NA 
HETATM   12  C   UNL     1      -7.134  18.639  66.065  1.00  0.00    -0.267 C  
HETATM   13  H2  UNL     1      -5.075  15.972  66.491  1.00  0.00     0.000 HD 
HETATM   14  O   UNL     1      -8.533  18.817  65.805  1.00  0.00    -0.436 OA 
HETATM   15  C   UNL     1      -6.666  19.577  67.185  1.00  0.00    -0.195 C  
HETATM   16  H1  UNL     1      -5.011  17.172  65.304  1.00  0.00     0.000 HD 
HETATM   17  H   UNL     1      -8.745  19.721  65.602  1.00  0.00     0.000 HD 
BRANCH   7  18
HETATM   18  O   UNL     1      -6.805  15.482  67.963  1.00  0.00    -0.115 OA 
BRANCH  18  19
HETATM   19  C   UNL     1      -7.474  14.421  67.295  1.00  0.00    -0.074 C  
HETATM   20  O   UNL     1      -5.995  12.941  68.630  1.00  0.00    -0.065 OA 
HETATM   21  C   UNL     1      -8.906  14.573  67.823  1.00  0.00    -0.183 C  
HETATM   22  C   UNL     1      -8.363  12.398  68.338  1.00  0.00    -0.137 C  
HETATM   23  H   UNL     1      -5.756  12.055  68.875  1.00  0.00     0.000 HD 
HETATM   24  O   UNL     1      -9.107  13.530  68.791  1.00  0.00    -0.064 OA 
HETATM   25  C   UNL     1      -7.086  12.981  67.692  1.00  0.00    -0.156 C  
BRANCH  21  26
HETATM   26  C   UNL     1      -9.977  14.555  66.729  1.00  0.00    -0.264 C  
HETATM   27  H   UNL     1     -11.928  14.887  66.550  1.00  0.00     0.000 HD 
HETATM   28  O   UNL     1     -11.263  14.898  67.228  1.00  0.00    -0.326 OA 
ENDBRANCH  21  26
BRANCH  22  29
HETATM   29  O   UNL     1      -9.137  11.629  67.409  1.00  0.00    -0.163 OA 
BRANCH  29  30
HETATM   30  C   UNL     1     -10.245  10.831  67.949  1.00  0.00    -0.176 C  
HETATM   31  C   UNL     1     -11.257  11.736  68.699  1.00  0.00    -0.257 C  
HETATM   32  O   UNL     1     -12.262  12.185  67.763  1.00  0.00    -0.451 OA 
HETATM   33  C   UNL     1     -12.001  11.163  69.916  1.00  0.00    -0.363 C  
HETATM   34  C   UNL     1     -11.245  10.062  70.637  1.00  0.00    -0.425 C  
HETATM   35  N   UNL     1     -12.282  12.251  70.888  1.00  0.00    -0.418 NA 
HETATM   36  H   UNL     1     -12.882  12.739  68.223  1.00  0.00     0.000 HD 
HETATM   37  H1  UNL     1     -12.776  11.871  71.696  1.00  0.00     0.000 HD 
HETATM   38  H2  UNL     1     -12.786  13.027  70.461  1.00  0.00     0.000 HD 
HETATM   39  C   UNL     1     -10.823   8.979  69.645  1.00  0.00    -0.186 C  
HETATM   40  C   UNL     1      -9.758   9.544  68.671  1.00  0.00    -0.155 C  
HETATM   41  N   UNL     1     -10.303   7.822  70.406  1.00  0.00    -0.208 NA 
HETATM   42  H2  UNL     1     -10.967   7.479  71.101  1.00  0.00     0.000 HD 
HETATM   43  H1  UNL     1     -10.021   7.099  69.744  1.00  0.00     0.000 HD 
BRANCH  40  44
HETATM   44  O   UNL     1      -9.438   8.486  67.734  1.00  0.00    -0.142 OA 
BRANCH  44  45
HETATM   45  C   UNL     1      -8.091   8.008  67.783  1.00  0.00    -0.128 C  
HETATM   46  O   UNL     1      -7.961   6.882  68.654  1.00  0.00    -0.116 OA 
HETATM   47  C   UNL     1      -8.684   5.726  68.207  1.00  0.00    -0.111 C  
HETATM   48  C   UNL     1      -8.233   5.282  66.807  1.00  0.00    -0.108 C  
HETATM   49  H1  UNL     1      -7.390   8.595  64.466  1.00  0.00     0.000 HD 
HETATM   50  O   UNL     1      -8.983   4.159  66.324  1.00  0.00    -0.115 OA 
HETATM   51  H2  UNL     1      -7.224   9.633  65.774  1.00  0.00     0.000 HD 
HETATM   52  C   UNL     1      -8.374   6.449  65.819  1.00  0.00    -0.146 C  
HETATM   53  H   UNL     1      -8.703   3.884  65.459  1.00  0.00     0.000 HD 
HETATM   54  O   UNL     1      -7.857   6.062  64.535  1.00  0.00    -0.100 OA 
HETATM   55  C   UNL     1      -7.602   7.673  66.347  1.00  0.00    -0.088 C  
HETATM   56  N   UNL     1      -7.711   8.815  65.408  1.00  0.00    -0.087 NA 
HETATM   57  H   UNL     1      -7.944   6.784  63.924  1.00  0.00     0.000 HD 
BRANCH  47  58
HETATM   58  C   UNL     1      -8.540   4.619  69.276  1.00  0.00    -0.082 C  
HETATM   59  H1  UNL     1      -9.069   4.198  71.272  1.00  0.00     0.000 HD 
HETATM   60  N   UNL     1      -9.165   4.929  70.567  1.00  0.00    -0.135 NA 
HETATM   61  H2  UNL     1     -10.148   5.169  70.436  1.00  0.00     0.000 HD 
ENDBRANCH  47  58
ENDBRANCH  44  45
ENDBRANCH  40  44
ENDBRANCH  29  30
ENDBRANCH  22  29
ENDBRANCH  18  19
ENDBRANCH   7  18
ENDBRANCH   2   5
TORSDOF 9
ENDMDL
MODEL      131
REMARK 921   NORMALIZED FREE ENERGY PREDICTED BY IDOCK:   -5.01 KCAL/MOL
REMARK 922        TOTAL FREE ENERGY PREDICTED BY IDOCK:  -10.46 KCAL/MOL
REMARK 923 INTER-LIGAND FREE ENERGY PREDICTED BY IDOCK:   -8.90 KCAL/MOL
REMARK 924 INTRA-LIGAND FREE ENERGY PREDICTED BY IDOCK:   -1.56 KCAL/MOL
REMARK 927      BINDING AFFINITY PREDICTED BY RF-SCORE:    0.00 PKD
ROOT
HETATM    1  N   UNL     1      -8.362   4.759  62.386  1.00  0.00    -0.082 NA 
HETATM    2  C   UNL     1      -7.791   5.512  63.506  1.00  0.00    -0.096 C  
HETATM    3  H1  UNL     1      -7.751   4.646  61.578  1.00  0.00     0.000 HD 
HETATM    4  H2  UNL     1      -9.247   5.177  62.100  1.00  0.00     0.000 HD 
ENDROOT
BRANCH   2   5
HETATM    5  C   UNL     1      -8.720   5.685  64.737  1.00  0.00    -0.000 C  
HETATM    6  O   UNL     1      -8.007   5.905  65.982  1.00  0.00    -0.102 OA 
HETATM    7  C   UNL     1      -8.932   6.181  67.048  1.00  0.00    -0.114 C  
HETATM    8  C   UNL     1      -9.861   4.949  67.299  1.00  0.00    -0.184 C  
HETATM    9  O   UNL     1      -8.744   3.262  65.008  1.00  0.00    -0.109 OA 
HETATM   10  H   UNL     1      -9.279   2.479  65.077  1.00  0.00     0.000 HD 
HETATM   11  N   UNL     1      -9.071   3.802  67.858  1.00  0.00    -0.138 NA 
HETATM   12  C   UNL     1     -10.581   4.544  66.013  1.00  0.00    -0.100 C  
HETATM   13  H2  UNL     1      -8.558   4.068  68.699  1.00  0.00     0.000 HD 
HETATM   14  O   UNL     1     -11.637   5.455  65.679  1.00  0.00    -0.465 OA 
HETATM   15  C   UNL     1      -9.593   4.409  64.848  1.00  0.00    -0.154 C  
HETATM   16  H1  UNL     1      -9.676   2.999  68.021  1.00  0.00     0.000 HD 
HETATM   17  H   UNL     1     -12.085   5.204  64.880  1.00  0.00     0.000 HD 
BRANCH   7  18
HETATM   18  O   UNL     1      -8.317   6.347  68.314  1.00  0.00    -0.115 OA 
BRANCH  18  19
HETATM   19  C   UNL     1      -8.217   7.638  68.900  1.00  0.00    -0.128 C  
HETATM   20  O   UNL     1      -7.065   8.264  66.792  1.00  0.00    -0.075 OA 
HETATM   21  C   UNL     1      -9.690   8.053  68.995  1.00  0.00    -0.159 C  
HETATM   22  C   UNL     1      -8.719   9.761  67.797  1.00  0.00    -0.129 C  
HETATM   23  H   UNL     1      -6.670   8.950  66.267  1.00  0.00     0.000 HD 
HETATM   24  O   UNL     1      -9.923   9.008  67.946  1.00  0.00    -0.161 OA 
HETATM   25  C   UNL     1      -7.574   8.753  68.047  1.00  0.00    -0.097 C  
BRANCH  21  26
HETATM   26  C   UNL     1     -10.095   8.598  70.367  1.00  0.00    -0.188 C  
HETATM   27  H   UNL     1      -9.233   9.089  72.088  1.00  0.00     0.000 HD 
HETATM   28  O   UNL     1      -8.982   8.751  71.237  1.00  0.00    -0.191 OA 
ENDBRANCH  21  26
BRANCH  22  29
HETATM   29  O   UNL     1      -8.691  10.851  68.728  1.00  0.00    -0.154 OA 
BRANCH  29  30
HETATM   30  C   UNL     1      -7.974  12.066  68.324  1.00  0.00    -0.149 C  
HETATM   31  C   UNL     1      -6.608  12.165  69.051  1.00  0.00    -0.100 C  
HETATM   32  O   UNL     1      -5.603  11.510  68.246  1.00  0.00    -0.046 OA 
HETATM   33  C   UNL     1      -6.058  13.555  69.411  1.00  0.00    -0.103 C  
HETATM   34  C   UNL     1      -7.133  14.608  69.609  1.00  0.00    -0.125 C  
HETATM   35  N   UNL     1      -5.253  13.468  70.656  1.00  0.00    -0.113 NA 
HETATM   36  H   UNL     1      -4.766  11.570  68.691  1.00  0.00     0.000 HD 
HETATM   37  H1  UNL     1      -4.889  14.391  70.894  1.00  0.00     0.000 HD 
HETATM   38  H2  UNL     1      -4.513  12.770  70.587  1.00  0.00     0.000 HD 
HETATM   39  C   UNL     1      -8.065  14.642  68.399  1.00  0.00    -0.147 C  
HETATM   40  C   UNL     1      -8.884  13.327  68.330  1.00  0.00    -0.168 C  
HETATM   41  N   UNL     1      -8.947  15.824  68.517  1.00  0.00    -0.186 NA 
HETATM   42  H2  UNL     1      -8.424  16.692  68.632  1.00  0.00     0.000 HD 
HETATM   43  H1  UNL     1      -9.569  15.845  67.709  1.00  0.00     0.000 HD 
BRANCH  40  44
HETATM   44  O   UNL     1      -9.708  13.403  67.141  1.00  0.00    -0.225 OA 
BRANCH  44  45
HETATM   45  C   UNL     1     -11.033  13.903  67.343  1.00  0.00    -0.288 C  
HETATM   46  O   UNL     1     -11.224  15.167  66.704  1.00  0.00    -0.328 OA 
HETATM   47  C   UNL     1     -11.130  15.107  65.274  1.00  0.00    -0.383 C  
HETATM   48  C   UNL     1     -12.156  14.130  64.679  1.00  0.00    -0.452 C  
HETATM   49  H1  UNL     1     -12.593  10.841  67.161  1.00  0.00     0.000 HD 
HETATM   50  O   UNL     1     -12.040  14.019  63.254  1.00  0.00    -0.940 OA 
HETATM   51  H2  UNL     1     -11.941  11.610  68.503  1.00  0.00     0.000 HD 
HETATM   52  C   UNL     1     -11.981  12.742  65.313  1.00  0.00    -0.429 C  
HETATM   53  H   UNL     1     -12.675  13.415  62.886  1.00  0.00     0.000 HD 
HETATM   54  O   UNL     1     -13.006  11.857  64.829  1.00  0.00    -0.230 OA 
HETATM   55  C   UNL     1     -12.069  12.855  66.846  1.00  0.00    -0.244 C  
HETATM   56  N   UNL     1     -11.914  11.528  67.486  1.00  0.00    -0.622 NA 
HETATM   57  H   UNL     1     -12.898  10.998  65.221  1.00  0.00     0.000 HD 
BRANCH  47  58
HETATM   58  C   UNL     1     -11.260  16.543  64.717  1.00  0.00    -0.143 C  
HETATM   59  H1  UNL     1     -10.755  18.532  65.198  1.00  0.00     0.000 HD 
HETATM   60  N   UNL     1     -10.669  17.584  65.566  1.00  0.00    -0.537 NA 
HETATM   61  H2  UNL     1      -9.692  17.368  65.764  1.00  0.00     0.000 HD 
ENDBRANCH  47  58
ENDBRANCH  44  45
ENDBRANCH  40  44
ENDBRANCH  29  30
ENDBRANCH  22  29
ENDBRANCH  18  19
ENDBRANCH   7  18
ENDBRANCH   2   5
TORSDOF 9
ENDMDL
MODEL      132
REMARK 921   NORMALIZED FREE ENERGY PREDICTED BY IDOCK:   -5.00 KCAL/MOL
REMARK 922        TOTAL FREE ENERGY PREDICTED BY IDOCK:  -10.44 KCAL/MOL
REMARK 923 INTER-LIGAND FREE ENERGY PREDICTED BY IDOCK:   -8.50 KCAL/MOL
REMARK 924 INTRA-LIGAND FREE ENERGY PREDICTED BY IDOCK:   -1.94 KCAL/MOL
REMARK 927      BINDING AFFINITY PREDICTED BY RF-SCORE:    0.00 PKD
ROOT
HETATM    1  N   UNL     1      -9.708   6.051  65.836  1.00  0.00    -0.377 NA 
HETATM    2  C   UNL     1      -8.408   6.726  65.872  1.00  0.00    -0.137 C  
HETATM    3  H1  UNL     1      -9.843   5.401  65.063  1.00  0.00     0.000 HD 
HETATM    4  H2  UNL     1     -10.460   6.739  65.849  1.00  0.00     0.000 HD 
ENDROOT
BRANCH   2   5
HETATM    5  C   UNL     1      -8.203   7.716  67.049  1.00  0.00    -0.117 C  
HETATM    6  O   UNL     1      -7.066   8.601  66.877  1.00  0.00    -0.073 OA 
HETATM    7  C   UNL     1      -7.016   9.568  67.941  1.00  0.00    -0.079 C  
HETATM    8  C   UNL     1      -6.801   8.856  69.317  1.00  0.00    -0.050 C  
HETATM    9  O   UNL     1      -6.890   6.013  68.199  1.00  0.00    -0.065 OA 
HETATM   10  H   UNL     1      -6.782   5.500  68.992  1.00  0.00     0.000 HD 
HETATM   11  N   UNL     1      -5.431   8.247  69.383  1.00  0.00    -0.030 NA 
HETATM   12  C   UNL     1      -7.883   7.803  69.556  1.00  0.00    -0.111 C  
HETATM   13  H2  UNL     1      -4.700   8.933  69.192  1.00  0.00     0.000 HD 
HETATM   14  O   UNL     1      -9.143   8.395  69.896  1.00  0.00    -0.144 OA 
HETATM   15  C   UNL     1      -8.027   6.878  68.341  1.00  0.00    -0.122 C  
HETATM   16  H1  UNL     1      -5.291   7.783  70.280  1.00  0.00     0.000 HD 
HETATM   17  H   UNL     1      -9.816   7.741  70.045  1.00  0.00     0.000 HD 
BRANCH   7  18
HETATM   18  O   UNL     1      -5.896  10.434  67.881  1.00  0.00    -0.044 OA 
BRANCH  18  19
HETATM   19  C   UNL     1      -6.079  11.842  67.818  1.00  0.00    -0.061 C  
HETATM   20  O   UNL     1      -7.384  11.359  65.762  1.00  0.00    -0.355 OA 
HETATM   21  C   UNL     1      -6.910  12.105  69.080  1.00  0.00    -0.098 C  
HETATM   22  C   UNL     1      -8.188  13.000  67.389  1.00  0.00    -0.183 C  
HETATM   23  H   UNL     1      -7.927  11.695  65.059  1.00  0.00     0.000 HD 
HETATM   24  O   UNL     1      -8.262  12.333  68.649  1.00  0.00    -0.115 OA 
HETATM   25  C   UNL     1      -6.961  12.388  66.675  1.00  0.00     0.492 C  
BRANCH  21  26
HETATM   26  C   UNL     1      -6.381  13.254  69.943  1.00  0.00    -0.051 C  
HETATM   27  H   UNL     1      -5.702  13.540  71.788  1.00  0.00     0.000 HD 
HETATM   28  O   UNL     1      -6.030  12.828  71.252  1.00  0.00    -0.265 OA 
ENDBRANCH  21  26
BRANCH  22  29
HETATM   29  O   UNL     1      -8.053  14.415  67.578  1.00  0.00    -0.162 OA 
BRANCH  29  30
HETATM   30  C   UNL     1      -9.286  15.211  67.624  1.00  0.00    -0.181 C  
HETATM   31  C   UNL     1      -9.209  16.397  66.628  1.00  0.00    -0.253 C  
HETATM   32  O   UNL     1      -9.735  15.969  65.352  1.00  0.00    -0.427 OA 
HETATM   33  C   UNL     1      -9.919  17.713  66.988  1.00  0.00    -0.320 C  
HETATM   34  C   UNL     1     -10.063  17.946  68.481  1.00  0.00    -0.392 C  
HETATM   35  N   UNL     1      -9.176  18.859  66.405  1.00  0.00    -0.337 NA 
HETATM   36  H   UNL     1      -9.688  16.696  64.743  1.00  0.00     0.000 HD 
HETATM   37  H1  UNL     1      -9.647  19.731  66.643  1.00  0.00     0.000 HD 
HETATM   38  H2  UNL     1      -9.042  18.758  65.399  1.00  0.00     0.000 HD 
HETATM   39  C   UNL     1     -10.710  16.730  69.142  1.00  0.00    -0.329 C  
HETATM   40  C   UNL     1      -9.745  15.519  69.076  1.00  0.00    -0.237 C  
HETATM   41  N   UNL     1     -11.048  17.079  70.540  1.00  0.00    -0.173 NA 
HETATM   42  H2  UNL     1     -11.628  17.916  70.605  1.00  0.00     0.000 HD 
HETATM   43  H1  UNL     1     -11.480  16.268  70.981  1.00  0.00     0.000 HD 
BRANCH  40  44
HETATM   44  O   UNL     1     -10.435  14.394  69.675  1.00  0.00    -0.093 OA 
BRANCH  44  45
HETATM   45  C   UNL     1     -11.810  14.251  69.310  1.00  0.00    -0.330 C  
HETATM   46  O   UNL     1     -11.960  13.510  68.097  1.00  0.00    -0.358 OA 
HETATM   47  C   UNL     1     -11.522  12.148  68.199  1.00  0.00    -0.317 C  
HETATM   48  C   UNL     1     -12.281  11.390  69.299  1.00  0.00    -0.204 C  
HETATM   49  H1  UNL     1     -12.990  13.894  72.523  1.00  0.00     0.000 HD 
HETATM   50  O   UNL     1     -11.819  10.041  69.449  1.00  0.00    -0.474 OA 
HETATM   51  H2  UNL     1     -12.751  15.302  71.641  1.00  0.00     0.000 HD 
HETATM   52  C   UNL     1     -12.134  12.129  70.637  1.00  0.00    -0.250 C  
HETATM   53  H   UNL     1     -12.289   9.572  70.129  1.00  0.00     0.000 HD 
HETATM   54  O   UNL     1     -12.928  11.474  71.642  1.00  0.00    -0.437 OA 
HETATM   55  C   UNL     1     -12.595  13.590  70.478  1.00  0.00    -0.241 C  
HETATM   56  N   UNL     1     -12.474  14.328  71.758  1.00  0.00    -0.337 NA 
HETATM   57  H   UNL     1     -12.837  11.931  72.469  1.00  0.00     0.000 HD 
BRANCH  47  58
HETATM   58  C   UNL     1     -11.648  11.491  66.806  1.00  0.00    -0.051 C  
HETATM   59  H1  UNL     1     -12.186  11.959  64.822  1.00  0.00     0.000 HD 
HETATM   60  N   UNL     1     -12.103  12.394  65.742  1.00  0.00    -0.610 NA 
HETATM   61  H2  UNL     1     -11.500  13.215  65.693  1.00  0.00     0.000 HD 
ENDBRANCH  47  58
ENDBRANCH  44  45
ENDBRANCH  40  44
ENDBRANCH  29  30
ENDBRANCH  22  29
ENDBRANCH  18  19
ENDBRANCH   7  18
ENDBRANCH   2   5
TORSDOF 9
ENDMDL
MODEL      133
REMARK 921   NORMALIZED FREE ENERGY PREDICTED BY IDOCK:   -4.99 KCAL/MOL
REMARK 922        TOTAL FREE ENERGY PREDICTED BY IDOCK:  -10.43 KCAL/MOL
REMARK 923 INTER-LIGAND FREE ENERGY PREDICTED BY IDOCK:   -8.71 KCAL/MOL
REMARK 924 INTRA-LIGAND FREE ENERGY PREDICTED BY IDOCK:   -1.73 KCAL/MOL
REMARK 927      BINDING AFFINITY PREDICTED BY RF-SCORE:    0.00 PKD
ROOT
HETATM    1  N   UNL     1      -6.505  10.560  70.942  1.00  0.00    -0.341 NA 
HETATM    2  C   UNL     1      -6.189   9.546  71.951  1.00  0.00     0.181 C  
HETATM    3  H1  UNL     1      -5.899  11.381  70.942  1.00  0.00     0.000 HD 
HETATM    4  H2  UNL     1      -7.480  10.847  71.028  1.00  0.00     0.000 HD 
ENDROOT
BRANCH   2   5
HETATM    5  C   UNL     1      -7.111   8.298  71.952  1.00  0.00    -0.087 C  
HETATM    6  O   UNL     1      -8.505   8.600  71.683  1.00  0.00    -0.157 OA 
HETATM    7  C   UNL     1      -9.271   7.387  71.575  1.00  0.00    -0.140 C  
HETATM    8  C   UNL     1      -9.255   6.608  72.931  1.00  0.00    -0.135 C  
HETATM    9  O   UNL     1      -7.371   8.541  74.364  1.00  0.00    -0.258 OA 
HETATM   10  H   UNL     1      -7.289   8.123  75.214  1.00  0.00     0.000 HD 
HETATM   11  N   UNL     1     -10.015   7.366  73.979  1.00  0.00    -0.417 NA 
HETATM   12  C   UNL     1      -7.820   6.335  73.381  1.00  0.00    -0.098 C  
HETATM   13  H2  UNL     1     -10.965   7.583  73.677  1.00  0.00     0.000 HD 
HETATM   14  O   UNL     1      -7.203   5.296  72.610  1.00  0.00    -0.085 OA 
HETATM   15  C   UNL     1      -6.978   7.617  73.337  1.00  0.00    -0.084 C  
HETATM   16  H1  UNL     1     -10.004   6.858  74.863  1.00  0.00     0.000 HD 
HETATM   17  H   UNL     1      -6.310   5.126  72.890  1.00  0.00     0.000 HD 
BRANCH   7  18
HETATM   18  O   UNL     1     -10.657   7.598  71.374  1.00  0.00    -0.213 OA 
BRANCH  18  19
HETATM   19  C   UNL     1     -11.129   8.158  70.156  1.00  0.00    -0.187 C  
HETATM   20  O   UNL     1     -11.082  10.314  71.385  1.00  0.00    -0.137 OA 
HETATM   21  C   UNL     1      -9.944   7.907  69.217  1.00  0.00    -0.190 C  
HETATM   22  C   UNL     1     -10.280  10.179  69.078  1.00  0.00    -0.206 C  
HETATM   23  H   UNL     1     -11.199  11.256  71.357  1.00  0.00     0.000 HD 
HETATM   24  O   UNL     1      -9.272   9.167  69.047  1.00  0.00    -0.141 OA 
HETATM   25  C   UNL     1     -11.320   9.689  70.110  1.00  0.00    -0.227 C  
BRANCH  21  26
HETATM   26  C   UNL     1     -10.334   7.280  67.876  1.00  0.00    -0.201 C  
HETATM   27  H   UNL     1     -11.372   5.724  67.206  1.00  0.00     0.000 HD 
HETATM   28  O   UNL     1     -11.129   6.113  68.037  1.00  0.00    -0.329 OA 
ENDBRANCH  21  26
BRANCH  22  29
HETATM   29  O   UNL     1     -10.852  10.355  67.776  1.00  0.00    -0.254 OA 
BRANCH  29  30
HETATM   30  C   UNL     1     -10.019  10.998  66.752  1.00  0.00    -0.203 C  
HETATM   31  C   UNL     1      -9.608   9.978  65.659  1.00  0.00    -0.252 C  
HETATM   32  O   UNL     1     -10.604   9.991  64.612  1.00  0.00    -0.128 OA 
HETATM   33  C   UNL     1      -8.239  10.134  64.977  1.00  0.00    -0.152 C  
HETATM   34  C   UNL     1      -7.199  10.826  65.839  1.00  0.00    -0.091 C  
HETATM   35  N   UNL     1      -7.715   8.797  64.594  1.00  0.00    -0.113 NA 
HETATM   36  H   UNL     1     -10.352   9.365  63.943  1.00  0.00     0.000 HD 
HETATM   37  H1  UNL     1      -6.807   8.901  64.142  1.00  0.00     0.000 HD 
HETATM   38  H2  UNL     1      -8.375   8.278  64.016  1.00  0.00     0.000 HD 
HETATM   39  C   UNL     1      -7.748  12.153  66.361  1.00  0.00     0.378 C  
HETATM   40  C   UNL     1      -8.900  11.887  67.364  1.00  0.00    -0.171 C  
HETATM   41  N   UNL     1      -6.641  12.903  66.994  1.00  0.00    -0.463 NA 
HETATM   42  H2  UNL     1      -5.845  13.028  66.368  1.00  0.00     0.000 HD 
HETATM   43  H1  UNL     1      -7.008  13.789  67.343  1.00  0.00     0.000 HD 
BRANCH  40  44
HETATM   44  O   UNL     1      -9.404  13.179  67.783  1.00  0.00    -0.190 OA 
BRANCH  44  45
HETATM   45  C   UNL     1     -10.768  13.445  67.447  1.00  0.00    -0.262 C  
HETATM   46  O   UNL     1     -11.616  13.389  68.598  1.00  0.00    -0.281 OA 
HETATM   47  C   UNL     1     -11.331  14.406  69.569  1.00  0.00    -0.276 C  
HETATM   48  C   UNL     1     -11.459  15.815  68.969  1.00  0.00    -0.391 C  
HETATM   49  H1  UNL     1     -10.083  15.827  65.060  1.00  0.00     0.000 HD 
HETATM   50  O   UNL     1     -11.127  16.841  69.914  1.00  0.00    -0.423 OA 
HETATM   51  H2  UNL     1     -10.211  14.163  64.879  1.00  0.00     0.000 HD 
HETATM   52  C   UNL     1     -10.548  15.942  67.739  1.00  0.00    -0.302 C  
HETATM   53  H   UNL     1     -11.206  17.713  69.542  1.00  0.00     0.000 HD 
HETATM   54  O   UNL     1     -10.745  17.225  67.121  1.00  0.00    -0.288 OA 
HETATM   55  C   UNL     1     -10.872  14.822  66.733  1.00  0.00    -0.316 C  
HETATM   56  N   UNL     1     -10.015  14.924  65.529  1.00  0.00    -0.359 NA 
HETATM   57  H   UNL     1     -10.182  17.304  66.360  1.00  0.00     0.000 HD 
BRANCH  47  58
HETATM   58  C   UNL     1     -12.245  14.178  70.793  1.00  0.00    -0.365 C  
HETATM   59  H1  UNL     1     -12.296  14.498  72.877  1.00  0.00     0.000 HD 
HETATM   60  N   UNL     1     -11.691  14.649  72.068  1.00  0.00    -0.352 NA 
HETATM   61  H2  UNL     1     -11.431  15.633  71.999  1.00  0.00     0.000 HD 
ENDBRANCH  47  58
ENDBRANCH  44  45
ENDBRANCH  40  44
ENDBRANCH  29  30
ENDBRANCH  22  29
ENDBRANCH  18  19
ENDBRANCH   7  18
ENDBRANCH   2   5
TORSDOF 9
ENDMDL
MODEL      134
REMARK 921   NORMALIZED FREE ENERGY PREDICTED BY IDOCK:   -4.97 KCAL/MOL
REMARK 922        TOTAL FREE ENERGY PREDICTED BY IDOCK:  -10.40 KCAL/MOL
REMARK 923 INTER-LIGAND FREE ENERGY PREDICTED BY IDOCK:   -7.77 KCAL/MOL
REMARK 924 INTRA-LIGAND FREE ENERGY PREDICTED BY IDOCK:   -2.63 KCAL/MOL
REMARK 927      BINDING AFFINITY PREDICTED BY RF-SCORE:    0.00 PKD
ROOT
HETATM    1  N   UNL     1      -9.931  19.192  65.850  1.00  0.00    -0.483 NA 
HETATM    2  C   UNL     1      -9.708  17.858  66.414  1.00  0.00    -0.316 C  
HETATM    3  H1  UNL     1     -10.906  19.441  65.686  1.00  0.00     0.000 HD 
HETATM    4  H2  UNL     1      -9.393  19.302  64.991  1.00  0.00     0.000 HD 
ENDROOT
BRANCH   2   5
HETATM    5  C   UNL     1      -8.224  17.479  66.663  1.00  0.00    -0.256 C  
HETATM    6  O   UNL     1      -8.022  16.651  67.838  1.00  0.00    -0.166 OA 
HETATM    7  C   UNL     1      -6.647  16.237  67.931  1.00  0.00    -0.134 C  
HETATM    8  C   UNL     1      -5.714  17.479  68.115  1.00  0.00    -0.152 C  
HETATM    9  O   UNL     1      -7.941  19.560  67.900  1.00  0.00    -0.285 OA 
HETATM   10  H   UNL     1      -7.448  20.368  67.985  1.00  0.00     0.000 HD 
HETATM   11  N   UNL     1      -5.943  18.110  69.456  1.00  0.00    -0.239 NA 
HETATM   12  C   UNL     1      -5.929  18.488  66.988  1.00  0.00    -0.157 C  
HETATM   13  H2  UNL     1      -5.835  17.438  70.216  1.00  0.00     0.000 HD 
HETATM   14  O   UNL     1      -5.343  18.050  65.755  1.00  0.00    -0.170 OA 
HETATM   15  C   UNL     1      -7.420  18.796  66.802  1.00  0.00    -0.224 C  
HETATM   16  H1  UNL     1      -5.335  18.920  69.576  1.00  0.00     0.000 HD 
HETATM   17  H   UNL     1      -5.477  18.678  65.054  1.00  0.00     0.000 HD 
BRANCH   7  18
HETATM   18  O   UNL     1      -6.353  15.474  69.087  1.00  0.00    -0.109 OA 
BRANCH  18  19
HETATM   19  C   UNL     1      -6.473  14.059  69.064  1.00  0.00    -0.101 C  
HETATM   20  O   UNL     1      -8.864  14.473  69.587  1.00  0.00    -0.368 OA 
HETATM   21  C   UNL     1      -6.164  13.743  67.595  1.00  0.00    -0.107 C  
HETATM   22  C   UNL     1      -8.227  12.783  67.937  1.00  0.00    -0.168 C  
HETATM   23  H   UNL     1      -9.731  14.109  69.720  1.00  0.00     0.000 HD 
HETATM   24  O   UNL     1      -7.418  13.440  66.961  1.00  0.00    -0.005 OA 
HETATM   25  C   UNL     1      -7.882  13.466  69.280  1.00  0.00     0.450 C  
BRANCH  21  26
HETATM   26  C   UNL     1      -5.138  12.623  67.403  1.00  0.00    -0.034 C  
HETATM   27  H   UNL     1      -4.739  11.178  66.099  1.00  0.00     0.000 HD 
HETATM   28  O   UNL     1      -5.375  11.872  66.219  1.00  0.00    -0.308 OA 
ENDBRANCH  21  26
BRANCH  22  29
HETATM   29  O   UNL     1      -7.944  11.377  67.958  1.00  0.00    -0.116 OA 
BRANCH  29  30
HETATM   30  C   UNL     1      -7.919  10.713  69.267  1.00  0.00    -0.135 C  
HETATM   31  C   UNL     1      -6.627   9.869  69.429  1.00  0.00    -0.051 C  
HETATM   32  O   UNL     1      -5.601  10.696  70.019  1.00  0.00    -0.048 OA 
HETATM   33  C   UNL     1      -6.689   8.573  70.253  1.00  0.00    -0.039 C  
HETATM   34  C   UNL     1      -8.061   7.925  70.280  1.00  0.00    -0.115 C  
HETATM   35  N   UNL     1      -5.717   7.588  69.710  1.00  0.00    -0.023 NA 
HETATM   36  H   UNL     1      -4.810  10.179  70.118  1.00  0.00     0.000 HD 
HETATM   37  H1  UNL     1      -5.758   6.728  70.257  1.00  0.00     0.000 HD 
HETATM   38  H2  UNL     1      -4.772   7.968  69.662  1.00  0.00     0.000 HD 
HETATM   39  C   UNL     1      -9.114   8.944  70.711  1.00  0.00    -0.213 C  
HETATM   40  C   UNL     1      -9.271  10.033  69.619  1.00  0.00    -0.215 C  
HETATM   41  N   UNL     1     -10.388   8.230  70.952  1.00  0.00    -0.190 NA 
HETATM   42  H2  UNL     1     -10.287   7.465  71.619  1.00  0.00     0.000 HD 
HETATM   43  H1  UNL     1     -11.091   8.911  71.241  1.00  0.00     0.000 HD 
BRANCH  40  44
HETATM   44  O   UNL     1     -10.245  10.987  70.109  1.00  0.00     0.359 OA 
BRANCH  44  45
HETATM   45  C   UNL     1     -11.536  10.917  69.498  1.00  0.00    -0.313 C  
HETATM   46  O   UNL     1     -12.434  10.100  70.254  1.00  0.00    -0.214 OA 
HETATM   47  C   UNL     1     -12.734  10.629  71.553  1.00  0.00    -0.444 C  
HETATM   48  C   UNL     1     -13.351  12.033  71.464  1.00  0.00    -0.028 C  
HETATM   49  H1  UNL     1     -11.578  14.175  68.392  1.00  0.00     0.000 HD 
HETATM   50  O   UNL     1     -13.609  12.597  72.758  1.00  0.00    -0.661 OA 
HETATM   51  H2  UNL     1     -10.978  12.810  67.620  1.00  0.00     0.000 HD 
HETATM   52  C   UNL     1     -12.414  12.965  70.682  1.00  0.00    -0.252 C  
HETATM   53  H   UNL     1     -13.990  13.466  72.703  1.00  0.00     0.000 HD 
HETATM   54  O   UNL     1     -13.039  14.249  70.513  1.00  0.00    -0.396 OA 
HETATM   55  C   UNL     1     -12.102  12.351  69.304  1.00  0.00    -0.165 C  
HETATM   56  N   UNL     1     -11.207  13.234  68.519  1.00  0.00    -0.254 NA 
HETATM   57  H   UNL     1     -12.459  14.825  70.029  1.00  0.00     0.000 HD 
BRANCH  47  58
HETATM   58  C   UNL     1     -13.631   9.613  72.296  1.00  0.00    -0.367 C  
HETATM   59  H1  UNL     1     -13.663   7.591  72.890  1.00  0.00     0.000 HD 
HETATM   60  N   UNL     1     -13.070   8.262  72.399  1.00  0.00    -0.561 NA 
HETATM   61  H2  UNL     1     -12.144   8.294  72.825  1.00  0.00     0.000 HD 
ENDBRANCH  47  58
ENDBRANCH  44  45
ENDBRANCH  40  44
ENDBRANCH  29  30
ENDBRANCH  22  29
ENDBRANCH  18  19
ENDBRANCH   7  18
ENDBRANCH   2   5
TORSDOF 9
ENDMDL
MODEL      135
REMARK 921   NORMALIZED FREE ENERGY PREDICTED BY IDOCK:   -4.96 KCAL/MOL
REMARK 922        TOTAL FREE ENERGY PREDICTED BY IDOCK:  -10.38 KCAL/MOL
REMARK 923 INTER-LIGAND FREE ENERGY PREDICTED BY IDOCK:   -9.44 KCAL/MOL
REMARK 924 INTRA-LIGAND FREE ENERGY PREDICTED BY IDOCK:   -0.94 KCAL/MOL
REMARK 927      BINDING AFFINITY PREDICTED BY RF-SCORE:    0.00 PKD
ROOT
HETATM    1  N   UNL     1      -9.268   2.082  69.583  1.00  0.00    -0.106 NA 
HETATM    2  C   UNL     1      -9.152   3.523  69.818  1.00  0.00    -0.127 C  
HETATM    3  H1  UNL     1      -9.998   1.608  70.114  1.00  0.00     0.000 HD 
HETATM    4  H2  UNL     1      -8.369   1.628  69.744  1.00  0.00     0.000 HD 
ENDROOT
BRANCH   2   5
HETATM    5  C   UNL     1      -8.041   4.244  69.009  1.00  0.00    -0.071 C  
HETATM    6  O   UNL     1      -8.359   5.620  68.676  1.00  0.00    -0.105 OA 
HETATM    7  C   UNL     1      -7.237   6.256  68.041  1.00  0.00    -0.087 C  
HETATM    8  C   UNL     1      -6.905   5.553  66.684  1.00  0.00    -0.063 C  
HETATM    9  O   UNL     1      -9.023   3.366  66.957  1.00  0.00    -0.131 OA 
HETATM   10  H   UNL     1      -8.876   2.867  66.161  1.00  0.00     0.000 HD 
HETATM   11  N   UNL     1      -8.003   5.790  65.690  1.00  0.00    -0.110 NA 
HETATM   12  C   UNL     1      -6.667   4.058  66.894  1.00  0.00    -0.047 C  
HETATM   13  H2  UNL     1      -8.195   6.784  65.565  1.00  0.00     0.000 HD 
HETATM   14  O   UNL     1      -5.397   3.796  67.506  1.00  0.00    -0.014 OA 
HETATM   15  C   UNL     1      -7.803   3.430  67.712  1.00  0.00    -0.076 C  
HETATM   16  H1  UNL     1      -7.787   5.331  64.805  1.00  0.00     0.000 HD 
HETATM   17  H   UNL     1      -5.249   2.867  67.636  1.00  0.00     0.000 HD 
BRANCH   7  18
HETATM   18  O   UNL     1      -7.487   7.588  67.627  1.00  0.00    -0.099 OA 
BRANCH  18  19
HETATM   19  C   UNL     1      -8.664   8.262  68.052  1.00  0.00    -0.135 C  
HETATM   20  O   UNL     1      -7.202  10.262  68.198  1.00  0.00    -0.081 OA 
HETATM   21  C   UNL     1      -9.542   8.177  66.798  1.00  0.00    -0.217 C  
HETATM   22  C   UNL     1      -9.449  10.432  67.246  1.00  0.00    -0.154 C  
HETATM   23  H   UNL     1      -7.132  11.195  68.363  1.00  0.00     0.000 HD 
HETATM   24  O   UNL     1      -9.524   9.478  66.186  1.00  0.00    -0.184 OA 
HETATM   25  C   UNL     1      -8.552   9.778  68.321  1.00  0.00    -0.119 C  
BRANCH  21  26
HETATM   26  C   UNL     1     -10.969   7.691  67.069  1.00  0.00     0.028 C  
HETATM   27  H   UNL     1     -11.963   5.974  67.171  1.00  0.00     0.000 HD 
HETATM   28  O   UNL     1     -11.079   6.276  67.003  1.00  0.00    -0.362 OA 
ENDBRANCH  21  26
BRANCH  22  29
HETATM   29  O   UNL     1     -10.759  10.730  67.744  1.00  0.00    -0.212 OA 
BRANCH  29  30
HETATM   30  C   UNL     1     -10.849  11.523  68.976  1.00  0.00    -0.212 C  
HETATM   31  C   UNL     1     -11.436  10.674  70.134  1.00  0.00    -0.329 C  
HETATM   32  O   UNL     1     -10.350  10.026  70.833  1.00  0.00    -0.350 OA 
HETATM   33  C   UNL     1     -12.303  11.369  71.197  1.00  0.00    -0.299 C  
HETATM   34  C   UNL     1     -13.013  12.613  70.694  1.00  0.00     0.121 C  
HETATM   35  N   UNL     1     -13.325  10.420  71.708  1.00  0.00    -0.382 NA 
HETATM   36  H   UNL     1     -10.710   9.506  71.542  1.00  0.00     0.000 HD 
HETATM   37  H1  UNL     1     -13.900  10.882  72.413  1.00  0.00     0.000 HD 
HETATM   38  H2  UNL     1     -12.908   9.558  72.057  1.00  0.00     0.000 HD 
HETATM   39  C   UNL     1     -12.011  13.563  70.042  1.00  0.00    -0.340 C  
HETATM   40  C   UNL     1     -11.460  12.932  68.737  1.00  0.00    -0.303 C  
HETATM   41  N   UNL     1     -12.688  14.852  69.778  1.00  0.00    -0.598 NA 
HETATM   42  H2  UNL     1     -13.115  15.248  70.615  1.00  0.00     0.000 HD 
HETATM   43  H1  UNL     1     -12.018  15.486  69.342  1.00  0.00     0.000 HD 
BRANCH  40  44
HETATM   44  O   UNL     1     -10.486  13.859  68.197  1.00  0.00    -0.233 OA 
BRANCH  44  45
HETATM   45  C   UNL     1      -9.842  13.441  66.990  1.00  0.00    -0.250 C  
HETATM   46  O   UNL     1     -10.782  13.250  65.929  1.00  0.00    -0.271 OA 
HETATM   47  C   UNL     1     -11.442  14.458  65.526  1.00  0.00    -0.340 C  
HETATM   48  C   UNL     1     -10.439  15.527  65.068  1.00  0.00    -0.362 C  
HETATM   49  H1  UNL     1      -7.024  15.371  67.409  1.00  0.00     0.000 HD 
HETATM   50  O   UNL     1     -11.081  16.759  64.710  1.00  0.00    -0.678 OA 
HETATM   51  H2  UNL     1      -7.324  13.814  67.961  1.00  0.00     0.000 HD 
HETATM   52  C   UNL     1      -9.416  15.793  66.182  1.00  0.00    -0.340 C  
HETATM   53  H   UNL     1     -10.460  17.421  64.427  1.00  0.00     0.000 HD 
HETATM   54  O   UNL     1      -8.420  16.718  65.714  1.00  0.00    -0.472 OA 
HETATM   55  C   UNL     1      -8.746  14.470  66.598  1.00  0.00    -0.129 C  
HETATM   56  N   UNL     1      -7.744  14.696  67.667  1.00  0.00    -0.161 NA 
HETATM   57  H   UNL     1      -7.787  16.882  66.403  1.00  0.00     0.000 HD 
BRANCH  47  58
HETATM   58  C   UNL     1     -12.491  14.102  64.448  1.00  0.00    -0.293 C  
HETATM   59  H1  UNL     1     -13.595  12.458  63.724  1.00  0.00     0.000 HD 
HETATM   60  N   UNL     1     -12.903  12.693  64.436  1.00  0.00    -0.752 NA 
HETATM   61  H2  UNL     1     -13.235  12.414  65.360  1.00  0.00     0.000 HD 
ENDBRANCH  47  58
ENDBRANCH  44  45
ENDBRANCH  40  44
ENDBRANCH  29  30
ENDBRANCH  22  29
ENDBRANCH  18  19
ENDBRANCH   7  18
ENDBRANCH   2   5
TORSDOF 9
ENDMDL
MODEL      136
REMARK 921   NORMALIZED FREE ENERGY PREDICTED BY IDOCK:   -4.91 KCAL/MOL
REMARK 922        TOTAL FREE ENERGY PREDICTED BY IDOCK:  -10.30 KCAL/MOL
REMARK 923 INTER-LIGAND FREE ENERGY PREDICTED BY IDOCK:   -8.92 KCAL/MOL
REMARK 924 INTRA-LIGAND FREE ENERGY PREDICTED BY IDOCK:   -1.38 KCAL/MOL
REMARK 927      BINDING AFFINITY PREDICTED BY RF-SCORE:    0.00 PKD
ROOT
HETATM    1  N   UNL     1     -12.728  15.120  70.115  1.00  0.00    -0.602 NA 
HETATM    2  C   UNL     1     -12.081  13.836  69.833  1.00  0.00    -0.348 C  
HETATM    3  H1  UNL     1     -12.794  15.369  71.102  1.00  0.00     0.000 HD 
HETATM    4  H2  UNL     1     -13.652  15.147  69.686  1.00  0.00     0.000 HD 
ENDROOT
BRANCH   2   5
HETATM    5  C   UNL     1     -11.980  13.456  68.332  1.00  0.00    -0.324 C  
HETATM    6  O   UNL     1     -10.855  12.593  68.022  1.00  0.00    -0.212 OA 
HETATM    7  C   UNL     1     -10.900  12.183  66.644  1.00  0.00    -0.268 C  
HETATM    8  C   UNL     1     -10.764  13.422  65.700  1.00  0.00    -0.277 C  
HETATM    9  O   UNL     1     -10.710  15.499  67.941  1.00  0.00    -0.276 OA 
HETATM   10  H   UNL     1     -10.645  16.307  67.443  1.00  0.00     0.000 HD 
HETATM   11  N   UNL     1      -9.388  14.012  65.806  1.00  0.00    -0.507 NA 
HETATM   12  C   UNL     1     -11.835  14.465  66.018  1.00  0.00    -0.372 C  
HETATM   13  H2  UNL     1      -8.662  13.317  65.628  1.00  0.00     0.000 HD 
HETATM   14  O   UNL     1     -13.129  14.068  65.547  1.00  0.00    -0.713 OA 
HETATM   15  C   UNL     1     -11.874  14.771  67.521  1.00  0.00    -0.301 C  
HETATM   16  H1  UNL     1      -9.299  14.820  65.191  1.00  0.00     0.000 HD 
HETATM   17  H   UNL     1     -13.795  14.716  65.745  1.00  0.00     0.000 HD 
BRANCH   7  18
HETATM   18  O   UNL     1      -9.800  11.387  66.243  1.00  0.00    -0.206 OA 
BRANCH  18  19
HETATM   19  C   UNL     1      -9.302  10.367  67.099  1.00  0.00    -0.157 C  
HETATM   20  O   UNL     1      -9.337   8.947  65.063  1.00  0.00    -0.442 OA 
HETATM   21  C   UNL     1      -7.929  10.928  67.488  1.00  0.00    -0.115 C  
HETATM   22  C   UNL     1      -7.442   8.859  66.609  1.00  0.00    -0.086 C  
HETATM   23  H   UNL     1      -9.134   8.108  64.667  1.00  0.00     0.000 HD 
HETATM   24  O   UNL     1      -6.949  10.193  66.737  1.00  0.00    -0.086 OA 
HETATM   25  C   UNL     1      -8.973   9.003  66.455  1.00  0.00    -0.155 C  
BRANCH  21  26
HETATM   26  C   UNL     1      -7.646  10.891  68.992  1.00  0.00    -0.135 C  
HETATM   27  H   UNL     1      -6.331  11.640  70.279  1.00  0.00     0.000 HD 
HETATM   28  O   UNL     1      -6.507  11.663  69.347  1.00  0.00    -0.091 OA 
ENDBRANCH  21  26
BRANCH  22  29
HETATM   29  O   UNL     1      -7.086   8.080  67.759  1.00  0.00    -0.082 OA 
BRANCH  29  30
HETATM   30  C   UNL     1      -7.828   6.835  67.988  1.00  0.00    -0.113 C  
HETATM   31  C   UNL     1      -7.915   6.000  66.684  1.00  0.00    -0.102 C  
HETATM   32  O   UNL     1      -6.778   5.111  66.624  1.00  0.00    -0.057 OA 
HETATM   33  C   UNL     1      -9.168   5.144  66.434  1.00  0.00    -0.141 C  
HETATM   34  C   UNL     1     -10.417   5.669  67.118  1.00  0.00    -0.334 C  
HETATM   35  N   UNL     1      -9.433   5.059  64.975  1.00  0.00    -0.347 NA 
HETATM   36  H   UNL     1      -6.831   4.599  65.825  1.00  0.00     0.000 HD 
HETATM   37  H1  UNL     1     -10.264   4.491  64.810  1.00  0.00     0.000 HD 
HETATM   38  H2  UNL     1      -8.624   4.715  64.457  1.00  0.00     0.000 HD 
HETATM   39  C   UNL     1     -10.148   5.895  68.605  1.00  0.00    -0.168 C  
HETATM   40  C   UNL     1      -9.143   7.061  68.786  1.00  0.00    -0.133 C  
HETATM   41  N   UNL     1     -11.434   6.177  69.278  1.00  0.00    -0.449 NA 
HETATM   42  H2  UNL     1     -12.131   5.451  69.112  1.00  0.00     0.000 HD 
HETATM   43  H1  UNL     1     -11.254   6.328  70.270  1.00  0.00     0.000 HD 
BRANCH  40  44
HETATM   44  O   UNL     1      -8.897   7.190  70.208  1.00  0.00    -0.146 OA 
BRANCH  44  45
HETATM   45  C   UNL     1      -7.732   6.518  70.695  1.00  0.00    -0.105 C  
HETATM   46  O   UNL     1      -6.555   7.313  70.528  1.00  0.00    -0.045 OA 
HETATM   47  C   UNL     1      -6.564   8.518  71.305  1.00  0.00    -0.062 C  
HETATM   48  C   UNL     1      -6.715   8.225  72.806  1.00  0.00    -0.096 C  
HETATM   49  H1  UNL     1      -9.284   5.025  73.378  1.00  0.00     0.000 HD 
HETATM   50  O   UNL     1      -6.778   9.423  73.591  1.00  0.00    -0.105 OA 
HETATM   51  H2  UNL     1      -9.132   4.461  71.805  1.00  0.00     0.000 HD 
HETATM   52  C   UNL     1      -7.982   7.391  73.048  1.00  0.00    -0.104 C  
HETATM   53  H   UNL     1      -6.871   9.241  74.520  1.00  0.00     0.000 HD 
HETATM   54  O   UNL     1      -8.066   7.033  74.439  1.00  0.00    -0.125 OA 
HETATM   55  C   UNL     1      -7.941   6.119  72.182  1.00  0.00    -0.109 C  
HETATM   56  N   UNL     1      -9.147   5.287  72.403  1.00  0.00    -0.134 NA 
HETATM   57  H   UNL     1      -8.849   6.517  74.588  1.00  0.00     0.000 HD 
BRANCH  47  58
HETATM   58  C   UNL     1      -5.290   9.325  70.965  1.00  0.00    -0.036 C  
HETATM   59  H1  UNL     1      -4.339  11.148  71.430  1.00  0.00     0.000 HD 
HETATM   60  N   UNL     1      -5.180  10.616  71.655  1.00  0.00    -0.254 NA 
HETATM   61  H2  UNL     1      -5.258  10.486  72.664  1.00  0.00     0.000 HD 
ENDBRANCH  47  58
ENDBRANCH  44  45
ENDBRANCH  40  44
ENDBRANCH  29  30
ENDBRANCH  22  29
ENDBRANCH  18  19
ENDBRANCH   7  18
ENDBRANCH   2   5
TORSDOF 9
ENDMDL
MODEL      137
REMARK 921   NORMALIZED FREE ENERGY PREDICTED BY IDOCK:   -4.91 KCAL/MOL
REMARK 922        TOTAL FREE ENERGY PREDICTED BY IDOCK:  -10.30 KCAL/MOL
REMARK 923 INTER-LIGAND FREE ENERGY PREDICTED BY IDOCK:   -7.57 KCAL/MOL
REMARK 924 INTRA-LIGAND FREE ENERGY PREDICTED BY IDOCK:   -2.73 KCAL/MOL
REMARK 927      BINDING AFFINITY PREDICTED BY RF-SCORE:    0.00 PKD
ROOT
HETATM    1  N   UNL     1      -9.582  12.316  64.694  1.00  0.00    -0.467 NA 
HETATM    2  C   UNL     1      -9.975  11.150  65.491  1.00  0.00    -0.249 C  
HETATM    3  H1  UNL     1      -9.875  13.219  65.065  1.00  0.00     0.000 HD 
HETATM    4  H2  UNL     1      -9.911  12.209  63.734  1.00  0.00     0.000 HD 
ENDROOT
BRANCH   2   5
HETATM    5  C   UNL     1      -9.530   9.775  64.926  1.00  0.00    -0.265 C  
HETATM    6  O   UNL     1      -9.181   8.808  65.950  1.00  0.00    -0.204 OA 
HETATM    7  C   UNL     1      -8.903   7.527  65.358  1.00  0.00     0.088 C  
HETATM    8  C   UNL     1      -7.660   7.620  64.413  1.00  0.00    -0.107 C  
HETATM    9  O   UNL     1      -7.254  10.630  64.749  1.00  0.00    -0.346 OA 
HETATM   10  H   UNL     1      -6.508  10.780  64.179  1.00  0.00     0.000 HD 
HETATM   11  N   UNL     1      -6.414   7.873  65.211  1.00  0.00    -0.044 NA 
HETATM   12  C   UNL     1      -7.864   8.703  63.355  1.00  0.00    -0.151 C  
HETATM   13  H2  UNL     1      -6.284   7.175  65.944  1.00  0.00     0.000 HD 
HETATM   14  O   UNL     1      -8.787   8.292  62.337  1.00  0.00    -0.431 OA 
HETATM   15  C   UNL     1      -8.315  10.021  63.997  1.00  0.00    -0.170 C  
HETATM   16  H1  UNL     1      -5.604   7.934  64.595  1.00  0.00     0.000 HD 
HETATM   17  H   UNL     1      -8.915   8.966  61.679  1.00  0.00     0.000 HD 
BRANCH   7  18
HETATM   18  O   UNL     1      -8.492   6.540  66.287  1.00  0.00    -0.118 OA 
BRANCH  18  19
HETATM   19  C   UNL     1      -8.235   6.890  67.640  1.00  0.00    -0.117 C  
HETATM   20  O   UNL     1     -10.611   6.280  68.020  1.00  0.00    -0.202 OA 
HETATM   21  C   UNL     1      -7.207   5.827  68.048  1.00  0.00    -0.072 C  
HETATM   22  C   UNL     1      -8.882   5.595  69.609  1.00  0.00    -0.116 C  
HETATM   23  H   UNL     1     -11.319   6.160  68.641  1.00  0.00     0.000 HD 
HETATM   24  O   UNL     1      -7.899   4.870  68.867  1.00  0.00    -0.075 OA 
HETATM   25  C   UNL     1      -9.386   6.697  68.651  1.00  0.00    -0.129 C  
BRANCH  21  26
HETATM   26  C   UNL     1      -5.971   6.395  68.750  1.00  0.00    -0.021 C  
HETATM   27  H   UNL     1      -4.811   8.006  68.652  1.00  0.00     0.000 HD 
HETATM   28  O   UNL     1      -5.578   7.653  68.217  1.00  0.00    -0.026 OA 
ENDBRANCH  21  26
BRANCH  22  29
HETATM   29  O   UNL     1      -8.305   6.139  70.804  1.00  0.00    -0.123 OA 
BRANCH  29  30
HETATM   30  C   UNL     1      -9.178   6.267  71.977  1.00  0.00    -0.145 C  
HETATM   31  C   UNL     1      -8.681   5.360  73.132  1.00  0.00    -0.120 C  
HETATM   32  O   UNL     1      -7.757   6.111  73.950  1.00  0.00    -0.094 OA 
HETATM   33  C   UNL     1      -9.716   4.736  74.082  1.00  0.00    -0.137 C  
HETATM   34  C   UNL     1     -11.083   4.533  73.454  1.00  0.00    -0.408 C  
HETATM   35  N   UNL     1      -9.224   3.420  74.565  1.00  0.00    -0.088 NA 
HETATM   36  H   UNL     1      -7.452   5.554  74.657  1.00  0.00     0.000 HD 
HETATM   37  H1  UNL     1      -9.911   3.007  75.196  1.00  0.00     0.000 HD 
HETATM   38  H2  UNL     1      -8.302   3.490  74.995  1.00  0.00     0.000 HD 
HETATM   39  C   UNL     1     -11.573   5.839  72.829  1.00  0.00    -0.214 C  
HETATM   40  C   UNL     1     -10.687   6.203  71.610  1.00  0.00    -0.245 C  
HETATM   41  N   UNL     1     -12.990   5.671  72.439  1.00  0.00     0.084 NA 
HETATM   42  H2  UNL     1     -13.576   5.365  73.216  1.00  0.00     0.000 HD 
HETATM   43  H1  UNL     1     -13.316   6.542  72.022  1.00  0.00     0.000 HD 
BRANCH  40  44
HETATM   44  O   UNL     1     -11.173   7.467  71.096  1.00  0.00    -0.248 OA 
BRANCH  44  45
HETATM   45  C   UNL     1     -10.749   8.628  71.815  1.00  0.00    -0.321 C  
HETATM   46  O   UNL     1      -9.658   9.283  71.164  1.00  0.00    -0.273 OA 
HETATM   47  C   UNL     1      -9.999   9.823  69.879  1.00  0.00    -0.245 C  
HETATM   48  C   UNL     1     -11.152  10.832  69.975  1.00  0.00    -0.255 C  
HETATM   49  H1  UNL     1     -13.897   9.588  72.819  1.00  0.00     0.000 HD 
HETATM   50  O   UNL     1     -11.539  11.341  68.691  1.00  0.00    -0.268 OA 
HETATM   51  H2  UNL     1     -12.824   8.545  73.579  1.00  0.00     0.000 HD 
HETATM   52  C   UNL     1     -12.366  10.172  70.647  1.00  0.00    -0.293 C  
HETATM   53  H   UNL     1     -12.253  11.965  68.751  1.00  0.00     0.000 HD 
HETATM   54  O   UNL     1     -13.408  11.147  70.827  1.00  0.00     0.037 OA 
HETATM   55  C   UNL     1     -11.953   9.591  72.011  1.00  0.00    -0.213 C  
HETATM   56  N   UNL     1     -13.107   8.956  72.690  1.00  0.00    -0.372 NA 
HETATM   57  H   UNL     1     -14.158  10.739  71.243  1.00  0.00     0.000 HD 
BRANCH  47  58
HETATM   58  C   UNL     1      -8.719  10.415  69.246  1.00  0.00    -0.150 C  
HETATM   59  H1  UNL     1      -7.845  12.272  68.763  1.00  0.00     0.000 HD 
HETATM   60  N   UNL     1      -8.690  11.881  69.182  1.00  0.00    -0.254 NA 
HETATM   61  H2  UNL     1      -8.845  12.280  70.108  1.00  0.00     0.000 HD 
ENDBRANCH  47  58
ENDBRANCH  44  45
ENDBRANCH  40  44
ENDBRANCH  29  30
ENDBRANCH  22  29
ENDBRANCH  18  19
ENDBRANCH   7  18
ENDBRANCH   2   5
TORSDOF 9
ENDMDL
MODEL      138
REMARK 921   NORMALIZED FREE ENERGY PREDICTED BY IDOCK:   -4.87 KCAL/MOL
REMARK 922        TOTAL FREE ENERGY PREDICTED BY IDOCK:  -10.25 KCAL/MOL
REMARK 923 INTER-LIGAND FREE ENERGY PREDICTED BY IDOCK:   -8.63 KCAL/MOL
REMARK 924 INTRA-LIGAND FREE ENERGY PREDICTED BY IDOCK:   -1.61 KCAL/MOL
REMARK 927      BINDING AFFINITY PREDICTED BY RF-SCORE:    0.00 PKD
ROOT
HETATM    1  N   UNL     1     -10.174  19.757  69.413  1.00  0.00    -0.611 NA 
HETATM    2  C   UNL     1     -10.006  20.069  67.991  1.00  0.00    -0.416 C  
HETATM    3  H1  UNL     1     -10.881  20.306  69.902  1.00  0.00     0.000 HD 
HETATM    4  H2  UNL     1      -9.279  19.833  69.896  1.00  0.00     0.000 HD 
ENDROOT
BRANCH   2   5
HETATM    5  C   UNL     1      -8.931  19.233  67.248  1.00  0.00    -0.295 C  
HETATM    6  O   UNL     1      -8.686  17.933  67.844  1.00  0.00    -0.243 OA 
HETATM    7  C   UNL     1      -7.775  17.171  67.032  1.00  0.00    -0.189 C  
HETATM    8  C   UNL     1      -6.383  17.879  66.961  1.00  0.00    -0.163 C  
HETATM    9  O   UNL     1      -7.213  20.332  68.584  1.00  0.00    -0.216 OA 
HETATM   10  H   UNL     1      -6.409  20.839  68.576  1.00  0.00     0.000 HD 
HETATM   11  N   UNL     1      -5.710  17.845  68.302  1.00  0.00    -0.162 NA 
HETATM   12  C   UNL     1      -6.531  19.314  66.456  1.00  0.00    -0.188 C  
HETATM   13  H2  UNL     1      -5.635  16.895  68.666  1.00  0.00     0.000 HD 
HETATM   14  O   UNL     1      -6.789  19.363  65.046  1.00  0.00    -0.431 OA 
HETATM   15  C   UNL     1      -7.621  20.061  67.234  1.00  0.00    -0.286 C  
HETATM   16  H1  UNL     1      -4.802  18.307  68.256  1.00  0.00     0.000 HD 
HETATM   17  H   UNL     1      -6.881  20.256  64.732  1.00  0.00     0.000 HD 
BRANCH   7  18
HETATM   18  O   UNL     1      -7.435  15.909  67.578  1.00  0.00    -0.138 OA 
BRANCH  18  19
HETATM   19  C   UNL     1      -7.955  14.716  67.007  1.00  0.00    -0.072 C  
HETATM   20  O   UNL     1      -6.336  13.560  68.491  1.00  0.00    -0.076 OA 
HETATM   21  C   UNL     1      -9.406  14.738  67.504  1.00  0.00    -0.194 C  
HETATM   22  C   UNL     1      -8.613  12.704  68.229  1.00  0.00    -0.167 C  
HETATM   23  H   UNL     1      -5.996  12.737  68.821  1.00  0.00     0.000 HD 
HETATM   24  O   UNL     1      -9.499  13.772  68.564  1.00  0.00    -0.210 OA 
HETATM   25  C   UNL     1      -7.403  13.377  67.542  1.00  0.00    -0.156 C  
BRANCH  21  26
HETATM   26  C   UNL     1     -10.443  14.487  66.406  1.00  0.00    -0.295 C  
HETATM   27  H   UNL     1     -10.507  14.325  64.427  1.00  0.00     0.000 HD 
HETATM   28  O   UNL     1      -9.864  14.480  65.108  1.00  0.00    -0.296 OA 
ENDBRANCH  21  26
BRANCH  22  29
HETATM   29  O   UNL     1      -9.267  11.762  67.368  1.00  0.00    -0.169 OA 
BRANCH  29  30
HETATM   30  C   UNL     1     -10.195  10.810  67.991  1.00  0.00    -0.178 C  
HETATM   31  C   UNL     1     -11.275  11.556  68.817  1.00  0.00    -0.249 C  
HETATM   32  O   UNL     1     -12.405  11.836  67.962  1.00  0.00    -0.391 OA 
HETATM   33  C   UNL     1     -11.827  10.889  70.087  1.00  0.00    -0.353 C  
HETATM   34  C   UNL     1     -10.859   9.924  70.747  1.00  0.00    -0.387 C  
HETATM   35  N   UNL     1     -12.198  11.931  71.079  1.00  0.00    -0.343 NA 
HETATM   36  H   UNL     1     -13.066  12.293  68.468  1.00  0.00     0.000 HD 
HETATM   37  H1  UNL     1     -12.565  11.488  71.922  1.00  0.00     0.000 HD 
HETATM   38  H2  UNL     1     -12.847  12.616  70.692  1.00  0.00     0.000 HD 
HETATM   39  C   UNL     1     -10.351   8.909  69.725  1.00  0.00    -0.207 C  
HETATM   40  C   UNL     1      -9.463   9.620  68.672  1.00  0.00    -0.146 C  
HETATM   41  N   UNL     1      -9.603   7.853  70.442  1.00  0.00    -0.171 NA 
HETATM   42  H2  UNL     1     -10.152   7.421  71.185  1.00  0.00     0.000 HD 
HETATM   43  H1  UNL     1      -9.265   7.175  69.760  1.00  0.00     0.000 HD 
BRANCH  40  44
HETATM   44  O   UNL     1      -9.055   8.614  67.712  1.00  0.00    -0.135 OA 
BRANCH  44  45
HETATM   45  C   UNL     1      -7.777   8.825  67.106  1.00  0.00    -0.096 C  
HETATM   46  O   UNL     1      -6.947   9.671  67.905  1.00  0.00    -0.077 OA 
HETATM   47  C   UNL     1      -6.597   9.098  69.173  1.00  0.00    -0.050 C  
HETATM   48  C   UNL     1      -5.867   7.757  69.006  1.00  0.00    -0.031 C  
HETATM   49  H1  UNL     1      -7.471   5.648  65.821  1.00  0.00     0.000 HD 
HETATM   50  O   UNL     1      -5.556   7.146  70.266  1.00  0.00    -0.023 OA 
HETATM   51  H2  UNL     1      -8.187   6.998  65.126  1.00  0.00     0.000 HD 
HETATM   52  C   UNL     1      -6.727   6.795  68.174  1.00  0.00    -0.068 C  
HETATM   53  H   UNL     1      -5.105   6.316  70.164  1.00  0.00     0.000 HD 
HETATM   54  O   UNL     1      -5.999   5.578  67.935  1.00  0.00    -0.016 OA 
HETATM   55  C   UNL     1      -7.096   7.456  66.833  1.00  0.00    -0.083 C  
HETATM   56  N   UNL     1      -7.919   6.546  66.001  1.00  0.00    -0.107 NA 
HETATM   57  H   UNL     1      -6.531   4.983  67.419  1.00  0.00     0.000 HD 
BRANCH  47  58
HETATM   58  C   UNL     1      -5.783  10.142  69.970  1.00  0.00    -0.049 C  
HETATM   59  H1  UNL     1      -6.016  12.000  70.939  1.00  0.00     0.000 HD 
HETATM   60  N   UNL     1      -6.553  11.310  70.413  1.00  0.00    -0.504 NA 
HETATM   61  H2  UNL     1      -7.370  11.014  70.948  1.00  0.00     0.000 HD 
ENDBRANCH  47  58
ENDBRANCH  44  45
ENDBRANCH  40  44
ENDBRANCH  29  30
ENDBRANCH  22  29
ENDBRANCH  18  19
ENDBRANCH   7  18
ENDBRANCH   2   5
TORSDOF 9
ENDMDL
MODEL      139
REMARK 921   NORMALIZED FREE ENERGY PREDICTED BY IDOCK:   -4.86 KCAL/MOL
REMARK 922        TOTAL FREE ENERGY PREDICTED BY IDOCK:  -10.23 KCAL/MOL
REMARK 923 INTER-LIGAND FREE ENERGY PREDICTED BY IDOCK:   -9.41 KCAL/MOL
REMARK 924 INTRA-LIGAND FREE ENERGY PREDICTED BY IDOCK:   -0.82 KCAL/MOL
REMARK 927      BINDING AFFINITY PREDICTED BY RF-SCORE:    0.00 PKD
ROOT
HETATM    1  N   UNL     1     -12.446  13.526  70.448  1.00  0.00    -0.305 NA 
HETATM    2  C   UNL     1     -11.448  13.886  69.437  1.00  0.00    -0.280 C  
HETATM    3  H1  UNL     1     -12.233  13.826  71.399  1.00  0.00     0.000 HD 
HETATM    4  H2  UNL     1     -12.615  12.521  70.429  1.00  0.00     0.000 HD 
ENDROOT
BRANCH   2   5
HETATM    5  C   UNL     1     -11.771  13.430  67.990  1.00  0.00    -0.356 C  
HETATM    6  O   UNL     1     -10.848  12.436  67.471  1.00  0.00    -0.225 OA 
HETATM    7  C   UNL     1     -11.284  11.972  66.181  1.00  0.00    -0.343 C  
HETATM    8  C   UNL     1     -11.278  13.145  65.147  1.00  0.00    -0.294 C  
HETATM    9  O   UNL     1     -10.457  15.303  67.149  1.00  0.00    -0.269 OA 
HETATM   10  H   UNL     1     -10.446  16.075  66.594  1.00  0.00     0.000 HD 
HETATM   11  N   UNL     1      -9.871  13.585  64.863  1.00  0.00    -0.599 NA 
HETATM   12  C   UNL     1     -12.128  14.312  65.647  1.00  0.00    -0.393 C  
HETATM   13  H2  UNL     1      -9.284  12.808  64.560  1.00  0.00     0.000 HD 
HETATM   14  O   UNL     1     -13.532  14.037  65.544  1.00  0.00    -0.705 OA 
HETATM   15  C   UNL     1     -11.753  14.688  67.086  1.00  0.00    -0.373 C  
HETATM   16  H1  UNL     1      -9.867  14.350  64.189  1.00  0.00     0.000 HD 
HETATM   17  H   UNL     1     -14.061  14.762  65.855  1.00  0.00     0.000 HD 
BRANCH   7  18
HETATM   18  O   UNL     1     -10.402  11.043  65.576  1.00  0.00    -0.255 OA 
BRANCH  18  19
HETATM   19  C   UNL     1      -9.372  10.429  66.339  1.00  0.00    -0.164 C  
HETATM   20  O   UNL     1     -11.187   8.984  67.219  1.00  0.00    -0.279 OA 
HETATM   21  C   UNL     1      -8.503   9.801  65.242  1.00  0.00    -0.145 C  
HETATM   22  C   UNL     1      -9.021   8.025  66.610  1.00  0.00    -0.150 C  
HETATM   23  H   UNL     1     -11.432   8.245  67.764  1.00  0.00     0.000 HD 
HETATM   24  O   UNL     1      -8.773   8.390  65.251  1.00  0.00    -0.170 OA 
HETATM   25  C   UNL     1      -9.769   9.229  67.225  1.00  0.00    -0.167 C  
BRANCH  21  26
HETATM   26  C   UNL     1      -7.008  10.100  65.386  1.00  0.00    -0.139 C  
HETATM   27  H   UNL     1      -5.285   9.489  64.607  1.00  0.00     0.000 HD 
HETATM   28  O   UNL     1      -6.212   9.304  64.518  1.00  0.00    -0.073 OA 
ENDBRANCH  21  26
BRANCH  22  29
HETATM   29  O   UNL     1      -7.787   7.752  67.287  1.00  0.00    -0.113 OA 
BRANCH  29  30
HETATM   30  C   UNL     1      -7.418   6.344  67.477  1.00  0.00    -0.092 C  
HETATM   31  C   UNL     1      -6.662   5.803  66.236  1.00  0.00    -0.057 C  
HETATM   32  O   UNL     1      -5.246   6.022  66.421  1.00  0.00    -0.008 OA 
HETATM   33  C   UNL     1      -6.840   4.327  65.845  1.00  0.00    -0.057 C  
HETATM   34  C   UNL     1      -8.167   3.732  66.279  1.00  0.00    -0.101 C  
HETATM   35  N   UNL     1      -6.722   4.181  64.371  1.00  0.00    -0.043 NA 
HETATM   36  H   UNL     1      -4.783   5.691  65.660  1.00  0.00     0.000 HD 
HETATM   37  H1  UNL     1      -6.840   3.202  64.112  1.00  0.00     0.000 HD 
HETATM   38  H2  UNL     1      -5.848   4.569  64.015  1.00  0.00     0.000 HD 
HETATM   39  C   UNL     1      -8.388   3.974  67.771  1.00  0.00    -0.094 C  
HETATM   40  C   UNL     1      -8.590   5.488  68.034  1.00  0.00    -0.100 C  
HETATM   41  N   UNL     1      -9.563   3.187  68.206  1.00  0.00    -0.139 NA 
HETATM   42  H2  UNL     1      -9.476   2.196  67.979  1.00  0.00     0.000 HD 
HETATM   43  H1  UNL     1      -9.710   3.349  69.202  1.00  0.00     0.000 HD 
BRANCH  40  44
HETATM   44  O   UNL     1      -8.747   5.653  69.465  1.00  0.00    -0.108 OA 
BRANCH  44  45
HETATM   45  C   UNL     1      -9.917   5.054  70.028  1.00  0.00    -0.254 C  
HETATM   46  O   UNL     1      -9.734   4.734  71.410  1.00  0.00    -0.157 OA 
HETATM   47  C   UNL     1      -9.543   5.885  72.244  1.00  0.00    -0.150 C  
HETATM   48  C   UNL     1     -10.728   6.857  72.148  1.00  0.00    -0.219 C  
HETATM   49  H1  UNL     1     -12.171   6.965  68.266  1.00  0.00     0.000 HD 
HETATM   50  O   UNL     1     -10.529   8.038  72.937  1.00  0.00    -0.329 OA 
HETATM   51  H2  UNL     1     -11.459   5.509  67.828  1.00  0.00     0.000 HD 
HETATM   52  C   UNL     1     -10.957   7.257  70.683  1.00  0.00    -0.256 C  
HETATM   53  H   UNL     1     -11.262   8.640  72.878  1.00  0.00     0.000 HD 
HETATM   54  O   UNL     1     -12.128   8.086  70.585  1.00  0.00    -0.490 OA 
HETATM   55  C   UNL     1     -11.137   5.994  69.822  1.00  0.00    -0.406 C  
HETATM   56  N   UNL     1     -11.371   6.348  68.401  1.00  0.00    -0.196 NA 
HETATM   57  H   UNL     1     -12.270   8.333  69.679  1.00  0.00     0.000 HD 
BRANCH  47  58
HETATM   58  C   UNL     1      -9.264   5.400  73.685  1.00  0.00    -0.130 C  
HETATM   59  H1  UNL     1     -10.110   4.197  75.195  1.00  0.00     0.000 HD 
HETATM   60  N   UNL     1     -10.294   4.516  74.243  1.00  0.00    -0.227 NA 
HETATM   61  H2  UNL     1     -10.450   3.720  73.625  1.00  0.00     0.000 HD 
ENDBRANCH  47  58
ENDBRANCH  44  45
ENDBRANCH  40  44
ENDBRANCH  29  30
ENDBRANCH  22  29
ENDBRANCH  18  19
ENDBRANCH   7  18
ENDBRANCH   2   5
TORSDOF 9
ENDMDL
MODEL      140
REMARK 921   NORMALIZED FREE ENERGY PREDICTED BY IDOCK:   -4.83 KCAL/MOL
REMARK 922        TOTAL FREE ENERGY PREDICTED BY IDOCK:  -10.18 KCAL/MOL
REMARK 923 INTER-LIGAND FREE ENERGY PREDICTED BY IDOCK:   -9.98 KCAL/MOL
REMARK 924 INTRA-LIGAND FREE ENERGY PREDICTED BY IDOCK:   -0.21 KCAL/MOL
REMARK 927      BINDING AFFINITY PREDICTED BY RF-SCORE:    0.00 PKD
ROOT
HETATM    1  N   UNL     1     -10.203  19.724  68.951  1.00  0.00    -0.591 NA 
HETATM    2  C   UNL     1      -9.966  20.320  67.634  1.00  0.00    -0.410 C  
HETATM    3  H1  UNL     1     -11.077  19.993  69.403  1.00  0.00     0.000 HD 
HETATM    4  H2  UNL     1      -9.417  19.920  69.570  1.00  0.00     0.000 HD 
ENDROOT
BRANCH   2   5
HETATM    5  C   UNL     1      -8.636  19.912  66.947  1.00  0.00    -0.332 C  
HETATM    6  O   UNL     1      -8.063  18.683  67.466  1.00  0.00    -0.246 OA 
HETATM    7  C   UNL     1      -6.907  18.304  66.699  1.00  0.00    -0.200 C  
HETATM    8  C   UNL     1      -5.787  19.387  66.827  1.00  0.00    -0.166 C  
HETATM    9  O   UNL     1      -7.431  21.316  68.534  1.00  0.00     0.778 OA 
HETATM   10  H   UNL     1      -6.817  22.032  68.648  1.00  0.00     0.000 HD 
HETATM   11  N   UNL     1      -5.241  19.412  68.225  1.00  0.00    -0.182 NA 
HETATM   12  C   UNL     1      -6.314  20.762  66.419  1.00  0.00    -0.254 C  
HETATM   13  H2  UNL     1      -4.916  18.492  68.522  1.00  0.00     0.000 HD 
HETATM   14  O   UNL     1      -6.465  20.880  64.998  1.00  0.00    -0.416 OA 
HETATM   15  C   UNL     1      -7.634  21.079  67.133  1.00  0.00    -0.138 C  
HETATM   16  H1  UNL     1      -4.511  20.118  68.309  1.00  0.00     0.000 HD 
HETATM   17  H   UNL     1      -6.793  21.735  64.744  1.00  0.00     0.000 HD 
BRANCH   7  18
HETATM   18  O   UNL     1      -6.251  17.145  67.180  1.00  0.00    -0.142 OA 
BRANCH  18  19
HETATM   19  C   UNL     1      -6.916  15.889  67.175  1.00  0.00    -0.192 C  
HETATM   20  O   UNL     1      -6.258  15.777  69.565  1.00  0.00    -0.135 OA 
HETATM   21  C   UNL     1      -8.368  16.305  66.909  1.00  0.00    -0.232 C  
HETATM   22  C   UNL     1      -8.498  15.091  68.859  1.00  0.00    -0.192 C  
HETATM   23  H   UNL     1      -6.305  15.307  70.389  1.00  0.00     0.000 HD 
HETATM   24  O   UNL     1      -9.069  16.197  68.159  1.00  0.00    -0.186 OA 
HETATM   25  C   UNL     1      -6.992  15.124  68.513  1.00  0.00    -0.105 C  
BRANCH  21  26
HETATM   26  C   UNL     1      -9.051  15.504  65.797  1.00  0.00    -0.070 C  
HETATM   27  H   UNL     1     -10.569  15.708  64.532  1.00  0.00     0.000 HD 
HETATM   28  O   UNL     1     -10.146  16.205  65.221  1.00  0.00    -0.505 OA 
ENDBRANCH  21  26
BRANCH  22  29
HETATM   29  O   UNL     1      -9.119  13.865  68.451  1.00  0.00    -0.192 OA 
BRANCH  29  30
HETATM   30  C   UNL     1     -10.561  13.727  68.688  1.00  0.00    -0.253 C  
HETATM   31  C   UNL     1     -10.998  14.568  69.916  1.00  0.00    -0.109 C  
HETATM   32  O   UNL     1     -11.371  15.889  69.466  1.00  0.00    -0.291 OA 
HETATM   33  C   UNL     1     -12.147  14.052  70.796  1.00  0.00    -0.345 C  
HETATM   34  C   UNL     1     -12.304  12.542  70.780  1.00  0.00    -0.376 C  
HETATM   35  N   UNL     1     -11.936  14.485  72.201  1.00  0.00    -0.221 NA 
HETATM   36  H   UNL     1     -11.638  16.404  70.219  1.00  0.00     0.000 HD 
HETATM   37  H1  UNL     1     -12.699  14.142  72.785  1.00  0.00     0.000 HD 
HETATM   38  H2  UNL     1     -11.818  15.495  72.278  1.00  0.00     0.000 HD 
HETATM   39  C   UNL     1     -12.397  12.039  69.341  1.00  0.00     0.045 C  
HETATM   40  C   UNL     1     -11.040  12.250  68.622  1.00  0.00    -0.249 C  
HETATM   41  N   UNL     1     -12.781  10.610  69.366  1.00  0.00    -0.628 NA 
HETATM   42  H2  UNL     1     -13.638  10.445  69.894  1.00  0.00     0.000 HD 
HETATM   43  H1  UNL     1     -12.842  10.275  68.405  1.00  0.00     0.000 HD 
BRANCH  40  44
HETATM   44  O   UNL     1     -11.209  11.797  67.256  1.00  0.00    -0.267 OA 
BRANCH  44  45
HETATM   45  C   UNL     1     -10.621  12.631  66.254  1.00  0.00    -0.252 C  
HETATM   46  O   UNL     1      -9.290  12.218  65.937  1.00  0.00    -0.199 OA 
HETATM   47  C   UNL     1      -9.222  10.917  65.336  1.00  0.00    -0.207 C  
HETATM   48  C   UNL     1     -10.047  10.847  64.042  1.00  0.00    -0.358 C  
HETATM   49  H1  UNL     1     -13.509  13.089  64.440  1.00  0.00     0.000 HD 
HETATM   50  O   UNL     1     -10.032   9.537  63.457  1.00  0.00    -0.195 OA 
HETATM   51  H2  UNL     1     -12.928  13.985  65.735  1.00  0.00     0.000 HD 
HETATM   52  C   UNL     1     -11.500  11.258  64.328  1.00  0.00     0.056 C  
HETATM   53  H   UNL     1     -10.543   9.494  62.657  1.00  0.00     0.000 HD 
HETATM   54  O   UNL     1     -12.245  11.289  63.099  1.00  0.00    -0.814 OA 
HETATM   55  C   UNL     1     -11.525  12.648  64.990  1.00  0.00    -0.329 C  
HETATM   56  N   UNL     1     -12.916  13.078  65.269  1.00  0.00    -0.710 NA 
HETATM   57  H   UNL     1     -13.143  11.543  63.276  1.00  0.00     0.000 HD 
BRANCH  47  58
HETATM   58  C   UNL     1      -7.734  10.554  65.131  1.00  0.00    -0.062 C  
HETATM   59  H1  UNL     1      -6.502   8.900  64.693  1.00  0.00     0.000 HD 
HETATM   60  N   UNL     1      -7.485   9.140  64.827  1.00  0.00    -0.104 NA 
HETATM   61  H2  UNL     1      -8.035   8.850  64.018  1.00  0.00     0.000 HD 
ENDBRANCH  47  58
ENDBRANCH  44  45
ENDBRANCH  40  44
ENDBRANCH  29  30
ENDBRANCH  22  29
ENDBRANCH  18  19
ENDBRANCH   7  18
ENDBRANCH   2   5
TORSDOF 9
ENDMDL
MODEL      141
REMARK 921   NORMALIZED FREE ENERGY PREDICTED BY IDOCK:   -4.82 KCAL/MOL
REMARK 922        TOTAL FREE ENERGY PREDICTED BY IDOCK:  -10.17 KCAL/MOL
REMARK 923 INTER-LIGAND FREE ENERGY PREDICTED BY IDOCK:   -9.62 KCAL/MOL
REMARK 924 INTRA-LIGAND FREE ENERGY PREDICTED BY IDOCK:   -0.55 KCAL/MOL
REMARK 927      BINDING AFFINITY PREDICTED BY RF-SCORE:    0.00 PKD
ROOT
HETATM    1  N   UNL     1     -10.328   1.764  71.970  1.00  0.00    -0.146 NA 
HETATM    2  C   UNL     1      -9.594   2.699  71.113  1.00  0.00    -0.150 C  
HETATM    3  H1  UNL     1     -10.079   0.782  71.860  1.00  0.00     0.000 HD 
HETATM    4  H2  UNL     1     -11.332   1.886  71.840  1.00  0.00     0.000 HD 
ENDROOT
BRANCH   2   5
HETATM    5  C   UNL     1      -9.973   4.195  71.280  1.00  0.00    -0.146 C  
HETATM    6  O   UNL     1      -8.948   5.113  70.817  1.00  0.00    -0.129 OA 
HETATM    7  C   UNL     1      -9.420   6.469  70.886  1.00  0.00    -0.172 C  
HETATM    8  C   UNL     1      -9.718   6.870  72.368  1.00  0.00    -0.153 C  
HETATM    9  O   UNL     1      -9.091   4.124  73.551  1.00  0.00    -0.102 OA 
HETATM   10  H   UNL     1      -9.268   4.275  74.473  1.00  0.00     0.000 HD 
HETATM   11  N   UNL     1      -8.444   6.942  73.156  1.00  0.00    -0.117 NA 
HETATM   12  C   UNL     1     -10.705   5.892  73.005  1.00  0.00    -0.256 C  
HETATM   13  H2  UNL     1      -7.763   7.567  72.723  1.00  0.00     0.000 HD 
HETATM   14  O   UNL     1     -12.043   6.093  72.530  1.00  0.00    -0.514 OA 
HETATM   15  C   UNL     1     -10.261   4.441  72.782  1.00  0.00    -0.176 C  
HETATM   16  H1  UNL     1      -8.638   7.203  74.123  1.00  0.00     0.000 HD 
HETATM   17  H   UNL     1     -12.656   5.485  72.926  1.00  0.00     0.000 HD 
BRANCH   7  18
HETATM   18  O   UNL     1      -8.455   7.435  70.509  1.00  0.00    -0.133 OA 
BRANCH  18  19
HETATM   19  C   UNL     1      -8.829   8.795  70.336  1.00  0.00    -0.168 C  
HETATM   20  O   UNL     1      -6.388   9.216  70.172  1.00  0.00    -0.040 OA 
HETATM   21  C   UNL     1      -9.581   8.746  69.001  1.00  0.00    -0.162 C  
HETATM   22  C   UNL     1      -7.947  10.327  68.648  1.00  0.00    -0.111 C  
HETATM   23  H   UNL     1      -5.691   9.842  70.016  1.00  0.00     0.000 HD 
HETATM   24  O   UNL     1      -8.703   9.299  68.006  1.00  0.00    -0.124 OA 
HETATM   25  C   UNL     1      -7.696   9.812  70.083  1.00  0.00    -0.177 C  
BRANCH  21  26
HETATM   26  C   UNL     1     -10.938   9.454  69.025  1.00  0.00    -0.067 C  
HETATM   27  H   UNL     1     -11.729  11.133  69.734  1.00  0.00     0.000 HD 
HETATM   28  O   UNL     1     -10.888  10.693  69.719  1.00  0.00    -0.259 OA 
ENDBRANCH  21  26
BRANCH  22  29
HETATM   29  O   UNL     1      -8.673  11.563  68.636  1.00  0.00    -0.158 OA 
BRANCH  29  30
HETATM   30  C   UNL     1      -7.930  12.778  68.280  1.00  0.00    -0.151 C  
HETATM   31  C   UNL     1      -6.550  12.805  68.987  1.00  0.00    -0.099 C  
HETATM   32  O   UNL     1      -5.577  12.165  68.133  1.00  0.00    -0.048 OA 
HETATM   33  C   UNL     1      -5.959  14.161  69.405  1.00  0.00    -0.095 C  
HETATM   34  C   UNL     1      -7.001  15.231  69.674  1.00  0.00    -0.188 C  
HETATM   35  N   UNL     1      -5.136  13.992  70.631  1.00  0.00    -0.100 NA 
HETATM   36  H   UNL     1      -4.732  12.182  68.566  1.00  0.00     0.000 HD 
HETATM   37  H1  UNL     1      -4.743  14.891  70.908  1.00  0.00     0.000 HD 
HETATM   38  H2  UNL     1      -4.416  13.279  70.514  1.00  0.00     0.000 HD 
HETATM   39  C   UNL     1      -7.952  15.348  68.484  1.00  0.00    -0.140 C  
HETATM   40  C   UNL     1      -8.806  14.060  68.364  1.00  0.00    -0.180 C  
HETATM   41  N   UNL     1      -8.800  16.545  68.675  1.00  0.00    -0.228 NA 
HETATM   42  H2  UNL     1      -8.252  17.393  68.824  1.00  0.00     0.000 HD 
HETATM   43  H1  UNL     1      -9.434  16.623  67.881  1.00  0.00     0.000 HD 
BRANCH  40  44
HETATM   44  O   UNL     1      -9.647  14.217  67.195  1.00  0.00    -0.229 OA 
BRANCH  44  45
HETATM   45  C   UNL     1     -10.951  14.751  67.442  1.00  0.00    -0.313 C  
HETATM   46  O   UNL     1     -10.976  16.173  67.292  1.00  0.00    -0.283 OA 
HETATM   47  C   UNL     1     -10.710  16.612  65.952  1.00  0.00    -0.175 C  
HETATM   48  C   UNL     1     -11.718  16.024  64.953  1.00  0.00     0.125 C  
HETATM   49  H1  UNL     1     -12.678  12.137  66.020  1.00  0.00     0.000 HD 
HETATM   50  O   UNL     1     -11.434  16.413  63.602  1.00  0.00    -1.446 OA 
HETATM   51  H2  UNL     1     -12.147  12.308  67.603  1.00  0.00     0.000 HD 
HETATM   52  C   UNL     1     -11.716  14.491  65.052  1.00  0.00    -0.392 C  
HETATM   53  H   UNL     1     -12.058  16.049  62.984  1.00  0.00     0.000 HD 
HETATM   54  O   UNL     1     -12.731  13.950  64.189  1.00  0.00    -0.665 OA 
HETATM   55  C   UNL     1     -11.984  14.064  66.507  1.00  0.00    -0.444 C  
HETATM   56  N   UNL     1     -11.999  12.587  66.633  1.00  0.00    -0.574 NA 
HETATM   57  H   UNL     1     -12.730  13.002  64.251  1.00  0.00     0.000 HD 
BRANCH  47  58
HETATM   58  C   UNL     1     -10.673  18.157  65.946  1.00  0.00    -0.124 C  
HETATM   59  H1  UNL     1     -10.478  19.791  67.263  1.00  0.00     0.000 HD 
HETATM   60  N   UNL     1     -10.502  18.771  67.268  1.00  0.00    -0.411 NA 
HETATM   61  H2  UNL     1      -9.670  18.399  67.726  1.00  0.00     0.000 HD 
ENDBRANCH  47  58
ENDBRANCH  44  45
ENDBRANCH  40  44
ENDBRANCH  29  30
ENDBRANCH  22  29
ENDBRANCH  18  19
ENDBRANCH   7  18
ENDBRANCH   2   5
TORSDOF 9
ENDMDL
MODEL      142
REMARK 921   NORMALIZED FREE ENERGY PREDICTED BY IDOCK:   -4.82 KCAL/MOL
REMARK 922        TOTAL FREE ENERGY PREDICTED BY IDOCK:  -10.17 KCAL/MOL
REMARK 923 INTER-LIGAND FREE ENERGY PREDICTED BY IDOCK:   -8.38 KCAL/MOL
REMARK 924 INTRA-LIGAND FREE ENERGY PREDICTED BY IDOCK:   -1.79 KCAL/MOL
REMARK 927      BINDING AFFINITY PREDICTED BY RF-SCORE:    0.00 PKD
ROOT
HETATM    1  N   UNL     1     -13.733  15.164  71.607  1.00  0.00    -0.441 NA 
HETATM    2  C   UNL     1     -13.155  14.305  70.571  1.00  0.00    -0.112 C  
HETATM    3  H1  UNL     1     -14.436  14.723  72.200  1.00  0.00     0.000 HD 
HETATM    4  H2  UNL     1     -14.114  16.011  71.186  1.00  0.00     0.000 HD 
ENDROOT
BRANCH   2   5
HETATM    5  C   UNL     1     -12.086  14.976  69.668  1.00  0.00    -0.300 C  
HETATM    6  O   UNL     1     -11.142  14.041  69.085  1.00  0.00    -0.253 OA 
HETATM    7  C   UNL     1     -10.266  14.717  68.167  1.00  0.00    -0.231 C  
HETATM    8  C   UNL     1      -9.405  15.784  68.918  1.00  0.00    -0.228 C  
HETATM    9  O   UNL     1     -10.713  15.357  71.646  1.00  0.00    -0.320 OA 
HETATM   10  H   UNL     1     -10.250  15.996  72.175  1.00  0.00     0.000 HD 
HETATM   11  N   UNL     1      -8.431  15.114  69.842  1.00  0.00    -0.359 NA 
HETATM   12  C   UNL     1     -10.299  16.764  69.676  1.00  0.00    -0.151 C  
HETATM   13  H2  UNL     1      -7.850  14.432  69.354  1.00  0.00     0.000 HD 
HETATM   14  O   UNL     1     -10.944  17.694  68.797  1.00  0.00    -0.243 OA 
HETATM   15  C   UNL     1     -11.331  16.018  70.531  1.00  0.00    -0.401 C  
HETATM   16  H1  UNL     1      -7.870  15.810  70.332  1.00  0.00     0.000 HD 
HETATM   17  H   UNL     1     -11.500  18.304  69.269  1.00  0.00     0.000 HD 
BRANCH   7  18
HETATM   18  O   UNL     1      -9.271  13.883  67.600  1.00  0.00    -0.185 OA 
BRANCH  18  19
HETATM   19  C   UNL     1      -8.843  12.711  68.280  1.00  0.00    -0.172 C  
HETATM   20  O   UNL     1     -10.676  11.586  67.042  1.00  0.00    -0.233 OA 
HETATM   21  C   UNL     1      -7.436  12.511  67.703  1.00  0.00    -0.139 C  
HETATM   22  C   UNL     1      -8.491  10.511  67.276  1.00  0.00    -0.122 C  
HETATM   23  H   UNL     1     -11.124  10.775  66.834  1.00  0.00     0.000 HD 
HETATM   24  O   UNL     1      -7.521  11.426  66.764  1.00  0.00    -0.141 OA 
HETATM   25  C   UNL     1      -9.570  11.392  67.944  1.00  0.00    -0.177 C  
BRANCH  21  26
HETATM   26  C   UNL     1      -6.357  12.270  68.762  1.00  0.00    -0.077 C  
HETATM   27  H   UNL     1      -5.381  13.298  70.154  1.00  0.00     0.000 HD 
HETATM   28  O   UNL     1      -6.051  13.447  69.497  1.00  0.00    -0.098 OA 
ENDBRANCH  21  26
BRANCH  22  29
HETATM   29  O   UNL     1      -7.882   9.606  68.206  1.00  0.00    -0.085 OA 
BRANCH  29  30
HETATM   30  C   UNL     1      -8.167   8.175  68.041  1.00  0.00    -0.129 C  
HETATM   31  C   UNL     1      -7.343   7.583  66.868  1.00  0.00    -0.093 C  
HETATM   32  O   UNL     1      -6.083   7.098  67.383  1.00  0.00    -0.034 OA 
HETATM   33  C   UNL     1      -7.954   6.446  66.033  1.00  0.00    -0.115 C  
HETATM   34  C   UNL     1      -9.472   6.451  66.005  1.00  0.00    -0.005 C  
HETATM   35  N   UNL     1      -7.460   6.530  64.635  1.00  0.00    -0.082 NA 
HETATM   36  H   UNL     1      -5.578   6.735  66.664  1.00  0.00     0.000 HD 
HETATM   37  H1  UNL     1      -7.866   5.776  64.081  1.00  0.00     0.000 HD 
HETATM   38  H2  UNL     1      -6.441   6.536  64.587  1.00  0.00     0.000 HD 
HETATM   39  C   UNL     1     -10.024   6.494  67.429  1.00  0.00    -0.143 C  
HETATM   40  C   UNL     1      -9.689   7.860  68.081  1.00  0.00    -0.159 C  
HETATM   41  N   UNL     1     -11.484   6.263  67.375  1.00  0.00    -0.616 NA 
HETATM   42  H2  UNL     1     -11.725   5.399  66.887  1.00  0.00     0.000 HD 
HETATM   43  H1  UNL     1     -11.852   6.292  68.325  1.00  0.00     0.000 HD 
BRANCH  40  44
HETATM   44  O   UNL     1     -10.196   7.818  69.438  1.00  0.00    -0.197 OA 
BRANCH  44  45
HETATM   45  C   UNL     1      -9.949   6.602  70.149  1.00  0.00    -0.173 C  
HETATM   46  O   UNL     1      -8.576   6.480  70.526  1.00  0.00    -0.139 OA 
HETATM   47  C   UNL     1      -8.148   7.478  71.462  1.00  0.00    -0.099 C  
HETATM   48  C   UNL     1      -8.984   7.444  72.750  1.00  0.00    -0.140 C  
HETATM   49  H1  UNL     1     -12.937   6.582  71.856  1.00  0.00     0.000 HD 
HETATM   50  O   UNL     1      -8.602   8.471  73.675  1.00  0.00    -0.325 OA 
HETATM   51  H2  UNL     1     -12.586   5.941  70.345  1.00  0.00     0.000 HD 
HETATM   52  C   UNL     1     -10.474   7.597  72.407  1.00  0.00    -0.248 C  
HETATM   53  H   UNL     1      -9.120   8.450  74.472  1.00  0.00     0.000 HD 
HETATM   54  O   UNL     1     -11.261   7.463  73.603  1.00  0.00    -0.588 OA 
HETATM   55  C   UNL     1     -10.886   6.520  71.387  1.00  0.00    -0.245 C  
HETATM   56  N   UNL     1     -12.323   6.635  71.044  1.00  0.00    -0.309 NA 
HETATM   57  H   UNL     1     -12.182   7.557  73.391  1.00  0.00     0.000 HD 
BRANCH  47  58
HETATM   58  C   UNL     1      -6.634   7.294  71.712  1.00  0.00    -0.047 C  
HETATM   59  H1  UNL     1      -4.857   6.805  70.687  1.00  0.00     0.000 HD 
HETATM   60  N   UNL     1      -5.857   6.928  70.522  1.00  0.00    -0.024 NA 
HETATM   61  H2  UNL     1      -6.013   7.605  69.775  1.00  0.00     0.000 HD 
ENDBRANCH  47  58
ENDBRANCH  44  45
ENDBRANCH  40  44
ENDBRANCH  29  30
ENDBRANCH  22  29
ENDBRANCH  18  19
ENDBRANCH   7  18
ENDBRANCH   2   5
TORSDOF 9
ENDMDL
MODEL      143
REMARK 921   NORMALIZED FREE ENERGY PREDICTED BY IDOCK:   -4.79 KCAL/MOL
REMARK 922        TOTAL FREE ENERGY PREDICTED BY IDOCK:  -10.12 KCAL/MOL
REMARK 923 INTER-LIGAND FREE ENERGY PREDICTED BY IDOCK:   -8.71 KCAL/MOL
REMARK 924 INTRA-LIGAND FREE ENERGY PREDICTED BY IDOCK:   -1.41 KCAL/MOL
REMARK 927      BINDING AFFINITY PREDICTED BY RF-SCORE:    0.00 PKD
ROOT
HETATM    1  N   UNL     1     -10.748  20.783  69.802  1.00  0.00    -0.174 NA 
HETATM    2  C   UNL     1     -10.031  19.516  69.636  1.00  0.00     0.088 C  
HETATM    3  H1  UNL     1     -10.917  21.068  70.766  1.00  0.00     0.000 HD 
HETATM    4  H2  UNL     1     -11.628  20.756  69.287  1.00  0.00     0.000 HD 
ENDROOT
BRANCH   2   5
HETATM    5  C   UNL     1      -9.774  19.082  68.169  1.00  0.00    -0.353 C  
HETATM    6  O   UNL     1      -9.634  17.648  67.999  1.00  0.00    -0.272 OA 
HETATM    7  C   UNL     1      -9.526  17.315  66.604  1.00  0.00    -0.265 C  
HETATM    8  C   UNL     1      -8.235  17.947  65.989  1.00  0.00    -0.068 C  
HETATM    9  O   UNL     1      -7.387  19.420  68.529  1.00  0.00    -0.304 OA 
HETATM   10  H   UNL     1      -6.597  19.858  68.233  1.00  0.00     0.000 HD 
HETATM   11  N   UNL     1      -7.010  17.296  66.562  1.00  0.00    -0.236 NA 
HETATM   12  C   UNL     1      -8.212  19.458  66.216  1.00  0.00    -0.330 C  
HETATM   13  H2  UNL     1      -7.029  16.283  66.447  1.00  0.00     0.000 HD 
HETATM   14  O   UNL     1      -9.131  20.145  65.356  1.00  0.00    -0.370 OA 
HETATM   15  C   UNL     1      -8.487  19.797  67.686  1.00  0.00    -0.318 C  
HETATM   16  H1  UNL     1      -6.168  17.708  66.162  1.00  0.00     0.000 HD 
HETATM   17  H   UNL     1      -9.117  21.085  65.497  1.00  0.00     0.000 HD 
BRANCH   7  18
HETATM   18  O   UNL     1      -9.324  15.935  66.355  1.00  0.00    -0.246 OA 
BRANCH  18  19
HETATM   19  C   UNL     1      -9.420  14.992  67.415  1.00  0.00    -0.201 C  
HETATM   20  O   UNL     1     -11.463  14.211  66.242  1.00  0.00    -0.332 OA 
HETATM   21  C   UNL     1      -8.164  14.141  67.190  1.00  0.00    -0.144 C  
HETATM   22  C   UNL     1      -9.875  12.603  67.178  1.00  0.00    -0.212 C  
HETATM   23  H   UNL     1     -12.174  13.582  66.200  1.00  0.00     0.000 HD 
HETATM   24  O   UNL     1      -8.599  12.900  66.610  1.00  0.00    -0.121 OA 
HETATM   25  C   UNL     1     -10.575  13.970  67.348  1.00  0.00    -0.278 C  
BRANCH  21  26
HETATM   26  C   UNL     1      -7.328  13.921  68.454  1.00  0.00    -0.115 C  
HETATM   27  H   UNL     1      -5.430  13.606  68.947  1.00  0.00     0.000 HD 
HETATM   28  O   UNL     1      -5.948  13.743  68.164  1.00  0.00    -0.099 OA 
ENDBRANCH  21  26
BRANCH  22  29
HETATM   29  O   UNL     1      -9.719  11.917  68.427  1.00  0.00    -0.203 OA 
BRANCH  29  30
HETATM   30  C   UNL     1     -10.323  10.584  68.546  1.00  0.00    -0.179 C  
HETATM   31  C   UNL     1     -11.350  10.549  69.707  1.00  0.00    -0.300 C  
HETATM   32  O   UNL     1     -12.651  10.905  69.188  1.00  0.00    -0.664 OA 
HETATM   33  C   UNL     1     -11.526   9.245  70.501  1.00  0.00    -0.248 C  
HETATM   34  C   UNL     1     -10.290   8.363  70.517  1.00  0.00    -0.220 C  
HETATM   35  N   UNL     1     -11.893   9.559  71.906  1.00  0.00    -0.350 NA 
HETATM   36  H   UNL     1     -13.280  10.884  69.900  1.00  0.00     0.000 HD 
HETATM   37  H1  UNL     1     -12.009   8.694  72.433  1.00  0.00     0.000 HD 
HETATM   38  H2  UNL     1     -12.718  10.157  71.963  1.00  0.00     0.000 HD 
HETATM   39  C   UNL     1      -9.801   8.119  69.090  1.00  0.00    -0.182 C  
HETATM   40  C   UNL     1      -9.270   9.442  68.482  1.00  0.00    -0.131 C  
HETATM   41  N   UNL     1      -8.751   7.077  69.125  1.00  0.00    -0.132 NA 
HETATM   42  H2  UNL     1      -9.064   6.221  69.583  1.00  0.00     0.000 HD 
HETATM   43  H1  UNL     1      -8.425   6.915  68.172  1.00  0.00     0.000 HD 
BRANCH  40  44
HETATM   44  O   UNL     1      -8.868   9.152  67.121  1.00  0.00    -0.119 OA 
BRANCH  44  45
HETATM   45  C   UNL     1      -7.538   8.650  66.966  1.00  0.00    -0.084 C  
HETATM   46  O   UNL     1      -7.382   7.937  65.737  1.00  0.00    -0.073 OA 
HETATM   47  C   UNL     1      -7.540   8.760  64.573  1.00  0.00    -0.111 C  
HETATM   48  C   UNL     1      -6.538   9.923  64.561  1.00  0.00    -0.124 C  
HETATM   49  H1  UNL     1      -5.973  11.355  68.408  1.00  0.00     0.000 HD 
HETATM   50  O   UNL     1      -6.718  10.786  63.429  1.00  0.00    -0.355 OA 
HETATM   51  H2  UNL     1      -6.567   9.968  69.145  1.00  0.00     0.000 HD 
HETATM   52  C   UNL     1      -6.677  10.744  65.852  1.00  0.00    -0.084 C  
HETATM   53  H   UNL     1      -6.097  11.506  63.422  1.00  0.00     0.000 HD 
HETATM   54  O   UNL     1      -5.671  11.771  65.884  1.00  0.00    -0.470 OA 
HETATM   55  C   UNL     1      -6.521   9.821  67.074  1.00  0.00    -0.066 C  
HETATM   56  N   UNL     1      -6.641  10.587  68.337  1.00  0.00    -0.055 NA 
HETATM   57  H   UNL     1      -5.757  12.278  66.682  1.00  0.00     0.000 HD 
BRANCH  47  58
HETATM   58  C   UNL     1      -7.443   7.856  63.323  1.00  0.00    -0.119 C  
HETATM   59  H1  UNL     1      -6.270   7.583  61.592  1.00  0.00     0.000 HD 
HETATM   60  N   UNL     1      -6.334   8.180  62.418  1.00  0.00    -0.086 NA 
HETATM   61  H2  UNL     1      -5.449   8.177  62.927  1.00  0.00     0.000 HD 
ENDBRANCH  47  58
ENDBRANCH  44  45
ENDBRANCH  40  44
ENDBRANCH  29  30
ENDBRANCH  22  29
ENDBRANCH  18  19
ENDBRANCH   7  18
ENDBRANCH   2   5
TORSDOF 9
ENDMDL
MODEL      144
REMARK 921   NORMALIZED FREE ENERGY PREDICTED BY IDOCK:   -4.78 KCAL/MOL
REMARK 922        TOTAL FREE ENERGY PREDICTED BY IDOCK:  -10.11 KCAL/MOL
REMARK 923 INTER-LIGAND FREE ENERGY PREDICTED BY IDOCK:   -8.38 KCAL/MOL
REMARK 924 INTRA-LIGAND FREE ENERGY PREDICTED BY IDOCK:   -1.72 KCAL/MOL
REMARK 927      BINDING AFFINITY PREDICTED BY RF-SCORE:    0.00 PKD
ROOT
HETATM    1  N   UNL     1      -9.768   1.472  69.427  1.00  0.00    -0.005 NA 
HETATM    2  C   UNL     1      -9.150   2.778  69.182  1.00  0.00    -0.135 C  
HETATM    3  H1  UNL     1      -9.805   0.847  68.623  1.00  0.00     0.000 HD 
HETATM    4  H2  UNL     1     -10.702   1.595  69.816  1.00  0.00     0.000 HD 
ENDROOT
BRANCH   2   5
HETATM    5  C   UNL     1      -9.094   3.729  70.407  1.00  0.00    -0.125 C  
HETATM    6  O   UNL     1      -8.842   5.116  70.059  1.00  0.00    -0.107 OA 
HETATM    7  C   UNL     1      -8.931   5.951  71.226  1.00  0.00    -0.140 C  
HETATM    8  C   UNL     1      -7.827   5.561  72.263  1.00  0.00    -0.103 C  
HETATM    9  O   UNL     1      -6.726   3.207  70.655  1.00  0.00    -0.031 OA 
HETATM   10  H   UNL     1      -6.043   2.891  71.235  1.00  0.00     0.000 HD 
HETATM   11  N   UNL     1      -6.466   5.907  71.733  1.00  0.00    -0.051 NA 
HETATM   12  C   UNL     1      -7.918   4.078  72.618  1.00  0.00    -0.086 C  
HETATM   13  H2  UNL     1      -6.402   6.888  71.461  1.00  0.00     0.000 HD 
HETATM   14  O   UNL     1      -9.029   3.798  73.479  1.00  0.00    -0.095 OA 
HETATM   15  C   UNL     1      -7.981   3.213  71.352  1.00  0.00    -0.059 C  
HETATM   16  H1  UNL     1      -5.746   5.653  72.408  1.00  0.00     0.000 HD 
HETATM   17  H   UNL     1      -9.086   2.876  73.700  1.00  0.00     0.000 HD 
BRANCH   7  18
HETATM   18  O   UNL     1      -8.636   7.315  70.982  1.00  0.00    -0.127 OA 
BRANCH  18  19
HETATM   19  C   UNL     1      -8.127   7.725  69.720  1.00  0.00    -0.117 C  
HETATM   20  O   UNL     1     -10.501   7.694  68.999  1.00  0.00    -0.212 OA 
HETATM   21  C   UNL     1      -7.555   9.109  70.048  1.00  0.00    -0.080 C  
HETATM   22  C   UNL     1      -9.020   9.520  68.323  1.00  0.00    -0.124 C  
HETATM   23  H   UNL     1     -11.133   7.867  68.311  1.00  0.00     0.000 HD 
HETATM   24  O   UNL     1      -8.476  10.078  69.520  1.00  0.00    -0.150 OA 
HETATM   25  C   UNL     1      -9.153   8.006  68.602  1.00  0.00    -0.140 C  
BRANCH  21  26
HETATM   26  C   UNL     1      -6.130   9.332  69.533  1.00  0.00    -0.040 C  
HETATM   27  H   UNL     1      -4.769  10.779  69.498  1.00  0.00     0.000 HD 
HETATM   28  O   UNL     1      -5.652  10.640  69.817  1.00  0.00    -0.038 OA 
ENDBRANCH  21  26
BRANCH  22  29
HETATM   29  O   UNL     1      -8.159   9.791  67.208  1.00  0.00    -0.115 OA 
BRANCH  29  30
HETATM   30  C   UNL     1      -8.711   9.586  65.863  1.00  0.00    -0.147 C  
HETATM   31  C   UNL     1      -8.259   8.219  65.287  1.00  0.00    -0.148 C  
HETATM   32  O   UNL     1      -9.230   7.215  65.653  1.00  0.00    -0.380 OA 
HETATM   33  C   UNL     1      -8.032   8.093  63.772  1.00  0.00    -0.137 C  
HETATM   34  C   UNL     1      -7.650   9.398  63.096  1.00  0.00    -0.108 C  
HETATM   35  N   UNL     1      -6.961   7.098  63.506  1.00  0.00    -0.058 NA 
HETATM   36  H   UNL     1      -8.953   6.378  65.300  1.00  0.00     0.000 HD 
HETATM   37  H1  UNL     1      -6.811   7.015  62.501  1.00  0.00     0.000 HD 
HETATM   38  H2  UNL     1      -7.158   6.197  63.941  1.00  0.00     0.000 HD 
HETATM   39  C   UNL     1      -8.661  10.488  63.449  1.00  0.00    -0.172 C  
HETATM   40  C   UNL     1      -8.553  10.837  64.955  1.00  0.00    -0.110 C  
HETATM   41  N   UNL     1      -8.396  11.668  62.598  1.00  0.00    -0.546 NA 
HETATM   42  H2  UNL     1      -8.396  11.441  61.603  1.00  0.00     0.000 HD 
HETATM   43  H1  UNL     1      -9.071  12.396  62.834  1.00  0.00     0.000 HD 
BRANCH  40  44
HETATM   44  O   UNL     1      -9.564  11.838  65.232  1.00  0.00    -0.229 OA 
BRANCH  44  45
HETATM   45  C   UNL     1     -10.901  11.343  65.357  1.00  0.00    -0.229 C  
HETATM   46  O   UNL     1     -11.293  11.223  66.726  1.00  0.00    -0.357 OA 
HETATM   47  C   UNL     1     -11.363  12.480  67.414  1.00  0.00    -0.313 C  
HETATM   48  C   UNL     1     -12.346  13.445  66.735  1.00  0.00    -0.231 C  
HETATM   49  H1  UNL     1     -12.149  13.012  62.619  1.00  0.00     0.000 HD 
HETATM   50  O   UNL     1     -12.387  14.724  67.381  1.00  0.00    -0.517 OA 
HETATM   51  H2  UNL     1     -11.426  11.498  62.688  1.00  0.00     0.000 HD 
HETATM   52  C   UNL     1     -11.956  13.633  65.261  1.00  0.00    -0.376 C  
HETATM   53  H   UNL     1     -12.996  15.321  66.961  1.00  0.00     0.000 HD 
HETATM   54  O   UNL     1     -12.936  14.455  64.603  1.00  0.00    -0.592 OA 
HETATM   55  C   UNL     1     -11.874  12.261  64.566  1.00  0.00    -0.369 C  
HETATM   56  N   UNL     1     -11.510  12.410  63.137  1.00  0.00    -0.316 NA 
HETATM   57  H   UNL     1     -12.695  14.571  63.692  1.00  0.00     0.000 HD 
BRANCH  47  58
HETATM   58  C   UNL     1     -11.703  12.204  68.896  1.00  0.00    -0.327 C  
HETATM   59  H1  UNL     1     -12.315  10.637  70.167  1.00  0.00     0.000 HD 
HETATM   60  N   UNL     1     -12.090  10.819  69.189  1.00  0.00    -0.642 NA 
HETATM   61  H2  UNL     1     -11.369  10.174  68.864  1.00  0.00     0.000 HD 
ENDBRANCH  47  58
ENDBRANCH  44  45
ENDBRANCH  40  44
ENDBRANCH  29  30
ENDBRANCH  22  29
ENDBRANCH  18  19
ENDBRANCH   7  18
ENDBRANCH   2   5
TORSDOF 9
ENDMDL
MODEL      145
REMARK 921   NORMALIZED FREE ENERGY PREDICTED BY IDOCK:   -4.76 KCAL/MOL
REMARK 922        TOTAL FREE ENERGY PREDICTED BY IDOCK:  -10.07 KCAL/MOL
REMARK 923 INTER-LIGAND FREE ENERGY PREDICTED BY IDOCK:   -8.00 KCAL/MOL
REMARK 924 INTRA-LIGAND FREE ENERGY PREDICTED BY IDOCK:   -2.07 KCAL/MOL
REMARK 927      BINDING AFFINITY PREDICTED BY RF-SCORE:    0.00 PKD
ROOT
HETATM    1  N   UNL     1      -5.354  19.575  69.969  1.00  0.00    -0.201 NA 
HETATM    2  C   UNL     1      -6.783  19.811  70.198  1.00  0.00    -0.128 C  
HETATM    3  H1  UNL     1      -4.722  20.087  70.582  1.00  0.00     0.000 HD 
HETATM    4  H2  UNL     1      -5.122  19.761  68.994  1.00  0.00     0.000 HD 
ENDROOT
BRANCH   2   5
HETATM    5  C   UNL     1      -7.745  19.031  69.264  1.00  0.00    -0.079 C  
HETATM    6  O   UNL     1      -7.237  17.736  68.850  1.00  0.00    -0.263 OA 
HETATM    7  C   UNL     1      -8.233  17.024  68.094  1.00  0.00    -0.217 C  
HETATM    8  C   UNL     1      -8.572  17.793  66.776  1.00  0.00    -0.252 C  
HETATM    9  O   UNL     1      -6.767  20.189  67.355  1.00  0.00    -0.205 OA 
HETATM   10  H   UNL     1      -6.929  20.732  66.591  1.00  0.00     0.000 HD 
HETATM   11  N   UNL     1      -7.398  17.774  65.842  1.00  0.00    -0.498 NA 
HETATM   12  C   UNL     1      -9.009  19.225  67.082  1.00  0.00    -0.296 C  
HETATM   13  H2  UNL     1      -7.075  16.824  65.655  1.00  0.00     0.000 HD 
HETATM   14  O   UNL     1     -10.335  19.278  67.625  1.00  0.00    -0.377 OA 
HETATM   15  C   UNL     1      -8.010  19.915  68.019  1.00  0.00    -0.279 C  
HETATM   16  H1  UNL     1      -7.619  18.276  64.982  1.00  0.00     0.000 HD 
HETATM   17  H   UNL     1     -10.606  20.169  67.815  1.00  0.00     0.000 HD 
BRANCH   7  18
HETATM   18  O   UNL     1      -7.792  15.772  67.599  1.00  0.00    -0.133 OA 
BRANCH  18  19
HETATM   19  C   UNL     1      -8.731  14.819  67.119  1.00  0.00    -0.221 C  
HETATM   20  O   UNL     1      -6.773  13.304  66.944  1.00  0.00    -0.400 OA 
HETATM   21  C   UNL     1      -9.621  14.609  68.350  1.00  0.00    -0.217 C  
HETATM   22  C   UNL     1      -8.904  12.486  67.827  1.00  0.00    -0.178 C  
HETATM   23  H   UNL     1      -6.447  12.433  66.749  1.00  0.00     0.000 HD 
HETATM   24  O   UNL     1      -9.256  13.339  68.917  1.00  0.00     0.064 OA 
HETATM   25  C   UNL     1      -8.202  13.404  66.801  1.00  0.00     0.189 C  
BRANCH  21  26
HETATM   26  C   UNL     1     -11.121  14.696  68.056  1.00  0.00    -0.281 C  
HETATM   27  H   UNL     1     -12.836  14.138  68.888  1.00  0.00     0.000 HD 
HETATM   28  O   UNL     1     -11.906  14.084  69.070  1.00  0.00    -0.312 OA 
ENDBRANCH  21  26
BRANCH  22  29
HETATM   29  O   UNL     1     -10.073  11.861  67.282  1.00  0.00    -0.195 OA 
BRANCH  29  30
HETATM   30  C   UNL     1     -10.445  10.544  67.813  1.00  0.00    -0.224 C  
HETATM   31  C   UNL     1     -11.222  10.690  69.147  1.00  0.00    -0.265 C  
HETATM   32  O   UNL     1     -12.634  10.782  68.856  1.00  0.00    -0.735 OA 
HETATM   33  C   UNL     1     -11.055   9.605  70.223  1.00  0.00    -0.276 C  
HETATM   34  C   UNL     1      -9.724   8.878  70.163  1.00  0.00    -0.199 C  
HETATM   35  N   UNL     1     -11.196  10.212  71.572  1.00  0.00    -0.031 NA 
HETATM   36  H   UNL     1     -13.110  10.871  69.673  1.00  0.00     0.000 HD 
HETATM   37  H1  UNL     1     -11.085   9.492  72.286  1.00  0.00     0.000 HD 
HETATM   38  H2  UNL     1     -12.073  10.722  71.674  1.00  0.00     0.000 HD 
HETATM   39  C   UNL     1      -9.479   8.346  68.752  1.00  0.00    -0.147 C  
HETATM   40  C   UNL     1      -9.268   9.529  67.773  1.00  0.00    -0.124 C  
HETATM   41  N   UNL     1      -8.301   7.452  68.784  1.00  0.00    -0.128 NA 
HETATM   42  H2  UNL     1      -8.396   6.705  69.473  1.00  0.00     0.000 HD 
HETATM   43  H1  UNL     1      -8.139   7.097  67.842  1.00  0.00     0.000 HD 
BRANCH  40  44
HETATM   44  O   UNL     1      -9.089   8.960  66.453  1.00  0.00    -0.152 OA 
BRANCH  44  45
HETATM   45  C   UNL     1      -7.743   8.621  66.106  1.00  0.00    -0.097 C  
HETATM   46  O   UNL     1      -7.536   7.207  66.114  1.00  0.00    -0.087 OA 
HETATM   47  C   UNL     1      -8.297   6.511  65.117  1.00  0.00    -0.100 C  
HETATM   48  C   UNL     1      -7.976   7.017  63.703  1.00  0.00    -0.070 C  
HETATM   49  H1  UNL     1      -7.347  11.112  63.765  1.00  0.00     0.000 HD 
HETATM   50  O   UNL     1      -8.767   6.367  62.698  1.00  0.00    -0.341 OA 
HETATM   51  H2  UNL     1      -7.062  11.168  65.418  1.00  0.00     0.000 HD 
HETATM   52  C   UNL     1      -8.206   8.534  63.627  1.00  0.00    -0.128 C  
HETATM   53  H   UNL     1      -8.568   6.680  61.823  1.00  0.00     0.000 HD 
HETATM   54  O   UNL     1      -7.807   9.019  62.334  1.00  0.00    -0.116 OA 
HETATM   55  C   UNL     1      -7.387   9.238  64.725  1.00  0.00    -0.103 C  
HETATM   56  N   UNL     1      -7.581  10.707  64.671  1.00  0.00     0.052 NA 
HETATM   57  H   UNL     1      -7.950   9.958  62.287  1.00  0.00     0.000 HD 
BRANCH  47  58
HETATM   58  C   UNL     1      -8.057   4.994  65.293  1.00  0.00    -0.117 C  
HETATM   59  H1  UNL     1      -8.679   3.140  64.506  1.00  0.00     0.000 HD 
HETATM   60  N   UNL     1      -8.838   4.142  64.389  1.00  0.00    -0.132 NA 
HETATM   61  H2  UNL     1      -8.679   4.415  63.419  1.00  0.00     0.000 HD 
ENDBRANCH  47  58
ENDBRANCH  44  45
ENDBRANCH  40  44
ENDBRANCH  29  30
ENDBRANCH  22  29
ENDBRANCH  18  19
ENDBRANCH   7  18
ENDBRANCH   2   5
TORSDOF 9
ENDMDL
MODEL      146
REMARK 921   NORMALIZED FREE ENERGY PREDICTED BY IDOCK:   -4.74 KCAL/MOL
REMARK 922        TOTAL FREE ENERGY PREDICTED BY IDOCK:  -10.04 KCAL/MOL
REMARK 923 INTER-LIGAND FREE ENERGY PREDICTED BY IDOCK:   -8.41 KCAL/MOL
REMARK 924 INTRA-LIGAND FREE ENERGY PREDICTED BY IDOCK:   -1.64 KCAL/MOL
REMARK 927      BINDING AFFINITY PREDICTED BY RF-SCORE:    0.00 PKD
ROOT
HETATM    1  N   UNL     1      -8.278   2.257  74.556  1.00  0.00    -0.057 NA 
HETATM    2  C   UNL     1      -8.936   2.513  73.272  1.00  0.00    -0.077 C  
HETATM    3  H1  UNL     1      -8.297   1.288  74.872  1.00  0.00     0.000 HD 
HETATM    4  H2  UNL     1      -8.668   2.866  75.275  1.00  0.00     0.000 HD 
ENDROOT
BRANCH   2   5
HETATM    5  C   UNL     1      -8.909   3.988  72.791  1.00  0.00    -0.102 C  
HETATM    6  O   UNL     1      -8.779   4.132  71.353  1.00  0.00    -0.101 OA 
HETATM    7  C   UNL     1      -8.888   5.515  70.974  1.00  0.00    -0.140 C  
HETATM    8  C   UNL     1      -7.719   6.346  71.595  1.00  0.00    -0.100 C  
HETATM    9  O   UNL     1      -6.499   4.022  73.160  1.00  0.00    -0.032 OA 
HETATM   10  H   UNL     1      -5.772   4.453  73.594  1.00  0.00     0.000 HD 
HETATM   11  N   UNL     1      -6.410   5.954  70.974  1.00  0.00    -0.038 NA 
HETATM   12  C   UNL     1      -7.680   6.174  73.113  1.00  0.00    -0.097 C  
HETATM   13  H2  UNL     1      -6.434   6.032  69.957  1.00  0.00     0.000 HD 
HETATM   14  O   UNL     1      -8.732   6.899  73.764  1.00  0.00    -0.133 OA 
HETATM   15  C   UNL     1      -7.724   4.690  73.500  1.00  0.00    -0.091 C  
HETATM   16  H1  UNL     1      -5.648   6.496  71.379  1.00  0.00     0.000 HD 
HETATM   17  H   UNL     1      -8.708   6.792  74.708  1.00  0.00     0.000 HD 
BRANCH   7  18
HETATM   18  O   UNL     1      -8.710   5.748  69.588  1.00  0.00    -0.120 OA 
BRANCH  18  19
HETATM   19  C   UNL     1      -9.048   7.007  69.022  1.00  0.00    -0.135 C  
HETATM   20  O   UNL     1      -7.828   6.189  67.022  1.00  0.00    -0.099 OA 
HETATM   21  C   UNL     1     -10.577   6.914  68.946  1.00  0.00    -0.221 C  
HETATM   22  C   UNL     1      -9.951   7.381  66.782  1.00  0.00    -0.230 C  
HETATM   23  H   UNL     1      -7.565   6.346  66.123  1.00  0.00     0.000 HD 
HETATM   24  O   UNL     1     -10.913   6.678  67.568  1.00  0.00    -0.309 OA 
HETATM   25  C   UNL     1      -8.621   7.262  67.561  1.00  0.00    -0.122 C  
BRANCH  21  26
HETATM   26  C   UNL     1     -11.303   8.138  69.511  1.00  0.00     0.291 C  
HETATM   27  H   UNL     1     -10.852   9.911  70.285  1.00  0.00     0.000 HD 
HETATM   28  O   UNL     1     -10.402   9.152  69.934  1.00  0.00    -0.195 OA 
ENDBRANCH  21  26
BRANCH  22  29
HETATM   29  O   UNL     1     -10.352   8.746  66.603  1.00  0.00    -0.279 OA 
BRANCH  29  30
HETATM   30  C   UNL     1      -9.361   9.674  66.044  1.00  0.00    -0.207 C  
HETATM   31  C   UNL     1      -8.305   8.908  65.204  1.00  0.00    -0.161 C  
HETATM   32  O   UNL     1      -8.761   8.838  63.835  1.00  0.00    -0.402 OA 
HETATM   33  C   UNL     1      -6.861   9.435  65.170  1.00  0.00    -0.084 C  
HETATM   34  C   UNL     1      -6.465  10.221  66.407  1.00  0.00    -0.087 C  
HETATM   35  N   UNL     1      -5.917   8.299  65.015  1.00  0.00    -0.045 NA 
HETATM   36  H   UNL     1      -8.114   8.369  63.321  1.00  0.00     0.000 HD 
HETATM   37  H1  UNL     1      -4.959   8.649  64.993  1.00  0.00     0.000 HD 
HETATM   38  H2  UNL     1      -6.135   7.727  64.200  1.00  0.00     0.000 HD 
HETATM   39  C   UNL     1      -7.486  11.325  66.678  1.00  0.00    -0.133 C  
HETATM   40  C   UNL     1      -8.841  10.697  67.092  1.00  0.00    -0.137 C  
HETATM   41  N   UNL     1      -6.952  12.209  67.737  1.00  0.00    -0.097 NA 
HETATM   42  H2  UNL     1      -6.028  12.578  67.510  1.00  0.00     0.000 HD 
HETATM   43  H1  UNL     1      -7.634  12.946  67.917  1.00  0.00     0.000 HD 
BRANCH  40  44
HETATM   44  O   UNL     1      -9.772  11.790  67.287  1.00  0.00    -0.178 OA 
BRANCH  44  45
HETATM   45  C   UNL     1      -9.489  12.980  66.546  1.00  0.00    -0.245 C  
HETATM   46  O   UNL     1     -10.070  12.939  65.240  1.00  0.00    -0.284 OA 
HETATM   47  C   UNL     1     -11.504  12.915  65.252  1.00  0.00    -0.313 C  
HETATM   48  C   UNL     1     -12.085  14.138  65.978  1.00  0.00    -0.432 C  
HETATM   49  H1  UNL     1      -9.710  15.125  69.227  1.00  0.00     0.000 HD 
HETATM   50  O   UNL     1     -13.518  14.103  66.044  1.00  0.00    -0.406 OA 
HETATM   51  H2  UNL     1      -8.373  14.281  68.664  1.00  0.00     0.000 HD 
HETATM   52  C   UNL     1     -11.513  14.219  67.401  1.00  0.00    -0.347 C  
HETATM   53  H   UNL     1     -13.877  14.859  66.493  1.00  0.00     0.000 HD 
HETATM   54  O   UNL     1     -11.980  15.419  68.042  1.00  0.00    -0.443 OA 
HETATM   55  C   UNL     1      -9.975  14.222  67.343  1.00  0.00    -0.242 C  
HETATM   56  N   UNL     1      -9.392  14.310  68.703  1.00  0.00    -0.197 NA 
HETATM   57  H   UNL     1     -11.625  15.469  68.922  1.00  0.00     0.000 HD 
BRANCH  47  58
HETATM   58  C   UNL     1     -12.000  12.777  63.795  1.00  0.00    -0.510 C  
HETATM   59  H1  UNL     1     -12.749  13.944  62.206  1.00  0.00     0.000 HD 
HETATM   60  N   UNL     1     -12.421  14.036  63.169  1.00  0.00    -1.070 NA 
HETATM   61  H2  UNL     1     -11.672  14.727  63.224  1.00  0.00     0.000 HD 
ENDBRANCH  47  58
ENDBRANCH  44  45
ENDBRANCH  40  44
ENDBRANCH  29  30
ENDBRANCH  22  29
ENDBRANCH  18  19
ENDBRANCH   7  18
ENDBRANCH   2   5
TORSDOF 9
ENDMDL
MODEL      147
REMARK 921   NORMALIZED FREE ENERGY PREDICTED BY IDOCK:   -4.73 KCAL/MOL
REMARK 922        TOTAL FREE ENERGY PREDICTED BY IDOCK:  -10.03 KCAL/MOL
REMARK 923 INTER-LIGAND FREE ENERGY PREDICTED BY IDOCK:   -9.19 KCAL/MOL
REMARK 924 INTRA-LIGAND FREE ENERGY PREDICTED BY IDOCK:   -0.84 KCAL/MOL
REMARK 927      BINDING AFFINITY PREDICTED BY RF-SCORE:    0.00 PKD
ROOT
HETATM    1  N   UNL     1     -10.809  19.707  67.643  1.00  0.00    -0.374 NA 
HETATM    2  C   UNL     1      -9.886  19.105  68.609  1.00  0.00    -0.420 C  
HETATM    3  H1  UNL     1     -11.550  20.281  68.045  1.00  0.00     0.000 HD 
HETATM    4  H2  UNL     1     -11.213  18.984  67.049  1.00  0.00     0.000 HD 
ENDROOT
BRANCH   2   5
HETATM    5  C   UNL     1      -8.760  18.230  67.999  1.00  0.00    -0.276 C  
HETATM    6  O   UNL     1      -8.098  17.371  68.964  1.00  0.00    -0.212 OA 
HETATM    7  C   UNL     1      -7.159  16.504  68.305  1.00  0.00    -0.151 C  
HETATM    8  C   UNL     1      -6.025  17.340  67.627  1.00  0.00    -0.136 C  
HETATM    9  O   UNL     1      -7.198  20.069  68.346  1.00  0.00    -0.299 OA 
HETATM   10  H   UNL     1      -6.563  20.654  67.947  1.00  0.00     0.000 HD 
HETATM   11  N   UNL     1      -5.167  17.998  68.669  1.00  0.00    -0.154 NA 
HETATM   12  C   UNL     1      -6.614  18.374  66.668  1.00  0.00    -0.191 C  
HETATM   13  H2  UNL     1      -4.794  17.322  69.336  1.00  0.00     0.000 HD 
HETATM   14  O   UNL     1      -7.091  17.773  65.457  1.00  0.00    -0.446 OA 
HETATM   15  C   UNL     1      -7.726  19.183  67.347  1.00  0.00    -0.238 C  
HETATM   16  H1  UNL     1      -4.427  18.543  68.227  1.00  0.00     0.000 HD 
HETATM   17  H   UNL     1      -7.458  18.415  64.861  1.00  0.00     0.000 HD 
BRANCH   7  18
HETATM   18  O   UNL     1      -6.425  15.674  69.187  1.00  0.00    -0.117 OA 
BRANCH  18  19
HETATM   19  C   UNL     1      -6.625  14.266  69.182  1.00  0.00    -0.114 C  
HETATM   20  O   UNL     1      -9.017  14.826  69.536  1.00  0.00    -0.416 OA 
HETATM   21  C   UNL     1      -6.238  13.901  67.744  1.00  0.00    -0.145 C  
HETATM   22  C   UNL     1      -8.371  13.065  67.965  1.00  0.00    -0.169 C  
HETATM   23  H   UNL     1      -9.910  14.514  69.617  1.00  0.00     0.000 HD 
HETATM   24  O   UNL     1      -7.463  13.653  67.033  1.00  0.00     0.015 OA 
HETATM   25  C   UNL     1      -8.076  13.759  69.315  1.00  0.00     0.423 C  
BRANCH  21  26
HETATM   26  C   UNL     1      -5.268  12.721  67.642  1.00  0.00    -0.101 C  
HETATM   27  H   UNL     1      -4.638  11.425  66.274  1.00  0.00     0.000 HD 
HETATM   28  O   UNL     1      -5.240  12.157  66.338  1.00  0.00    -0.304 OA 
ENDBRANCH  21  26
BRANCH  22  29
HETATM   29  O   UNL     1      -8.171  11.647  68.032  1.00  0.00    -0.131 OA 
BRANCH  29  30
HETATM   30  C   UNL     1      -8.682  10.948  69.217  1.00  0.00     0.029 C  
HETATM   31  C   UNL     1      -7.968   9.584  69.400  1.00  0.00    -0.099 C  
HETATM   32  O   UNL     1      -6.800   9.776  70.227  1.00  0.00    -0.091 OA 
HETATM   33  C   UNL     1      -8.756   8.410  70.002  1.00  0.00    -0.133 C  
HETATM   34  C   UNL     1     -10.254   8.489  69.767  1.00  0.00    -0.206 C  
HETATM   35  N   UNL     1      -8.261   7.129  69.435  1.00  0.00    -0.130 NA 
HETATM   36  H   UNL     1      -6.362   8.940  70.339  1.00  0.00     0.000 HD 
HETATM   37  H1  UNL     1      -8.784   6.351  69.835  1.00  0.00     0.000 HD 
HETATM   38  H2  UNL     1      -7.255   7.019  69.557  1.00  0.00     0.000 HD 
HETATM   39  C   UNL     1     -10.786   9.847  70.222  1.00  0.00    -0.310 C  
HETATM   40  C   UNL     1     -10.234  10.964  69.298  1.00  0.00    -0.166 C  
HETATM   41  N   UNL     1     -12.264   9.805  70.198  1.00  0.00    -0.472 NA 
HETATM   42  H2  UNL     1     -12.642   9.033  70.747  1.00  0.00     0.000 HD 
HETATM   43  H1  UNL     1     -12.619  10.712  70.502  1.00  0.00     0.000 HD 
BRANCH  40  44
HETATM   44  O   UNL     1     -10.736  12.223  69.810  1.00  0.00     0.250 OA 
BRANCH  44  45
HETATM   45  C   UNL     1     -12.092  12.528  69.471  1.00  0.00    -0.187 C  
HETATM   46  O   UNL     1     -12.894  12.735  70.636  1.00  0.00    -0.112 OA 
HETATM   47  C   UNL     1     -12.502  13.881  71.405  1.00  0.00    -0.340 C  
HETATM   48  C   UNL     1     -12.558  15.169  70.571  1.00  0.00    -0.380 C  
HETATM   49  H1  UNL     1     -11.343  14.403  66.684  1.00  0.00     0.000 HD 
HETATM   50  O   UNL     1     -12.118  16.317  71.311  1.00  0.00    -0.606 OA 
HETATM   51  H2  UNL     1     -11.590  12.747  66.801  1.00  0.00     0.000 HD 
HETATM   52  C   UNL     1     -11.690  15.014  69.313  1.00  0.00    -0.323 C  
HETATM   53  H   UNL     1     -12.153  17.114  70.795  1.00  0.00     0.000 HD 
HETATM   54  O   UNL     1     -11.824  16.182  68.485  1.00  0.00    -0.313 OA 
HETATM   55  C   UNL     1     -12.130  13.764  68.529  1.00  0.00    -0.292 C  
HETATM   56  N   UNL     1     -11.317  13.592  67.302  1.00  0.00    -0.309 NA 
HETATM   57  H   UNL     1     -11.288  16.085  67.707  1.00  0.00     0.000 HD 
BRANCH  47  58
HETATM   58  C   UNL     1     -13.379  13.937  72.676  1.00  0.00    -0.538 C  
HETATM   59  H1  UNL     1     -13.473  14.886  74.556  1.00  0.00     0.000 HD 
HETATM   60  N   UNL     1     -12.893  14.850  73.716  1.00  0.00    -0.505 NA 
HETATM   61  H2  UNL     1     -12.764  15.787  73.334  1.00  0.00     0.000 HD 
ENDBRANCH  47  58
ENDBRANCH  44  45
ENDBRANCH  40  44
ENDBRANCH  29  30
ENDBRANCH  22  29
ENDBRANCH  18  19
ENDBRANCH   7  18
ENDBRANCH   2   5
TORSDOF 9
ENDMDL
MODEL      148
REMARK 921   NORMALIZED FREE ENERGY PREDICTED BY IDOCK:   -4.72 KCAL/MOL
REMARK 922        TOTAL FREE ENERGY PREDICTED BY IDOCK:  -10.01 KCAL/MOL
REMARK 923 INTER-LIGAND FREE ENERGY PREDICTED BY IDOCK:   -8.38 KCAL/MOL
REMARK 924 INTRA-LIGAND FREE ENERGY PREDICTED BY IDOCK:   -1.63 KCAL/MOL
REMARK 927      BINDING AFFINITY PREDICTED BY RF-SCORE:    0.00 PKD
ROOT
HETATM    1  N   UNL     1     -10.551  20.337  69.254  1.00  0.00    -0.329 NA 
HETATM    2  C   UNL     1      -9.794  19.083  69.254  1.00  0.00    -0.154 C  
HETATM    3  H1  UNL     1     -10.938  20.616  70.155  1.00  0.00     0.000 HD 
HETATM    4  H2  UNL     1     -11.292  20.298  68.554  1.00  0.00     0.000 HD 
ENDROOT
BRANCH   2   5
HETATM    5  C   UNL     1      -9.207  18.658  67.883  1.00  0.00    -0.294 C  
HETATM    6  O   UNL     1      -9.083  17.221  67.719  1.00  0.00    -0.230 OA 
HETATM    7  C   UNL     1      -8.654  16.902  66.384  1.00  0.00    -0.293 C  
HETATM    8  C   UNL     1      -7.230  17.489  66.113  1.00  0.00    -0.308 C  
HETATM    9  O   UNL     1      -6.966  18.893  68.814  1.00  0.00    -0.280 OA 
HETATM   10  H   UNL     1      -6.113  19.302  68.727  1.00  0.00     0.000 HD 
HETATM   11  N   UNL     1      -6.205  16.781  66.949  1.00  0.00    -0.186 NA 
HETATM   12  C   UNL     1      -7.206  18.994  66.373  1.00  0.00    -0.236 C  
HETATM   13  H2  UNL     1      -6.232  15.770  66.810  1.00  0.00     0.000 HD 
HETATM   14  O   UNL     1      -7.865  19.729  65.333  1.00  0.00    -0.347 OA 
HETATM   15  C   UNL     1      -7.816  19.326  67.741  1.00  0.00    -0.275 C  
HETATM   16  H1  UNL     1      -5.276  17.163  66.773  1.00  0.00     0.000 HD 
HETATM   17  H   UNL     1      -7.851  20.666  65.494  1.00  0.00     0.000 HD 
BRANCH   7  18
HETATM   18  O   UNL     1      -8.449  15.518  66.160  1.00  0.00    -0.212 OA 
BRANCH  18  19
HETATM   19  C   UNL     1      -8.802  14.569  67.158  1.00  0.00    -0.229 C  
HETATM   20  O   UNL     1      -9.728  13.255  65.267  1.00  0.00    -0.505 OA 
HETATM   21  C   UNL     1      -7.426  14.120  67.663  1.00  0.00    -0.178 C  
HETATM   22  C   UNL     1      -8.446  12.155  67.037  1.00  0.00    -0.183 C  
HETATM   23  H   UNL     1     -10.136  12.449  64.974  1.00  0.00     0.000 HD 
HETATM   24  O   UNL     1      -7.182  12.817  67.107  1.00  0.00    -0.117 OA 
HETATM   25  C   UNL     1      -9.466  13.260  66.682  1.00  0.00    -0.260 C  
BRANCH  21  26
HETATM   26  C   UNL     1      -7.291  14.127  69.188  1.00  0.00    -0.067 C  
HETATM   27  H   UNL     1      -6.790  15.396  70.633  1.00  0.00     0.000 HD 
HETATM   28  O   UNL     1      -6.874  15.391  69.687  1.00  0.00    -0.169 OA 
ENDBRANCH  21  26
BRANCH  22  29
HETATM   29  O   UNL     1      -8.748  11.520  68.286  1.00  0.00    -0.150 OA 
BRANCH  29  30
HETATM   30  C   UNL     1      -9.850  10.550  68.302  1.00  0.00    -0.149 C  
HETATM   31  C   UNL     1     -10.811  10.831  69.486  1.00  0.00    -0.242 C  
HETATM   32  O   UNL     1     -11.843  11.740  69.044  1.00  0.00    -0.295 OA 
HETATM   33  C   UNL     1     -11.517   9.646  70.164  1.00  0.00    -0.189 C  
HETATM   34  C   UNL     1     -10.757   8.336  70.060  1.00  0.00    -0.239 C  
HETATM   35  N   UNL     1     -11.734   9.948  71.603  1.00  0.00    -0.338 NA 
HETATM   36  H   UNL     1     -12.431  11.912  69.770  1.00  0.00     0.000 HD 
HETATM   37  H1  UNL     1     -12.203   9.161  72.052  1.00  0.00     0.000 HD 
HETATM   38  H2  UNL     1     -12.239  10.824  71.739  1.00  0.00     0.000 HD 
HETATM   39  C   UNL     1     -10.400   8.050  68.603  1.00  0.00    -0.200 C  
HETATM   40  C   UNL     1      -9.363   9.088  68.102  1.00  0.00    -0.142 C  
HETATM   41  N   UNL     1      -9.875   6.670  68.510  1.00  0.00    -0.137 NA 
HETATM   42  H2  UNL     1     -10.518   5.980  68.898  1.00  0.00     0.000 HD 
HETATM   43  H1  UNL     1      -9.637   6.480  67.536  1.00  0.00     0.000 HD 
BRANCH  40  44
HETATM   44  O   UNL     1      -9.105   8.790  66.708  1.00  0.00    -0.134 OA 
BRANCH  44  45
HETATM   45  C   UNL     1      -7.754   8.443  66.393  1.00  0.00    -0.094 C  
HETATM   46  O   UNL     1      -7.499   7.054  66.619  1.00  0.00    -0.078 OA 
HETATM   47  C   UNL     1      -8.250   6.187  65.758  1.00  0.00    -0.138 C  
HETATM   48  C   UNL     1      -7.965   6.473  64.277  1.00  0.00    -0.095 C  
HETATM   49  H1  UNL     1      -7.473  10.544  63.683  1.00  0.00     0.000 HD 
HETATM   50  O   UNL     1      -8.748   5.649  63.402  1.00  0.00    -0.333 OA 
HETATM   51  H2  UNL     1      -7.168  10.869  65.302  1.00  0.00     0.000 HD 
HETATM   52  C   UNL     1      -8.247   7.951  63.968  1.00  0.00    -0.022 C  
HETATM   53  H   UNL     1      -8.571   5.826  62.485  1.00  0.00     0.000 HD 
HETATM   54  O   UNL     1      -7.883   8.239  62.607  1.00  0.00    -0.126 OA 
HETATM   55  C   UNL     1      -7.438   8.845  64.926  1.00  0.00    -0.098 C  
HETATM   56  N   UNL     1      -7.681  10.280  64.646  1.00  0.00    -0.141 NA 
HETATM   57  H   UNL     1      -8.057   9.154  62.417  1.00  0.00     0.000 HD 
BRANCH  47  58
HETATM   58  C   UNL     1      -7.957   4.725  66.166  1.00  0.00    -0.103 C  
HETATM   59  H1  UNL     1      -7.656   2.821  65.313  1.00  0.00     0.000 HD 
HETATM   60  N   UNL     1      -7.849   3.786  65.043  1.00  0.00    -0.085 NA 
HETATM   61  H2  UNL     1      -7.153   4.113  64.373  1.00  0.00     0.000 HD 
ENDBRANCH  47  58
ENDBRANCH  44  45
ENDBRANCH  40  44
ENDBRANCH  29  30
ENDBRANCH  22  29
ENDBRANCH  18  19
ENDBRANCH   7  18
ENDBRANCH   2   5
TORSDOF 9
ENDMDL
MODEL      149
REMARK 921   NORMALIZED FREE ENERGY PREDICTED BY IDOCK:   -4.67 KCAL/MOL
REMARK 922        TOTAL FREE ENERGY PREDICTED BY IDOCK:   -9.94 KCAL/MOL
REMARK 923 INTER-LIGAND FREE ENERGY PREDICTED BY IDOCK:   -7.70 KCAL/MOL
REMARK 924 INTRA-LIGAND FREE ENERGY PREDICTED BY IDOCK:   -2.24 KCAL/MOL
REMARK 927      BINDING AFFINITY PREDICTED BY RF-SCORE:    0.00 PKD
ROOT
HETATM    1  N   UNL     1      -7.127   4.237  68.744  1.00  0.00    -0.051 NA 
HETATM    2  C   UNL     1      -7.968   4.075  67.555  1.00  0.00    -0.091 C  
HETATM    3  H1  UNL     1      -6.542   3.436  68.979  1.00  0.00     0.000 HD 
HETATM    4  H2  UNL     1      -7.702   4.497  69.545  1.00  0.00     0.000 HD 
ENDROOT
BRANCH   2   5
HETATM    5  C   UNL     1      -8.859   5.294  67.197  1.00  0.00    -0.109 C  
HETATM    6  O   UNL     1      -8.203   6.575  67.390  1.00  0.00    -0.119 OA 
HETATM    7  C   UNL     1      -9.042   7.645  66.920  1.00  0.00    -0.144 C  
HETATM    8  C   UNL     1     -10.363   7.710  67.753  1.00  0.00    -0.219 C  
HETATM    9  O   UNL     1      -9.761   5.249  69.461  1.00  0.00    -0.148 OA 
HETATM   10  H   UNL     1     -10.543   5.202  70.000  1.00  0.00     0.000 HD 
HETATM   11  N   UNL     1     -10.073   8.135  69.162  1.00  0.00    -0.197 NA 
HETATM   12  C   UNL     1     -11.089   6.365  67.723  1.00  0.00    -0.276 C  
HETATM   13  H2  UNL     1      -9.559   9.016  69.196  1.00  0.00     0.000 HD 
HETATM   14  O   UNL     1     -11.726   6.126  66.461  1.00  0.00    -0.304 OA 
HETATM   15  C   UNL     1     -10.133   5.218  68.075  1.00  0.00    -0.152 C  
HETATM   16  H1  UNL     1     -10.935   8.178  69.706  1.00  0.00     0.000 HD 
HETATM   17  H   UNL     1     -12.177   5.290  66.443  1.00  0.00     0.000 HD 
BRANCH   7  18
HETATM   18  O   UNL     1      -8.498   8.936  67.130  1.00  0.00    -0.107 OA 
BRANCH  18  19
HETATM   19  C   UNL     1      -9.192  10.090  66.674  1.00  0.00    -0.149 C  
HETATM   20  O   UNL     1      -8.924  10.902  69.004  1.00  0.00    -0.249 OA 
HETATM   21  C   UNL     1      -8.201  10.667  65.656  1.00  0.00    -0.154 C  
HETATM   22  C   UNL     1      -8.566  12.411  67.112  1.00  0.00    -0.189 C  
HETATM   23  H   UNL     1      -9.047  11.609  69.626  1.00  0.00     0.000 HD 
HETATM   24  O   UNL     1      -7.578  11.804  66.277  1.00  0.00     0.064 OA 
HETATM   25  C   UNL     1      -9.393  11.239  67.685  1.00  0.00    -0.160 C  
BRANCH  21  26
HETATM   26  C   UNL     1      -8.833  11.026  64.308  1.00  0.00     0.023 C  
HETATM   27  H   UNL     1     -10.594  10.868  63.400  1.00  0.00     0.000 HD 
HETATM   28  O   UNL     1     -10.201  10.646  64.235  1.00  0.00    -0.351 OA 
ENDBRANCH  21  26
BRANCH  22  29
HETATM   29  O   UNL     1      -9.372  13.321  66.352  1.00  0.00    -0.245 OA 
BRANCH  29  30
HETATM   30  C   UNL     1      -9.593  14.659  66.913  1.00  0.00    -0.244 C  
HETATM   31  C   UNL     1      -9.137  15.755  65.915  1.00  0.00    -0.265 C  
HETATM   32  O   UNL     1     -10.254  16.111  65.071  1.00  0.00    -0.535 OA 
HETATM   33  C   UNL     1      -8.557  17.066  66.470  1.00  0.00    -0.270 C  
HETATM   34  C   UNL     1      -7.907  16.923  67.834  1.00  0.00    -0.180 C  
HETATM   35  N   UNL     1      -7.547  17.607  65.524  1.00  0.00    -0.281 NA 
HETATM   36  H   UNL     1      -9.974  16.782  64.460  1.00  0.00     0.000 HD 
HETATM   37  H1  UNL     1      -7.163  18.477  65.892  1.00  0.00     0.000 HD 
HETATM   38  H2  UNL     1      -7.924  17.722  64.584  1.00  0.00     0.000 HD 
HETATM   39  C   UNL     1      -8.872  16.251  68.808  1.00  0.00    -0.243 C  
HETATM   40  C   UNL     1      -9.107  14.778  68.384  1.00  0.00    -0.188 C  
HETATM   41  N   UNL     1      -8.303  16.339  70.171  1.00  0.00     1.159 NA 
HETATM   42  H2  UNL     1      -8.079  17.297  70.440  1.00  0.00     0.000 HD 
HETATM   43  H1  UNL     1      -8.948  15.890  70.821  1.00  0.00     0.000 HD 
BRANCH  40  44
HETATM   44  O   UNL     1     -10.062  14.215  69.317  1.00  0.00    -0.084 OA 
BRANCH  44  45
HETATM   45  C   UNL     1     -11.387  14.037  68.809  1.00  0.00    -0.278 C  
HETATM   46  O   UNL     1     -11.905  12.743  69.127  1.00  0.00    -0.298 OA 
HETATM   47  C   UNL     1     -12.081  12.527  70.534  1.00  0.00    -0.274 C  
HETATM   48  C   UNL     1     -13.026  13.567  71.153  1.00  0.00    -0.262 C  
HETATM   49  H1  UNL     1     -12.422  17.267  69.389  1.00  0.00     0.000 HD 
HETATM   50  O   UNL     1     -13.172  13.396  72.570  1.00  0.00    -0.486 OA 
HETATM   51  H2  UNL     1     -11.659  16.635  68.033  1.00  0.00     0.000 HD 
HETATM   52  C   UNL     1     -12.504  14.983  70.864  1.00  0.00    -0.345 C  
HETATM   53  H   UNL     1     -13.757  14.040  72.953  1.00  0.00     0.000 HD 
HETATM   54  O   UNL     1     -13.442  15.955  71.357  1.00  0.00    -0.489 OA 
HETATM   55  C   UNL     1     -12.310  15.165  69.348  1.00  0.00    -0.130 C  
HETATM   56  N   UNL     1     -11.815  16.527  69.035  1.00  0.00     0.041 NA 
HETATM   57  H   UNL     1     -13.119  16.830  71.178  1.00  0.00     0.000 HD 
BRANCH  47  58
HETATM   58  C   UNL     1     -12.553  11.070  70.746  1.00  0.00    -0.369 C  
HETATM   59  H1  UNL     1     -11.796   9.162  71.227  1.00  0.00     0.000 HD 
HETATM   60  N   UNL     1     -11.484  10.124  71.088  1.00  0.00    -0.350 NA 
HETATM   61  H2  UNL     1     -10.969  10.452  71.905  1.00  0.00     0.000 HD 
ENDBRANCH  47  58
ENDBRANCH  44  45
ENDBRANCH  40  44
ENDBRANCH  29  30
ENDBRANCH  22  29
ENDBRANCH  18  19
ENDBRANCH   7  18
ENDBRANCH   2   5
TORSDOF 9
ENDMDL
MODEL      150
REMARK 921   NORMALIZED FREE ENERGY PREDICTED BY IDOCK:   -4.64 KCAL/MOL
REMARK 922        TOTAL FREE ENERGY PREDICTED BY IDOCK:   -9.90 KCAL/MOL
REMARK 923 INTER-LIGAND FREE ENERGY PREDICTED BY IDOCK:   -8.38 KCAL/MOL
REMARK 924 INTRA-LIGAND FREE ENERGY PREDICTED BY IDOCK:   -1.52 KCAL/MOL
REMARK 927      BINDING AFFINITY PREDICTED BY RF-SCORE:    0.00 PKD
ROOT
HETATM    1  N   UNL     1      -7.922   2.464  69.755  1.00  0.00    -0.042 NA 
HETATM    2  C   UNL     1      -9.087   1.959  70.486  1.00  0.00    -0.087 C  
HETATM    3  H1  UNL     1      -7.390   1.763  69.241  1.00  0.00     0.000 HD 
HETATM    4  H2  UNL     1      -7.307   2.975  70.388  1.00  0.00     0.000 HD 
ENDROOT
BRANCH   2   5
HETATM    5  C   UNL     1      -9.898   3.026  71.269  1.00  0.00    -0.075 C  
HETATM    6  O   UNL     1      -9.719   4.377  70.771  1.00  0.00    -0.173 OA 
HETATM    7  C   UNL     1     -10.594   5.287  71.460  1.00  0.00    -0.184 C  
HETATM    8  C   UNL     1     -10.238   5.340  72.982  1.00  0.00    -0.183 C  
HETATM    9  O   UNL     1      -8.053   3.208  72.852  1.00  0.00    -0.069 OA 
HETATM   10  H   UNL     1      -7.785   3.162  73.763  1.00  0.00     0.000 HD 
HETATM   11  N   UNL     1      -8.897   5.982  73.183  1.00  0.00    -0.128 NA 
HETATM   12  C   UNL     1     -10.275   3.941  73.595  1.00  0.00    -0.149 C  
HETATM   13  H2  UNL     1      -8.847   6.904  72.749  1.00  0.00     0.000 HD 
HETATM   14  O   UNL     1     -11.617   3.470  73.778  1.00  0.00    -0.102 OA 
HETATM   15  C   UNL     1      -9.462   2.950  72.754  1.00  0.00    -0.099 C  
HETATM   16  H1  UNL     1      -8.664   6.017  74.176  1.00  0.00     0.000 HD 
HETATM   17  H   UNL     1     -11.641   2.600  74.160  1.00  0.00     0.000 HD 
BRANCH   7  18
HETATM   18  O   UNL     1     -10.436   6.641  71.074  1.00  0.00    -0.209 OA 
BRANCH  18  19
HETATM   19  C   UNL     1     -10.659   7.035  69.727  1.00  0.00    -0.233 C  
HETATM   20  O   UNL     1     -10.977   9.307  70.674  1.00  0.00    -0.237 OA 
HETATM   21  C   UNL     1      -9.287   6.770  69.093  1.00  0.00    -0.135 C  
HETATM   22  C   UNL     1      -9.689   8.985  68.619  1.00  0.00    -0.160 C  
HETATM   23  H   UNL     1     -11.128  10.230  70.511  1.00  0.00     0.000 HD 
HETATM   24  O   UNL     1      -8.654   8.049  68.920  1.00  0.00    -0.130 OA 
HETATM   25  C   UNL     1     -10.904   8.535  69.461  1.00  0.00    -0.125 C  
BRANCH  21  26
HETATM   26  C   UNL     1      -9.350   5.979  67.784  1.00  0.00    -0.106 C  
HETATM   27  H   UNL     1     -10.721   5.155  66.605  1.00  0.00     0.000 HD 
HETATM   28  O   UNL     1     -10.682   5.646  67.417  1.00  0.00    -0.248 OA 
ENDBRANCH  21  26
BRANCH  22  29
HETATM   29  O   UNL     1      -9.974   8.982  67.214  1.00  0.00    -0.183 OA 
BRANCH  29  30
HETATM   30  C   UNL     1      -9.112   9.796  66.348  1.00  0.00    -0.155 C  
HETATM   31  C   UNL     1      -8.089   8.903  65.598  1.00  0.00    -0.113 C  
HETATM   32  O   UNL     1      -8.668   8.486  64.342  1.00  0.00    -0.391 OA 
HETATM   33  C   UNL     1      -6.698   9.477  65.283  1.00  0.00    -0.083 C  
HETATM   34  C   UNL     1      -6.243  10.554  66.250  1.00  0.00    -0.105 C  
HETATM   35  N   UNL     1      -5.692   8.384  65.293  1.00  0.00    -0.044 NA 
HETATM   36  H   UNL     1      -8.041   7.939  63.883  1.00  0.00     0.000 HD 
HETATM   37  H1  UNL     1      -4.769   8.764  65.083  1.00  0.00     0.000 HD 
HETATM   38  H2  UNL     1      -5.945   7.623  64.662  1.00  0.00     0.000 HD 
HETATM   39  C   UNL     1      -7.311  11.640  66.368  1.00  0.00     0.127 C  
HETATM   40  C   UNL     1      -8.571  11.064  67.064  1.00  0.00    -0.140 C  
HETATM   41  N   UNL     1      -6.744  12.777  67.126  1.00  0.00    -0.385 NA 
HETATM   42  H2  UNL     1      -5.876  13.124  66.719  1.00  0.00     0.000 HD 
HETATM   43  H1  UNL     1      -7.458  13.501  67.204  1.00  0.00     0.000 HD 
BRANCH  40  44
HETATM   44  O   UNL     1      -9.556  12.126  67.102  1.00  0.00    -0.189 OA 
BRANCH  44  45
HETATM   45  C   UNL     1      -9.372  13.171  66.143  1.00  0.00    -0.072 C  
HETATM   46  O   UNL     1     -10.059  12.894  64.921  1.00  0.00    -0.272 OA 
HETATM   47  C   UNL     1     -11.486  12.853  65.063  1.00  0.00    -0.315 C  
HETATM   48  C   UNL     1     -12.039  14.175  65.614  1.00  0.00    -0.415 C  
HETATM   49  H1  UNL     1      -9.429  15.749  68.422  1.00  0.00     0.000 HD 
HETATM   50  O   UNL     1     -13.459  14.132  65.811  1.00  0.00    -0.670 OA 
HETATM   51  H2  UNL     1      -8.120  14.838  67.898  1.00  0.00     0.000 HD 
HETATM   52  C   UNL     1     -11.352  14.512  66.946  1.00  0.00    -0.348 C  
HETATM   53  H   UNL     1     -13.801  14.950  66.152  1.00  0.00     0.000 HD 
HETATM   54  O   UNL     1     -11.798  15.799  67.408  1.00  0.00     0.060 OA 
HETATM   55  C   UNL     1      -9.825  14.527  66.754  1.00  0.00    -0.265 C  
HETATM   56  N   UNL     1      -9.132  14.860  68.022  1.00  0.00    -0.177 NA 
HETATM   57  H   UNL     1     -11.373  16.007  68.232  1.00  0.00     0.000 HD 
BRANCH  47  58
HETATM   58  C   UNL     1     -12.098  12.455  63.701  1.00  0.00    -0.556 C  
HETATM   59  H1  UNL     1     -11.877  11.027  62.166  1.00  0.00     0.000 HD 
HETATM   60  N   UNL     1     -11.473  11.289  63.065  1.00  0.00    -0.818 NA 
HETATM   61  H2  UNL     1     -11.479  10.493  63.703  1.00  0.00     0.000 HD 
ENDBRANCH  47  58
ENDBRANCH  44  45
ENDBRANCH  40  44
ENDBRANCH  29  30
ENDBRANCH  22  29
ENDBRANCH  18  19
ENDBRANCH   7  18
ENDBRANCH   2   5
TORSDOF 9
ENDMDL
MODEL      151
REMARK 921   NORMALIZED FREE ENERGY PREDICTED BY IDOCK:   -4.62 KCAL/MOL
REMARK 922        TOTAL FREE ENERGY PREDICTED BY IDOCK:   -9.87 KCAL/MOL
REMARK 923 INTER-LIGAND FREE ENERGY PREDICTED BY IDOCK:   -8.28 KCAL/MOL
REMARK 924 INTRA-LIGAND FREE ENERGY PREDICTED BY IDOCK:   -1.58 KCAL/MOL
REMARK 927      BINDING AFFINITY PREDICTED BY RF-SCORE:    0.00 PKD
ROOT
HETATM    1  N   UNL     1      -5.658  16.808  67.897  1.00  0.00    -0.113 NA 
HETATM    2  C   UNL     1      -6.223  17.814  68.802  1.00  0.00    -0.203 C  
HETATM    3  H1  UNL     1      -4.685  16.955  67.632  1.00  0.00     0.000 HD 
HETATM    4  H2  UNL     1      -6.238  16.725  67.063  1.00  0.00     0.000 HD 
ENDROOT
BRANCH   2   5
HETATM    5  C   UNL     1      -7.705  17.591  69.204  1.00  0.00    -0.042 C  
HETATM    6  O   UNL     1      -8.192  16.252  68.924  1.00  0.00    -0.209 OA 
HETATM    7  C   UNL     1      -9.525  16.085  69.438  1.00  0.00    -0.226 C  
HETATM    8  C   UNL     1     -10.514  17.060  68.721  1.00  0.00    -0.347 C  
HETATM    9  O   UNL     1      -8.385  18.453  67.028  1.00  0.00    -0.241 OA 
HETATM   10  H   UNL     1      -8.910  19.092  66.560  1.00  0.00     0.000 HD 
HETATM   11  N   UNL     1     -10.682  16.670  67.282  1.00  0.00    -0.275 NA 
HETATM   12  C   UNL     1     -10.035  18.506  68.846  1.00  0.00    -0.347 C  
HETATM   13  H2  UNL     1     -10.970  15.696  67.183  1.00  0.00     0.000 HD 
HETATM   14  O   UNL     1     -10.246  19.030  70.164  1.00  0.00     0.060 OA 
HETATM   15  C   UNL     1      -8.560  18.633  68.442  1.00  0.00    -0.337 C  
HETATM   16  H1  UNL     1     -11.327  17.306  66.814  1.00  0.00     0.000 HD 
HETATM   17  H   UNL     1      -9.948  19.929  70.242  1.00  0.00     0.000 HD 
BRANCH   7  18
HETATM   18  O   UNL     1     -10.098  14.821  69.151  1.00  0.00    -0.224 OA 
BRANCH  18  19
HETATM   19  C   UNL     1      -9.784  14.149  67.939  1.00  0.00    -0.224 C  
HETATM   20  O   UNL     1      -7.666  13.541  69.081  1.00  0.00    -0.325 OA 
HETATM   21  C   UNL     1     -10.854  13.051  67.904  1.00  0.00    -0.242 C  
HETATM   22  C   UNL     1      -8.874  11.889  67.740  1.00  0.00    -0.166 C  
HETATM   23  H   UNL     1      -6.847  13.061  69.050  1.00  0.00     0.000 HD 
HETATM   24  O   UNL     1     -10.202  11.821  68.264  1.00  0.00    -0.192 OA 
HETATM   25  C   UNL     1      -8.453  13.369  67.888  1.00  0.00    -0.173 C  
BRANCH  21  26
HETATM   26  C   UNL     1     -11.589  12.941  66.566  1.00  0.00    -0.371 C  
HETATM   27  H   UNL     1     -12.331  11.524  65.387  1.00  0.00     0.000 HD 
HETATM   28  O   UNL     1     -11.875  11.593  66.217  1.00  0.00    -0.437 OA 
ENDBRANCH  21  26
BRANCH  22  29
HETATM   29  O   UNL     1      -8.852  11.455  66.375  1.00  0.00    -0.184 OA 
BRANCH  29  30
HETATM   30  C   UNL     1      -7.909  10.387  66.021  1.00  0.00    -0.142 C  
HETATM   31  C   UNL     1      -6.732  10.950  65.182  1.00  0.00     0.274 C  
HETATM   32  O   UNL     1      -5.674  11.355  66.078  1.00  0.00    -0.353 OA 
HETATM   33  C   UNL     1      -6.093  10.055  64.108  1.00  0.00    -0.132 C  
HETATM   34  C   UNL     1      -7.034   9.008  63.540  1.00  0.00    -0.089 C  
HETATM   35  N   UNL     1      -5.596  10.894  62.988  1.00  0.00    -0.346 NA 
HETATM   36  H   UNL     1      -4.953  11.700  65.564  1.00  0.00     0.000 HD 
HETATM   37  H1  UNL     1      -5.172  10.300  62.275  1.00  0.00     0.000 HD 
HETATM   38  H2  UNL     1      -4.959  11.624  63.308  1.00  0.00     0.000 HD 
HETATM   39  C   UNL     1      -7.669   8.203  64.672  1.00  0.00    -0.118 C  
HETATM   40  C   UNL     1      -8.621   9.110  65.493  1.00  0.00    -0.170 C  
HETATM   41  N   UNL     1      -8.390   7.052  64.084  1.00  0.00    -0.345 NA 
HETATM   42  H2  UNL     1      -7.793   6.482  63.485  1.00  0.00     0.000 HD 
HETATM   43  H1  UNL     1      -8.813   6.515  64.841  1.00  0.00     0.000 HD 
BRANCH  40  44
HETATM   44  O   UNL     1      -9.151   8.302  66.573  1.00  0.00    -0.156 OA 
BRANCH  44  45
HETATM   45  C   UNL     1      -8.183   7.804  67.501  1.00  0.00    -0.124 C  
HETATM   46  O   UNL     1      -8.132   8.600  68.688  1.00  0.00    -0.113 OA 
HETATM   47  C   UNL     1      -9.343   8.564  69.454  1.00  0.00    -0.154 C  
HETATM   48  C   UNL     1      -9.706   7.132  69.875  1.00  0.00    -0.170 C  
HETATM   49  H1  UNL     1      -8.746   4.474  66.844  1.00  0.00     0.000 HD 
HETATM   50  O   UNL     1     -10.943   7.073  70.598  1.00  0.00    -0.242 OA 
HETATM   51  H2  UNL     1      -7.688   5.531  66.082  1.00  0.00     0.000 HD 
HETATM   52  C   UNL     1      -9.800   6.233  68.633  1.00  0.00    -0.136 C  
HETATM   53  H   UNL     1     -11.167   6.187  70.858  1.00  0.00     0.000 HD 
HETATM   54  O   UNL     1     -10.039   4.874  69.037  1.00  0.00    -0.189 OA 
HETATM   55  C   UNL     1      -8.489   6.317  67.830  1.00  0.00    -0.116 C  
HETATM   56  N   UNL     1      -8.546   5.450  66.628  1.00  0.00    -0.114 NA 
HETATM   57  H   UNL     1     -10.097   4.318  68.268  1.00  0.00     0.000 HD 
BRANCH  47  58
HETATM   58  C   UNL     1      -9.191   9.532  70.650  1.00  0.00    -0.180 C  
HETATM   59  H1  UNL     1      -8.189   9.701  72.497  1.00  0.00     0.000 HD 
HETATM   60  N   UNL     1      -8.289   9.061  71.708  1.00  0.00    -0.352 NA 
HETATM   61  H2  UNL     1      -7.374   8.833  71.318  1.00  0.00     0.000 HD 
ENDBRANCH  47  58
ENDBRANCH  44  45
ENDBRANCH  40  44
ENDBRANCH  29  30
ENDBRANCH  22  29
ENDBRANCH  18  19
ENDBRANCH   7  18
ENDBRANCH   2   5
TORSDOF 9
ENDMDL
MODEL      152
REMARK 921   NORMALIZED FREE ENERGY PREDICTED BY IDOCK:   -4.61 KCAL/MOL
REMARK 922        TOTAL FREE ENERGY PREDICTED BY IDOCK:   -9.85 KCAL/MOL
REMARK 923 INTER-LIGAND FREE ENERGY PREDICTED BY IDOCK:   -7.70 KCAL/MOL
REMARK 924 INTRA-LIGAND FREE ENERGY PREDICTED BY IDOCK:   -2.15 KCAL/MOL
REMARK 927      BINDING AFFINITY PREDICTED BY RF-SCORE:    0.00 PKD
ROOT
HETATM    1  N   UNL     1     -12.505  11.702  63.436  1.00  0.00    -0.796 NA 
HETATM    2  C   UNL     1     -12.506  12.748  64.462  1.00  0.00    -0.428 C  
HETATM    3  H1  UNL     1     -13.316  11.692  62.818  1.00  0.00     0.000 HD 
HETATM    4  H2  UNL     1     -12.387  10.787  63.870  1.00  0.00     0.000 HD 
ENDROOT
BRANCH   2   5
HETATM    5  C   UNL     1     -11.272  12.761  65.402  1.00  0.00    -0.292 C  
HETATM    6  O   UNL     1     -11.230  11.645  66.328  1.00  0.00    -0.310 OA 
HETATM    7  C   UNL     1     -10.000  11.657  67.074  1.00  0.00    -0.204 C  
HETATM    8  C   UNL     1      -9.906  12.947  67.953  1.00  0.00    -0.227 C  
HETATM    9  O   UNL     1     -12.512  14.184  66.944  1.00  0.00    -0.565 OA 
HETATM   10  H   UNL     1     -12.526  15.003  67.427  1.00  0.00     0.000 HD 
HETATM   11  N   UNL     1     -10.935  12.911  69.045  1.00  0.00    -0.371 NA 
HETATM   12  C   UNL     1     -10.061  14.200  67.092  1.00  0.00    -0.258 C  
HETATM   13  H2  UNL     1     -10.864  12.063  69.607  1.00  0.00     0.000 HD 
HETATM   14  O   UNL     1      -8.885  14.468  66.318  1.00  0.00    -0.473 OA 
HETATM   15  C   UNL     1     -11.295  14.096  66.187  1.00  0.00    -0.337 C  
HETATM   16  H1  UNL     1     -10.874  13.752  69.618  1.00  0.00     0.000 HD 
HETATM   17  H   UNL     1      -8.981  15.248  65.782  1.00  0.00     0.000 HD 
BRANCH   7  18
HETATM   18  O   UNL     1      -9.907  10.631  68.047  1.00  0.00    -0.156 OA 
BRANCH  18  19
HETATM   19  C   UNL     1      -9.338   9.373  67.712  1.00  0.00    -0.128 C  
HETATM   20  O   UNL     1      -9.619   8.851  70.122  1.00  0.00    -0.165 OA 
HETATM   21  C   UNL     1     -10.405   8.785  66.780  1.00  0.00    -0.258 C  
HETATM   22  C   UNL     1     -10.168   7.185  68.416  1.00  0.00    -0.174 C  
HETATM   23  H   UNL     1      -9.546   8.208  70.817  1.00  0.00     0.000 HD 
HETATM   24  O   UNL     1     -11.116   7.790  67.535  1.00  0.00    -0.058 OA 
HETATM   25  C   UNL     1      -9.219   8.328  68.842  1.00  0.00    -0.147 C  
BRANCH  21  26
HETATM   26  C   UNL     1      -9.846   8.221  65.471  1.00  0.00     0.765 C  
HETATM   27  H   UNL     1      -8.221   8.408  64.344  1.00  0.00     0.000 HD 
HETATM   28  O   UNL     1      -8.568   8.757  65.155  1.00  0.00    -0.175 OA 
ENDBRANCH  21  26
BRANCH  22  29
HETATM   29  O   UNL     1      -9.472   6.124  67.750  1.00  0.00    -0.117 OA 
BRANCH  29  30
HETATM   30  C   UNL     1      -8.458   5.393  68.520  1.00  0.00    -0.096 C  
HETATM   31  C   UNL     1      -7.069   5.500  67.838  1.00  0.00    -0.071 C  
HETATM   32  O   UNL     1      -6.383   6.660  68.359  1.00  0.00    -0.034 OA 
HETATM   33  C   UNL     1      -6.096   4.315  67.950  1.00  0.00    -0.032 C  
HETATM   34  C   UNL     1      -6.779   2.973  68.137  1.00  0.00    -0.044 C  
HETATM   35  N   UNL     1      -5.251   4.244  66.730  1.00  0.00    -0.011 NA 
HETATM   36  H   UNL     1      -5.532   6.726  67.941  1.00  0.00     0.000 HD 
HETATM   37  H1  UNL     1      -4.605   3.458  66.804  1.00  0.00     0.000 HD 
HETATM   38  H2  UNL     1      -4.766   5.123  66.547  1.00  0.00     0.000 HD 
HETATM   39  C   UNL     1      -7.758   3.041  69.308  1.00  0.00    -0.046 C  
HETATM   40  C   UNL     1      -8.939   3.980  68.954  1.00  0.00    -0.116 C  
HETATM   41  N   UNL     1      -8.227   1.670  69.609  1.00  0.00    -0.044 NA 
HETATM   42  H2  UNL     1      -7.457   1.022  69.778  1.00  0.00     0.000 HD 
HETATM   43  H1  UNL     1      -8.880   1.716  70.391  1.00  0.00     0.000 HD 
BRANCH  40  44
HETATM   44  O   UNL     1      -9.800   4.036  70.118  1.00  0.00    -0.210 OA 
BRANCH  44  45
HETATM   45  C   UNL     1      -9.343   4.875  71.182  1.00  0.00    -0.150 C  
HETATM   46  O   UNL     1     -10.108   6.079  71.271  1.00  0.00    -0.184 OA 
HETATM   47  C   UNL     1     -11.483   5.860  71.618  1.00  0.00    -0.172 C  
HETATM   48  C   UNL     1     -11.618   5.126  72.961  1.00  0.00    -0.223 C  
HETATM   49  H1  UNL     1      -8.602   2.312  73.355  1.00  0.00     0.000 HD 
HETATM   50  O   UNL     1     -12.985   4.853  73.297  1.00  0.00    -0.108 OA 
HETATM   51  H2  UNL     1      -7.624   3.014  72.185  1.00  0.00     0.000 HD 
HETATM   52  C   UNL     1     -10.833   3.807  72.915  1.00  0.00    -0.065 C  
HETATM   53  H   UNL     1     -13.069   4.399  74.128  1.00  0.00     0.000 HD 
HETATM   54  O   UNL     1     -10.878   3.172  74.204  1.00  0.00    -0.188 OA 
HETATM   55  C   UNL     1      -9.371   4.085  72.520  1.00  0.00    -0.120 C  
HETATM   56  N   UNL     1      -8.584   2.830  72.477  1.00  0.00    -0.074 NA 
HETATM   57  H   UNL     1     -10.392   2.356  74.176  1.00  0.00     0.000 HD 
BRANCH  47  58
HETATM   58  C   UNL     1     -12.214   7.221  71.589  1.00  0.00    -0.343 C  
HETATM   59  H1  UNL     1     -13.994   8.104  70.883  1.00  0.00     0.000 HD 
HETATM   60  N   UNL     1     -13.511   7.204  70.903  1.00  0.00    -0.497 NA 
HETATM   61  H2  UNL     1     -14.115   6.486  71.304  1.00  0.00     0.000 HD 
ENDBRANCH  47  58
ENDBRANCH  44  45
ENDBRANCH  40  44
ENDBRANCH  29  30
ENDBRANCH  22  29
ENDBRANCH  18  19
ENDBRANCH   7  18
ENDBRANCH   2   5
TORSDOF 9
ENDMDL
MODEL      153
REMARK 921   NORMALIZED FREE ENERGY PREDICTED BY IDOCK:   -4.61 KCAL/MOL
REMARK 922        TOTAL FREE ENERGY PREDICTED BY IDOCK:   -9.84 KCAL/MOL
REMARK 923 INTER-LIGAND FREE ENERGY PREDICTED BY IDOCK:   -7.69 KCAL/MOL
REMARK 924 INTRA-LIGAND FREE ENERGY PREDICTED BY IDOCK:   -2.15 KCAL/MOL
REMARK 927      BINDING AFFINITY PREDICTED BY RF-SCORE:    0.00 PKD
ROOT
HETATM    1  N   UNL     1     -11.001  17.750  65.103  1.00  0.00    -0.609 NA 
HETATM    2  C   UNL     1     -10.913  16.388  64.569  1.00  0.00    -0.001 C  
HETATM    3  H1  UNL     1     -11.003  18.495  64.406  1.00  0.00     0.000 HD 
HETATM    4  H2  UNL     1     -10.256  17.908  65.780  1.00  0.00     0.000 HD 
ENDROOT
BRANCH   2   5
HETATM    5  C   UNL     1     -10.910  15.256  65.629  1.00  0.00    -0.363 C  
HETATM    6  O   UNL     1     -10.065  14.129  65.278  1.00  0.00    -0.354 OA 
HETATM    7  C   UNL     1     -10.014  13.182  66.359  1.00  0.00    -0.282 C  
HETATM    8  C   UNL     1     -11.434  12.586  66.631  1.00  0.00    -0.359 C  
HETATM    9  O   UNL     1     -12.880  14.301  64.557  1.00  0.00    -0.637 OA 
HETATM   10  H   UNL     1     -13.778  14.009  64.669  1.00  0.00     0.000 HD 
HETATM   11  N   UNL     1     -11.868  11.724  65.482  1.00  0.00    -0.280 NA 
HETATM   12  C   UNL     1     -12.446  13.699  66.897  1.00  0.00    -0.141 C  
HETATM   13  H2  UNL     1     -11.184  10.997  65.272  1.00  0.00     0.000 HD 
HETATM   14  O   UNL     1     -12.282  14.275  68.200  1.00  0.00    -0.555 OA 
HETATM   15  C   UNL     1     -12.373  14.780  65.812  1.00  0.00    -0.004 C  
HETATM   16  H1  UNL     1     -12.794  11.335  65.659  1.00  0.00     0.000 HD 
HETATM   17  H   UNL     1     -12.911  14.967  68.365  1.00  0.00     0.000 HD 
BRANCH   7  18
HETATM   18  O   UNL     1      -9.257  12.020  66.072  1.00  0.00    -0.221 OA 
BRANCH  18  19
HETATM   19  C   UNL     1      -8.928  11.103  67.107  1.00  0.00    -0.145 C  
HETATM   20  O   UNL     1     -10.026   9.413  65.658  1.00  0.00    -0.380 OA 
HETATM   21  C   UNL     1      -7.396  11.116  67.061  1.00  0.00    -0.128 C  
HETATM   22  C   UNL     1      -7.930   8.893  66.807  1.00  0.00    -0.107 C  
HETATM   23  H   UNL     1     -10.249   8.501  65.516  1.00  0.00     0.000 HD 
HETATM   24  O   UNL     1      -6.986   9.894  66.423  1.00  0.00    -0.089 OA 
HETATM   25  C   UNL     1      -9.291   9.620  66.878  1.00  0.00    -0.146 C  
BRANCH  21  26
HETATM   26  C   UNL     1      -6.734  11.299  68.429  1.00  0.00    -0.061 C  
HETATM   27  H   UNL     1      -4.975  11.850  69.171  1.00  0.00     0.000 HD 
HETATM   28  O   UNL     1      -5.386  11.737  68.322  1.00  0.00    -0.043 OA 
ENDBRANCH  21  26
BRANCH  22  29
HETATM   29  O   UNL     1      -7.560   8.313  68.065  1.00  0.00    -0.098 OA 
BRANCH  29  30
HETATM   30  C   UNL     1      -7.331   6.863  68.099  1.00  0.00    -0.097 C  
HETATM   31  C   UNL     1      -6.661   6.383  66.785  1.00  0.00    -0.051 C  
HETATM   32  O   UNL     1      -5.226   6.441  66.946  1.00  0.00    -0.008 OA 
HETATM   33  C   UNL     1      -6.996   4.980  66.253  1.00  0.00    -0.067 C  
HETATM   34  C   UNL     1      -8.367   4.476  66.668  1.00  0.00    -0.106 C  
HETATM   35  N   UNL     1      -6.926   4.977  64.769  1.00  0.00    -0.049 NA 
HETATM   36  H   UNL     1      -4.816   6.147  66.141  1.00  0.00     0.000 HD 
HETATM   37  H1  UNL     1      -7.149   4.046  64.416  1.00  0.00     0.000 HD 
HETATM   38  H2  UNL     1      -6.026   5.312  64.426  1.00  0.00     0.000 HD 
HETATM   39  C   UNL     1      -8.529   4.582  68.183  1.00  0.00    -0.094 C  
HETATM   40  C   UNL     1      -8.570   6.073  68.604  1.00  0.00    -0.112 C  
HETATM   41  N   UNL     1      -9.767   3.873  68.574  1.00  0.00    -0.101 NA 
HETATM   42  H2  UNL     1      -9.786   2.908  68.245  1.00  0.00     0.000 HD 
HETATM   43  H1  UNL     1      -9.875   3.944  69.586  1.00  0.00     0.000 HD 
BRANCH  40  44
HETATM   44  O   UNL     1      -8.678   6.103  70.049  1.00  0.00    -0.133 OA 
BRANCH  44  45
HETATM   45  C   UNL     1      -9.985   6.371  70.563  1.00  0.00    -0.184 C  
HETATM   46  O   UNL     1     -10.577   5.203  71.137  1.00  0.00    -0.205 OA 
HETATM   47  C   UNL     1      -9.883   4.719  72.295  1.00  0.00    -0.168 C  
HETATM   48  C   UNL     1      -9.805   5.786  73.397  1.00  0.00    -0.161 C  
HETATM   49  H1  UNL     1      -9.266   9.534  71.713  1.00  0.00     0.000 HD 
HETATM   50  O   UNL     1      -9.068   5.335  74.541  1.00  0.00    -0.113 OA 
HETATM   51  H2  UNL     1      -9.801   9.065  70.192  1.00  0.00     0.000 HD 
HETATM   52  C   UNL     1      -9.151   7.061  72.842  1.00  0.00    -0.134 C  
HETATM   53  H   UNL     1      -9.020   5.995  75.223  1.00  0.00     0.000 HD 
HETATM   54  O   UNL     1      -9.171   8.091  73.845  1.00  0.00    -0.331 OA 
HETATM   55  C   UNL     1      -9.914   7.534  71.592  1.00  0.00    -0.175 C  
HETATM   56  N   UNL     1      -9.312   8.771  71.038  1.00  0.00    -0.200 NA 
HETATM   57  H   UNL     1      -8.767   8.879  73.502  1.00  0.00     0.000 HD 
BRANCH  47  58
HETATM   58  C   UNL     1     -10.563   3.411  72.758  1.00  0.00    -0.083 C  
HETATM   59  H1  UNL     1     -10.238   1.329  72.805  1.00  0.00     0.000 HD 
HETATM   60  N   UNL     1      -9.788   2.192  72.499  1.00  0.00    -0.116 NA 
HETATM   61  H2  UNL     1      -8.857   2.272  72.909  1.00  0.00     0.000 HD 
ENDBRANCH  47  58
ENDBRANCH  44  45
ENDBRANCH  40  44
ENDBRANCH  29  30
ENDBRANCH  22  29
ENDBRANCH  18  19
ENDBRANCH   7  18
ENDBRANCH   2   5
TORSDOF 9
ENDMDL
MODEL      154
REMARK 921   NORMALIZED FREE ENERGY PREDICTED BY IDOCK:   -4.60 KCAL/MOL
REMARK 922        TOTAL FREE ENERGY PREDICTED BY IDOCK:   -9.83 KCAL/MOL
REMARK 923 INTER-LIGAND FREE ENERGY PREDICTED BY IDOCK:   -9.08 KCAL/MOL
REMARK 924 INTRA-LIGAND FREE ENERGY PREDICTED BY IDOCK:   -0.74 KCAL/MOL
REMARK 927      BINDING AFFINITY PREDICTED BY RF-SCORE:    0.00 PKD
ROOT
HETATM    1  N   UNL     1      -6.696   6.827  63.010  1.00  0.00    -0.042 NA 
HETATM    2  C   UNL     1      -7.640   5.834  62.492  1.00  0.00    -0.069 C  
HETATM    3  H1  UNL     1      -6.056   7.225  62.323  1.00  0.00     0.000 HD 
HETATM    4  H2  UNL     1      -6.169   6.435  63.790  1.00  0.00     0.000 HD 
ENDROOT
BRANCH   2   5
HETATM    5  C   UNL     1      -8.612   5.228  63.538  1.00  0.00    -0.048 C  
HETATM    6  O   UNL     1      -8.267   5.548  64.911  1.00  0.00    -0.125 OA 
HETATM    7  C   UNL     1      -9.279   5.062  65.810  1.00  0.00    -0.156 C  
HETATM    8  C   UNL     1      -9.367   3.502  65.742  1.00  0.00    -0.157 C  
HETATM    9  O   UNL     1      -7.287   3.182  63.527  1.00  0.00    -0.055 OA 
HETATM   10  H   UNL     1      -7.289   2.239  63.406  1.00  0.00     0.000 HD 
HETATM   11  N   UNL     1      -8.123   2.883  66.307  1.00  0.00    -0.082 NA 
HETATM   12  C   UNL     1      -9.611   3.036  64.307  1.00  0.00    -0.149 C  
HETATM   13  H2  UNL     1      -7.931   3.212  67.254  1.00  0.00     0.000 HD 
HETATM   14  O   UNL     1     -10.960   3.274  63.886  1.00  0.00    -0.447 OA 
HETATM   15  C   UNL     1      -8.616   3.691  63.340  1.00  0.00    -0.091 C  
HETATM   16  H1  UNL     1      -8.180   1.866  66.263  1.00  0.00     0.000 HD 
HETATM   17  H   UNL     1     -11.112   2.984  62.994  1.00  0.00     0.000 HD 
BRANCH   7  18
HETATM   18  O   UNL     1      -8.987   5.280  67.179  1.00  0.00    -0.113 OA 
BRANCH  18  19
HETATM   19  C   UNL     1      -9.291   6.527  67.788  1.00  0.00    -0.118 C  
HETATM   20  O   UNL     1      -9.760   5.173  69.814  1.00  0.00    -0.157 OA 
HETATM   21  C   UNL     1      -7.927   7.228  67.764  1.00  0.00    -0.115 C  
HETATM   22  C   UNL     1      -8.527   7.280  69.984  1.00  0.00    -0.139 C  
HETATM   23  H   UNL     1      -9.992   5.161  70.736  1.00  0.00     0.000 HD 
HETATM   24  O   UNL     1      -7.408   7.177  69.103  1.00  0.00    -0.087 OA 
HETATM   25  C   UNL     1      -9.669   6.509  69.285  1.00  0.00    -0.144 C  
BRANCH  21  26
HETATM   26  C   UNL     1      -7.972   8.658  67.220  1.00  0.00    -0.101 C  
HETATM   27  H   UNL     1      -8.986   9.707  65.871  1.00  0.00     0.000 HD 
HETATM   28  O   UNL     1      -8.958   8.820  66.209  1.00  0.00    -0.151 OA 
ENDBRANCH  21  26
BRANCH  22  29
HETATM   29  O   UNL     1      -8.863   8.655  70.210  1.00  0.00    -0.138 OA 
BRANCH  29  30
HETATM   30  C   UNL     1      -9.911   8.941  71.197  1.00  0.00    -0.275 C  
HETATM   31  C   UNL     1     -10.079   7.753  72.179  1.00  0.00    -0.210 C  
HETATM   32  O   UNL     1      -9.200   7.952  73.307  1.00  0.00    -0.232 OA 
HETATM   33  C   UNL     1     -11.476   7.453  72.746  1.00  0.00    -0.265 C  
HETATM   34  C   UNL     1     -12.614   7.898  71.845  1.00  0.00    -0.348 C  
HETATM   35  N   UNL     1     -11.616   5.994  72.990  1.00  0.00    -0.493 NA 
HETATM   36  H   UNL     1      -9.303   7.224  73.908  1.00  0.00     0.000 HD 
HETATM   37  H1  UNL     1     -12.543   5.796  73.367  1.00  0.00     0.000 HD 
HETATM   38  H2  UNL     1     -10.873   5.632  73.588  1.00  0.00     0.000 HD 
HETATM   39  C   UNL     1     -12.439   9.367  71.464  1.00  0.00    -0.366 C  
HETATM   40  C   UNL     1     -11.196   9.529  70.551  1.00  0.00    -0.287 C  
HETATM   41  N   UNL     1     -13.672   9.828  70.788  1.00  0.00    -0.478 NA 
HETATM   42  H2  UNL     1     -14.509   9.666  71.349  1.00  0.00     0.000 HD 
HETATM   43  H1  UNL     1     -13.554  10.808  70.534  1.00  0.00     0.000 HD 
BRANCH  40  44
HETATM   44  O   UNL     1     -11.061  10.943  70.266  1.00  0.00    -0.248 OA 
BRANCH  44  45
HETATM   45  C   UNL     1     -12.219  11.571  69.709  1.00  0.00    -0.244 C  
HETATM   46  O   UNL     1     -12.704  12.622  70.548  1.00  0.00    -0.134 OA 
HETATM   47  C   UNL     1     -11.789  13.719  70.680  1.00  0.00    -0.185 C  
HETATM   48  C   UNL     1     -11.446  14.338  69.317  1.00  0.00    -0.289 C  
HETATM   49  H1  UNL     1     -11.182  11.374  66.434  1.00  0.00     0.000 HD 
HETATM   50  O   UNL     1     -10.492  15.403  69.427  1.00  0.00    -0.227 OA 
HETATM   51  H2  UNL     1     -12.045  10.249  67.333  1.00  0.00     0.000 HD 
HETATM   52  C   UNL     1     -10.893  13.256  68.378  1.00  0.00    -0.258 C  
HETATM   53  H   UNL     1     -10.280  15.786  68.583  1.00  0.00     0.000 HD 
HETATM   54  O   UNL     1     -10.668  13.816  67.073  1.00  0.00    -0.279 OA 
HETATM   55  C   UNL     1     -11.895  12.091  68.280  1.00  0.00    -0.287 C  
HETATM   56  N   UNL     1     -11.394  11.033  67.371  1.00  0.00    -0.462 NA 
HETATM   57  H   UNL     1     -10.327  13.147  66.492  1.00  0.00     0.000 HD 
BRANCH  47  58
HETATM   58  C   UNL     1     -12.389  14.734  71.679  1.00  0.00    -0.345 C  
HETATM   59  H1  UNL     1     -13.546  14.805  73.440  1.00  0.00     0.000 HD 
HETATM   60  N   UNL     1     -13.149  14.134  72.781  1.00  0.00    -0.490 NA 
HETATM   61  H2  UNL     1     -12.576  13.448  73.274  1.00  0.00     0.000 HD 
ENDBRANCH  47  58
ENDBRANCH  44  45
ENDBRANCH  40  44
ENDBRANCH  29  30
ENDBRANCH  22  29
ENDBRANCH  18  19
ENDBRANCH   7  18
ENDBRANCH   2   5
TORSDOF 9
ENDMDL
MODEL      155
REMARK 921   NORMALIZED FREE ENERGY PREDICTED BY IDOCK:   -4.54 KCAL/MOL
REMARK 922        TOTAL FREE ENERGY PREDICTED BY IDOCK:   -9.74 KCAL/MOL
REMARK 923 INTER-LIGAND FREE ENERGY PREDICTED BY IDOCK:   -8.26 KCAL/MOL
REMARK 924 INTRA-LIGAND FREE ENERGY PREDICTED BY IDOCK:   -1.49 KCAL/MOL
REMARK 927      BINDING AFFINITY PREDICTED BY RF-SCORE:    0.00 PKD
ROOT
HETATM    1  N   UNL     1     -11.228  17.022  64.390  1.00  0.00    -1.144 NA 
HETATM    2  C   UNL     1     -11.573  15.598  64.382  1.00  0.00    -0.249 C  
HETATM    3  H1  UNL     1     -11.556  17.557  63.586  1.00  0.00     0.000 HD 
HETATM    4  H2  UNL     1     -10.220  17.136  64.496  1.00  0.00     0.000 HD 
ENDROOT
BRANCH   2   5
HETATM    5  C   UNL     1     -11.072  14.784  65.604  1.00  0.00    -0.342 C  
HETATM    6  O   UNL     1     -10.486  13.503  65.254  1.00  0.00    -0.307 OA 
HETATM    7  C   UNL     1      -9.933  12.867  66.419  1.00  0.00    -0.267 C  
HETATM    8  C   UNL     1     -11.060  12.553  67.457  1.00  0.00    -0.267 C  
HETATM    9  O   UNL     1     -13.313  13.857  65.854  1.00  0.00    -0.560 OA 
HETATM   10  H   UNL     1     -14.053  13.724  66.436  1.00  0.00     0.000 HD 
HETATM   11  N   UNL     1     -11.979  11.492  66.927  1.00  0.00    -0.387 NA 
HETATM   12  C   UNL     1     -11.834  13.821  67.815  1.00  0.00    -0.369 C  
HETATM   13  H2  UNL     1     -11.470  10.651  66.653  1.00  0.00     0.000 HD 
HETATM   14  O   UNL     1     -11.081  14.685  68.677  1.00  0.00    -0.242 OA 
HETATM   15  C   UNL     1     -12.279  14.569  66.552  1.00  0.00    -0.244 C  
HETATM   16  H1  UNL     1     -12.714  11.287  67.603  1.00  0.00     0.000 HD 
HETATM   17  H   UNL     1     -11.562  15.474  68.900  1.00  0.00     0.000 HD 
BRANCH   7  18
HETATM   18  O   UNL     1      -9.395  11.580  66.172  1.00  0.00    -0.205 OA 
BRANCH  18  19
HETATM   19  C   UNL     1      -9.208  10.662  67.241  1.00  0.00    -0.143 C  
HETATM   20  O   UNL     1      -9.833   8.932  65.575  1.00  0.00    -0.458 OA 
HETATM   21  C   UNL     1      -7.705  10.804  67.513  1.00  0.00    -0.105 C  
HETATM   22  C   UNL     1      -7.980   8.552  67.127  1.00  0.00    -0.101 C  
HETATM   23  H   UNL     1      -9.942   8.009  65.380  1.00  0.00     0.000 HD 
HETATM   24  O   UNL     1      -7.069   9.640  66.960  1.00  0.00    -0.084 OA 
HETATM   25  C   UNL     1      -9.385   9.162  66.924  1.00  0.00    -0.156 C  
BRANCH  21  26
HETATM   26  C   UNL     1      -7.357  10.999  68.991  1.00  0.00    -0.123 C  
HETATM   27  H   UNL     1      -5.940  10.451  70.273  1.00  0.00     0.000 HD 
HETATM   28  O   UNL     1      -6.157  10.330  69.356  1.00  0.00    -0.040 OA 
ENDBRANCH  21  26
BRANCH  22  29
HETATM   29  O   UNL     1      -7.827   7.967  68.427  1.00  0.00    -0.117 OA 
BRANCH  29  30
HETATM   30  C   UNL     1      -7.561   6.525  68.492  1.00  0.00    -0.097 C  
HETATM   31  C   UNL     1      -6.484   6.119  67.452  1.00  0.00    -0.046 C  
HETATM   32  O   UNL     1      -5.182   6.214  68.068  1.00  0.00    -0.004 OA 
HETATM   33  C   UNL     1      -6.572   4.729  66.799  1.00  0.00    -0.050 C  
HETATM   34  C   UNL     1      -7.981   4.168  66.735  1.00  0.00    -0.097 C  
HETATM   35  N   UNL     1      -6.028   4.789  65.418  1.00  0.00    -0.022 NA 
HETATM   36  H   UNL     1      -4.522   5.966  67.431  1.00  0.00     0.000 HD 
HETATM   37  H1  UNL     1      -6.086   3.867  64.986  1.00  0.00     0.000 HD 
HETATM   38  H2  UNL     1      -5.080   5.165  65.395  1.00  0.00     0.000 HD 
HETATM   39  C   UNL     1      -8.626   4.207  68.119  1.00  0.00    -0.096 C  
HETATM   40  C   UNL     1      -8.863   5.678  68.547  1.00  0.00    -0.108 C  
HETATM   41  N   UNL     1      -9.893   3.446  68.069  1.00  0.00    -0.063 NA 
HETATM   42  H2  UNL     1      -9.765   2.495  67.724  1.00  0.00     0.000 HD 
HETATM   43  H1  UNL     1     -10.324   3.473  68.993  1.00  0.00     0.000 HD 
BRANCH  40  44
HETATM   44  O   UNL     1      -9.431   5.646  69.879  1.00  0.00    -0.148 OA 
BRANCH  44  45
HETATM   45  C   UNL     1      -8.623   5.014  70.877  1.00  0.00    -0.121 C  
HETATM   46  O   UNL     1      -7.950   5.973  71.696  1.00  0.00    -0.107 OA 
HETATM   47  C   UNL     1      -8.839   6.779  72.482  1.00  0.00    -0.126 C  
HETATM   48  C   UNL     1      -9.718   5.920  73.404  1.00  0.00    -0.157 C  
HETATM   49  H1  UNL     1     -10.788   2.409  71.482  1.00  0.00     0.000 HD 
HETATM   50  O   UNL     1     -10.649   6.709  74.158  1.00  0.00    -0.451 OA 
HETATM   51  H2  UNL     1      -9.559   2.511  70.343  1.00  0.00     0.000 HD 
HETATM   52  C   UNL     1     -10.488   4.884  72.571  1.00  0.00    -0.205 C  
HETATM   53  H   UNL     1     -11.193   6.177  74.729  1.00  0.00     0.000 HD 
HETATM   54  O   UNL     1     -11.231   4.017  73.446  1.00  0.00    -0.244 OA 
HETATM   55  C   UNL     1      -9.500   4.056  71.730  1.00  0.00    -0.145 C  
HETATM   56  N   UNL     1     -10.213   3.038  70.922  1.00  0.00     0.409 NA 
HETATM   57  H   UNL     1     -11.707   3.376  72.931  1.00  0.00     0.000 HD 
BRANCH  47  58
HETATM   58  C   UNL     1      -7.998   7.829  73.244  1.00  0.00    -0.139 C  
HETATM   59  H1  UNL     1      -6.651   9.411  72.890  1.00  0.00     0.000 HD 
HETATM   60  N   UNL     1      -7.207   8.719  72.387  1.00  0.00    -0.325 NA 
HETATM   61  H2  UNL     1      -7.808   9.176  71.701  1.00  0.00     0.000 HD 
ENDBRANCH  47  58
ENDBRANCH  44  45
ENDBRANCH  40  44
ENDBRANCH  29  30
ENDBRANCH  22  29
ENDBRANCH  18  19
ENDBRANCH   7  18
ENDBRANCH   2   5
TORSDOF 9
ENDMDL
MODEL      156
REMARK 921   NORMALIZED FREE ENERGY PREDICTED BY IDOCK:   -4.53 KCAL/MOL
REMARK 922        TOTAL FREE ENERGY PREDICTED BY IDOCK:   -9.73 KCAL/MOL
REMARK 923 INTER-LIGAND FREE ENERGY PREDICTED BY IDOCK:   -8.54 KCAL/MOL
REMARK 924 INTRA-LIGAND FREE ENERGY PREDICTED BY IDOCK:   -1.20 KCAL/MOL
REMARK 927      BINDING AFFINITY PREDICTED BY RF-SCORE:    0.00 PKD
ROOT
HETATM    1  N   UNL     1      -8.510   6.072  63.600  1.00  0.00    -0.330 NA 
HETATM    2  C   UNL     1      -8.266   4.639  63.783  1.00  0.00    -0.108 C  
HETATM    3  H1  UNL     1      -8.283   6.441  62.677  1.00  0.00     0.000 HD 
HETATM    4  H2  UNL     1      -8.021   6.605  64.318  1.00  0.00     0.000 HD 
ENDROOT
BRANCH   2   5
HETATM    5  C   UNL     1      -8.611   4.078  65.188  1.00  0.00    -0.114 C  
HETATM    6  O   UNL     1      -8.250   4.967  66.277  1.00  0.00    -0.107 OA 
HETATM    7  C   UNL     1      -8.714   4.438  67.532  1.00  0.00    -0.105 C  
HETATM    8  C   UNL     1      -8.015   3.074  67.842  1.00  0.00    -0.070 C  
HETATM    9  O   UNL     1      -6.460   2.932  65.215  1.00  0.00    -0.033 OA 
HETATM   10  H   UNL     1      -6.008   2.101  65.313  1.00  0.00     0.000 HD 
HETATM   11  N   UNL     1      -6.554   3.283  68.111  1.00  0.00    -0.037 NA 
HETATM   12  C   UNL     1      -8.227   2.085  66.696  1.00  0.00    -0.083 C  
HETATM   13  H2  UNL     1      -6.398   3.967  68.852  1.00  0.00     0.000 HD 
HETATM   14  O   UNL     1      -9.562   1.562  66.677  1.00  0.00    -0.341 OA 
HETATM   15  C   UNL     1      -7.875   2.724  65.347  1.00  0.00    -0.081 C  
HETATM   16  H1  UNL     1      -6.099   2.394  68.313  1.00  0.00     0.000 HD 
HETATM   17  H   UNL     1      -9.693   0.947  65.964  1.00  0.00     0.000 HD 
BRANCH   7  18
HETATM   18  O   UNL     1      -8.347   5.218  68.656  1.00  0.00    -0.090 OA 
BRANCH  18  19
HETATM   19  C   UNL     1      -8.951   6.484  68.880  1.00  0.00    -0.128 C  
HETATM   20  O   UNL     1      -7.569   7.238  66.961  1.00  0.00    -0.101 OA 
HETATM   21  C   UNL     1     -10.421   6.190  68.559  1.00  0.00    -0.237 C  
HETATM   22  C   UNL     1      -9.901   7.948  67.169  1.00  0.00    -0.208 C  
HETATM   23  H   UNL     1      -7.342   7.939  66.362  1.00  0.00     0.000 HD 
HETATM   24  O   UNL     1     -10.689   6.761  67.267  1.00  0.00    -0.267 OA 
HETATM   25  C   UNL     1      -8.583   7.625  67.907  1.00  0.00    -0.122 C  
BRANCH  21  26
HETATM   26  C   UNL     1     -11.403   6.691  69.622  1.00  0.00    -0.329 C  
HETATM   27  H   UNL     1     -11.948   6.237  71.478  1.00  0.00     0.000 HD 
HETATM   28  O   UNL     1     -11.340   5.926  70.818  1.00  0.00    -0.267 OA 
ENDBRANCH  21  26
BRANCH  22  29
HETATM   29  O   UNL     1     -10.592   9.058  67.757  1.00  0.00    -0.246 OA 
BRANCH  29  30
HETATM   30  C   UNL     1     -10.144  10.406  67.388  1.00  0.00    -0.196 C  
HETATM   31  C   UNL     1      -9.449  10.392  66.001  1.00  0.00    -0.185 C  
HETATM   32  O   UNL     1     -10.443  10.627  64.980  1.00  0.00    -0.295 OA 
HETATM   33  C   UNL     1      -8.296  11.374  65.740  1.00  0.00     0.100 C  
HETATM   34  C   UNL     1      -7.545  11.788  66.993  1.00  0.00    -0.147 C  
HETATM   35  N   UNL     1      -7.327  10.769  64.791  1.00  0.00    -0.347 NA 
HETATM   36  H   UNL     1     -10.018  10.619  64.130  1.00  0.00     0.000 HD 
HETATM   37  H1  UNL     1      -6.562  11.421  64.618  1.00  0.00     0.000 HD 
HETATM   38  H2  UNL     1      -7.774  10.465  63.927  1.00  0.00     0.000 HD 
HETATM   39  C   UNL     1      -8.524  12.299  68.048  1.00  0.00    -0.171 C  
HETATM   40  C   UNL     1      -9.412  11.133  68.551  1.00  0.00    -0.193 C  
HETATM   41  N   UNL     1      -7.750  12.906  69.153  1.00  0.00    -0.314 NA 
HETATM   42  H2  UNL     1      -7.109  13.631  68.829  1.00  0.00     0.000 HD 
HETATM   43  H1  UNL     1      -8.404  13.248  69.857  1.00  0.00     0.000 HD 
BRANCH  40  44
HETATM   44  O   UNL     1     -10.344  11.692  69.509  1.00  0.00     0.067 OA 
BRANCH  44  45
HETATM   45  C   UNL     1     -11.703  11.775  69.070  1.00  0.00    -0.328 C  
HETATM   46  O   UNL     1     -12.576  11.018  69.912  1.00  0.00    -0.261 OA 
HETATM   47  C   UNL     1     -12.653  11.518  71.254  1.00  0.00    -0.347 C  
HETATM   48  C   UNL     1     -13.129  12.978  71.289  1.00  0.00    -0.179 C  
HETATM   49  H1  UNL     1     -11.550  15.066  68.077  1.00  0.00     0.000 HD 
HETATM   50  O   UNL     1     -13.161  13.509  72.621  1.00  0.00    -0.491 OA 
HETATM   51  H2  UNL     1     -11.195  13.683  67.193  1.00  0.00     0.000 HD 
HETATM   52  C   UNL     1     -12.208  13.847  70.419  1.00  0.00    -0.368 C  
HETATM   53  H   UNL     1     -13.456  14.412  72.643  1.00  0.00     0.000 HD 
HETATM   54  O   UNL     1     -12.714  15.192  70.372  1.00  0.00    -0.458 OA 
HETATM   55  C   UNL     1     -12.138  13.265  68.995  1.00  0.00    -0.226 C  
HETATM   56  N   UNL     1     -11.264  14.088  68.126  1.00  0.00    -0.263 NA 
HETATM   57  H   UNL     1     -12.145  15.729  69.833  1.00  0.00     0.000 HD 
BRANCH  47  58
HETATM   58  C   UNL     1     -13.548  10.564  72.077  1.00  0.00    -0.115 C  
HETATM   59  H1  UNL     1     -13.641   8.557  72.717  1.00  0.00     0.000 HD 
HETATM   60  N   UNL     1     -13.050   9.187  72.173  1.00  0.00    -0.415 NA 
HETATM   61  H2  UNL     1     -12.096   9.180  72.537  1.00  0.00     0.000 HD 
ENDBRANCH  47  58
ENDBRANCH  44  45
ENDBRANCH  40  44
ENDBRANCH  29  30
ENDBRANCH  22  29
ENDBRANCH  18  19
ENDBRANCH   7  18
ENDBRANCH   2   5
TORSDOF 9
ENDMDL
MODEL      157
REMARK 921   NORMALIZED FREE ENERGY PREDICTED BY IDOCK:   -4.50 KCAL/MOL
REMARK 922        TOTAL FREE ENERGY PREDICTED BY IDOCK:   -9.69 KCAL/MOL
REMARK 923 INTER-LIGAND FREE ENERGY PREDICTED BY IDOCK:   -7.63 KCAL/MOL
REMARK 924 INTRA-LIGAND FREE ENERGY PREDICTED BY IDOCK:   -2.06 KCAL/MOL
REMARK 927      BINDING AFFINITY PREDICTED BY RF-SCORE:    0.00 PKD
ROOT
HETATM    1  N   UNL     1      -6.887  20.672  68.247  1.00  0.00    -0.222 NA 
HETATM    2  C   UNL     1      -6.455  19.340  67.816  1.00  0.00    -0.220 C  
HETATM    3  H1  UNL     1      -6.206  21.419  68.113  1.00  0.00     0.000 HD 
HETATM    4  H2  UNL     1      -7.187  20.644  69.221  1.00  0.00     0.000 HD 
ENDROOT
BRANCH   2   5
HETATM    5  C   UNL     1      -7.492  18.204  68.020  1.00  0.00    -0.240 C  
HETATM    6  O   UNL     1      -7.091  16.935  67.441  1.00  0.00    -0.141 OA 
HETATM    7  C   UNL     1      -8.038  15.907  67.779  1.00  0.00    -0.143 C  
HETATM    8  C   UNL     1      -9.441  16.233  67.169  1.00  0.00    -0.224 C  
HETATM    9  O   UNL     1      -8.634  18.936  65.995  1.00  0.00    -0.467 OA 
HETATM   10  H   UNL     1      -9.454  19.223  65.609  1.00  0.00     0.000 HD 
HETATM   11  N   UNL     1      -9.395  16.137  65.672  1.00  0.00    -0.422 NA 
HETATM   12  C   UNL     1      -9.917  17.614  67.617  1.00  0.00    -0.323 C  
HETATM   13  H2  UNL     1      -9.046  15.231  65.360  1.00  0.00     0.000 HD 
HETATM   14  O   UNL     1     -10.351  17.615  68.984  1.00  0.00    -0.360 OA 
HETATM   15  C   UNL     1      -8.829  18.671  67.392  1.00  0.00    -0.272 C  
HETATM   16  H1  UNL     1     -10.310  16.350  65.274  1.00  0.00     0.000 HD 
HETATM   17  H   UNL     1     -10.648  18.474  69.263  1.00  0.00     0.000 HD 
BRANCH   7  18
HETATM   18  O   UNL     1      -7.751  14.647  67.198  1.00  0.00    -0.193 OA 
BRANCH  18  19
HETATM   19  C   UNL     1      -7.821  13.462  67.981  1.00  0.00    -0.148 C  
HETATM   20  O   UNL     1      -9.747  12.879  66.529  1.00  0.00    -0.246 OA 
HETATM   21  C   UNL     1      -6.496  12.776  67.627  1.00  0.00    -0.152 C  
HETATM   22  C   UNL     1      -8.084  11.187  67.127  1.00  0.00    -0.138 C  
HETATM   23  H   UNL     1     -10.406  12.238  66.288  1.00  0.00     0.000 HD 
HETATM   24  O   UNL     1      -6.811  11.698  66.729  1.00  0.00    -0.137 OA 
HETATM   25  C   UNL     1      -8.891  12.421  67.591  1.00  0.00    -0.177 C  
BRANCH  21  26
HETATM   26  C   UNL     1      -5.701  12.295  68.844  1.00  0.00    -0.060 C  
HETATM   27  H   UNL     1      -6.013  11.900  70.766  1.00  0.00     0.000 HD 
HETATM   28  O   UNL     1      -6.506  12.199  70.011  1.00  0.00    -0.088 OA 
ENDBRANCH  21  26
BRANCH  22  29
HETATM   29  O   UNL     1      -7.930  10.218  68.172  1.00  0.00    -0.106 OA 
BRANCH  29  30
HETATM   30  C   UNL     1      -8.134   8.807  67.820  1.00  0.00    -0.107 C  
HETATM   31  C   UNL     1      -7.691   8.537  66.358  1.00  0.00    -0.098 C  
HETATM   32  O   UNL     1      -6.297   8.160  66.356  1.00  0.00    -0.048 OA 
HETATM   33  C   UNL     1      -8.445   7.476  65.540  1.00  0.00    -0.119 C  
HETATM   34  C   UNL     1      -9.884   7.269  65.978  1.00  0.00     0.252 C  
HETATM   35  N   UNL     1      -8.443   7.856  64.104  1.00  0.00    -0.376 NA 
HETATM   36  H   UNL     1      -6.026   7.994  65.461  1.00  0.00     0.000 HD 
HETATM   37  H1  UNL     1      -8.943   7.152  63.562  1.00  0.00     0.000 HD 
HETATM   38  H2  UNL     1      -7.500   8.015  63.750  1.00  0.00     0.000 HD 
HETATM   39  C   UNL     1      -9.942   7.002  67.481  1.00  0.00    -0.156 C  
HETATM   40  C   UNL     1      -9.527   8.277  68.259  1.00  0.00    -0.138 C  
HETATM   41  N   UNL     1     -11.315   6.576  67.830  1.00  0.00    -0.674 NA 
HETATM   42  H2  UNL     1     -11.630   5.778  67.278  1.00  0.00     0.000 HD 
HETATM   43  H1  UNL     1     -11.354   6.397  68.833  1.00  0.00     0.000 HD 
BRANCH  40  44
HETATM   44  O   UNL     1      -9.559   7.942  69.668  1.00  0.00    -0.163 OA 
BRANCH  44  45
HETATM   45  C   UNL     1      -9.207   6.594  69.989  1.00  0.00    -0.158 C  
HETATM   46  O   UNL     1      -7.825   6.476  70.334  1.00  0.00    -0.105 OA 
HETATM   47  C   UNL     1      -7.472   7.181  71.533  1.00  0.00    -0.086 C  
HETATM   48  C   UNL     1      -8.291   6.697  72.738  1.00  0.00    -0.118 C  
HETATM   49  H1  UNL     1     -12.168   5.824  71.564  1.00  0.00     0.000 HD 
HETATM   50  O   UNL     1      -7.987   7.428  73.933  1.00  0.00    -0.114 OA 
HETATM   51  H2  UNL     1     -11.778   5.693  69.936  1.00  0.00     0.000 HD 
HETATM   52  C   UNL     1      -9.791   6.824  72.432  1.00  0.00    -0.158 C  
HETATM   53  H   UNL     1      -8.494   7.128  74.679  1.00  0.00     0.000 HD 
HETATM   54  O   UNL     1     -10.555   6.276  73.521  1.00  0.00    -0.247 OA 
HETATM   55  C   UNL     1     -10.123   6.071  71.131  1.00  0.00    -0.194 C  
HETATM   56  N   UNL     1     -11.568   6.167  70.814  1.00  0.00    -0.268 NA 
HETATM   57  H   UNL     1     -11.482   6.354  73.332  1.00  0.00     0.000 HD 
BRANCH  47  58
HETATM   58  C   UNL     1      -5.946   7.053  71.740  1.00  0.00    -0.037 C  
HETATM   59  H1  UNL     1      -4.333   8.052  72.660  1.00  0.00     0.000 HD 
HETATM   60  N   UNL     1      -5.341   8.136  72.524  1.00  0.00    -0.036 NA 
HETATM   61  H2  UNL     1      -5.814   8.229  73.423  1.00  0.00     0.000 HD 
ENDBRANCH  47  58
ENDBRANCH  44  45
ENDBRANCH  40  44
ENDBRANCH  29  30
ENDBRANCH  22  29
ENDBRANCH  18  19
ENDBRANCH   7  18
ENDBRANCH   2   5
TORSDOF 9
ENDMDL
MODEL      158
REMARK 921   NORMALIZED FREE ENERGY PREDICTED BY IDOCK:   -4.48 KCAL/MOL
REMARK 922        TOTAL FREE ENERGY PREDICTED BY IDOCK:   -9.65 KCAL/MOL
REMARK 923 INTER-LIGAND FREE ENERGY PREDICTED BY IDOCK:   -9.82 KCAL/MOL
REMARK 924 INTRA-LIGAND FREE ENERGY PREDICTED BY IDOCK:    0.17 KCAL/MOL
REMARK 927      BINDING AFFINITY PREDICTED BY RF-SCORE:    0.00 PKD
ROOT
HETATM    1  N   UNL     1      -8.968  18.361  68.613  1.00  0.00    -0.311 NA 
HETATM    2  C   UNL     1      -9.976  18.748  67.622  1.00  0.00    -0.345 C  
HETATM    3  H1  UNL     1      -8.514  19.133  69.101  1.00  0.00     0.000 HD 
HETATM    4  H2  UNL     1      -8.266  17.760  68.182  1.00  0.00     0.000 HD 
ENDROOT
BRANCH   2   5
HETATM    5  C   UNL     1     -10.666  17.573  66.880  1.00  0.00    -0.127 C  
HETATM    6  O   UNL     1     -11.035  16.470  67.747  1.00  0.00    -0.327 OA 
HETATM    7  C   UNL     1     -11.779  15.481  67.014  1.00  0.00     0.178 C  
HETATM    8  C   UNL     1     -10.896  14.860  65.882  1.00  0.00    -0.334 C  
HETATM    9  O   UNL     1      -8.467  16.644  66.387  1.00  0.00    -0.258 OA 
HETATM   10  H   UNL     1      -7.870  16.339  65.713  1.00  0.00     0.000 HD 
HETATM   11  N   UNL     1      -9.787  14.042  66.474  1.00  0.00    -0.281 NA 
HETATM   12  C   UNL     1     -10.346  15.952  64.966  1.00  0.00    -0.159 C  
HETATM   13  H2  UNL     1     -10.139  13.330  67.115  1.00  0.00     0.000 HD 
HETATM   14  O   UNL     1     -11.352  16.477  64.090  1.00  0.00    -1.381 OA 
HETATM   15  C   UNL     1      -9.694  17.077  65.780  1.00  0.00    -0.050 C  
HETATM   16  H1  UNL     1      -9.211  13.637  65.736  1.00  0.00     0.000 HD 
HETATM   17  H   UNL     1     -11.010  17.156  63.520  1.00  0.00     0.000 HD 
BRANCH   7  18
HETATM   18  O   UNL     1     -12.125  14.338  67.776  1.00  0.00    -0.363 OA 
BRANCH  18  19
HETATM   19  C   UNL     1     -11.169  13.313  68.008  1.00  0.00    -0.276 C  
HETATM   20  O   UNL     1     -11.280  14.047  70.376  1.00  0.00    -0.488 OA 
HETATM   21  C   UNL     1     -11.974  12.053  67.669  1.00  0.00    -0.079 C  
HETATM   22  C   UNL     1     -11.233  11.667  69.813  1.00  0.00    -0.127 C  
HETATM   23  H   UNL     1     -11.004  13.905  71.274  1.00  0.00     0.000 HD 
HETATM   24  O   UNL     1     -12.320  11.430  68.918  1.00  0.00    -0.446 OA 
HETATM   25  C   UNL     1     -10.719  13.082  69.467  1.00  0.00     0.306 C  
BRANCH  21  26
HETATM   26  C   UNL     1     -11.249  11.086  66.729  1.00  0.00    -0.089 C  
HETATM   27  H   UNL     1     -10.759  10.965  64.807  1.00  0.00     0.000 HD 
HETATM   28  O   UNL     1     -11.209  11.564  65.391  1.00  0.00    -0.245 OA 
ENDBRANCH  21  26
BRANCH  22  29
HETATM   29  O   UNL     1     -10.219  10.667  69.644  1.00  0.00    -0.206 OA 
BRANCH  29  30
HETATM   30  C   UNL     1     -10.652   9.265  69.609  1.00  0.00    -0.229 C  
HETATM   31  C   UNL     1     -11.471   8.912  70.878  1.00  0.00    -0.288 C  
HETATM   32  O   UNL     1     -12.868   9.172  70.617  1.00  0.00    -0.494 OA 
HETATM   33  C   UNL     1     -11.378   7.487  71.447  1.00  0.00    -0.258 C  
HETATM   34  C   UNL     1     -10.069   6.784  71.134  1.00  0.00    -0.198 C  
HETATM   35  N   UNL     1     -11.547   7.525  72.922  1.00  0.00    -0.590 NA 
HETATM   36  H   UNL     1     -13.369   8.956  71.395  1.00  0.00     0.000 HD 
HETATM   37  H1  UNL     1     -11.485   6.579  73.300  1.00  0.00     0.000 HD 
HETATM   38  H2  UNL     1     -12.410   7.992  73.198  1.00  0.00     0.000 HD 
HETATM   39  C   UNL     1      -9.792   6.835  69.632  1.00  0.00    -0.165 C  
HETATM   40  C   UNL     1      -9.508   8.296  69.199  1.00  0.00    -0.155 C  
HETATM   41  N   UNL     1      -8.645   5.949  69.335  1.00  0.00    -0.113 NA 
HETATM   42  H2  UNL     1      -8.788   4.997  69.675  1.00  0.00     0.000 HD 
HETATM   43  H1  UNL     1      -8.461   5.983  68.333  1.00  0.00     0.000 HD 
BRANCH  40  44
HETATM   44  O   UNL     1      -9.300   8.280  67.765  1.00  0.00    -0.137 OA 
BRANCH  44  45
HETATM   45  C   UNL     1      -7.946   8.448  67.338  1.00  0.00    -0.106 C  
HETATM   46  O   UNL     1      -7.486   7.322  66.587  1.00  0.00    -0.085 OA 
HETATM   47  C   UNL     1      -8.181   7.137  65.346  1.00  0.00    -0.137 C  
HETATM   48  C   UNL     1      -8.065   8.373  64.442  1.00  0.00    -0.158 C  
HETATM   49  H1  UNL     1      -8.187  11.826  66.729  1.00  0.00     0.000 HD 
HETATM   50  O   UNL     1      -8.799   8.224  63.219  1.00  0.00    -0.386 OA 
HETATM   51  H2  UNL     1      -7.792  11.041  68.159  1.00  0.00     0.000 HD 
HETATM   52  C   UNL     1      -8.571   9.615  65.190  1.00  0.00    -0.157 C  
HETATM   53  H   UNL     1      -8.727   8.989  62.659  1.00  0.00     0.000 HD 
HETATM   54  O   UNL     1      -8.367  10.785  64.379  1.00  0.00    -0.345 OA 
HETATM   55  C   UNL     1      -7.814   9.764  66.522  1.00  0.00    -0.109 C  
HETATM   56  N   UNL     1      -8.274  10.963  67.264  1.00  0.00    -0.121 NA 
HETATM   57  H   UNL     1      -8.680  11.553  64.842  1.00  0.00     0.000 HD 
BRANCH  47  58
HETATM   58  C   UNL     1      -7.657   5.843  64.683  1.00  0.00    -0.089 C  
HETATM   59  H1  UNL     1      -7.324   3.806  65.114  1.00  0.00     0.000 HD 
HETATM   60  N   UNL     1      -7.671   4.661  65.552  1.00  0.00    -0.089 NA 
HETATM   61  H2  UNL     1      -8.606   4.511  65.932  1.00  0.00     0.000 HD 
ENDBRANCH  47  58
ENDBRANCH  44  45
ENDBRANCH  40  44
ENDBRANCH  29  30
ENDBRANCH  22  29
ENDBRANCH  18  19
ENDBRANCH   7  18
ENDBRANCH   2   5
TORSDOF 9
ENDMDL
MODEL      159
REMARK 921   NORMALIZED FREE ENERGY PREDICTED BY IDOCK:   -4.47 KCAL/MOL
REMARK 922        TOTAL FREE ENERGY PREDICTED BY IDOCK:   -9.63 KCAL/MOL
REMARK 923 INTER-LIGAND FREE ENERGY PREDICTED BY IDOCK:   -8.76 KCAL/MOL
REMARK 924 INTRA-LIGAND FREE ENERGY PREDICTED BY IDOCK:   -0.87 KCAL/MOL
REMARK 927      BINDING AFFINITY PREDICTED BY RF-SCORE:    0.00 PKD
ROOT
HETATM    1  N   UNL     1      -7.552   5.211  66.098  1.00  0.00    -0.086 NA 
HETATM    2  C   UNL     1      -7.313   6.452  66.839  1.00  0.00    -0.079 C  
HETATM    3  H1  UNL     1      -7.768   4.394  66.669  1.00  0.00     0.000 HD 
HETATM    4  H2  UNL     1      -6.761   5.010  65.487  1.00  0.00     0.000 HD 
ENDROOT
BRANCH   2   5
HETATM    5  C   UNL     1      -6.984   7.695  65.969  1.00  0.00    -0.065 C  
HETATM    6  O   UNL     1      -7.939   8.778  66.113  1.00  0.00    -0.099 OA 
HETATM    7  C   UNL     1      -7.501   9.935  65.379  1.00  0.00    -0.132 C  
HETATM    8  C   UNL     1      -7.437   9.619  63.848  1.00  0.00    -0.123 C  
HETATM    9  O   UNL     1      -8.198   6.672  64.119  1.00  0.00    -0.276 OA 
HETATM   10  H   UNL     1      -8.166   6.389  63.213  1.00  0.00     0.000 HD 
HETATM   11  N   UNL     1      -8.817   9.405  63.300  1.00  0.00    -0.347 NA 
HETATM   12  C   UNL     1      -6.545   8.407  63.583  1.00  0.00    -0.076 C  
HETATM   13  H2  UNL     1      -9.432  10.193  63.500  1.00  0.00     0.000 HD 
HETATM   14  O   UNL     1      -5.154   8.722  63.723  1.00  0.00    -0.054 OA 
HETATM   15  C   UNL     1      -6.930   7.232  64.492  1.00  0.00    -0.052 C  
HETATM   16  H1  UNL     1      -8.775   9.199  62.303  1.00  0.00     0.000 HD 
HETATM   17  H   UNL     1      -4.599   7.969  63.558  1.00  0.00     0.000 HD 
BRANCH   7  18
HETATM   18  O   UNL     1      -8.411  11.019  65.417  1.00  0.00    -0.138 OA 
BRANCH  18  19
HETATM   19  C   UNL     1      -9.353  11.130  66.476  1.00  0.00    -0.180 C  
HETATM   20  O   UNL     1      -9.301  13.560  65.975  1.00  0.00    -0.477 OA 
HETATM   21  C   UNL     1     -10.554  10.365  65.906  1.00  0.00    -0.044 C  
HETATM   22  C   UNL     1     -11.422  12.430  66.431  1.00  0.00    -0.373 C  
HETATM   23  H   UNL     1      -9.649  14.425  66.158  1.00  0.00     0.000 HD 
HETATM   24  O   UNL     1     -11.523  11.348  65.504  1.00  0.00    -0.099 OA 
HETATM   25  C   UNL     1      -9.919  12.535  66.774  1.00  0.00    -0.228 C  
BRANCH  21  26
HETATM   26  C   UNL     1     -11.148   9.334  66.870  1.00  0.00     0.474 C  
HETATM   27  H   UNL     1     -10.787   8.611  68.685  1.00  0.00     0.000 HD 
HETATM   28  O   UNL     1     -10.419   9.250  68.087  1.00  0.00    -0.207 OA 
ENDBRANCH  21  26
BRANCH  22  29
HETATM   29  O   UNL     1     -12.224  12.173  67.591  1.00  0.00    -0.462 OA 
BRANCH  29  30
HETATM   30  C   UNL     1     -11.741  12.693  68.875  1.00  0.00    -0.325 C  
HETATM   31  C   UNL     1     -12.106  11.725  70.031  1.00  0.00    -0.310 C  
HETATM   32  O   UNL     1     -11.029  10.779  70.204  1.00  0.00    -0.409 OA 
HETATM   33  C   UNL     1     -12.414  12.312  71.418  1.00  0.00    -0.106 C  
HETATM   34  C   UNL     1     -12.951  13.731  71.381  1.00  0.00    -0.433 C  
HETATM   35  N   UNL     1     -13.408  11.455  72.115  1.00  0.00    -0.568 NA 
HETATM   36  H   UNL     1     -11.253  10.186  70.912  1.00  0.00     0.000 HD 
HETATM   37  H1  UNL     1     -13.612  11.844  73.036  1.00  0.00     0.000 HD 
HETATM   38  H2  UNL     1     -13.105  10.482  72.169  1.00  0.00     0.000 HD 
HETATM   39  C   UNL     1     -12.020  14.623  70.561  1.00  0.00    -0.310 C  
HETATM   40  C   UNL     1     -12.065  14.200  69.070  1.00  0.00    -0.313 C  
HETATM   41  N   UNL     1     -12.441  16.031  70.738  1.00  0.00    -0.495 NA 
HETATM   42  H2  UNL     1     -12.482  16.306  71.720  1.00  0.00     0.000 HD 
HETATM   43  H1  UNL     1     -11.819  16.626  70.191  1.00  0.00     0.000 HD 
BRANCH  40  44
HETATM   44  O   UNL     1     -11.131  15.051  68.360  1.00  0.00    -0.255 OA 
BRANCH  44  45
HETATM   45  C   UNL     1     -10.299  15.872  69.184  1.00  0.00    -0.237 C  
HETATM   46  O   UNL     1      -9.137  15.168  69.630  1.00  0.00    -0.183 OA 
HETATM   47  C   UNL     1      -8.249  14.796  68.566  1.00  0.00    -0.153 C  
HETATM   48  C   UNL     1      -7.770  16.021  67.773  1.00  0.00    -0.138 C  
HETATM   49  H1  UNL     1     -10.839  18.785  67.433  1.00  0.00     0.000 HD 
HETATM   50  O   UNL     1      -6.923  15.660  66.673  1.00  0.00    -0.218 OA 
HETATM   51  H2  UNL     1     -11.723  18.146  68.709  1.00  0.00     0.000 HD 
HETATM   52  C   UNL     1      -8.981  16.805  67.245  1.00  0.00    -0.212 C  
HETATM   53  H   UNL     1      -6.627  16.418  66.182  1.00  0.00     0.000 HD 
HETATM   54  O   UNL     1      -8.532  18.005  66.590  1.00  0.00    -0.246 OA 
HETATM   55  C   UNL     1      -9.916  17.167  68.414  1.00  0.00    -0.310 C  
HETATM   56  N   UNL     1     -11.090  17.935  67.937  1.00  0.00    -0.062 NA 
HETATM   57  H   UNL     1      -9.281  18.490  66.264  1.00  0.00     0.000 HD 
BRANCH  47  58
HETATM   58  C   UNL     1      -7.092  13.966  69.167  1.00  0.00    -0.069 C  
HETATM   59  H1  UNL     1      -6.658  12.015  69.838  1.00  0.00     0.000 HD 
HETATM   60  N   UNL     1      -7.422  12.563  69.441  1.00  0.00    -0.284 NA 
HETATM   61  H2  UNL     1      -7.781  12.113  68.598  1.00  0.00     0.000 HD 
ENDBRANCH  47  58
ENDBRANCH  44  45
ENDBRANCH  40  44
ENDBRANCH  29  30
ENDBRANCH  22  29
ENDBRANCH  18  19
ENDBRANCH   7  18
ENDBRANCH   2   5
TORSDOF 9
ENDMDL
MODEL      160
REMARK 921   NORMALIZED FREE ENERGY PREDICTED BY IDOCK:   -4.47 KCAL/MOL
REMARK 922        TOTAL FREE ENERGY PREDICTED BY IDOCK:   -9.63 KCAL/MOL
REMARK 923 INTER-LIGAND FREE ENERGY PREDICTED BY IDOCK:   -7.64 KCAL/MOL
REMARK 924 INTRA-LIGAND FREE ENERGY PREDICTED BY IDOCK:   -1.99 KCAL/MOL
REMARK 927      BINDING AFFINITY PREDICTED BY RF-SCORE:    0.00 PKD
ROOT
HETATM    1  N   UNL     1      -9.409   1.790  72.152  1.00  0.00    -0.080 NA 
HETATM    2  C   UNL     1      -8.952   2.961  71.398  1.00  0.00    -0.095 C  
HETATM    3  H1  UNL     1      -9.002   0.900  71.868  1.00  0.00     0.000 HD 
HETATM    4  H2  UNL     1     -10.427   1.733  72.125  1.00  0.00     0.000 HD 
ENDROOT
BRANCH   2   5
HETATM    5  C   UNL     1      -9.571   4.316  71.829  1.00  0.00    -0.154 C  
HETATM    6  O   UNL     1      -8.638   5.427  71.783  1.00  0.00    -0.128 OA 
HETATM    7  C   UNL     1      -9.313   6.663  72.073  1.00  0.00    -0.142 C  
HETATM    8  C   UNL     1      -9.887   6.645  73.527  1.00  0.00    -0.207 C  
HETATM    9  O   UNL     1      -9.041   3.775  74.146  1.00  0.00    -0.090 OA 
HETATM   10  H   UNL     1      -9.375   3.670  75.030  1.00  0.00     0.000 HD 
HETATM   11  N   UNL     1      -8.771   6.656  74.530  1.00  0.00    -0.158 NA 
HETATM   12  C   UNL     1     -10.800   5.437  73.734  1.00  0.00    -0.233 C  
HETATM   13  H2  UNL     1      -8.135   7.439  74.383  1.00  0.00     0.000 HD 
HETATM   14  O   UNL     1     -12.067   5.603  73.082  1.00  0.00    -0.471 OA 
HETATM   15  C   UNL     1     -10.116   4.145  73.270  1.00  0.00    -0.142 C  
HETATM   16  H1  UNL     1      -9.145   6.644  75.479  1.00  0.00     0.000 HD 
HETATM   17  H   UNL     1     -12.635   4.852  73.210  1.00  0.00     0.000 HD 
BRANCH   7  18
HETATM   18  O   UNL     1      -8.458   7.792  72.109  1.00  0.00    -0.111 OA 
BRANCH  18  19
HETATM   19  C   UNL     1      -8.356   8.652  70.982  1.00  0.00    -0.161 C  
HETATM   20  O   UNL     1      -6.192   7.506  70.578  1.00  0.00    -0.037 OA 
HETATM   21  C   UNL     1      -9.528   8.173  70.117  1.00  0.00    -0.167 C  
HETATM   22  C   UNL     1      -7.708   7.990  68.720  1.00  0.00    -0.108 C  
HETATM   23  H   UNL     1      -5.435   7.397  70.015  1.00  0.00     0.000 HD 
HETATM   24  O   UNL     1      -8.966   7.397  69.046  1.00  0.00    -0.132 OA 
HETATM   25  C   UNL     1      -7.126   8.475  70.067  1.00  0.00    -0.046 C  
BRANCH  21  26
HETATM   26  C   UNL     1     -10.421   9.304  69.598  1.00  0.00    -0.224 C  
HETATM   27  H   UNL     1     -11.453   9.755  67.961  1.00  0.00     0.000 HD 
HETATM   28  O   UNL     1     -10.899   9.054  68.283  1.00  0.00    -0.142 OA 
ENDBRANCH  21  26
BRANCH  22  29
HETATM   29  O   UNL     1      -7.889   9.067  67.791  1.00  0.00    -0.100 OA 
BRANCH  29  30
HETATM   30  C   UNL     1      -7.796   8.747  66.361  1.00  0.00    -0.099 C  
HETATM   31  C   UNL     1      -7.227   7.320  66.154  1.00  0.00    -0.074 C  
HETATM   32  O   UNL     1      -8.324   6.381  66.118  1.00  0.00    -0.116 OA 
HETATM   33  C   UNL     1      -6.357   7.042  64.917  1.00  0.00    -0.037 C  
HETATM   34  C   UNL     1      -5.628   8.264  64.389  1.00  0.00    -0.048 C  
HETATM   35  N   UNL     1      -5.350   5.998  65.237  1.00  0.00    -0.013 NA 
HETATM   36  H   UNL     1      -7.975   5.507  65.991  1.00  0.00     0.000 HD 
HETATM   37  H1  UNL     1      -4.773   5.813  64.416  1.00  0.00     0.000 HD 
HETATM   38  H2  UNL     1      -5.780   5.148  65.602  1.00  0.00     0.000 HD 
HETATM   39  C   UNL     1      -6.615   9.409  64.167  1.00  0.00    -0.095 C  
HETATM   40  C   UNL     1      -7.167   9.900  65.530  1.00  0.00    -0.122 C  
HETATM   41  N   UNL     1      -5.921  10.494  63.440  1.00  0.00    -0.297 NA 
HETATM   42  H2  UNL     1      -5.493  10.172  62.572  1.00  0.00     0.000 HD 
HETATM   43  H1  UNL     1      -6.580  11.258  63.292  1.00  0.00     0.000 HD 
BRANCH  40  44
HETATM   44  O   UNL     1      -8.126  10.948  65.246  1.00  0.00    -0.077 OA 
BRANCH  44  45
HETATM   45  C   UNL     1      -9.498  10.596  65.444  1.00  0.00    -0.215 C  
HETATM   46  O   UNL     1     -10.065  11.288  66.559  1.00  0.00    -0.206 OA 
HETATM   47  C   UNL     1     -10.133  12.709  66.377  1.00  0.00    -0.253 C  
HETATM   48  C   UNL     1     -10.956  13.083  65.135  1.00  0.00    -0.295 C  
HETATM   49  H1  UNL     1     -10.279  10.342  62.102  1.00  0.00     0.000 HD 
HETATM   50  O   UNL     1     -10.989  14.499  64.910  1.00  0.00    -0.373 OA 
HETATM   51  H2  UNL     1      -9.676   9.163  63.134  1.00  0.00     0.000 HD 
HETATM   52  C   UNL     1     -10.374  12.386  63.896  1.00  0.00    -0.423 C  
HETATM   53  H   UNL     1     -11.498  14.731  64.141  1.00  0.00     0.000 HD 
HETATM   54  O   UNL     1     -11.205  12.656  62.754  1.00  0.00    -0.527 OA 
HETATM   55  C   UNL     1     -10.301  10.868  64.141  1.00  0.00    -0.364 C  
HETATM   56  N   UNL     1      -9.752  10.164  62.957  1.00  0.00    -0.176 NA 
HETATM   57  H   UNL     1     -10.845  12.225  61.988  1.00  0.00     0.000 HD 
BRANCH  47  58
HETATM   58  C   UNL     1     -10.673  13.341  67.680  1.00  0.00    -0.239 C  
HETATM   59  H1  UNL     1     -12.404  14.263  68.453  1.00  0.00     0.000 HD 
HETATM   60  N   UNL     1     -12.048  13.846  67.593  1.00  0.00    -0.463 NA 
HETATM   61  H2  UNL     1     -12.676  13.110  67.269  1.00  0.00     0.000 HD 
ENDBRANCH  47  58
ENDBRANCH  44  45
ENDBRANCH  40  44
ENDBRANCH  29  30
ENDBRANCH  22  29
ENDBRANCH  18  19
ENDBRANCH   7  18
ENDBRANCH   2   5
TORSDOF 9
ENDMDL
MODEL      161
REMARK 921   NORMALIZED FREE ENERGY PREDICTED BY IDOCK:   -4.45 KCAL/MOL
REMARK 922        TOTAL FREE ENERGY PREDICTED BY IDOCK:   -9.61 KCAL/MOL
REMARK 923 INTER-LIGAND FREE ENERGY PREDICTED BY IDOCK:   -8.47 KCAL/MOL
REMARK 924 INTRA-LIGAND FREE ENERGY PREDICTED BY IDOCK:   -1.13 KCAL/MOL
REMARK 927      BINDING AFFINITY PREDICTED BY RF-SCORE:    0.00 PKD
ROOT
HETATM    1  N   UNL     1     -10.768   6.300  67.875  1.00  0.00    -0.274 NA 
HETATM    2  C   UNL     1      -9.747   5.287  67.596  1.00  0.00    -0.142 C  
HETATM    3  H1  UNL     1     -11.717   5.946  67.988  1.00  0.00     0.000 HD 
HETATM    4  H2  UNL     1     -10.749   7.022  67.155  1.00  0.00     0.000 HD 
ENDROOT
BRANCH   2   5
HETATM    5  C   UNL     1      -8.302   5.826  67.424  1.00  0.00    -0.104 C  
HETATM    6  O   UNL     1      -8.098   6.566  66.192  1.00  0.00    -0.108 OA 
HETATM    7  C   UNL     1      -6.779   7.139  66.163  1.00  0.00    -0.053 C  
HETATM    8  C   UNL     1      -5.693   6.013  66.172  1.00  0.00    -0.017 C  
HETATM    9  O   UNL     1      -7.670   3.696  66.421  1.00  0.00    -0.083 OA 
HETATM   10  H   UNL     1      -7.079   2.952  66.452  1.00  0.00     0.000 HD 
HETATM   11  N   UNL     1      -5.728   5.243  64.885  1.00  0.00    -0.017 NA 
HETATM   12  C   UNL     1      -5.884   5.087  67.373  1.00  0.00    -0.022 C  
HETATM   13  H2  UNL     1      -5.635   5.854  64.073  1.00  0.00     0.000 HD 
HETATM   14  O   UNL     1      -5.464   5.702  68.598  1.00  0.00    -0.006 OA 
HETATM   15  C   UNL     1      -7.340   4.613  67.475  1.00  0.00    -0.074 C  
HETATM   16  H1  UNL     1      -5.021   4.508  64.891  1.00  0.00     0.000 HD 
HETATM   17  H   UNL     1      -5.583   5.126  69.345  1.00  0.00     0.000 HD 
BRANCH   7  18
HETATM   18  O   UNL     1      -6.477   7.828  64.963  1.00  0.00    -0.044 OA 
BRANCH  18  19
HETATM   19  C   UNL     1      -7.061   9.096  64.696  1.00  0.00    -0.090 C  
HETATM   20  O   UNL     1      -8.757   7.803  63.429  1.00  0.00    -0.305 OA 
HETATM   21  C   UNL     1      -7.486   9.545  66.100  1.00  0.00    -0.100 C  
HETATM   22  C   UNL     1      -9.433   9.654  64.878  1.00  0.00    -0.220 C  
HETATM   23  H   UNL     1      -9.567   7.812  62.932  1.00  0.00     0.000 HD 
HETATM   24  O   UNL     1      -8.912   9.375  66.178  1.00  0.00    -0.146 OA 
HETATM   25  C   UNL     1      -8.376   9.112  63.889  1.00  0.00    -0.181 C  
BRANCH  21  26
HETATM   26  C   UNL     1      -7.059  10.973  66.452  1.00  0.00    -0.120 C  
HETATM   27  H   UNL     1      -5.580  11.891  67.409  1.00  0.00     0.000 HD 
HETATM   28  O   UNL     1      -5.845  11.006  67.190  1.00  0.00    -0.051 OA 
ENDBRANCH  21  26
BRANCH  22  29
HETATM   29  O   UNL     1      -9.651  11.062  64.718  1.00  0.00    -0.223 OA 
BRANCH  29  30
HETATM   30  C   UNL     1     -10.959  11.593  65.122  1.00  0.00    -0.266 C  
HETATM   31  C   UNL     1     -11.574  12.456  63.989  1.00  0.00    -0.413 C  
HETATM   32  O   UNL     1     -12.373  11.605  63.138  1.00  0.00    -0.937 OA 
HETATM   33  C   UNL     1     -12.450  13.661  64.369  1.00  0.00    -0.264 C  
HETATM   34  C   UNL     1     -12.117  14.261  65.723  1.00  0.00    -0.414 C  
HETATM   35  N   UNL     1     -12.312  14.724  63.340  1.00  0.00    -0.785 NA 
HETATM   36  H   UNL     1     -12.750  12.134  62.444  1.00  0.00     0.000 HD 
HETATM   37  H1  UNL     1     -12.893  15.523  63.592  1.00  0.00     0.000 HD 
HETATM   38  H2  UNL     1     -12.519  14.380  62.403  1.00  0.00     0.000 HD 
HETATM   39  C   UNL     1     -12.121  13.172  66.795  1.00  0.00    -0.327 C  
HETATM   40  C   UNL     1     -10.944  12.193  66.556  1.00  0.00    -0.284 C  
HETATM   41  N   UNL     1     -12.028  13.819  68.122  1.00  0.00    -0.374 NA 
HETATM   42  H2  UNL     1     -12.757  14.517  68.270  1.00  0.00     0.000 HD 
HETATM   43  H1  UNL     1     -12.031  13.092  68.838  1.00  0.00     0.000 HD 
BRANCH  40  44
HETATM   44  O   UNL     1     -11.033  11.165  67.573  1.00  0.00    -0.237 OA 
BRANCH  44  45
HETATM   45  C   UNL     1     -10.978  11.631  68.924  1.00  0.00    -0.233 C  
HETATM   46  O   UNL     1     -11.604  10.714  69.825  1.00  0.00    -0.261 OA 
HETATM   47  C   UNL     1     -10.937   9.446  69.907  1.00  0.00    -0.229 C  
HETATM   48  C   UNL     1      -9.475   9.603  70.349  1.00  0.00    -0.222 C  
HETATM   49  H1  UNL     1      -7.842  13.028  68.685  1.00  0.00     0.000 HD 
HETATM   50  O   UNL     1      -8.780   8.348  70.386  1.00  0.00    -0.133 OA 
HETATM   51  H2  UNL     1      -9.332  13.726  68.351  1.00  0.00     0.000 HD 
HETATM   52  C   UNL     1      -8.743  10.561  69.399  1.00  0.00    -0.078 C  
HETATM   53  H   UNL     1      -7.875   8.445  70.660  1.00  0.00     0.000 HD 
HETATM   54  O   UNL     1      -7.404  10.784  69.874  1.00  0.00    -0.306 OA 
HETATM   55  C   UNL     1      -9.501  11.900  69.325  1.00  0.00     0.602 C  
HETATM   56  N   UNL     1      -8.811  12.852  68.422  1.00  0.00    -0.160 NA 
HETATM   57  H   UNL     1      -6.951  11.378  69.286  1.00  0.00     0.000 HD 
BRANCH  47  58
HETATM   58  C   UNL     1     -11.761   8.523  70.833  1.00  0.00    -0.245 C  
HETATM   59  H1  UNL     1     -12.390   6.518  71.000  1.00  0.00     0.000 HD 
HETATM   60  N   UNL     1     -11.846   7.127  70.389  1.00  0.00    -0.530 NA 
HETATM   61  H2  UNL     1     -10.911   6.744  70.247  1.00  0.00     0.000 HD 
ENDBRANCH  47  58
ENDBRANCH  44  45
ENDBRANCH  40  44
ENDBRANCH  29  30
ENDBRANCH  22  29
ENDBRANCH  18  19
ENDBRANCH   7  18
ENDBRANCH   2   5
TORSDOF 9
ENDMDL
MODEL      162
REMARK 921   NORMALIZED FREE ENERGY PREDICTED BY IDOCK:   -4.42 KCAL/MOL
REMARK 922        TOTAL FREE ENERGY PREDICTED BY IDOCK:   -9.56 KCAL/MOL
REMARK 923 INTER-LIGAND FREE ENERGY PREDICTED BY IDOCK:   -7.79 KCAL/MOL
REMARK 924 INTRA-LIGAND FREE ENERGY PREDICTED BY IDOCK:   -1.77 KCAL/MOL
REMARK 927      BINDING AFFINITY PREDICTED BY RF-SCORE:    0.00 PKD
ROOT
HETATM    1  N   UNL     1     -12.931  13.777  70.198  1.00  0.00    -0.113 NA 
HETATM    2  C   UNL     1     -11.645  13.484  69.559  1.00  0.00    -0.294 C  
HETATM    3  H1  UNL     1     -12.908  13.852  71.214  1.00  0.00     0.000 HD 
HETATM    4  H2  UNL     1     -13.626  13.087  69.915  1.00  0.00     0.000 HD 
ENDROOT
BRANCH   2   5
HETATM    5  C   UNL     1     -11.679  13.369  68.012  1.00  0.00    -0.356 C  
HETATM    6  O   UNL     1     -10.507  12.726  67.447  1.00  0.00    -0.226 OA 
HETATM    7  C   UNL     1     -10.668  12.543  66.030  1.00  0.00    -0.262 C  
HETATM    8  C   UNL     1     -10.788  13.926  65.310  1.00  0.00    -0.333 C  
HETATM    9  O   UNL     1     -10.708  15.600  67.865  1.00  0.00    -0.277 OA 
HETATM   10  H   UNL     1     -10.795  16.479  67.513  1.00  0.00     0.000 HD 
HETATM   11  N   UNL     1      -9.486  14.668  65.383  1.00  0.00    -0.453 NA 
HETATM   12  C   UNL     1     -11.926  14.751  65.909  1.00  0.00    -0.152 C  
HETATM   13  H2  UNL     1      -8.712  14.115  65.017  1.00  0.00     0.000 HD 
HETATM   14  O   UNL     1     -13.213  14.266  65.503  1.00  0.00    -0.641 OA 
HETATM   15  C   UNL     1     -11.822  14.801  67.439  1.00  0.00    -0.295 C  
HETATM   16  H1  UNL     1      -9.564  15.570  64.914  1.00  0.00     0.000 HD 
HETATM   17  H   UNL     1     -13.921  14.779  65.876  1.00  0.00     0.000 HD 
BRANCH   7  18
HETATM   18  O   UNL     1      -9.539  11.976  65.390  1.00  0.00    -0.220 OA 
BRANCH  18  19
HETATM   19  C   UNL     1      -8.779  10.965  66.039  1.00  0.00    -0.186 C  
HETATM   20  O   UNL     1     -10.736   9.509  65.583  1.00  0.00     0.203 OA 
HETATM   21  C   UNL     1      -7.595  10.799  65.077  1.00  0.00     0.162 C  
HETATM   22  C   UNL     1      -8.461   8.674  65.248  1.00  0.00    -0.179 C  
HETATM   23  H   UNL     1     -11.117   8.639  65.626  1.00  0.00     0.000 HD 
HETATM   24  O   UNL     1      -7.815   9.579  64.351  1.00  0.00    -0.116 OA 
HETATM   25  C   UNL     1      -9.397   9.552  66.109  1.00  0.00    -0.198 C  
BRANCH  21  26
HETATM   26  C   UNL     1      -6.228  10.818  65.766  1.00  0.00    -0.101 C  
HETATM   27  H   UNL     1      -5.127  12.061  66.858  1.00  0.00     0.000 HD 
HETATM   28  O   UNL     1      -5.975  12.049  66.431  1.00  0.00    -0.138 OA 
ENDBRANCH  21  26
BRANCH  22  29
HETATM   29  O   UNL     1      -7.491   7.979  66.042  1.00  0.00    -0.075 OA 
BRANCH  29  30
HETATM   30  C   UNL     1      -7.684   6.536  66.234  1.00  0.00    -0.095 C  
HETATM   31  C   UNL     1      -6.738   5.728  65.308  1.00  0.00    -0.044 C  
HETATM   32  O   UNL     1      -5.499   5.482  66.008  1.00  0.00    -0.012 OA 
HETATM   33  C   UNL     1      -7.219   4.375  64.758  1.00  0.00    -0.070 C  
HETATM   34  C   UNL     1      -8.728   4.262  64.635  1.00  0.00    -0.137 C  
HETATM   35  N   UNL     1      -6.621   4.138  63.419  1.00  0.00    -0.033 NA 
HETATM   36  H   UNL     1      -4.920   4.987  65.440  1.00  0.00     0.000 HD 
HETATM   37  H1  UNL     1      -6.940   3.240  63.055  1.00  0.00     0.000 HD 
HETATM   38  H2  UNL     1      -5.604   4.206  63.435  1.00  0.00     0.000 HD 
HETATM   39  C   UNL     1      -9.392   4.625  65.962  1.00  0.00    -0.156 C  
HETATM   40  C   UNL     1      -9.184   6.132  66.260  1.00  0.00    -0.147 C  
HETATM   41  N   UNL     1     -10.828   4.281  65.879  1.00  0.00    -0.438 NA 
HETATM   42  H2  UNL     1     -10.983   3.307  65.617  1.00  0.00     0.000 HD 
HETATM   43  H1  UNL     1     -11.271   4.523  66.765  1.00  0.00     0.000 HD 
BRANCH  40  44
HETATM   44  O   UNL     1      -9.794   6.398  67.547  1.00  0.00    -0.117 OA 
BRANCH  44  45
HETATM   45  C   UNL     1      -8.887   6.732  68.600  1.00  0.00    -0.123 C  
HETATM   46  O   UNL     1      -9.172   8.018  69.155  1.00  0.00    -0.151 OA 
HETATM   47  C   UNL     1     -10.447   8.090  69.810  1.00  0.00    -0.227 C  
HETATM   48  C   UNL     1     -10.559   7.062  70.946  1.00  0.00    -0.217 C  
HETATM   49  H1  UNL     1      -8.645   3.545  69.877  1.00  0.00     0.000 HD 
HETATM   50  O   UNL     1     -11.847   7.085  71.576  1.00  0.00    -0.277 OA 
HETATM   51  H2  UNL     1      -7.733   4.264  68.665  1.00  0.00     0.000 HD 
HETATM   52  C   UNL     1     -10.286   5.652  70.401  1.00  0.00    -0.260 C  
HETATM   53  H   UNL     1     -11.917   6.449  72.279  1.00  0.00     0.000 HD 
HETATM   54  O   UNL     1     -10.292   4.705  71.483  1.00  0.00    -0.182 OA 
HETATM   55  C   UNL     1      -8.921   5.624  69.690  1.00  0.00    -0.123 C  
HETATM   56  N   UNL     1      -8.623   4.272  69.162  1.00  0.00    -0.081 NA 
HETATM   57  H   UNL     1     -10.123   3.833  71.146  1.00  0.00     0.000 HD 
BRANCH  47  58
HETATM   58  C   UNL     1     -10.671   9.545  70.279  1.00  0.00    -0.265 C  
HETATM   59  H1  UNL     1     -11.511  10.636  71.875  1.00  0.00     0.000 HD 
HETATM   60  N   UNL     1     -11.362   9.674  71.566  1.00  0.00    -0.380 NA 
HETATM   61  H2  UNL     1     -10.873   9.142  72.286  1.00  0.00     0.000 HD 
ENDBRANCH  47  58
ENDBRANCH  44  45
ENDBRANCH  40  44
ENDBRANCH  29  30
ENDBRANCH  22  29
ENDBRANCH  18  19
ENDBRANCH   7  18
ENDBRANCH   2   5
TORSDOF 9
ENDMDL
MODEL      163
REMARK 921   NORMALIZED FREE ENERGY PREDICTED BY IDOCK:   -4.42 KCAL/MOL
REMARK 922        TOTAL FREE ENERGY PREDICTED BY IDOCK:   -9.56 KCAL/MOL
REMARK 923 INTER-LIGAND FREE ENERGY PREDICTED BY IDOCK:   -7.67 KCAL/MOL
REMARK 924 INTRA-LIGAND FREE ENERGY PREDICTED BY IDOCK:   -1.89 KCAL/MOL
REMARK 927      BINDING AFFINITY PREDICTED BY RF-SCORE:    0.00 PKD
ROOT
HETATM    1  N   UNL     1      -7.818   4.435  69.934  1.00  0.00    -0.053 NA 
HETATM    2  C   UNL     1      -9.159   3.930  70.240  1.00  0.00    -0.119 C  
HETATM    3  H1  UNL     1      -7.242   3.826  69.354  1.00  0.00     0.000 HD 
HETATM    4  H2  UNL     1      -7.325   4.663  70.798  1.00  0.00     0.000 HD 
ENDROOT
BRANCH   2   5
HETATM    5  C   UNL     1     -10.035   4.857  71.123  1.00  0.00    -0.208 C  
HETATM    6  O   UNL     1      -9.473   6.181  71.318  1.00  0.00    -0.162 OA 
HETATM    7  C   UNL     1     -10.396   7.019  72.037  1.00  0.00    -0.198 C  
HETATM    8  C   UNL     1     -10.653   6.446  73.469  1.00  0.00    -0.276 C  
HETATM    9  O   UNL     1      -8.942   3.941  73.100  1.00  0.00    -0.105 OA 
HETATM   10  H   UNL     1      -9.058   3.512  73.940  1.00  0.00     0.000 HD 
HETATM   11  N   UNL     1      -9.413   6.557  74.306  1.00  0.00    -0.209 NA 
HETATM   12  C   UNL     1     -11.138   4.999  73.394  1.00  0.00    -0.335 C  
HETATM   13  H2  UNL     1      -9.059   7.513  74.338  1.00  0.00     0.000 HD 
HETATM   14  O   UNL     1     -12.501   4.911  72.958  1.00  0.00    -0.263 OA 
HETATM   15  C   UNL     1     -10.225   4.159  72.493  1.00  0.00    -0.174 C  
HETATM   16  H1  UNL     1      -9.580   6.183  75.240  1.00  0.00     0.000 HD 
HETATM   17  H   UNL     1     -12.803   4.011  72.911  1.00  0.00     0.000 HD 
BRANCH   7  18
HETATM   18  O   UNL     1      -9.896   8.313  72.323  1.00  0.00    -0.235 OA 
BRANCH  18  19
HETATM   19  C   UNL     1     -10.170   9.399  71.448  1.00  0.00    -0.227 C  
HETATM   20  O   UNL     1      -8.171   8.614  70.204  1.00  0.00    -0.111 OA 
HETATM   21  C   UNL     1     -11.522   8.986  70.853  1.00  0.00    -0.291 C  
HETATM   22  C   UNL     1     -10.188   9.309  69.006  1.00  0.00    -0.206 C  
HETATM   23  H   UNL     1      -7.609   8.712  69.444  1.00  0.00     0.000 HD 
HETATM   24  O   UNL     1     -11.266   8.522  69.516  1.00  0.00    -0.040 OA 
HETATM   25  C   UNL     1      -9.258   9.559  70.214  1.00  0.00    -0.258 C  
BRANCH  21  26
HETATM   26  C   UNL     1     -12.579  10.094  70.882  1.00  0.00    -0.360 C  
HETATM   27  H   UNL     1     -14.518  10.292  71.268  1.00  0.00     0.000 HD 
HETATM   28  O   UNL     1     -13.862   9.605  71.249  1.00  0.00    -0.276 OA 
ENDBRANCH  21  26
BRANCH  22  29
HETATM   29  O   UNL     1     -10.683  10.531  68.443  1.00  0.00    -0.194 OA 
BRANCH  29  30
HETATM   30  C   UNL     1      -9.970  11.078  67.282  1.00  0.00    -0.181 C  
HETATM   31  C   UNL     1     -10.341  12.567  67.063  1.00  0.00    -0.224 C  
HETATM   32  O   UNL     1      -9.415  13.392  67.805  1.00  0.00    -0.196 OA 
HETATM   33  C   UNL     1     -10.381  13.117  65.627  1.00  0.00    -0.284 C  
HETATM   34  C   UNL     1     -10.686  12.067  64.575  1.00  0.00    -0.358 C  
HETATM   35  N   UNL     1     -11.405  14.189  65.530  1.00  0.00    -0.312 NA 
HETATM   36  H   UNL     1      -9.642  14.304  67.670  1.00  0.00     0.000 HD 
HETATM   37  H1  UNL     1     -11.431  14.553  64.577  1.00  0.00     0.000 HD 
HETATM   38  H2  UNL     1     -11.257  14.926  66.219  1.00  0.00     0.000 HD 
HETATM   39  C   UNL     1      -9.732  10.882  64.723  1.00  0.00    -0.271 C  
HETATM   40  C   UNL     1     -10.025  10.134  66.048  1.00  0.00    -0.256 C  
HETATM   41  N   UNL     1      -9.898   9.996  63.551  1.00  0.00    -0.500 NA 
HETATM   42  H2  UNL     1      -9.776  10.489  62.666  1.00  0.00     0.000 HD 
HETATM   43  H1  UNL     1      -9.261   9.205  63.650  1.00  0.00     0.000 HD 
BRANCH  40  44
HETATM   44  O   UNL     1      -9.061   9.057  66.148  1.00  0.00    -0.170 OA 
BRANCH  44  45
HETATM   45  C   UNL     1      -7.783   9.319  65.562  1.00  0.00    -0.095 C  
HETATM   46  O   UNL     1      -6.897   9.955  66.486  1.00  0.00    -0.081 OA 
HETATM   47  C   UNL     1      -6.558   9.133  67.612  1.00  0.00    -0.064 C  
HETATM   48  C   UNL     1      -5.901   7.815  67.175  1.00  0.00    -0.040 C  
HETATM   49  H1  UNL     1      -7.661   6.435  63.687  1.00  0.00     0.000 HD 
HETATM   50  O   UNL     1      -5.604   6.960  68.288  1.00  0.00    -0.018 OA 
HETATM   51  H2  UNL     1      -8.317   7.926  63.281  1.00  0.00     0.000 HD 
HETATM   52  C   UNL     1      -6.823   7.073  66.196  1.00  0.00    -0.057 C  
HETATM   53  H   UNL     1      -5.197   6.145  68.017  1.00  0.00     0.000 HD 
HETATM   54  O   UNL     1      -6.162   5.891  65.711  1.00  0.00    -0.034 OA 
HETATM   55  C   UNL     1      -7.177   7.996  65.015  1.00  0.00    -0.069 C  
HETATM   56  N   UNL     1      -8.059   7.303  64.046  1.00  0.00    -0.075 NA 
HETATM   57  H   UNL     1      -6.733   5.433  65.106  1.00  0.00     0.000 HD 
BRANCH  47  58
HETATM   58  C   UNL     1      -5.680   9.965  68.574  1.00  0.00    -0.042 C  
HETATM   59  H1  UNL     1      -4.592  11.770  68.643  1.00  0.00     0.000 HD 
HETATM   60  N   UNL     1      -5.173  11.221  68.008  1.00  0.00    -0.043 NA 
HETATM   61  H2  UNL     1      -5.945  11.787  67.654  1.00  0.00     0.000 HD 
ENDBRANCH  47  58
ENDBRANCH  44  45
ENDBRANCH  40  44
ENDBRANCH  29  30
ENDBRANCH  22  29
ENDBRANCH  18  19
ENDBRANCH   7  18
ENDBRANCH   2   5
TORSDOF 9
ENDMDL
MODEL      164
REMARK 921   NORMALIZED FREE ENERGY PREDICTED BY IDOCK:   -4.41 KCAL/MOL
REMARK 922        TOTAL FREE ENERGY PREDICTED BY IDOCK:   -9.54 KCAL/MOL
REMARK 923 INTER-LIGAND FREE ENERGY PREDICTED BY IDOCK:   -7.00 KCAL/MOL
REMARK 924 INTRA-LIGAND FREE ENERGY PREDICTED BY IDOCK:   -2.54 KCAL/MOL
REMARK 927      BINDING AFFINITY PREDICTED BY RF-SCORE:    0.00 PKD
ROOT
HETATM    1  N   UNL     1     -11.892  12.032  66.375  1.00  0.00    -0.593 NA 
HETATM    2  C   UNL     1     -10.836  11.142  66.867  1.00  0.00    -0.279 C  
HETATM    3  H1  UNL     1     -12.285  12.670  67.067  1.00  0.00     0.000 HD 
HETATM    4  H2  UNL     1     -12.635  11.485  65.942  1.00  0.00     0.000 HD 
ENDROOT
BRANCH   2   5
HETATM    5  C   UNL     1     -10.238  10.172  65.815  1.00  0.00    -0.213 C  
HETATM    6  O   UNL     1      -9.442   9.103  66.391  1.00  0.00    -0.189 OA 
HETATM    7  C   UNL     1      -9.030   8.177  65.371  1.00  0.00     0.027 C  
HETATM    8  C   UNL     1      -8.104   8.888  64.330  1.00  0.00    -0.158 C  
HETATM    9  O   UNL     1      -8.327  11.667  65.580  1.00  0.00    -0.370 OA 
HETATM   10  H   UNL     1      -7.794  12.181  64.984  1.00  0.00     0.000 HD 
HETATM   11  N   UNL     1      -6.796   9.261  64.962  1.00  0.00    -0.084 NA 
HETATM   12  C   UNL     1      -8.798  10.114  63.738  1.00  0.00    -0.229 C  
HETATM   13  H2  UNL     1      -6.337   8.456  65.391  1.00  0.00     0.000 HD 
HETATM   14  O   UNL     1      -9.819   9.753  62.799  1.00  0.00    -0.507 OA 
HETATM   15  C   UNL     1      -9.370  11.010  64.844  1.00  0.00    -0.214 C  
HETATM   16  H1  UNL     1      -6.192   9.724  64.283  1.00  0.00     0.000 HD 
HETATM   17  H   UNL     1     -10.251  10.515  62.430  1.00  0.00     0.000 HD 
BRANCH   7  18
HETATM   18  O   UNL     1      -8.195   7.135  65.843  1.00  0.00    -0.118 OA 
BRANCH  18  19
HETATM   19  C   UNL     1      -7.709   7.152  67.179  1.00  0.00    -0.108 C  
HETATM   20  O   UNL     1      -9.623   5.648  67.661  1.00  0.00    -0.113 OA 
HETATM   21  C   UNL     1      -6.349   6.461  67.026  1.00  0.00    -0.041 C  
HETATM   22  C   UNL     1      -7.420   5.207  68.630  1.00  0.00    -0.074 C  
HETATM   23  H   UNL     1     -10.081   5.110  68.297  1.00  0.00     0.000 HD 
HETATM   24  O   UNL     1      -6.497   5.128  67.543  1.00  0.00    -0.042 OA 
HETATM   25  C   UNL     1      -8.452   6.279  68.212  1.00  0.00    -0.114 C  
BRANCH  21  26
HETATM   26  C   UNL     1      -5.192   7.210  67.693  1.00  0.00    -0.019 C  
HETATM   27  H   UNL     1      -4.826   9.006  68.459  1.00  0.00     0.000 HD 
HETATM   28  O   UNL     1      -5.543   8.542  68.045  1.00  0.00    -0.034 OA 
ENDBRANCH  21  26
BRANCH  22  29
HETATM   29  O   UNL     1      -6.738   5.558  69.841  1.00  0.00    -0.047 OA 
BRANCH  29  30
HETATM   30  C   UNL     1      -7.233   4.967  71.090  1.00  0.00    -0.056 C  
HETATM   31  C   UNL     1      -6.127   4.118  71.771  1.00  0.00    -0.017 C  
HETATM   32  O   UNL     1      -5.376   4.965  72.669  1.00  0.00    -0.008 OA 
HETATM   33  C   UNL     1      -6.538   2.870  72.569  1.00  0.00    -0.018 C  
HETATM   34  C   UNL     1      -7.838   2.241  72.102  1.00  0.00    -0.052 C  
HETATM   35  N   UNL     1      -5.465   1.846  72.484  1.00  0.00     0.000 NA 
HETATM   36  H   UNL     1      -4.699   4.444  73.085  1.00  0.00     0.000 HD 
HETATM   37  H1  UNL     1      -5.738   1.018  73.014  1.00  0.00     0.000 HD 
HETATM   38  H2  UNL     1      -4.561   2.211  72.782  1.00  0.00     0.000 HD 
HETATM   39  C   UNL     1      -8.943   3.294  72.051  1.00  0.00    -0.099 C  
HETATM   40  C   UNL     1      -8.638   4.323  70.932  1.00  0.00    -0.084 C  
HETATM   41  N   UNL     1     -10.235   2.610  71.822  1.00  0.00    -0.034 NA 
HETATM   42  H2  UNL     1     -10.419   1.882  72.512  1.00  0.00     0.000 HD 
HETATM   43  H1  UNL     1     -10.972   3.314  71.788  1.00  0.00     0.000 HD 
BRANCH  40  44
HETATM   44  O   UNL     1      -9.695   5.314  70.969  1.00  0.00    -0.166 OA 
BRANCH  44  45
HETATM   45  C   UNL     1      -9.650   6.219  72.075  1.00  0.00    -0.151 C  
HETATM   46  O   UNL     1      -9.160   7.505  71.686  1.00  0.00    -0.133 OA 
HETATM   47  C   UNL     1     -10.017   8.189  70.761  1.00  0.00    -0.188 C  
HETATM   48  C   UNL     1     -11.428   8.386  71.334  1.00  0.00    -0.277 C  
HETATM   49  H1  UNL     1     -12.530   5.080  73.576  1.00  0.00     0.000 HD 
HETATM   50  O   UNL     1     -12.312   9.022  70.400  1.00  0.00    -0.471 OA 
HETATM   51  H2  UNL     1     -10.955   4.533  73.772  1.00  0.00     0.000 HD 
HETATM   52  C   UNL     1     -12.017   7.029  71.748  1.00  0.00    -0.326 C  
HETATM   53  H   UNL     1     -13.185   9.145  70.756  1.00  0.00     0.000 HD 
HETATM   54  O   UNL     1     -13.295   7.228  72.377  1.00  0.00    -0.476 OA 
HETATM   55  C   UNL     1     -11.059   6.322  72.724  1.00  0.00    -0.251 C  
HETATM   56  N   UNL     1     -11.606   5.012  73.150  1.00  0.00    -0.298 NA 
HETATM   57  H   UNL     1     -13.659   6.389  72.633  1.00  0.00     0.000 HD 
BRANCH  47  58
HETATM   58  C   UNL     1      -9.332   9.512  70.352  1.00  0.00    -0.257 C  
HETATM   59  H1  UNL     1      -7.425  10.298  69.918  1.00  0.00     0.000 HD 
HETATM   60  N   UNL     1      -7.877   9.424  70.188  1.00  0.00    -0.123 NA 
HETATM   61  H2  UNL     1      -7.639   8.683  69.527  1.00  0.00     0.000 HD 
ENDBRANCH  47  58
ENDBRANCH  44  45
ENDBRANCH  40  44
ENDBRANCH  29  30
ENDBRANCH  22  29
ENDBRANCH  18  19
ENDBRANCH   7  18
ENDBRANCH   2   5
TORSDOF 9
ENDMDL
MODEL      165
REMARK 921   NORMALIZED FREE ENERGY PREDICTED BY IDOCK:   -4.40 KCAL/MOL
REMARK 922        TOTAL FREE ENERGY PREDICTED BY IDOCK:   -9.53 KCAL/MOL
REMARK 923 INTER-LIGAND FREE ENERGY PREDICTED BY IDOCK:   -8.35 KCAL/MOL
REMARK 924 INTRA-LIGAND FREE ENERGY PREDICTED BY IDOCK:   -1.18 KCAL/MOL
REMARK 927      BINDING AFFINITY PREDICTED BY RF-SCORE:    0.00 PKD
ROOT
HETATM    1  N   UNL     1     -13.126  13.735  65.318  1.00  0.00    -0.744 NA 
HETATM    2  C   UNL     1     -11.893  14.361  64.832  1.00  0.00    -0.417 C  
HETATM    3  H1  UNL     1     -13.883  13.673  64.639  1.00  0.00     0.000 HD 
HETATM    4  H2  UNL     1     -13.450  14.209  66.160  1.00  0.00     0.000 HD 
ENDROOT
BRANCH   2   5
HETATM    5  C   UNL     1     -10.740  14.455  65.866  1.00  0.00    -0.306 C  
HETATM    6  O   UNL     1     -10.502  13.221  66.590  1.00  0.00    -0.273 OA 
HETATM    7  C   UNL     1      -9.344  13.348  67.434  1.00  0.00    -0.221 C  
HETATM    8  C   UNL     1      -9.578  14.445  68.522  1.00  0.00    -0.217 C  
HETATM    9  O   UNL     1     -12.337  15.285  67.511  1.00  0.00    -0.178 OA 
HETATM   10  H   UNL     1     -12.554  15.981  68.121  1.00  0.00     0.000 HD 
HETATM   11  N   UNL     1     -10.628  13.999  69.497  1.00  0.00    -0.444 NA 
HETATM   12  C   UNL     1      -9.959  15.776  67.875  1.00  0.00    -0.227 C  
HETATM   13  H2  UNL     1     -10.402  13.095  69.912  1.00  0.00     0.000 HD 
HETATM   14  O   UNL     1      -8.832  16.419  67.264  1.00  0.00    -0.183 OA 
HETATM   15  C   UNL     1     -11.094  15.590  66.860  1.00  0.00    -0.221 C  
HETATM   16  H1  UNL     1     -10.781  14.715  70.207  1.00  0.00     0.000 HD 
HETATM   17  H   UNL     1      -9.068  17.246  66.862  1.00  0.00     0.000 HD 
BRANCH   7  18
HETATM   18  O   UNL     1      -9.079  12.202  68.224  1.00  0.00    -0.193 OA 
BRANCH  18  19
HETATM   19  C   UNL     1      -9.893  11.043  68.105  1.00  0.00    -0.176 C  
HETATM   20  O   UNL     1      -7.847   9.966  67.205  1.00  0.00    -0.101 OA 
HETATM   21  C   UNL     1     -10.211  10.734  69.573  1.00  0.00    -0.113 C  
HETATM   22  C   UNL     1      -9.282   8.779  68.792  1.00  0.00    -0.141 C  
HETATM   23  H   UNL     1      -7.430   9.172  66.891  1.00  0.00     0.000 HD 
HETATM   24  O   UNL     1      -9.397   9.609  69.948  1.00  0.00    -0.199 OA 
HETATM   25  C   UNL     1      -9.216   9.754  67.595  1.00  0.00    -0.130 C  
BRANCH  21  26
HETATM   26  C   UNL     1     -11.696  10.484  69.849  1.00  0.00    -0.294 C  
HETATM   27  H   UNL     1     -12.888  10.162  71.405  1.00  0.00     0.000 HD 
HETATM   28  O   UNL     1     -11.967  10.317  71.234  1.00  0.00    -0.364 OA 
ENDBRANCH  21  26
BRANCH  22  29
HETATM   29  O   UNL     1     -10.401   7.887  68.702  1.00  0.00    -0.203 OA 
BRANCH  29  30
HETATM   30  C   UNL     1     -10.520   6.848  69.732  1.00  0.00    -0.217 C  
HETATM   31  C   UNL     1     -11.559   7.259  70.808  1.00  0.00    -0.302 C  
HETATM   32  O   UNL     1     -12.860   6.773  70.409  1.00  0.00    -0.440 OA 
HETATM   33  C   UNL     1     -11.338   6.808  72.261  1.00  0.00    -0.273 C  
HETATM   34  C   UNL     1      -9.881   6.581  72.620  1.00  0.00    -0.179 C  
HETATM   35  N   UNL     1     -11.897   7.823  73.191  1.00  0.00    -0.634 NA 
HETATM   36  H   UNL     1     -13.496   7.025  71.068  1.00  0.00     0.000 HD 
HETATM   37  H1  UNL     1     -11.750   7.524  74.155  1.00  0.00     0.000 HD 
HETATM   38  H2  UNL     1     -12.877   8.024  72.996  1.00  0.00     0.000 HD 
HETATM   39  C   UNL     1      -9.231   5.639  71.609  1.00  0.00    -0.142 C  
HETATM   40  C   UNL     1      -9.139   6.333  70.226  1.00  0.00    -0.154 C  
HETATM   41  N   UNL     1      -7.894   5.256  72.113  1.00  0.00    -0.103 NA 
HETATM   42  H2  UNL     1      -7.930   4.859  73.052  1.00  0.00     0.000 HD 
HETATM   43  H1  UNL     1      -7.461   4.627  71.438  1.00  0.00     0.000 HD 
BRANCH  40  44
HETATM   44  O   UNL     1      -8.560   5.374  69.307  1.00  0.00    -0.101 OA 
BRANCH  44  45
HETATM   45  C   UNL     1      -7.143   5.208  69.403  1.00  0.00    -0.056 C  
HETATM   46  O   UNL     1      -6.797   3.996  70.078  1.00  0.00    -0.033 OA 
HETATM   47  C   UNL     1      -7.200   2.813  69.372  1.00  0.00    -0.044 C  
HETATM   48  C   UNL     1      -6.581   2.753  67.967  1.00  0.00    -0.036 C  
HETATM   49  H1  UNL     1      -6.423   6.551  66.318  1.00  0.00     0.000 HD 
HETATM   50  O   UNL     1      -7.016   1.603  67.229  1.00  0.00    -0.037 OA 
HETATM   51  H2  UNL     1      -6.579   7.334  67.795  1.00  0.00     0.000 HD 
HETATM   52  C   UNL     1      -6.942   4.025  67.184  1.00  0.00    -0.062 C  
HETATM   53  H   UNL     1      -6.633   1.566  66.360  1.00  0.00     0.000 HD 
HETATM   54  O   UNL     1      -6.279   4.012  65.908  1.00  0.00    -0.030 OA 
HETATM   55  C   UNL     1      -6.512   5.267  67.985  1.00  0.00    -0.048 C  
HETATM   56  N   UNL     1      -6.838   6.512  67.249  1.00  0.00    -0.067 NA 
HETATM   57  H   UNL     1      -6.503   4.798  65.424  1.00  0.00     0.000 HD 
BRANCH  47  58
HETATM   58  C   UNL     1      -6.855   1.586  70.245  1.00  0.00    -0.032 C  
HETATM   59  H1  UNL     1      -6.126   1.097  72.162  1.00  0.00     0.000 HD 
HETATM   60  N   UNL     1      -6.354   1.909  71.586  1.00  0.00    -0.014 NA 
HETATM   61  H2  UNL     1      -7.014   2.516  72.073  1.00  0.00     0.000 HD 
ENDBRANCH  47  58
ENDBRANCH  44  45
ENDBRANCH  40  44
ENDBRANCH  29  30
ENDBRANCH  22  29
ENDBRANCH  18  19
ENDBRANCH   7  18
ENDBRANCH   2   5
TORSDOF 9
ENDMDL
MODEL      166
REMARK 921   NORMALIZED FREE ENERGY PREDICTED BY IDOCK:   -4.39 KCAL/MOL
REMARK 922        TOTAL FREE ENERGY PREDICTED BY IDOCK:   -9.51 KCAL/MOL
REMARK 923 INTER-LIGAND FREE ENERGY PREDICTED BY IDOCK:   -9.02 KCAL/MOL
REMARK 924 INTRA-LIGAND FREE ENERGY PREDICTED BY IDOCK:   -0.49 KCAL/MOL
REMARK 927      BINDING AFFINITY PREDICTED BY RF-SCORE:    0.00 PKD
ROOT
HETATM    1  N   UNL     1     -10.791   7.101  72.334  1.00  0.00    -0.234 NA 
HETATM    2  C   UNL     1     -11.237   6.863  70.959  1.00  0.00    -0.282 C  
HETATM    3  H1  UNL     1     -11.487   6.924  73.058  1.00  0.00     0.000 HD 
HETATM    4  H2  UNL     1     -10.427   8.049  72.424  1.00  0.00     0.000 HD 
ENDROOT
BRANCH   2   5
HETATM    5  C   UNL     1     -10.177   7.132  69.858  1.00  0.00    -0.207 C  
HETATM    6  O   UNL     1     -10.747   7.519  68.580  1.00  0.00    -0.171 OA 
HETATM    7  C   UNL     1      -9.706   7.873  67.653  1.00  0.00    -0.156 C  
HETATM    8  C   UNL     1      -8.793   6.638  67.359  1.00  0.00    -0.116 C  
HETATM    9  O   UNL     1     -10.198   4.756  69.314  1.00  0.00    -0.189 OA 
HETATM   10  H   UNL     1      -9.683   3.964  69.211  1.00  0.00     0.000 HD 
HETATM   11  N   UNL     1      -9.554   5.595  66.593  1.00  0.00    -0.145 NA 
HETATM   12  C   UNL     1      -8.226   6.063  68.656  1.00  0.00    -0.107 C  
HETATM   13  H2  UNL     1      -9.966   5.974  65.741  1.00  0.00     0.000 HD 
HETATM   14  O   UNL     1      -7.185   6.886  69.199  1.00  0.00    -0.085 OA 
HETATM   15  C   UNL     1      -9.337   5.841  69.691  1.00  0.00    -0.139 C  
HETATM   16  H1  UNL     1      -8.959   4.790  66.402  1.00  0.00     0.000 HD 
HETATM   17  H   UNL     1      -6.832   6.528  70.006  1.00  0.00     0.000 HD 
BRANCH   7  18
HETATM   18  O   UNL     1     -10.177   8.204  66.358  1.00  0.00    -0.239 OA 
BRANCH  18  19
HETATM   19  C   UNL     1     -10.080   9.539  65.879  1.00  0.00    -0.214 C  
HETATM   20  O   UNL     1     -11.606  10.092  67.756  1.00  0.00    -0.595 OA 
HETATM   21  C   UNL     1      -8.597   9.849  66.120  1.00  0.00    -0.128 C  
HETATM   22  C   UNL     1      -9.697  11.532  67.239  1.00  0.00    -0.182 C  
HETATM   23  H   UNL     1     -12.061  10.765  68.248  1.00  0.00     0.000 HD 
HETATM   24  O   UNL     1      -8.532  10.706  67.272  1.00  0.00    -0.125 OA 
HETATM   25  C   UNL     1     -10.820  10.632  66.678  1.00  0.00    -0.131 C  
BRANCH  21  26
HETATM   26  C   UNL     1      -7.886  10.462  64.910  1.00  0.00    -0.099 C  
HETATM   27  H   UNL     1      -7.183   9.880  63.145  1.00  0.00     0.000 HD 
HETATM   28  O   UNL     1      -7.624   9.501  63.895  1.00  0.00    -0.112 OA 
ENDBRANCH  21  26
BRANCH  22  29
HETATM   29  O   UNL     1      -9.468  12.686  66.420  1.00  0.00    -0.241 OA 
BRANCH  29  30
HETATM   30  C   UNL     1      -9.732  14.001  67.017  1.00  0.00    -0.256 C  
HETATM   31  C   UNL     1      -9.307  15.137  66.050  1.00  0.00    -0.291 C  
HETATM   32  O   UNL     1     -10.432  15.481  65.212  1.00  0.00    -0.370 OA 
HETATM   33  C   UNL     1      -8.770  16.451  66.642  1.00  0.00    -0.256 C  
HETATM   34  C   UNL     1      -8.120  16.291  68.004  1.00  0.00    -0.150 C  
HETATM   35  N   UNL     1      -7.775  17.048  65.715  1.00  0.00    -0.244 NA 
HETATM   36  H   UNL     1     -10.172  16.177  64.620  1.00  0.00     0.000 HD 
HETATM   37  H1  UNL     1      -7.419  17.919  66.108  1.00  0.00     0.000 HD 
HETATM   38  H2  UNL     1      -8.152  17.176  64.777  1.00  0.00     0.000 HD 
HETATM   39  C   UNL     1      -9.067  15.563  68.957  1.00  0.00    -0.236 C  
HETATM   40  C   UNL     1      -9.254  14.096  68.492  1.00  0.00    -0.187 C  
HETATM   41  N   UNL     1      -8.504  15.632  70.323  1.00  0.00     0.503 NA 
HETATM   42  H2  UNL     1      -8.311  16.589  70.619  1.00  0.00     0.000 HD 
HETATM   43  H1  UNL     1      -9.137  15.146  70.959  1.00  0.00     0.000 HD 
BRANCH  40  44
HETATM   44  O   UNL     1     -10.194  13.479  69.406  1.00  0.00     0.171 OA 
BRANCH  44  45
HETATM   45  C   UNL     1     -11.561  13.499  68.989  1.00  0.00    -0.311 C  
HETATM   46  O   UNL     1     -12.229  12.275  69.306  1.00  0.00    -0.198 OA 
HETATM   47  C   UNL     1     -12.339  12.031  70.715  1.00  0.00    -0.308 C  
HETATM   48  C   UNL     1     -13.090  13.165  71.430  1.00  0.00    -0.266 C  
HETATM   49  H1  UNL     1     -12.105  16.815  69.733  1.00  0.00     0.000 HD 
HETATM   50  O   UNL     1     -13.162  12.961  72.847  1.00  0.00    -0.401 OA 
HETATM   51  H2  UNL     1     -11.528  16.138  68.309  1.00  0.00     0.000 HD 
HETATM   52  C   UNL     1     -12.399  14.507  71.145  1.00  0.00    -0.345 C  
HETATM   53  H   UNL     1     -13.627  13.662  73.290  1.00  0.00     0.000 HD 
HETATM   54  O   UNL     1     -13.161  15.577  71.731  1.00  0.00    -0.424 OA 
HETATM   55  C   UNL     1     -12.284  14.720  69.624  1.00  0.00    -0.270 C  
HETATM   56  N   UNL     1     -11.631  16.014  69.316  1.00  0.00    -0.351 NA 
HETATM   57  H   UNL     1     -12.735  16.407  71.554  1.00  0.00     0.000 HD 
BRANCH  47  58
HETATM   58  C   UNL     1     -12.989  10.644  70.918  1.00  0.00    -0.340 C  
HETATM   59  H1  UNL     1     -13.778   9.417  72.441  1.00  0.00     0.000 HD 
HETATM   60  N   UNL     1     -13.349  10.334  72.307  1.00  0.00    -0.590 NA 
HETATM   61  H2  UNL     1     -13.949  11.066  72.689  1.00  0.00     0.000 HD 
ENDBRANCH  47  58
ENDBRANCH  44  45
ENDBRANCH  40  44
ENDBRANCH  29  30
ENDBRANCH  22  29
ENDBRANCH  18  19
ENDBRANCH   7  18
ENDBRANCH   2   5
TORSDOF 9
ENDMDL
MODEL      167
REMARK 921   NORMALIZED FREE ENERGY PREDICTED BY IDOCK:   -4.34 KCAL/MOL
REMARK 922        TOTAL FREE ENERGY PREDICTED BY IDOCK:   -9.44 KCAL/MOL
REMARK 923 INTER-LIGAND FREE ENERGY PREDICTED BY IDOCK:   -9.37 KCAL/MOL
REMARK 924 INTRA-LIGAND FREE ENERGY PREDICTED BY IDOCK:   -0.07 KCAL/MOL
REMARK 927      BINDING AFFINITY PREDICTED BY RF-SCORE:    0.00 PKD
ROOT
HETATM    1  N   UNL     1     -10.550   5.229  70.385  1.00  0.00    -0.249 NA 
HETATM    2  C   UNL     1     -10.750   5.511  68.961  1.00  0.00    -0.161 C  
HETATM    3  H1  UNL     1     -11.364   5.378  70.980  1.00  0.00     0.000 HD 
HETATM    4  H2  UNL     1      -9.757   5.763  70.739  1.00  0.00     0.000 HD 
ENDROOT
BRANCH   2   5
HETATM    5  C   UNL     1      -9.510   5.285  68.056  1.00  0.00    -0.122 C  
HETATM    6  O   UNL     1      -9.073   6.478  67.354  1.00  0.00    -0.114 OA 
HETATM    7  C   UNL     1      -7.852   6.221  66.639  1.00  0.00    -0.104 C  
HETATM    8  C   UNL     1      -8.081   5.135  65.538  1.00  0.00    -0.117 C  
HETATM    9  O   UNL     1     -11.001   4.593  66.256  1.00  0.00    -0.502 OA 
HETATM   10  H   UNL     1     -11.222   3.913  65.630  1.00  0.00     0.000 HD 
HETATM   11  N   UNL     1      -8.972   5.668  64.455  1.00  0.00    -0.349 NA 
HETATM   12  C   UNL     1      -8.660   3.860  66.148  1.00  0.00    -0.112 C  
HETATM   13  H2  UNL     1      -8.613   6.538  64.061  1.00  0.00     0.000 HD 
HETATM   14  O   UNL     1      -7.675   3.118  66.879  1.00  0.00    -0.075 OA 
HETATM   15  C   UNL     1      -9.870   4.176  67.036  1.00  0.00    -0.151 C  
HETATM   16  H1  UNL     1      -9.121   4.960  63.736  1.00  0.00     0.000 HD 
HETATM   17  H   UNL     1      -8.035   2.324  67.259  1.00  0.00     0.000 HD 
BRANCH   7  18
HETATM   18  O   UNL     1      -7.390   7.321  65.875  1.00  0.00    -0.071 OA 
BRANCH  18  19
HETATM   19  C   UNL     1      -8.149   8.522  65.813  1.00  0.00    -0.116 C  
HETATM   20  O   UNL     1      -7.464   8.817  68.180  1.00  0.00    -0.090 OA 
HETATM   21  C   UNL     1      -7.354   9.341  64.789  1.00  0.00    -0.103 C  
HETATM   22  C   UNL     1      -7.443  10.713  66.634  1.00  0.00    -0.129 C  
HETATM   23  H   UNL     1      -7.471   9.367  68.955  1.00  0.00     0.000 HD 
HETATM   24  O   UNL     1      -6.624  10.336  65.527  1.00  0.00    -0.114 OA 
HETATM   25  C   UNL     1      -8.160   9.416  67.071  1.00  0.00    -0.105 C  
BRANCH  21  26
HETATM   26  C   UNL     1      -8.215   9.961  63.686  1.00  0.00    -0.157 C  
HETATM   27  H   UNL     1      -9.288   9.367  62.123  1.00  0.00     0.000 HD 
HETATM   28  O   UNL     1      -8.754   8.983  62.808  1.00  0.00    -0.216 OA 
ENDBRANCH  21  26
BRANCH  22  29
HETATM   29  O   UNL     1      -8.369  11.737  66.246  1.00  0.00    -0.106 OA 
BRANCH  29  30
HETATM   30  C   UNL     1      -9.099  12.428  67.316  1.00  0.00    -0.187 C  
HETATM   31  C   UNL     1      -9.582  11.419  68.391  1.00  0.00    -0.197 C  
HETATM   32  O   UNL     1      -8.560  11.292  69.403  1.00  0.00    -0.370 OA 
HETATM   33  C   UNL     1     -10.906  11.693  69.122  1.00  0.00    -0.184 C  
HETATM   34  C   UNL     1     -11.893  12.520  68.317  1.00  0.00    -0.361 C  
HETATM   35  N   UNL     1     -11.556  10.407  69.480  1.00  0.00    -0.375 NA 
HETATM   36  H   UNL     1      -8.856  10.674  70.061  1.00  0.00     0.000 HD 
HETATM   37  H1  UNL     1     -12.435  10.589  69.965  1.00  0.00     0.000 HD 
HETATM   38  H2  UNL     1     -10.938   9.802  70.020  1.00  0.00     0.000 HD 
HETATM   39  C   UNL     1     -11.223  13.799  67.818  1.00  0.00    -0.288 C  
HETATM   40  C   UNL     1     -10.136  13.449  66.770  1.00  0.00    -0.260 C  
HETATM   41  N   UNL     1     -12.263  14.682  67.246  1.00  0.00    -0.531 NA 
HETATM   42  H2  UNL     1     -13.023  14.868  67.901  1.00  0.00     0.000 HD 
HETATM   43  H1  UNL     1     -11.816  15.536  66.913  1.00  0.00     0.000 HD 
BRANCH  40  44
HETATM   44  O   UNL     1      -9.512  14.695  66.375  1.00  0.00    -0.275 OA 
BRANCH  44  45
HETATM   45  C   UNL     1      -9.458  15.704  67.386  1.00  0.00    -0.215 C  
HETATM   46  O   UNL     1      -8.494  15.392  68.394  1.00  0.00    -0.151 OA 
HETATM   47  C   UNL     1      -7.144  15.370  67.908  1.00  0.00    -0.140 C  
HETATM   48  C   UNL     1      -6.743  16.716  67.286  1.00  0.00    -0.178 C  
HETATM   49  H1  UNL     1      -9.960  18.361  65.257  1.00  0.00     0.000 HD 
HETATM   50  O   UNL     1      -5.414  16.693  66.748  1.00  0.00    -0.311 OA 
HETATM   51  H2  UNL     1     -11.101  17.419  66.050  1.00  0.00     0.000 HD 
HETATM   52  C   UNL     1      -7.734  17.092  66.175  1.00  0.00    -0.257 C  
HETATM   53  H   UNL     1      -5.166  17.526  66.364  1.00  0.00     0.000 HD 
HETATM   54  O   UNL     1      -7.416  18.398  65.664  1.00  0.00    -0.521 OA 
HETATM   55  C   UNL     1      -9.169  17.085  66.733  1.00  0.00    -0.252 C  
HETATM   56  N   UNL     1     -10.149  17.455  65.685  1.00  0.00    -0.586 NA 
HETATM   57  H   UNL     1      -8.029  18.631  64.977  1.00  0.00     0.000 HD 
BRANCH  47  58
HETATM   58  C   UNL     1      -6.218  14.931  69.065  1.00  0.00    -0.097 C  
HETATM   59  H1  UNL     1      -6.187  13.640  70.732  1.00  0.00     0.000 HD 
HETATM   60  N   UNL     1      -6.799  13.930  69.968  1.00  0.00    -0.371 NA 
HETATM   61  H2  UNL     1      -7.115  13.117  69.439  1.00  0.00     0.000 HD 
ENDBRANCH  47  58
ENDBRANCH  44  45
ENDBRANCH  40  44
ENDBRANCH  29  30
ENDBRANCH  22  29
ENDBRANCH  18  19
ENDBRANCH   7  18
ENDBRANCH   2   5
TORSDOF 9
ENDMDL
MODEL      168
REMARK 921   NORMALIZED FREE ENERGY PREDICTED BY IDOCK:   -4.32 KCAL/MOL
REMARK 922        TOTAL FREE ENERGY PREDICTED BY IDOCK:   -9.40 KCAL/MOL
REMARK 923 INTER-LIGAND FREE ENERGY PREDICTED BY IDOCK:   -8.81 KCAL/MOL
REMARK 924 INTRA-LIGAND FREE ENERGY PREDICTED BY IDOCK:   -0.59 KCAL/MOL
REMARK 927      BINDING AFFINITY PREDICTED BY RF-SCORE:    0.00 PKD
ROOT
HETATM    1  N   UNL     1      -5.798  19.647  70.327  1.00  0.00    -0.261 NA 
HETATM    2  C   UNL     1      -7.065  20.206  69.846  1.00  0.00     0.110 C  
HETATM    3  H1  UNL     1      -5.332  20.184  71.058  1.00  0.00     0.000 HD 
HETATM    4  H2  UNL     1      -5.162  19.499  69.544  1.00  0.00     0.000 HD 
ENDROOT
BRANCH   2   5
HETATM    5  C   UNL     1      -7.774  19.390  68.733  1.00  0.00    -0.362 C  
HETATM    6  O   UNL     1      -7.133  18.120  68.441  1.00  0.00    -0.234 OA 
HETATM    7  C   UNL     1      -7.915  17.368  67.497  1.00  0.00    -0.195 C  
HETATM    8  C   UNL     1      -8.003  18.128  66.133  1.00  0.00    -0.187 C  
HETATM    9  O   UNL     1      -6.467  20.599  67.068  1.00  0.00    -0.225 OA 
HETATM   10  H   UNL     1      -6.489  21.137  66.285  1.00  0.00     0.000 HD 
HETATM   11  N   UNL     1      -6.658  18.166  65.467  1.00  0.00    -0.383 NA 
HETATM   12  C   UNL     1      -8.557  19.538  66.334  1.00  0.00    -0.360 C  
HETATM   13  H2  UNL     1      -6.262  17.232  65.357  1.00  0.00     0.000 HD 
HETATM   14  O   UNL     1      -9.968  19.530  66.585  1.00  0.00    -0.344 OA 
HETATM   15  C   UNL     1      -7.809  20.267  67.457  1.00  0.00    -0.305 C  
HETATM   16  H1  UNL     1      -6.715  18.661  64.578  1.00  0.00     0.000 HD 
HETATM   17  H   UNL     1     -10.313  20.407  66.710  1.00  0.00     0.000 HD 
BRANCH   7  18
HETATM   18  O   UNL     1      -7.325  16.139  67.111  1.00  0.00    -0.173 OA 
BRANCH  18  19
HETATM   19  C   UNL     1      -8.139  15.054  66.686  1.00  0.00     0.101 C  
HETATM   20  O   UNL     1      -6.677  13.675  68.141  1.00  0.00    -0.093 OA 
HETATM   21  C   UNL     1      -9.499  15.431  67.285  1.00  0.00    -0.210 C  
HETATM   22  C   UNL     1      -9.098  13.327  68.124  1.00  0.00    -0.207 C  
HETATM   23  H   UNL     1      -6.493  12.821  68.516  1.00  0.00     0.000 HD 
HETATM   24  O   UNL     1      -9.700  14.585  68.430  1.00  0.00    -0.211 OA 
HETATM   25  C   UNL     1      -7.840  13.667  67.294  1.00  0.00    -0.093 C  
BRANCH  21  26
HETATM   26  C   UNL     1     -10.662  15.340  66.294  1.00  0.00    -0.315 C  
HETATM   27  H   UNL     1     -10.940  15.070  64.345  1.00  0.00     0.000 HD 
HETATM   28  O   UNL     1     -10.219  15.127  64.960  1.00  0.00    -0.364 OA 
ENDBRANCH  21  26
BRANCH  22  29
HETATM   29  O   UNL     1     -10.015  12.496  67.400  1.00  0.00    -0.204 OA 
BRANCH  29  30
HETATM   30  C   UNL     1     -11.234  12.068  68.097  1.00  0.00    -0.260 C  
HETATM   31  C   UNL     1     -11.837  13.239  68.916  1.00  0.00    -0.327 C  
HETATM   32  O   UNL     1     -12.771  13.959  68.082  1.00  0.00    -0.178 OA 
HETATM   33  C   UNL     1     -12.563  12.925  70.234  1.00  0.00    -0.013 C  
HETATM   34  C   UNL     1     -12.083  11.654  70.913  1.00  0.00    -0.312 C  
HETATM   35  N   UNL     1     -12.392  14.055  71.183  1.00  0.00    -0.354 NA 
HETATM   36  H   UNL     1     -13.140  14.677  68.583  1.00  0.00     0.000 HD 
HETATM   37  H1  UNL     1     -12.874  13.846  72.057  1.00  0.00     0.000 HD 
HETATM   38  H2  UNL     1     -12.694  14.942  70.781  1.00  0.00     0.000 HD 
HETATM   39  C   UNL     1     -12.122  10.486  69.929  1.00  0.00    -0.245 C  
HETATM   40  C   UNL     1     -11.064  10.701  68.816  1.00  0.00    -0.265 C  
HETATM   41  N   UNL     1     -11.877   9.233  70.676  1.00  0.00    -0.417 NA 
HETATM   42  H2  UNL     1     -12.523   9.110  71.456  1.00  0.00     0.000 HD 
HETATM   43  H1  UNL     1     -11.903   8.454  70.019  1.00  0.00     0.000 HD 
BRANCH  40  44
HETATM   44  O   UNL     1     -11.185   9.588  67.896  1.00  0.00    -0.097 OA 
BRANCH  44  45
HETATM   45  C   UNL     1      -9.950   9.047  67.419  1.00  0.00    -0.209 C  
HETATM   46  O   UNL     1      -8.837   9.520  68.182  1.00  0.00    -0.124 OA 
HETATM   47  C   UNL     1      -8.856   9.089  69.550  1.00  0.00    -0.146 C  
HETATM   48  C   UNL     1      -8.875   7.558  69.662  1.00  0.00    -0.141 C  
HETATM   49  H1  UNL     1     -11.205   5.939  66.643  1.00  0.00     0.000 HD 
HETATM   50  O   UNL     1      -8.946   7.112  71.023  1.00  0.00    -0.148 OA 
HETATM   51  H2  UNL     1     -11.141   7.316  65.685  1.00  0.00     0.000 HD 
HETATM   52  C   UNL     1     -10.070   6.993  68.879  1.00  0.00    -0.173 C  
HETATM   53  H   UNL     1      -8.958   6.164  71.093  1.00  0.00     0.000 HD 
HETATM   54  O   UNL     1     -10.027   5.556  68.902  1.00  0.00    -0.148 OA 
HETATM   55  C   UNL     1     -10.022   7.495  67.424  1.00  0.00    -0.187 C  
HETATM   56  N   UNL     1     -11.158   6.957  66.639  1.00  0.00    -0.040 NA 
HETATM   57  H   UNL     1     -10.766   5.207  68.417  1.00  0.00     0.000 HD 
BRANCH  47  58
HETATM   58  C   UNL     1      -7.660   9.741  70.281  1.00  0.00    -0.172 C  
HETATM   59  H1  UNL     1      -6.431  11.452  70.198  1.00  0.00     0.000 HD 
HETATM   60  N   UNL     1      -7.221  11.022  69.716  1.00  0.00    -0.341 NA 
HETATM   61  H2  UNL     1      -8.004  11.675  69.667  1.00  0.00     0.000 HD 
ENDBRANCH  47  58
ENDBRANCH  44  45
ENDBRANCH  40  44
ENDBRANCH  29  30
ENDBRANCH  22  29
ENDBRANCH  18  19
ENDBRANCH   7  18
ENDBRANCH   2   5
TORSDOF 9
ENDMDL
MODEL      169
REMARK 921   NORMALIZED FREE ENERGY PREDICTED BY IDOCK:   -4.31 KCAL/MOL
REMARK 922        TOTAL FREE ENERGY PREDICTED BY IDOCK:   -9.39 KCAL/MOL
REMARK 923 INTER-LIGAND FREE ENERGY PREDICTED BY IDOCK:   -7.25 KCAL/MOL
REMARK 924 INTRA-LIGAND FREE ENERGY PREDICTED BY IDOCK:   -2.14 KCAL/MOL
REMARK 927      BINDING AFFINITY PREDICTED BY RF-SCORE:    0.00 PKD
ROOT
HETATM    1  N   UNL     1      -7.134   9.239  70.791  1.00  0.00    -0.108 NA 
HETATM    2  C   UNL     1      -7.300   8.264  71.873  1.00  0.00    -0.096 C  
HETATM    3  H1  UNL     1      -6.592  10.069  71.028  1.00  0.00     0.000 HD 
HETATM    4  H2  UNL     1      -8.046   9.511  70.424  1.00  0.00     0.000 HD 
ENDROOT
BRANCH   2   5
HETATM    5  C   UNL     1      -8.125   7.002  71.512  1.00  0.00    -0.104 C  
HETATM    6  O   UNL     1      -9.316   7.284  70.731  1.00  0.00    -0.160 OA 
HETATM    7  C   UNL     1      -9.956   6.061  70.330  1.00  0.00    -0.187 C  
HETATM    8  C   UNL     1     -10.445   5.263  71.583  1.00  0.00    -0.214 C  
HETATM    9  O   UNL     1      -9.295   7.207  73.641  1.00  0.00    -0.172 OA 
HETATM   10  H   UNL     1      -9.537   6.779  74.455  1.00  0.00     0.000 HD 
HETATM   11  N   UNL     1     -11.565   5.994  72.264  1.00  0.00    -0.312 NA 
HETATM   12  C   UNL     1      -9.287   5.008  72.547  1.00  0.00    -0.132 C  
HETATM   13  H2  UNL     1     -12.330   6.200  71.622  1.00  0.00     0.000 HD 
HETATM   14  O   UNL     1      -8.401   3.990  72.066  1.00  0.00    -0.095 OA 
HETATM   15  C   UNL     1      -8.519   6.304  72.838  1.00  0.00    -0.118 C  
HETATM   16  H1  UNL     1     -11.883   5.474  73.081  1.00  0.00     0.000 HD 
HETATM   17  H   UNL     1      -7.681   3.831  72.665  1.00  0.00     0.000 HD 
BRANCH   7  18
HETATM   18  O   UNL     1     -11.163   6.251  69.613  1.00  0.00    -0.378 OA 
BRANCH  18  19
HETATM   19  C   UNL     1     -11.139   6.767  68.289  1.00  0.00    -0.141 C  
HETATM   20  O   UNL     1     -11.035   8.988  69.390  1.00  0.00    -0.374 OA 
HETATM   21  C   UNL     1      -9.803   6.225  67.768  1.00  0.00    -0.121 C  
HETATM   22  C   UNL     1      -9.634   8.497  67.446  1.00  0.00    -0.160 C  
HETATM   23  H   UNL     1     -10.952   9.930  69.292  1.00  0.00     0.000 HD 
HETATM   24  O   UNL     1      -8.879   7.326  67.763  1.00  0.00    -0.125 OA 
HETATM   25  C   UNL     1     -11.005   8.296  68.129  1.00  0.00     0.214 C  
BRANCH  21  26
HETATM   26  C   UNL     1      -9.898   5.551  66.396  1.00  0.00    -0.167 C  
HETATM   27  H   UNL     1      -8.742   4.493  65.174  1.00  0.00     0.000 HD 
HETATM   28  O   UNL     1      -8.684   4.911  66.024  1.00  0.00    -0.119 OA 
ENDBRANCH  21  26
BRANCH  22  29
HETATM   29  O   UNL     1      -9.754   8.645  66.025  1.00  0.00    -0.241 OA 
BRANCH  29  30
HETATM   30  C   UNL     1      -8.592   9.175  65.300  1.00  0.00    -0.167 C  
HETATM   31  C   UNL     1      -7.751   8.021  64.694  1.00  0.00    -0.126 C  
HETATM   32  O   UNL     1      -8.238   7.739  63.364  1.00  0.00    -0.315 OA 
HETATM   33  C   UNL     1      -6.227   8.193  64.588  1.00  0.00    -0.056 C  
HETATM   34  C   UNL     1      -5.640   9.135  65.623  1.00  0.00    -0.045 C  
HETATM   35  N   UNL     1      -5.563   6.871  64.728  1.00  0.00    -0.031 NA 
HETATM   36  H   UNL     1      -7.723   7.033  62.993  1.00  0.00     0.000 HD 
HETATM   37  H1  UNL     1      -4.552   6.986  64.657  1.00  0.00     0.000 HD 
HETATM   38  H2  UNL     1      -5.920   6.189  64.060  1.00  0.00     0.000 HD 
HETATM   39  C   UNL     1      -6.384  10.470  65.599  1.00  0.00    -0.126 C  
HETATM   40  C   UNL     1      -7.837  10.271  66.101  1.00  0.00    -0.129 C  
HETATM   41  N   UNL     1      -5.645  11.434  66.444  1.00  0.00    -0.181 NA 
HETATM   42  H2  UNL     1      -4.667  11.526  66.168  1.00  0.00     0.000 HD 
HETATM   43  H1  UNL     1      -6.141  12.325  66.428  1.00  0.00     0.000 HD 
BRANCH  40  44
HETATM   44  O   UNL     1      -8.496  11.558  66.010  1.00  0.00    -0.124 OA 
BRANCH  44  45
HETATM   45  C   UNL     1      -9.134  12.009  67.208  1.00  0.00    -0.178 C  
HETATM   46  O   UNL     1      -8.214  12.671  68.080  1.00  0.00    -0.147 OA 
HETATM   47  C   UNL     1      -7.684  13.888  67.535  1.00  0.00    -0.179 C  
HETATM   48  C   UNL     1      -8.798  14.889  67.193  1.00  0.00    -0.217 C  
HETATM   49  H1  UNL     1     -12.108  12.882  65.714  1.00  0.00     0.000 HD 
HETATM   50  O   UNL     1      -8.287  16.090  66.599  1.00  0.00    -0.239 OA 
HETATM   51  H2  UNL     1     -11.645  11.397  66.345  1.00  0.00     0.000 HD 
HETATM   52  C   UNL     1      -9.807  14.237  66.235  1.00  0.00    -0.307 C  
HETATM   53  H   UNL     1      -8.976  16.709  66.387  1.00  0.00     0.000 HD 
HETATM   54  O   UNL     1     -10.900  15.141  65.997  1.00  0.00    -0.322 OA 
HETATM   55  C   UNL     1     -10.335  12.928  66.848  1.00  0.00    -0.243 C  
HETATM   56  N   UNL     1     -11.320  12.280  65.950  1.00  0.00    -0.344 NA 
HETATM   57  H   UNL     1     -11.524  14.738  65.405  1.00  0.00     0.000 HD 
BRANCH  47  58
HETATM   58  C   UNL     1      -6.640  14.450  68.527  1.00  0.00    -0.094 C  
HETATM   59  H1  UNL     1      -6.387  14.843  70.583  1.00  0.00     0.000 HD 
HETATM   60  N   UNL     1      -7.076  14.471  69.928  1.00  0.00    -0.371 NA 
HETATM   61  H2  UNL     1      -7.377  13.541  70.219  1.00  0.00     0.000 HD 
ENDBRANCH  47  58
ENDBRANCH  44  45
ENDBRANCH  40  44
ENDBRANCH  29  30
ENDBRANCH  22  29
ENDBRANCH  18  19
ENDBRANCH   7  18
ENDBRANCH   2   5
TORSDOF 9
ENDMDL
MODEL      170
REMARK 921   NORMALIZED FREE ENERGY PREDICTED BY IDOCK:   -4.30 KCAL/MOL
REMARK 922        TOTAL FREE ENERGY PREDICTED BY IDOCK:   -9.37 KCAL/MOL
REMARK 923 INTER-LIGAND FREE ENERGY PREDICTED BY IDOCK:   -7.44 KCAL/MOL
REMARK 924 INTRA-LIGAND FREE ENERGY PREDICTED BY IDOCK:   -1.93 KCAL/MOL
REMARK 927      BINDING AFFINITY PREDICTED BY RF-SCORE:    0.00 PKD
ROOT
HETATM    1  N   UNL     1      -7.359   4.317  70.578  1.00  0.00    -0.047 NA 
HETATM    2  C   UNL     1      -8.626   3.711  70.993  1.00  0.00    -0.072 C  
HETATM    3  H1  UNL     1      -6.666   3.671  70.201  1.00  0.00     0.000 HD 
HETATM    4  H2  UNL     1      -6.957   4.849  71.350  1.00  0.00     0.000 HD 
ENDROOT
BRANCH   2   5
HETATM    5  C   UNL     1      -9.680   4.694  71.566  1.00  0.00    -0.175 C  
HETATM    6  O   UNL     1      -9.217   6.067  71.644  1.00  0.00    -0.146 OA 
HETATM    7  C   UNL     1     -10.285   6.935  72.063  1.00  0.00    -0.187 C  
HETATM    8  C   UNL     1     -10.760   6.561  73.505  1.00  0.00    -0.263 C  
HETATM    9  O   UNL     1      -8.906   4.151  73.813  1.00  0.00    -0.094 OA 
HETATM   10  H   UNL     1      -9.147   3.842  74.679  1.00  0.00     0.000 HD 
HETATM   11  N   UNL     1      -9.689   6.876  74.507  1.00  0.00    -0.457 NA 
HETATM   12  C   UNL     1     -11.164   5.088  73.576  1.00  0.00    -0.269 C  
HETATM   13  H2  UNL     1      -9.387   7.848  74.447  1.00  0.00     0.000 HD 
HETATM   14  O   UNL     1     -12.426   4.846  72.941  1.00  0.00    -0.173 OA 
HETATM   15  C   UNL     1     -10.073   4.190  72.978  1.00  0.00    -0.154 C  
HETATM   16  H1  UNL     1      -9.999   6.631  75.447  1.00  0.00     0.000 HD 
HETATM   17  H   UNL     1     -12.677   3.930  72.985  1.00  0.00     0.000 HD 
BRANCH   7  18
HETATM   18  O   UNL     1      -9.897   8.288  72.224  1.00  0.00    -0.235 OA 
BRANCH  18  19
HETATM   19  C   UNL     1     -10.027   9.206  71.146  1.00  0.00    -0.307 C  
HETATM   20  O   UNL     1      -8.064   8.023  70.192  1.00  0.00    -0.110 OA 
HETATM   21  C   UNL     1     -11.386   8.808  70.559  1.00  0.00    -0.227 C  
HETATM   22  C   UNL     1      -9.951   8.650  68.767  1.00  0.00    -0.183 C  
HETATM   23  H   UNL     1      -7.464   7.923  69.463  1.00  0.00     0.000 HD 
HETATM   24  O   UNL     1     -11.121   8.075  69.351  1.00  0.00    -0.080 OA 
HETATM   25  C   UNL     1      -9.052   9.044  69.960  1.00  0.00    -0.176 C  
BRANCH  21  26
HETATM   26  C   UNL     1     -12.329   9.990  70.317  1.00  0.00    -0.070 C  
HETATM   27  H   UNL     1     -12.574  11.854  70.958  1.00  0.00     0.000 HD 
HETATM   28  O   UNL     1     -11.990  11.121  71.108  1.00  0.00    -0.255 OA 
ENDBRANCH  21  26
BRANCH  22  29
HETATM   29  O   UNL     1     -10.300   9.780  67.957  1.00  0.00    -0.183 OA 
BRANCH  29  30
HETATM   30  C   UNL     1      -9.234  10.387  67.149  1.00  0.00    -0.143 C  
HETATM   31  C   UNL     1      -8.150   9.336  66.794  1.00  0.00    -0.112 C  
HETATM   32  O   UNL     1      -8.504   8.705  65.544  1.00  0.00    -0.146 OA 
HETATM   33  C   UNL     1      -6.688   9.796  66.667  1.00  0.00    -0.079 C  
HETATM   34  C   UNL     1      -6.354  11.023  67.496  1.00  0.00    -0.062 C  
HETATM   35  N   UNL     1      -5.779   8.694  67.077  1.00  0.00    -0.041 NA 
HETATM   36  H   UNL     1      -7.839   8.062  65.327  1.00  0.00     0.000 HD 
HETATM   37  H1  UNL     1      -4.810   8.999  66.992  1.00  0.00     0.000 HD 
HETATM   38  H2  UNL     1      -5.959   7.835  66.556  1.00  0.00     0.000 HD 
HETATM   39  C   UNL     1      -7.349  12.144  67.199  1.00  0.00    -0.124 C  
HETATM   40  C   UNL     1      -8.755  11.751  67.719  1.00  0.00    -0.155 C  
HETATM   41  N   UNL     1      -6.862  13.386  67.837  1.00  0.00    -0.126 NA 
HETATM   42  H2  UNL     1      -5.910  13.623  67.557  1.00  0.00     0.000 HD 
HETATM   43  H1  UNL     1      -7.526  14.134  67.638  1.00  0.00     0.000 HD 
BRANCH  40  44
HETATM   44  O   UNL     1      -9.655  12.830  67.366  1.00  0.00    -0.191 OA 
BRANCH  44  45
HETATM   45  C   UNL     1      -9.428  13.426  66.085  1.00  0.00    -0.140 C  
HETATM   46  O   UNL     1     -10.300  12.886  65.090  1.00  0.00    -0.294 OA 
HETATM   47  C   UNL     1     -11.686  13.175  65.324  1.00  0.00    -0.344 C  
HETATM   48  C   UNL     1     -11.945  14.687  65.395  1.00  0.00    -0.275 C  
HETATM   49  H1  UNL     1      -8.782  16.588  67.279  1.00  0.00     0.000 HD 
HETATM   50  O   UNL     1     -13.317  14.991  65.681  1.00  0.00     0.217 OA 
HETATM   51  H2  UNL     1      -7.713  15.316  67.039  1.00  0.00     0.000 HD 
HETATM   52  C   UNL     1     -11.050  15.320  66.470  1.00  0.00    -0.271 C  
HETATM   53  H   UNL     1     -13.478  15.927  65.724  1.00  0.00     0.000 HD 
HETATM   54  O   UNL     1     -11.221  16.747  66.464  1.00  0.00     0.204 OA 
HETATM   55  C   UNL     1      -9.577  14.969  66.192  1.00  0.00    -0.314 C  
HETATM   56  N   UNL     1      -8.685  15.575  67.209  1.00  0.00    -0.184 NA 
HETATM   57  H   UNL     1     -10.667  17.139  67.129  1.00  0.00     0.000 HD 
BRANCH  47  58
HETATM   58  C   UNL     1     -12.522  12.461  64.238  1.00  0.00    -0.437 C  
HETATM   59  H1  UNL     1     -13.301  12.779  62.305  1.00  0.00     0.000 HD 
HETATM   60  N   UNL     1     -12.749  13.250  63.022  1.00  0.00    -0.559 NA 
HETATM   61  H2  UNL     1     -11.860  13.566  62.634  1.00  0.00     0.000 HD 
ENDBRANCH  47  58
ENDBRANCH  44  45
ENDBRANCH  40  44
ENDBRANCH  29  30
ENDBRANCH  22  29
ENDBRANCH  18  19
ENDBRANCH   7  18
ENDBRANCH   2   5
TORSDOF 9
ENDMDL
MODEL      171
REMARK 921   NORMALIZED FREE ENERGY PREDICTED BY IDOCK:   -4.23 KCAL/MOL
REMARK 922        TOTAL FREE ENERGY PREDICTED BY IDOCK:   -9.27 KCAL/MOL
REMARK 923 INTER-LIGAND FREE ENERGY PREDICTED BY IDOCK:   -7.42 KCAL/MOL
REMARK 924 INTRA-LIGAND FREE ENERGY PREDICTED BY IDOCK:   -1.85 KCAL/MOL
REMARK 927      BINDING AFFINITY PREDICTED BY RF-SCORE:    0.00 PKD
ROOT
HETATM    1  N   UNL     1      -9.145  15.676  66.129  1.00  0.00    -0.337 NA 
HETATM    2  C   UNL     1      -9.986  14.525  66.469  1.00  0.00    -0.280 C  
HETATM    3  H1  UNL     1      -9.633  16.568  66.053  1.00  0.00     0.000 HD 
HETATM    4  H2  UNL     1      -8.627  15.488  65.271  1.00  0.00     0.000 HD 
ENDROOT
BRANCH   2   5
HETATM    5  C   UNL     1      -9.244  13.167  66.583  1.00  0.00    -0.215 C  
HETATM    6  O   UNL     1     -10.068  12.092  67.104  1.00  0.00    -0.205 OA 
HETATM    7  C   UNL     1      -9.353  10.845  67.062  1.00  0.00    -0.163 C  
HETATM    8  C   UNL     1      -8.093  10.905  67.986  1.00  0.00    -0.119 C  
HETATM    9  O   UNL     1      -8.456  13.831  68.793  1.00  0.00    -0.314 OA 
HETATM   10  H   UNL     1      -7.702  13.961  69.357  1.00  0.00     0.000 HD 
HETATM   11  N   UNL     1      -8.505  10.982  69.427  1.00  0.00    -0.379 NA 
HETATM   12  C   UNL     1      -7.200  12.086  67.606  1.00  0.00    -0.117 C  
HETATM   13  H2  UNL     1      -9.129  10.217  69.685  1.00  0.00     0.000 HD 
HETATM   14  O   UNL     1      -6.476  11.843  66.393  1.00  0.00    -0.394 OA 
HETATM   15  C   UNL     1      -8.015  13.381  67.503  1.00  0.00    -0.183 C  
HETATM   16  H1  UNL     1      -7.684  11.022  70.030  1.00  0.00     0.000 HD 
HETATM   17  H   UNL     1      -5.920  12.577  66.157  1.00  0.00     0.000 HD 
BRANCH   7  18
HETATM   18  O   UNL     1     -10.068   9.752  67.611  1.00  0.00    -0.168 OA 
BRANCH  18  19
HETATM   19  C   UNL     1      -9.476   8.462  67.668  1.00  0.00    -0.149 C  
HETATM   20  O   UNL     1     -11.075   8.050  69.520  1.00  0.00    -0.434 OA 
HETATM   21  C   UNL     1      -9.875   7.875  66.308  1.00  0.00    -0.069 C  
HETATM   22  C   UNL     1     -10.671   6.336  67.821  1.00  0.00    -0.306 C  
HETATM   23  H   UNL     1     -11.436   7.433  70.147  1.00  0.00     0.000 HD 
HETATM   24  O   UNL     1     -10.936   6.937  66.553  1.00  0.00    -0.098 OA 
HETATM   25  C   UNL     1     -10.060   7.460  68.687  1.00  0.00    -0.179 C  
BRANCH  21  26
HETATM   26  C   UNL     1      -8.713   7.239  65.540  1.00  0.00    -0.024 C  
HETATM   27  H   UNL     1      -6.750   7.472  65.348  1.00  0.00     0.000 HD 
HETATM   28  O   UNL     1      -7.470   7.867  65.824  1.00  0.00    -0.074 OA 
ENDBRANCH  21  26
BRANCH  22  29
HETATM   29  O   UNL     1      -9.779   5.224  67.671  1.00  0.00    -0.130 OA 
BRANCH  29  30
HETATM   30  C   UNL     1      -8.745   5.044  68.698  1.00  0.00    -0.093 C  
HETATM   31  C   UNL     1      -7.382   4.691  68.047  1.00  0.00    -0.066 C  
HETATM   32  O   UNL     1      -6.663   5.915  67.781  1.00  0.00    -0.054 OA 
HETATM   33  C   UNL     1      -6.420   3.761  68.803  1.00  0.00    -0.036 C  
HETATM   34  C   UNL     1      -7.112   2.798  69.751  1.00  0.00    -0.040 C  
HETATM   35  N   UNL     1      -5.623   2.968  67.832  1.00  0.00    -0.017 NA 
HETATM   36  H   UNL     1      -5.828   5.699  67.383  1.00  0.00     0.000 HD 
HETATM   37  H1  UNL     1      -4.984   2.351  68.333  1.00  0.00     0.000 HD 
HETATM   38  H2  UNL     1      -5.135   3.562  67.161  1.00  0.00     0.000 HD 
HETATM   39  C   UNL     1      -8.045   3.564  70.688  1.00  0.00    -0.053 C  
HETATM   40  C   UNL     1      -9.227   4.161  69.882  1.00  0.00    -0.141 C  
HETATM   41  N   UNL     1      -8.518   2.637  71.740  1.00  0.00    -0.063 NA 
HETATM   42  H2  UNL     1      -7.751   2.183  72.236  1.00  0.00     0.000 HD 
HETATM   43  H1  UNL     1      -9.141   3.149  72.366  1.00  0.00     0.000 HD 
BRANCH  40  44
HETATM   44  O   UNL     1     -10.043   4.908  70.818  1.00  0.00    -0.223 OA 
BRANCH  44  45
HETATM   45  C   UNL     1      -9.474   5.097  72.116  1.00  0.00    -0.140 C  
HETATM   46  O   UNL     1      -8.289   5.896  72.063  1.00  0.00    -0.114 OA 
HETATM   47  C   UNL     1      -8.526   7.243  71.630  1.00  0.00    -0.112 C  
HETATM   48  C   UNL     1      -9.528   7.964  72.543  1.00  0.00    -0.201 C  
HETATM   49  H1  UNL     1     -12.475   5.328  73.783  1.00  0.00     0.000 HD 
HETATM   50  O   UNL     1      -9.815   9.295  72.093  1.00  0.00    -0.128 OA 
HETATM   51  H2  UNL     1     -11.574   3.958  73.427  1.00  0.00     0.000 HD 
HETATM   52  C   UNL     1     -10.836   7.161  72.618  1.00  0.00    -0.279 C  
HETATM   53  H   UNL     1     -10.435   9.741  72.658  1.00  0.00     0.000 HD 
HETATM   54  O   UNL     1     -11.734   7.785  73.552  1.00  0.00    -0.469 OA 
HETATM   55  C   UNL     1     -10.534   5.719  73.067  1.00  0.00    -0.221 C  
HETATM   56  N   UNL     1     -11.780   4.920  73.159  1.00  0.00    -0.251 NA 
HETATM   57  H   UNL     1     -12.542   7.288  73.598  1.00  0.00     0.000 HD 
BRANCH  47  58
HETATM   58  C   UNL     1      -7.164   7.966  71.526  1.00  0.00    -0.067 C  
HETATM   59  H1  UNL     1      -6.086   9.552  72.401  1.00  0.00     0.000 HD 
HETATM   60  N   UNL     1      -6.985   9.075  72.470  1.00  0.00    -0.316 NA 
HETATM   61  H2  UNL     1      -7.145   8.755  73.426  1.00  0.00     0.000 HD 
ENDBRANCH  47  58
ENDBRANCH  44  45
ENDBRANCH  40  44
ENDBRANCH  29  30
ENDBRANCH  22  29
ENDBRANCH  18  19
ENDBRANCH   7  18
ENDBRANCH   2   5
TORSDOF 9
ENDMDL
MODEL      172
REMARK 921   NORMALIZED FREE ENERGY PREDICTED BY IDOCK:   -4.23 KCAL/MOL
REMARK 922        TOTAL FREE ENERGY PREDICTED BY IDOCK:   -9.26 KCAL/MOL
REMARK 923 INTER-LIGAND FREE ENERGY PREDICTED BY IDOCK:   -8.00 KCAL/MOL
REMARK 924 INTRA-LIGAND FREE ENERGY PREDICTED BY IDOCK:   -1.26 KCAL/MOL
REMARK 927      BINDING AFFINITY PREDICTED BY RF-SCORE:    0.00 PKD
ROOT
HETATM    1  N   UNL     1      -5.716  20.813  69.247  1.00  0.00    -0.367 NA 
HETATM    2  C   UNL     1      -5.617  19.436  68.754  1.00  0.00    -0.206 C  
HETATM    3  H1  UNL     1      -4.839  21.331  69.282  1.00  0.00     0.000 HD 
HETATM    4  H2  UNL     1      -6.164  20.823  70.164  1.00  0.00     0.000 HD 
ENDROOT
BRANCH   2   5
HETATM    5  C   UNL     1      -6.952  18.648  68.702  1.00  0.00    -0.277 C  
HETATM    6  O   UNL     1      -6.857  17.383  67.997  1.00  0.00    -0.173 OA 
HETATM    7  C   UNL     1      -8.094  16.656  68.100  1.00  0.00    -0.186 C  
HETATM    8  C   UNL     1      -9.252  17.447  67.409  1.00  0.00    -0.236 C  
HETATM    9  O   UNL     1      -7.561  19.890  66.695  1.00  0.00    -0.249 OA 
HETATM   10  H   UNL     1      -8.208  20.446  66.275  1.00  0.00     0.000 HD 
HETATM   11  N   UNL     1      -9.040  17.495  65.924  1.00  0.00    -0.516 NA 
HETATM   12  C   UNL     1      -9.370  18.855  67.993  1.00  0.00    -0.308 C  
HETATM   13  H2  UNL     1      -8.927  16.562  65.526  1.00  0.00     0.000 HD 
HETATM   14  O   UNL     1      -9.961  18.847  69.299  1.00  0.00    -0.383 OA 
HETATM   15  C   UNL     1      -8.006  19.555  68.018  1.00  0.00    -0.307 C  
HETATM   16  H1  UNL     1      -9.795  18.011  65.473  1.00  0.00     0.000 HD 
HETATM   17  H   UNL     1     -10.034  19.722  69.662  1.00  0.00     0.000 HD 
BRANCH   7  18
HETATM   18  O   UNL     1      -8.105  15.434  67.384  1.00  0.00    -0.150 OA 
BRANCH  18  19
HETATM   19  C   UNL     1      -7.990  14.197  68.073  1.00  0.00    -0.149 C  
HETATM   20  O   UNL     1      -9.342  13.281  66.204  1.00  0.00    -0.439 OA 
HETATM   21  C   UNL     1      -6.482  13.931  67.989  1.00  0.00    -0.145 C  
HETATM   22  C   UNL     1      -7.421  12.040  67.073  1.00  0.00    -0.106 C  
HETATM   23  H   UNL     1      -9.730  12.517  65.793  1.00  0.00     0.000 HD 
HETATM   24  O   UNL     1      -6.292  12.913  66.992  1.00  0.00    -0.212 OA 
HETATM   25  C   UNL     1      -8.620  12.956  67.406  1.00  0.00    -0.195 C  
BRANCH  21  26
HETATM   26  C   UNL     1      -5.842  13.551  69.326  1.00  0.00    -0.086 C  
HETATM   27  H   UNL     1      -6.194  12.327  70.851  1.00  0.00     0.000 HD 
HETATM   28  O   UNL     1      -6.590  12.563  70.021  1.00  0.00     0.016 OA 
ENDBRANCH  21  26
BRANCH  22  29
HETATM   29  O   UNL     1      -7.209  11.040  68.078  1.00  0.00    -0.082 OA 
BRANCH  29  30
HETATM   30  C   UNL     1      -7.330   9.635  67.669  1.00  0.00    -0.090 C  
HETATM   31  C   UNL     1      -7.483   9.524  66.129  1.00  0.00    -0.100 C  
HETATM   32  O   UNL     1      -6.171   9.405  65.538  1.00  0.00    -0.062 OA 
HETATM   33  C   UNL     1      -8.341   8.387  65.551  1.00  0.00    -0.154 C  
HETATM   34  C   UNL     1      -9.432   7.901  66.488  1.00  0.00    -0.277 C  
HETATM   35  N   UNL     1      -8.976   8.832  64.284  1.00  0.00    -0.403 NA 
HETATM   36  H   UNL     1      -6.265   9.337  64.595  1.00  0.00     0.000 HD 
HETATM   37  H1  UNL     1      -9.545   8.078  63.901  1.00  0.00     0.000 HD 
HETATM   38  H2  UNL     1      -8.292   9.177  63.612  1.00  0.00     0.000 HD 
HETATM   39  C   UNL     1      -8.837   7.552  67.851  1.00  0.00    -0.126 C  
HETATM   40  C   UNL     1      -8.333   8.840  68.551  1.00  0.00    -0.129 C  
HETATM   41  N   UNL     1      -9.873   6.868  68.655  1.00  0.00    -0.143 NA 
HETATM   42  H2  UNL     1     -10.265   6.055  68.179  1.00  0.00     0.000 HD 
HETATM   43  H1  UNL     1      -9.476   6.635  69.565  1.00  0.00     0.000 HD 
BRANCH  40  44
HETATM   44  O   UNL     1      -7.742   8.435  69.810  1.00  0.00    -0.089 OA 
BRANCH  44  45
HETATM   45  C   UNL     1      -7.881   9.369  70.884  1.00  0.00    -0.057 C  
HETATM   46  O   UNL     1      -9.103   9.173  71.600  1.00  0.00    -0.334 OA 
HETATM   47  C   UNL     1      -9.173   7.910  72.277  1.00  0.00    -0.165 C  
HETATM   48  C   UNL     1      -8.019   7.738  73.276  1.00  0.00    -0.139 C  
HETATM   49  H1  UNL     1      -4.550   9.409  71.747  1.00  0.00     0.000 HD 
HETATM   50  O   UNL     1      -8.047   6.458  73.924  1.00  0.00    -0.107 OA 
HETATM   51  H2  UNL     1      -5.356  10.359  70.622  1.00  0.00     0.000 HD 
HETATM   52  C   UNL     1      -6.675   7.914  72.555  1.00  0.00    -0.073 C  
HETATM   53  H   UNL     1      -7.333   6.352  74.542  1.00  0.00     0.000 HD 
HETATM   54  O   UNL     1      -5.602   7.852  73.510  1.00  0.00    -0.044 OA 
HETATM   55  C   UNL     1      -6.649   9.270  71.827  1.00  0.00     0.118 C  
HETATM   56  N   UNL     1      -5.358   9.474  71.128  1.00  0.00    -0.049 NA 
HETATM   57  H   UNL     1      -4.770   7.961  73.064  1.00  0.00     0.000 HD 
BRANCH  47  58
HETATM   58  C   UNL     1     -10.569   7.785  72.927  1.00  0.00    -0.366 C  
HETATM   59  H1  UNL     1     -11.693   6.482  74.145  1.00  0.00     0.000 HD 
HETATM   60  N   UNL     1     -10.771   6.564  73.716  1.00  0.00    -0.460 NA 
HETATM   61  H2  UNL     1     -10.041   6.475  74.424  1.00  0.00     0.000 HD 
ENDBRANCH  47  58
ENDBRANCH  44  45
ENDBRANCH  40  44
ENDBRANCH  29  30
ENDBRANCH  22  29
ENDBRANCH  18  19
ENDBRANCH   7  18
ENDBRANCH   2   5
TORSDOF 9
ENDMDL
MODEL      173
REMARK 921   NORMALIZED FREE ENERGY PREDICTED BY IDOCK:   -4.21 KCAL/MOL
REMARK 922        TOTAL FREE ENERGY PREDICTED BY IDOCK:   -9.24 KCAL/MOL
REMARK 923 INTER-LIGAND FREE ENERGY PREDICTED BY IDOCK:   -7.38 KCAL/MOL
REMARK 924 INTRA-LIGAND FREE ENERGY PREDICTED BY IDOCK:   -1.86 KCAL/MOL
REMARK 927      BINDING AFFINITY PREDICTED BY RF-SCORE:    0.00 PKD
ROOT
HETATM    1  N   UNL     1     -12.293  13.955  69.603  1.00  0.00    -0.346 NA 
HETATM    2  C   UNL     1     -12.147  14.793  68.409  1.00  0.00    -0.167 C  
HETATM    3  H1  UNL     1     -13.249  13.823  69.931  1.00  0.00     0.000 HD 
HETATM    4  H2  UNL     1     -11.712  14.319  70.358  1.00  0.00     0.000 HD 
ENDROOT
BRANCH   2   5
HETATM    5  C   UNL     1     -10.692  14.994  67.910  1.00  0.00    -0.268 C  
HETATM    6  O   UNL     1      -9.910  13.771  67.875  1.00  0.00    -0.220 OA 
HETATM    7  C   UNL     1      -8.621  14.015  67.286  1.00  0.00    -0.216 C  
HETATM    8  C   UNL     1      -7.803  15.022  68.158  1.00  0.00    -0.120 C  
HETATM    9  O   UNL     1     -10.025  15.529  70.193  1.00  0.00    -0.370 OA 
HETATM   10  H   UNL     1      -9.609  16.162  70.767  1.00  0.00     0.000 HD 
HETATM   11  N   UNL     1      -7.433  14.397  69.471  1.00  0.00    -0.356 NA 
HETATM   12  C   UNL     1      -8.586  16.318  68.366  1.00  0.00    -0.200 C  
HETATM   13  H2  UNL     1      -6.939  13.514  69.346  1.00  0.00     0.000 HD 
HETATM   14  O   UNL     1      -8.603  17.131  67.185  1.00  0.00    -0.196 OA 
HETATM   15  C   UNL     1     -10.013  16.026  68.846  1.00  0.00    -0.232 C  
HETATM   16  H1  UNL     1      -6.900  15.054  70.040  1.00  0.00     0.000 HD 
HETATM   17  H   UNL     1      -9.090  17.937  67.315  1.00  0.00     0.000 HD 
BRANCH   7  18
HETATM   18  O   UNL     1      -7.772  12.881  67.271  1.00  0.00    -0.163 OA 
BRANCH  18  19
HETATM   19  C   UNL     1      -7.810  11.941  68.336  1.00  0.00    -0.141 C  
HETATM   20  O   UNL     1      -9.750  10.978  67.125  1.00  0.00    -0.171 OA 
HETATM   21  C   UNL     1      -6.480  11.201  68.147  1.00  0.00    -0.057 C  
HETATM   22  C   UNL     1      -8.051   9.520  68.110  1.00  0.00    -0.102 C  
HETATM   23  H   UNL     1     -10.403  10.289  67.074  1.00  0.00     0.000 HD 
HETATM   24  O   UNL     1      -6.793   9.923  67.568  1.00  0.00    -0.079 OA 
HETATM   25  C   UNL     1      -8.870  10.822  68.253  1.00  0.00    -0.139 C  
BRANCH  21  26
HETATM   26  C   UNL     1      -5.658  11.062  69.431  1.00  0.00    -0.042 C  
HETATM   27  H   UNL     1      -5.894  11.324  71.386  1.00  0.00     0.000 HD 
HETATM   28  O   UNL     1      -6.403  11.410  70.590  1.00  0.00    -0.310 OA 
ENDBRANCH  21  26
BRANCH  22  29
HETATM   29  O   UNL     1      -7.864   8.858  69.368  1.00  0.00    -0.093 OA 
BRANCH  29  30
HETATM   30  C   UNL     1      -8.991   8.079  69.895  1.00  0.00    -0.145 C  
HETATM   31  C   UNL     1      -9.419   8.607  71.290  1.00  0.00    -0.224 C  
HETATM   32  O   UNL     1     -10.427   9.626  71.113  1.00  0.00    -0.307 OA 
HETATM   33  C   UNL     1      -9.965   7.609  72.324  1.00  0.00    -0.190 C  
HETATM   34  C   UNL     1      -9.453   6.192  72.142  1.00  0.00    -0.159 C  
HETATM   35  N   UNL     1      -9.610   8.062  73.693  1.00  0.00    -0.248 NA 
HETATM   36  H   UNL     1     -10.688   9.949  71.967  1.00  0.00     0.000 HD 
HETATM   37  H1  UNL     1      -9.973   7.400  74.379  1.00  0.00     0.000 HD 
HETATM   38  H2  UNL     1      -9.925   9.015  73.876  1.00  0.00     0.000 HD 
HETATM   39  C   UNL     1      -9.683   5.731  70.703  1.00  0.00    -0.178 C  
HETATM   40  C   UNL     1      -8.784   6.546  69.739  1.00  0.00    -0.143 C  
HETATM   41  N   UNL     1      -9.392   4.282  70.622  1.00  0.00    -0.129 NA 
HETATM   42  H2  UNL     1      -9.927   3.737  71.298  1.00  0.00     0.000 HD 
HETATM   43  H1  UNL     1      -9.546   3.975  69.661  1.00  0.00     0.000 HD 
BRANCH  40  44
HETATM   44  O   UNL     1      -9.084   6.094  68.396  1.00  0.00    -0.115 OA 
BRANCH  44  45
HETATM   45  C   UNL     1      -7.952   5.731  67.602  1.00  0.00    -0.102 C  
HETATM   46  O   UNL     1      -7.470   4.427  67.934  1.00  0.00    -0.068 OA 
HETATM   47  C   UNL     1      -8.404   3.378  67.639  1.00  0.00    -0.086 C  
HETATM   48  C   UNL     1      -8.788   3.363  66.152  1.00  0.00    -0.137 C  
HETATM   49  H1  UNL     1      -9.052   7.239  64.711  1.00  0.00     0.000 HD 
HETATM   50  O   UNL     1      -9.761   2.354  65.851  1.00  0.00    -0.350 OA 
HETATM   51  H2  UNL     1      -8.148   7.898  65.962  1.00  0.00     0.000 HD 
HETATM   52  C   UNL     1      -9.338   4.738  65.742  1.00  0.00    -0.161 C  
HETATM   53  H   UNL     1      -9.999   2.344  64.931  1.00  0.00     0.000 HD 
HETATM   54  O   UNL     1      -9.602   4.751  64.329  1.00  0.00    -0.350 OA 
HETATM   55  C   UNL     1      -8.315   5.833  66.094  1.00  0.00    -0.122 C  
HETATM   56  N   UNL     1      -8.814   7.172  65.700  1.00  0.00    -0.076 NA 
HETATM   57  H   UNL     1      -9.942   5.601  64.076  1.00  0.00     0.000 HD 
BRANCH  47  58
HETATM   58  C   UNL     1      -7.804   2.041  68.130  1.00  0.00    -0.057 C  
HETATM   59  H1  UNL     1      -7.054   1.130  69.877  1.00  0.00     0.000 HD 
HETATM   60  N   UNL     1      -7.451   2.014  69.553  1.00  0.00    -0.043 NA 
HETATM   61  H2  UNL     1      -8.257   2.270  70.124  1.00  0.00     0.000 HD 
ENDBRANCH  47  58
ENDBRANCH  44  45
ENDBRANCH  40  44
ENDBRANCH  29  30
ENDBRANCH  22  29
ENDBRANCH  18  19
ENDBRANCH   7  18
ENDBRANCH   2   5
TORSDOF 9
ENDMDL
MODEL      174
REMARK 921   NORMALIZED FREE ENERGY PREDICTED BY IDOCK:   -4.18 KCAL/MOL
REMARK 922        TOTAL FREE ENERGY PREDICTED BY IDOCK:   -9.19 KCAL/MOL
REMARK 923 INTER-LIGAND FREE ENERGY PREDICTED BY IDOCK:   -7.24 KCAL/MOL
REMARK 924 INTRA-LIGAND FREE ENERGY PREDICTED BY IDOCK:   -1.95 KCAL/MOL
REMARK 927      BINDING AFFINITY PREDICTED BY RF-SCORE:    0.00 PKD
ROOT
HETATM    1  N   UNL     1     -13.392  13.793  66.242  1.00  0.00     0.115 NA 
HETATM    2  C   UNL     1     -12.495  14.304  67.282  1.00  0.00     0.093 C  
HETATM    3  H1  UNL     1     -14.387  13.830  66.464  1.00  0.00     0.000 HD 
HETATM    4  H2  UNL     1     -13.127  12.842  65.989  1.00  0.00     0.000 HD 
ENDROOT
BRANCH   2   5
HETATM    5  C   UNL     1     -10.982  14.247  66.945  1.00  0.00    -0.304 C  
HETATM    6  O   UNL     1     -10.327  13.035  67.400  1.00  0.00    -0.232 OA 
HETATM    7  C   UNL     1      -8.964  12.997  66.942  1.00  0.00    -0.209 C  
HETATM    8  C   UNL     1      -8.148  14.182  67.556  1.00  0.00    -0.187 C  
HETATM    9  O   UNL     1     -10.516  15.451  69.012  1.00  0.00    -0.229 OA 
HETATM   10  H   UNL     1     -10.103  16.210  69.410  1.00  0.00     0.000 HD 
HETATM   11  N   UNL     1      -7.986  13.994  69.035  1.00  0.00    -0.326 NA 
HETATM   12  C   UNL     1      -8.817  15.519  67.241  1.00  0.00    -0.201 C  
HETATM   13  H2  UNL     1      -7.571  13.090  69.261  1.00  0.00     0.000 HD 
HETATM   14  O   UNL     1      -8.626  15.907  65.873  1.00  0.00    -0.289 OA 
HETATM   15  C   UNL     1     -10.310  15.484  67.592  1.00  0.00    -0.269 C  
HETATM   16  H1  UNL     1      -7.455  14.767  69.436  1.00  0.00     0.000 HD 
HETATM   17  H   UNL     1      -9.042  16.738  65.677  1.00  0.00     0.000 HD 
BRANCH   7  18
HETATM   18  O   UNL     1      -8.234  11.871  67.398  1.00  0.00    -0.147 OA 
BRANCH  18  19
HETATM   19  C   UNL     1      -8.262  10.653  66.666  1.00  0.00    -0.134 C  
HETATM   20  O   UNL     1      -8.046   9.569  68.887  1.00  0.00    -0.092 OA 
HETATM   21  C   UNL     1      -9.678  10.675  66.077  1.00  0.00    -0.208 C  
HETATM   22  C   UNL     1      -9.590   8.676  67.213  1.00  0.00    -0.167 C  
HETATM   23  H   UNL     1      -8.021   8.761  69.387  1.00  0.00     0.000 HD 
HETATM   24  O   UNL     1     -10.462   9.744  66.841  1.00  0.00    -0.238 OA 
HETATM   25  C   UNL     1      -8.220   9.341  67.477  1.00  0.00    -0.114 C  
BRANCH  21  26
HETATM   26  C   UNL     1      -9.732  10.374  64.576  1.00  0.00    -0.330 C  
HETATM   27  H   UNL     1     -10.718  10.995  62.967  1.00  0.00     0.000 HD 
HETATM   28  O   UNL     1     -10.684  11.182  63.898  1.00  0.00    -0.376 OA 
ENDBRANCH  21  26
BRANCH  22  29
HETATM   29  O   UNL     1      -9.523   7.698  66.167  1.00  0.00    -0.149 OA 
BRANCH  29  30
HETATM   30  C   UNL     1      -8.726   6.492  66.420  1.00  0.00    -0.140 C  
HETATM   31  C   UNL     1      -7.653   6.302  65.316  1.00  0.00    -0.090 C  
HETATM   32  O   UNL     1      -6.443   6.981  65.722  1.00  0.00    -0.048 OA 
HETATM   33  C   UNL     1      -7.252   4.875  64.910  1.00  0.00    -0.063 C  
HETATM   34  C   UNL     1      -8.343   3.843  65.133  1.00  0.00    -0.101 C  
HETATM   35  N   UNL     1      -6.872   4.851  63.474  1.00  0.00    -0.041 NA 
HETATM   36  H   UNL     1      -5.786   6.865  65.045  1.00  0.00     0.000 HD 
HETATM   37  H1  UNL     1      -6.606   3.903  63.205  1.00  0.00     0.000 HD 
HETATM   38  H2  UNL     1      -6.142   5.530  63.259  1.00  0.00     0.000 HD 
HETATM   39  C   UNL     1      -8.855   3.922  66.570  1.00  0.00    -0.125 C  
HETATM   40  C   UNL     1      -9.601   5.262  66.790  1.00  0.00    -0.148 C  
HETATM   41  N   UNL     1      -9.738   2.762  66.819  1.00  0.00    -0.369 NA 
HETATM   42  H2  UNL     1      -9.283   1.872  66.614  1.00  0.00     0.000 HD 
HETATM   43  H1  UNL     1     -10.080   2.814  67.779  1.00  0.00     0.000 HD 
BRANCH  40  44
HETATM   44  O   UNL     1     -10.018   5.293  68.177  1.00  0.00    -0.146 OA 
BRANCH  44  45
HETATM   45  C   UNL     1      -8.984   5.577  69.124  1.00  0.00    -0.108 C  
HETATM   46  O   UNL     1      -9.120   6.888  69.677  1.00  0.00    -0.143 OA 
HETATM   47  C   UNL     1     -10.311   7.059  70.459  1.00  0.00    -0.201 C  
HETATM   48  C   UNL     1     -10.374   6.058  71.622  1.00  0.00    -0.214 C  
HETATM   49  H1  UNL     1      -8.830   2.400  70.437  1.00  0.00     0.000 HD 
HETATM   50  O   UNL     1     -11.584   6.182  72.382  1.00  0.00    -0.295 OA 
HETATM   51  H2  UNL     1      -8.002   3.035  69.122  1.00  0.00     0.000 HD 
HETATM   52  C   UNL     1     -10.258   4.624  71.083  1.00  0.00    -0.129 C  
HETATM   53  H   UNL     1     -11.623   5.562  73.102  1.00  0.00     0.000 HD 
HETATM   54  O   UNL     1     -10.215   3.696  72.180  1.00  0.00    -0.167 OA 
HETATM   55  C   UNL     1      -8.979   4.490  70.235  1.00  0.00    -0.090 C  
HETATM   56  N   UNL     1      -8.833   3.112  69.708  1.00  0.00    -0.078 NA 
HETATM   57  H   UNL     1     -10.143   2.810  71.846  1.00  0.00     0.000 HD 
BRANCH  47  58
HETATM   58  C   UNL     1     -10.384   8.533  70.917  1.00  0.00    -0.199 C  
HETATM   59  H1  UNL     1      -9.371   9.914  72.147  1.00  0.00     0.000 HD 
HETATM   60  N   UNL     1      -9.322   8.940  71.844  1.00  0.00    -0.352 NA 
HETATM   61  H2  UNL     1      -8.405   8.738  71.444  1.00  0.00     0.000 HD 
ENDBRANCH  47  58
ENDBRANCH  44  45
ENDBRANCH  40  44
ENDBRANCH  29  30
ENDBRANCH  22  29
ENDBRANCH  18  19
ENDBRANCH   7  18
ENDBRANCH   2   5
TORSDOF 9
ENDMDL
MODEL      175
REMARK 921   NORMALIZED FREE ENERGY PREDICTED BY IDOCK:   -4.16 KCAL/MOL
REMARK 922        TOTAL FREE ENERGY PREDICTED BY IDOCK:   -9.15 KCAL/MOL
REMARK 923 INTER-LIGAND FREE ENERGY PREDICTED BY IDOCK:   -6.75 KCAL/MOL
REMARK 924 INTRA-LIGAND FREE ENERGY PREDICTED BY IDOCK:   -2.40 KCAL/MOL
REMARK 927      BINDING AFFINITY PREDICTED BY RF-SCORE:    0.00 PKD
ROOT
HETATM    1  N   UNL     1     -10.112  13.013  68.831  1.00  0.00    -0.438 NA 
HETATM    2  C   UNL     1     -10.405  11.586  68.990  1.00  0.00    -0.118 C  
HETATM    3  H1  UNL     1     -10.036  13.544  69.698  1.00  0.00     0.000 HD 
HETATM    4  H2  UNL     1     -10.802  13.445  68.217  1.00  0.00     0.000 HD 
ENDROOT
BRANCH   2   5
HETATM    5  C   UNL     1     -10.521  10.779  67.670  1.00  0.00    -0.214 C  
HETATM    6  O   UNL     1     -10.142   9.384  67.803  1.00  0.00    -0.174 OA 
HETATM    7  C   UNL     1     -10.395   8.675  66.577  1.00  0.00    -0.166 C  
HETATM    8  C   UNL     1      -9.514   9.251  65.421  1.00  0.00    -0.210 C  
HETATM    9  O   UNL     1      -8.263  11.488  67.084  1.00  0.00    -0.147 OA 
HETATM   10  H   UNL     1      -7.711  11.913  66.438  1.00  0.00     0.000 HD 
HETATM   11  N   UNL     1      -8.065   8.945  65.666  1.00  0.00    -0.108 NA 
HETATM   12  C   UNL     1      -9.740  10.754  65.265  1.00  0.00    -0.255 C  
HETATM   13  H2  UNL     1      -7.905   7.947  65.805  1.00  0.00     0.000 HD 
HETATM   14  O   UNL     1     -10.999  11.047  64.645  1.00  0.00    -0.243 OA 
HETATM   15  C   UNL     1      -9.620  11.471  66.616  1.00  0.00    -0.197 C  
HETATM   16  H1  UNL     1      -7.490   9.321  64.912  1.00  0.00     0.000 HD 
HETATM   17  H   UNL     1     -11.140  11.981  64.548  1.00  0.00     0.000 HD 
BRANCH   7  18
HETATM   18  O   UNL     1      -9.994   7.317  66.604  1.00  0.00    -0.211 OA 
BRANCH  18  19
HETATM   19  C   UNL     1      -9.198   6.824  67.673  1.00  0.00    -0.118 C  
HETATM   20  O   UNL     1     -11.279   7.002  69.014  1.00  0.00    -0.463 OA 
HETATM   21  C   UNL     1      -8.849   5.415  67.179  1.00  0.00    -0.109 C  
HETATM   22  C   UNL     1      -9.822   5.048  69.232  1.00  0.00    -0.196 C  
HETATM   23  H   UNL     1     -11.713   6.850  69.845  1.00  0.00     0.000 HD 
HETATM   24  O   UNL     1      -9.668   4.497  67.924  1.00  0.00    -0.160 OA 
HETATM   25  C   UNL     1      -9.903   6.578  69.024  1.00  0.00    -0.143 C  
BRANCH  21  26
HETATM   26  C   UNL     1      -7.361   5.069  67.284  1.00  0.00    -0.082 C  
HETATM   27  H   UNL     1      -5.986   4.080  66.246  1.00  0.00     0.000 HD 
HETATM   28  O   UNL     1      -6.909   4.294  66.181  1.00  0.00    -0.055 OA 
ENDBRANCH  21  26
BRANCH  22  29
HETATM   29  O   UNL     1      -8.717   4.675  70.066  1.00  0.00    -0.079 OA 
BRANCH  29  30
HETATM   30  C   UNL     1      -8.928   4.700  71.518  1.00  0.00    -0.133 C  
HETATM   31  C   UNL     1      -9.554   3.367  72.005  1.00  0.00    -0.144 C  
HETATM   32  O   UNL     1      -8.490   2.451  72.347  1.00  0.00    -0.061 OA 
HETATM   33  C   UNL     1     -10.522   3.396  73.198  1.00  0.00    -0.169 C  
HETATM   34  C   UNL     1     -11.253   4.716  73.366  1.00  0.00    -0.423 C  
HETATM   35  N   UNL     1     -11.533   2.317  73.049  1.00  0.00     0.031 NA 
HETATM   36  H   UNL     1      -8.874   1.634  72.645  1.00  0.00     0.000 HD 
HETATM   37  H1  UNL     1     -12.176   2.337  73.841  1.00  0.00     0.000 HD 
HETATM   38  H2  UNL     1     -11.102   1.401  72.927  1.00  0.00     0.000 HD 
HETATM   39  C   UNL     1     -10.252   5.870  73.395  1.00  0.00    -0.212 C  
HETATM   40  C   UNL     1      -9.584   6.022  72.004  1.00  0.00    -0.152 C  
HETATM   41  N   UNL     1     -10.968   7.103  73.791  1.00  0.00    -0.526 NA 
HETATM   42  H2  UNL     1     -11.470   6.998  74.673  1.00  0.00     0.000 HD 
HETATM   43  H1  UNL     1     -10.299   7.873  73.810  1.00  0.00     0.000 HD 
BRANCH  40  44
HETATM   44  O   UNL     1      -8.619   7.097  72.113  1.00  0.00    -0.111 OA 
BRANCH  44  45
HETATM   45  C   UNL     1      -7.247   6.701  72.037  1.00  0.00    -0.081 C  
HETATM   46  O   UNL     1      -6.638   7.140  70.820  1.00  0.00    -0.046 OA 
HETATM   47  C   UNL     1      -6.555   8.567  70.703  1.00  0.00    -0.039 C  
HETATM   48  C   UNL     1      -5.764   9.187  71.864  1.00  0.00    -0.073 C  
HETATM   49  H1  UNL     1      -6.567   7.147  75.381  1.00  0.00     0.000 HD 
HETATM   50  O   UNL     1      -5.718  10.618  71.789  1.00  0.00    -0.317 OA 
HETATM   51  H2  UNL     1      -7.156   5.782  74.600  1.00  0.00     0.000 HD 
HETATM   52  C   UNL     1      -6.391   8.769  73.203  1.00  0.00    -0.002 C  
HETATM   53  H   UNL     1      -5.228  11.002  72.508  1.00  0.00     0.000 HD 
HETATM   54  O   UNL     1      -5.590   9.266  74.289  1.00  0.00    -0.136 OA 
HETATM   55  C   UNL     1      -6.479   7.234  73.279  1.00  0.00    -0.064 C  
HETATM   56  N   UNL     1      -7.071   6.798  74.566  1.00  0.00    -0.098 NA 
HETATM   57  H   UNL     1      -5.978   9.008  75.116  1.00  0.00     0.000 HD 
BRANCH  47  58
HETATM   58  C   UNL     1      -5.969   8.908  69.314  1.00  0.00    -0.041 C  
HETATM   59  H1  UNL     1      -6.571   9.565  67.403  1.00  0.00     0.000 HD 
HETATM   60  N   UNL     1      -6.959   9.341  68.321  1.00  0.00    -0.071 NA 
HETATM   61  H2  UNL     1      -7.499  10.128  68.680  1.00  0.00     0.000 HD 
ENDBRANCH  47  58
ENDBRANCH  44  45
ENDBRANCH  40  44
ENDBRANCH  29  30
ENDBRANCH  22  29
ENDBRANCH  18  19
ENDBRANCH   7  18
ENDBRANCH   2   5
TORSDOF 9
ENDMDL
MODEL      176
REMARK 921   NORMALIZED FREE ENERGY PREDICTED BY IDOCK:   -4.15 KCAL/MOL
REMARK 922        TOTAL FREE ENERGY PREDICTED BY IDOCK:   -9.14 KCAL/MOL
REMARK 923 INTER-LIGAND FREE ENERGY PREDICTED BY IDOCK:   -8.06 KCAL/MOL
REMARK 924 INTRA-LIGAND FREE ENERGY PREDICTED BY IDOCK:   -1.08 KCAL/MOL
REMARK 927      BINDING AFFINITY PREDICTED BY RF-SCORE:    0.00 PKD
ROOT
HETATM    1  N   UNL     1      -7.366   2.318  70.481  1.00  0.00    -0.033 NA 
HETATM    2  C   UNL     1      -8.064   3.594  70.299  1.00  0.00    -0.049 C  
HETATM    3  H1  UNL     1      -6.882   1.962  69.657  1.00  0.00     0.000 HD 
HETATM    4  H2  UNL     1      -8.012   1.614  70.837  1.00  0.00     0.000 HD 
ENDROOT
BRANCH   2   5
HETATM    5  C   UNL     1      -8.801   4.135  71.552  1.00  0.00    -0.112 C  
HETATM    6  O   UNL     1      -8.690   5.572  71.720  1.00  0.00    -0.133 OA 
HETATM    7  C   UNL     1      -9.500   6.014  72.824  1.00  0.00    -0.151 C  
HETATM    8  C   UNL     1      -8.989   5.385  74.162  1.00  0.00    -0.118 C  
HETATM    9  O   UNL     1      -6.805   3.678  72.875  1.00  0.00    -0.036 OA 
HETATM   10  H   UNL     1      -6.445   3.235  73.635  1.00  0.00     0.000 HD 
HETATM   11  N   UNL     1      -7.642   5.939  74.520  1.00  0.00    -0.097 NA 
HETATM   12  C   UNL     1      -8.947   3.860  74.061  1.00  0.00    -0.091 C  
HETATM   13  H2  UNL     1      -7.648   6.959  74.558  1.00  0.00     0.000 HD 
HETATM   14  O   UNL     1     -10.258   3.281  74.121  1.00  0.00    -0.131 OA 
HETATM   15  C   UNL     1      -8.214   3.413  72.790  1.00  0.00    -0.080 C  
HETATM   16  H1  UNL     1      -7.309   5.529  75.392  1.00  0.00     0.000 HD 
HETATM   17  H   UNL     1     -10.232   2.333  74.058  1.00  0.00     0.000 HD 
BRANCH   7  18
HETATM   18  O   UNL     1      -9.398   7.400  73.094  1.00  0.00    -0.155 OA 
BRANCH  18  19
HETATM   19  C   UNL     1      -9.707   8.353  72.086  1.00  0.00    -0.300 C  
HETATM   20  O   UNL     1      -7.419   7.881  71.248  1.00  0.00    -0.067 OA 
HETATM   21  C   UNL     1     -10.844   7.653  71.332  1.00  0.00    -0.225 C  
HETATM   22  C   UNL     1      -9.294   8.098  69.691  1.00  0.00    -0.159 C  
HETATM   23  H   UNL     1      -6.763   8.033  70.578  1.00  0.00     0.000 HD 
HETATM   24  O   UNL     1     -10.287   7.158  70.103  1.00  0.00    -0.199 OA 
HETATM   25  C   UNL     1      -8.641   8.601  70.998  1.00  0.00    -0.173 C  
BRANCH  21  26
HETATM   26  C   UNL     1     -12.068   8.539  71.090  1.00  0.00    -0.252 C  
HETATM   27  H   UNL     1     -12.658  10.399  71.465  1.00  0.00     0.000 HD 
HETATM   28  O   UNL     1     -11.898   9.849  71.615  1.00  0.00    -0.379 OA 
ENDBRANCH  21  26
BRANCH  22  29
HETATM   29  O   UNL     1      -9.894   9.163  68.942  1.00  0.00    -0.166 OA 
BRANCH  29  30
HETATM   30  C   UNL     1      -9.723   9.145  67.484  1.00  0.00    -0.160 C  
HETATM   31  C   UNL     1      -9.648   7.687  66.960  1.00  0.00    -0.175 C  
HETATM   32  O   UNL     1     -10.983   7.239  66.637  1.00  0.00    -0.452 OA 
HETATM   33  C   UNL     1      -8.766   7.384  65.737  1.00  0.00    -0.109 C  
HETATM   34  C   UNL     1      -7.601   8.343  65.566  1.00  0.00    -0.090 C  
HETATM   35  N   UNL     1      -8.224   6.005  65.840  1.00  0.00    -0.122 NA 
HETATM   36  H   UNL     1     -10.937   6.347  66.316  1.00  0.00     0.000 HD 
HETATM   37  H1  UNL     1      -7.639   5.804  65.029  1.00  0.00     0.000 HD 
HETATM   38  H2  UNL     1      -8.962   5.311  65.962  1.00  0.00     0.000 HD 
HETATM   39  C   UNL     1      -8.102   9.787  65.585  1.00  0.00    -0.120 C  
HETATM   40  C   UNL     1      -8.634  10.141  66.997  1.00  0.00    -0.129 C  
HETATM   41  N   UNL     1      -6.990  10.675  65.185  1.00  0.00    -0.347 NA 
HETATM   42  H2  UNL     1      -6.583  10.413  64.286  1.00  0.00     0.000 HD 
HETATM   43  H1  UNL     1      -7.325  11.639  65.197  1.00  0.00     0.000 HD 
BRANCH  40  44
HETATM   44  O   UNL     1      -9.133  11.500  66.933  1.00  0.00    -0.169 OA 
BRANCH  44  45
HETATM   45  C   UNL     1      -9.434  12.104  68.194  1.00  0.00    -0.205 C  
HETATM   46  O   UNL     1      -8.514  13.152  68.510  1.00  0.00    -0.144 OA 
HETATM   47  C   UNL     1      -8.583  14.266  67.608  1.00  0.00    -0.183 C  
HETATM   48  C   UNL     1      -9.990  14.881  67.573  1.00  0.00    -0.219 C  
HETATM   49  H1  UNL     1     -12.854  11.902  67.873  1.00  0.00     0.000 HD 
HETATM   50  O   UNL     1     -10.089  15.963  66.637  1.00  0.00    -0.261 OA 
HETATM   51  H2  UNL     1     -11.789  10.769  68.505  1.00  0.00     0.000 HD 
HETATM   52  C   UNL     1     -11.022  13.802  67.212  1.00  0.00    -0.292 C  
HETATM   53  H   UNL     1     -10.959  16.344  66.615  1.00  0.00     0.000 HD 
HETATM   54  O   UNL     1     -12.347  14.357  67.280  1.00  0.00    -0.617 OA 
HETATM   55  C   UNL     1     -10.901  12.619  68.191  1.00  0.00    -0.227 C  
HETATM   56  N   UNL     1     -11.892  11.564  67.874  1.00  0.00    -0.614 NA 
HETATM   57  H   UNL     1     -12.984  13.689  67.057  1.00  0.00     0.000 HD 
BRANCH  47  58
HETATM   58  C   UNL     1      -7.483  15.278  68.001  1.00  0.00    -0.121 C  
HETATM   59  H1  UNL     1      -6.575  17.052  67.313  1.00  0.00     0.000 HD 
HETATM   60  N   UNL     1      -7.302  16.384  67.053  1.00  0.00    -0.197 NA 
HETATM   61  H2  UNL     1      -8.187  16.866  66.898  1.00  0.00     0.000 HD 
ENDBRANCH  47  58
ENDBRANCH  44  45
ENDBRANCH  40  44
ENDBRANCH  29  30
ENDBRANCH  22  29
ENDBRANCH  18  19
ENDBRANCH   7  18
ENDBRANCH   2   5
TORSDOF 9
ENDMDL
MODEL      177
REMARK 921   NORMALIZED FREE ENERGY PREDICTED BY IDOCK:   -4.14 KCAL/MOL
REMARK 922        TOTAL FREE ENERGY PREDICTED BY IDOCK:   -9.13 KCAL/MOL
REMARK 923 INTER-LIGAND FREE ENERGY PREDICTED BY IDOCK:   -7.08 KCAL/MOL
REMARK 924 INTRA-LIGAND FREE ENERGY PREDICTED BY IDOCK:   -2.06 KCAL/MOL
REMARK 927      BINDING AFFINITY PREDICTED BY RF-SCORE:    0.00 PKD
ROOT
HETATM    1  N   UNL     1      -6.492  10.598  70.922  1.00  0.00    -0.388 NA 
HETATM    2  C   UNL     1      -6.275   9.575  71.949  1.00  0.00     0.181 C  
HETATM    3  H1  UNL     1      -5.840  11.382  70.940  1.00  0.00     0.000 HD 
HETATM    4  H2  UNL     1      -7.451  10.940  70.968  1.00  0.00     0.000 HD 
ENDROOT
BRANCH   2   5
HETATM    5  C   UNL     1      -7.266   8.382  71.923  1.00  0.00    -0.095 C  
HETATM    6  O   UNL     1      -8.624   8.759  71.575  1.00  0.00    -0.181 OA 
HETATM    7  C   UNL     1      -9.453   7.590  71.447  1.00  0.00    -0.148 C  
HETATM    8  C   UNL     1      -9.554   6.839  72.815  1.00  0.00    -0.145 C  
HETATM    9  O   UNL     1      -7.638   8.690  74.313  1.00  0.00    -0.378 OA 
HETATM   10  H   UNL     1      -7.625   8.286  75.173  1.00  0.00     0.000 HD 
HETATM   11  N   UNL     1     -10.322   7.661  73.808  1.00  0.00    -0.329 NA 
HETATM   12  C   UNL     1      -8.163   6.494  73.346  1.00  0.00    -0.115 C  
HETATM   13  H2  UNL     1     -11.241   7.927  73.452  1.00  0.00     0.000 HD 
HETATM   14  O   UNL     1      -7.568   5.405  72.629  1.00  0.00    -0.095 OA 
HETATM   15  C   UNL     1      -7.246   7.724  73.325  1.00  0.00    -0.100 C  
HETATM   16  H1  UNL     1     -10.388   7.172  74.700  1.00  0.00     0.000 HD 
HETATM   17  H   UNL     1      -6.703   5.191  72.959  1.00  0.00     0.000 HD 
BRANCH   7  18
HETATM   18  O   UNL     1     -10.812   7.876  71.168  1.00  0.00    -0.230 OA 
BRANCH  18  19
HETATM   19  C   UNL     1     -11.194   8.377  69.894  1.00  0.00    -0.026 C  
HETATM   20  O   UNL     1     -11.076  10.606  70.980  1.00  0.00    -0.239 OA 
HETATM   21  C   UNL     1      -9.983   7.997  69.034  1.00  0.00    -0.185 C  
HETATM   22  C   UNL     1     -10.178  10.269  68.729  1.00  0.00    -0.192 C  
HETATM   23  H   UNL     1     -11.135  11.549  70.884  1.00  0.00     0.000 HD 
HETATM   24  O   UNL     1      -9.232   9.203  68.815  1.00  0.00    -0.135 OA 
HETATM   25  C   UNL     1     -11.291   9.909  69.739  1.00  0.00    -0.193 C  
BRANCH  21  26
HETATM   26  C   UNL     1     -10.349   7.303  67.719  1.00  0.00    -0.209 C  
HETATM   27  H   UNL     1     -11.435   5.757  67.103  1.00  0.00     0.000 HD 
HETATM   28  O   UNL     1     -11.208   6.188  67.918  1.00  0.00    -0.304 OA 
ENDBRANCH  21  26
BRANCH  22  29
HETATM   29  O   UNL     1     -10.679  10.388  67.391  1.00  0.00    -0.250 OA 
BRANCH  29  30
HETATM   30  C   UNL     1      -9.730  10.796  66.348  1.00  0.00    -0.199 C  
HETATM   31  C   UNL     1      -9.328   9.585  65.467  1.00  0.00    -0.255 C  
HETATM   32  O   UNL     1     -10.246   9.491  64.356  1.00  0.00    -0.139 OA 
HETATM   33  C   UNL     1      -7.908   9.535  64.881  1.00  0.00    -0.119 C  
HETATM   34  C   UNL     1      -6.876  10.289  65.701  1.00  0.00    -0.133 C  
HETATM   35  N   UNL     1      -7.466   8.121  64.759  1.00  0.00    -0.089 NA 
HETATM   36  H   UNL     1     -10.000   8.749  63.817  1.00  0.00     0.000 HD 
HETATM   37  H1  UNL     1      -6.523   8.089  64.370  1.00  0.00     0.000 HD 
HETATM   38  H2  UNL     1      -8.123   7.559  64.220  1.00  0.00     0.000 HD 
HETATM   39  C   UNL     1      -7.354  11.717  65.961  1.00  0.00     0.470 C  
HETATM   40  C   UNL     1      -8.588  11.697  66.898  1.00  0.00    -0.174 C  
HETATM   41  N   UNL     1      -6.236  12.485  66.552  1.00  0.00    -0.231 NA 
HETATM   42  H2  UNL     1      -5.393  12.452  65.980  1.00  0.00     0.000 HD 
HETATM   43  H1  UNL     1      -6.555  13.439  66.725  1.00  0.00     0.000 HD 
BRANCH  40  44
HETATM   44  O   UNL     1      -9.016  13.071  67.064  1.00  0.00    -0.214 OA 
BRANCH  44  45
HETATM   45  C   UNL     1      -8.912  13.591  68.392  1.00  0.00    -0.146 C  
HETATM   46  O   UNL     1      -7.760  14.423  68.545  1.00  0.00    -0.121 OA 
HETATM   47  C   UNL     1      -7.805  15.615  67.749  1.00  0.00    -0.143 C  
HETATM   48  C   UNL     1      -9.038  16.470  68.077  1.00  0.00    -0.209 C  
HETATM   49  H1  UNL     1     -12.293  14.029  68.863  1.00  0.00     0.000 HD 
HETATM   50  O   UNL     1      -9.125  17.640  67.252  1.00  0.00    -0.233 OA 
HETATM   51  H2  UNL     1     -11.357  12.668  69.165  1.00  0.00     0.000 HD 
HETATM   52  C   UNL     1     -10.314  15.631  67.904  1.00  0.00    -0.259 C  
HETATM   53  H   UNL     1      -9.888  18.169  67.455  1.00  0.00     0.000 HD 
HETATM   54  O   UNL     1     -11.458  16.402  68.309  1.00  0.00    -0.312 OA 
HETATM   55  C   UNL     1     -10.215  14.354  68.759  1.00  0.00    -0.239 C  
HETATM   56  N   UNL     1     -11.438  13.528  68.622  1.00  0.00    -0.285 NA 
HETATM   57  H   UNL     1     -12.246  15.884  68.202  1.00  0.00     0.000 HD 
BRANCH  47  58
HETATM   58  C   UNL     1      -6.470  16.372  67.932  1.00  0.00    -0.135 C  
HETATM   59  H1  UNL     1      -5.342  17.928  67.065  1.00  0.00     0.000 HD 
HETATM   60  N   UNL     1      -6.224  17.428  66.943  1.00  0.00    -0.158 NA 
HETATM   61  H2  UNL     1      -7.004  18.085  66.925  1.00  0.00     0.000 HD 
ENDBRANCH  47  58
ENDBRANCH  44  45
ENDBRANCH  40  44
ENDBRANCH  29  30
ENDBRANCH  22  29
ENDBRANCH  18  19
ENDBRANCH   7  18
ENDBRANCH   2   5
TORSDOF 9
ENDMDL
MODEL      178
REMARK 921   NORMALIZED FREE ENERGY PREDICTED BY IDOCK:   -4.12 KCAL/MOL
REMARK 922        TOTAL FREE ENERGY PREDICTED BY IDOCK:   -9.10 KCAL/MOL
REMARK 923 INTER-LIGAND FREE ENERGY PREDICTED BY IDOCK:   -8.85 KCAL/MOL
REMARK 924 INTRA-LIGAND FREE ENERGY PREDICTED BY IDOCK:   -0.24 KCAL/MOL
REMARK 927      BINDING AFFINITY PREDICTED BY RF-SCORE:    0.00 PKD
ROOT
HETATM    1  N   UNL     1      -9.638   4.201  68.799  1.00  0.00    -0.160 NA 
HETATM    2  C   UNL     1      -9.630   3.307  67.637  1.00  0.00    -0.083 C  
HETATM    3  H1  UNL     1     -10.265   3.930  69.556  1.00  0.00     0.000 HD 
HETATM    4  H2  UNL     1      -9.841   5.155  68.503  1.00  0.00     0.000 HD 
ENDROOT
BRANCH   2   5
HETATM    5  C   UNL     1      -8.677   3.720  66.485  1.00  0.00    -0.118 C  
HETATM    6  O   UNL     1      -8.738   5.131  66.153  1.00  0.00    -0.117 OA 
HETATM    7  C   UNL     1      -7.741   5.460  65.169  1.00  0.00    -0.086 C  
HETATM    8  C   UNL     1      -8.017   4.694  63.834  1.00  0.00    -0.095 C  
HETATM    9  O   UNL     1     -10.416   3.119  64.885  1.00  0.00    -0.376 OA 
HETATM   10  H   UNL     1     -10.643   2.598  64.123  1.00  0.00     0.000 HD 
HETATM   11  N   UNL     1      -9.273   5.202  63.190  1.00  0.00    -0.346 NA 
HETATM   12  C   UNL     1      -8.096   3.188  64.082  1.00  0.00    -0.082 C  
HETATM   13  H2  UNL     1      -9.246   6.212  63.049  1.00  0.00     0.000 HD 
HETATM   14  O   UNL     1      -6.804   2.612  64.313  1.00  0.00    -0.037 OA 
HETATM   15  C   UNL     1      -9.047   2.871  65.243  1.00  0.00    -0.149 C  
HETATM   16  H1  UNL     1      -9.453   4.702  62.319  1.00  0.00     0.000 HD 
HETATM   17  H   UNL     1      -6.853   1.676  64.467  1.00  0.00     0.000 HD 
BRANCH   7  18
HETATM   18  O   UNL     1      -7.775   6.811  64.745  1.00  0.00    -0.097 OA 
BRANCH  18  19
HETATM   19  C   UNL     1      -8.593   7.756  65.420  1.00  0.00    -0.070 C  
HETATM   20  O   UNL     1      -7.319   7.086  67.442  1.00  0.00    -0.087 OA 
HETATM   21  C   UNL     1      -8.153   9.073  64.769  1.00  0.00    -0.144 C  
HETATM   22  C   UNL     1      -7.828   9.441  67.017  1.00  0.00    -0.098 C  
HETATM   23  H   UNL     1      -7.150   7.223  68.367  1.00  0.00     0.000 HD 
HETATM   24  O   UNL     1      -7.314   9.749  65.720  1.00  0.00    -0.097 OA 
HETATM   25  C   UNL     1      -8.321   7.979  66.923  1.00  0.00    -0.116 C  
BRANCH  21  26
HETATM   26  C   UNL     1      -9.314   9.953  64.300  1.00  0.00    -0.253 C  
HETATM   27  H   UNL     1     -10.074  10.632  62.594  1.00  0.00     0.000 HD 
HETATM   28  O   UNL     1      -9.354  10.086  62.886  1.00  0.00    -0.284 OA 
ENDBRANCH  21  26
BRANCH  22  29
HETATM   29  O   UNL     1      -8.883  10.346  67.365  1.00  0.00    -0.132 OA 
BRANCH  29  30
HETATM   30  C   UNL     1      -9.235  10.459  68.786  1.00  0.00    -0.172 C  
HETATM   31  C   UNL     1      -8.856   9.163  69.549  1.00  0.00    -0.149 C  
HETATM   32  O   UNL     1      -7.507   9.294  70.048  1.00  0.00    -0.071 OA 
HETATM   33  C   UNL     1      -9.731   8.718  70.733  1.00  0.00    -0.208 C  
HETATM   34  C   UNL     1     -11.173   9.186  70.642  1.00  0.00    -0.322 C  
HETATM   35  N   UNL     1      -9.726   7.236  70.830  1.00  0.00    -0.171 NA 
HETATM   36  H   UNL     1      -7.275   8.501  70.516  1.00  0.00     0.000 HD 
HETATM   37  H1  UNL     1     -10.306   6.941  71.615  1.00  0.00     0.000 HD 
HETATM   38  H2  UNL     1      -8.780   6.859  70.889  1.00  0.00     0.000 HD 
HETATM   39  C   UNL     1     -11.222  10.695  70.411  1.00  0.00    -0.252 C  
HETATM   40  C   UNL     1     -10.664  11.031  69.005  1.00  0.00    -0.219 C  
HETATM   41  N   UNL     1     -12.622  11.148  70.562  1.00  0.00    -0.296 NA 
HETATM   42  H2  UNL     1     -13.027  10.876  71.457  1.00  0.00     0.000 HD 
HETATM   43  H1  UNL     1     -12.654  12.156  70.408  1.00  0.00     0.000 HD 
BRANCH  40  44
HETATM   44  O   UNL     1     -10.695  12.473  68.870  1.00  0.00    -0.227 OA 
BRANCH  44  45
HETATM   45  C   UNL     1     -11.906  13.015  68.335  1.00  0.00    -0.334 C  
HETATM   46  O   UNL     1     -12.543  13.899  69.260  1.00  0.00    -0.138 OA 
HETATM   47  C   UNL     1     -11.777  15.078  69.546  1.00  0.00    -0.322 C  
HETATM   48  C   UNL     1     -11.475  15.881  68.272  1.00  0.00    -0.320 C  
HETATM   49  H1  UNL     1     -10.760  13.309  65.103  1.00  0.00     0.000 HD 
HETATM   50  O   UNL     1     -10.665  17.035  68.535  1.00  0.00    -0.353 OA 
HETATM   51  H2  UNL     1     -11.501  11.995  65.841  1.00  0.00     0.000 HD 
HETATM   52  C   UNL     1     -10.764  14.985  67.247  1.00  0.00    -0.298 C  
HETATM   53  H   UNL     1     -10.478  17.532  67.747  1.00  0.00     0.000 HD 
HETATM   54  O   UNL     1     -10.574  15.710  66.020  1.00  0.00    -0.307 OA 
HETATM   55  C   UNL     1     -11.609  13.725  66.984  1.00  0.00    -0.365 C  
HETATM   56  N   UNL     1     -10.954  12.843  65.989  1.00  0.00    -0.273 NA 
HETATM   57  H   UNL     1     -10.135  15.155  65.386  1.00  0.00     0.000 HD 
BRANCH  47  58
HETATM   58  C   UNL     1     -12.527  15.896  70.621  1.00  0.00    -0.234 C  
HETATM   59  H1  UNL     1     -14.357  15.927  71.668  1.00  0.00     0.000 HD 
HETATM   60  N   UNL     1     -13.861  15.386  70.958  1.00  0.00    -0.797 NA 
HETATM   61  H2  UNL     1     -13.806  14.405  71.234  1.00  0.00     0.000 HD 
ENDBRANCH  47  58
ENDBRANCH  44  45
ENDBRANCH  40  44
ENDBRANCH  29  30
ENDBRANCH  22  29
ENDBRANCH  18  19
ENDBRANCH   7  18
ENDBRANCH   2   5
TORSDOF 9
ENDMDL
MODEL      179
REMARK 921   NORMALIZED FREE ENERGY PREDICTED BY IDOCK:   -4.12 KCAL/MOL
REMARK 922        TOTAL FREE ENERGY PREDICTED BY IDOCK:   -9.10 KCAL/MOL
REMARK 923 INTER-LIGAND FREE ENERGY PREDICTED BY IDOCK:   -7.15 KCAL/MOL
REMARK 924 INTRA-LIGAND FREE ENERGY PREDICTED BY IDOCK:   -1.94 KCAL/MOL
REMARK 927      BINDING AFFINITY PREDICTED BY RF-SCORE:    0.00 PKD
ROOT
HETATM    1  N   UNL     1     -12.117  10.186  69.342  1.00  0.00    -0.493 NA 
HETATM    2  C   UNL     1     -12.450  11.612  69.282  1.00  0.00     0.172 C  
HETATM    3  H1  UNL     1     -12.691   9.628  69.973  1.00  0.00     0.000 HD 
HETATM    4  H2  UNL     1     -11.130  10.068  69.571  1.00  0.00     0.000 HD 
ENDROOT
BRANCH   2   5
HETATM    5  C   UNL     1     -11.576  12.462  68.323  1.00  0.00    -0.333 C  
HETATM    6  O   UNL     1     -10.174  12.084  68.320  1.00  0.00    -0.195 OA 
HETATM    7  C   UNL     1      -9.456  12.826  67.319  1.00  0.00    -0.204 C  
HETATM    8  C   UNL     1      -9.487  14.355  67.644  1.00  0.00    -0.214 C  
HETATM    9  O   UNL     1     -11.282  14.100  70.104  1.00  0.00    -0.462 OA 
HETATM   10  H   UNL     1     -11.371  15.010  70.363  1.00  0.00     0.000 HD 
HETATM   11  N   UNL     1      -8.688  14.643  68.881  1.00  0.00    -0.268 NA 
HETATM   12  C   UNL     1     -10.926  14.847  67.792  1.00  0.00    -0.293 C  
HETATM   13  H2  UNL     1      -7.734  14.290  68.808  1.00  0.00     0.000 HD 
HETATM   14  O   UNL     1     -11.590  14.956  66.526  1.00  0.00    -0.339 OA 
HETATM   15  C   UNL     1     -11.720  13.945  68.745  1.00  0.00    -0.357 C  
HETATM   16  H1  UNL     1      -8.709  15.640  69.093  1.00  0.00     0.000 HD 
HETATM   17  H   UNL     1     -12.485  15.262  66.617  1.00  0.00     0.000 HD 
BRANCH   7  18
HETATM   18  O   UNL     1      -8.065  12.560  67.293  1.00  0.00    -0.171 OA 
BRANCH  18  19
HETATM   19  C   UNL     1      -7.587  11.266  66.950  1.00  0.00    -0.148 C  
HETATM   20  O   UNL     1      -8.217  10.658  69.272  1.00  0.00    -0.201 OA 
HETATM   21  C   UNL     1      -8.583  10.843  65.864  1.00  0.00    -0.176 C  
HETATM   22  C   UNL     1      -8.714   9.147  67.414  1.00  0.00    -0.115 C  
HETATM   23  H   UNL     1      -8.297   9.978  69.930  1.00  0.00     0.000 HD 
HETATM   24  O   UNL     1      -9.479   9.893  66.465  1.00  0.00    -0.165 OA 
HETATM   25  C   UNL     1      -7.715  10.160  68.019  1.00  0.00    -0.089 C  
BRANCH  21  26
HETATM   26  C   UNL     1      -7.925  10.288  64.598  1.00  0.00    -0.131 C  
HETATM   27  H   UNL     1      -6.097   9.973  63.886  1.00  0.00     0.000 HD 
HETATM   28  O   UNL     1      -6.505  10.317  64.671  1.00  0.00    -0.132 OA 
ENDBRANCH  21  26
BRANCH  22  29
HETATM   29  O   UNL     1      -8.049   8.052  66.770  1.00  0.00    -0.104 OA 
BRANCH  29  30
HETATM   30  C   UNL     1      -8.349   6.700  67.256  1.00  0.00    -0.120 C  
HETATM   31  C   UNL     1      -8.932   5.824  66.117  1.00  0.00    -0.149 C  
HETATM   32  O   UNL     1      -7.844   5.155  65.441  1.00  0.00    -0.086 OA 
HETATM   33  C   UNL     1      -9.972   4.747  66.468  1.00  0.00    -0.239 C  
HETATM   34  C   UNL     1     -10.780   5.057  67.715  1.00  0.00     0.178 C  
HETATM   35  N   UNL     1     -10.913   4.570  65.333  1.00  0.00    -0.881 NA 
HETATM   36  H   UNL     1      -8.202   4.618  64.743  1.00  0.00     0.000 HD 
HETATM   37  H1  UNL     1     -11.603   3.856  65.566  1.00  0.00     0.000 HD 
HETATM   38  H2  UNL     1     -10.427   4.364  64.460  1.00  0.00     0.000 HD 
HETATM   39  C   UNL     1      -9.846   5.372  68.882  1.00  0.00    -0.166 C  
HETATM   40  C   UNL     1      -9.103   6.707  68.615  1.00  0.00    -0.126 C  
HETATM   41  N   UNL     1     -10.648   5.437  70.123  1.00  0.00    -0.296 NA 
HETATM   42  H2  UNL     1     -11.197   4.591  70.279  1.00  0.00     0.000 HD 
HETATM   43  H1  UNL     1     -10.024   5.647  70.902  1.00  0.00     0.000 HD 
BRANCH  40  44
HETATM   44  O   UNL     1      -8.205   6.922  69.731  1.00  0.00    -0.127 OA 
BRANCH  44  45
HETATM   45  C   UNL     1      -6.825   6.647  69.472  1.00  0.00    -0.065 C  
HETATM   46  O   UNL     1      -6.014   7.813  69.640  1.00  0.00    -0.026 OA 
HETATM   47  C   UNL     1      -5.985   8.301  70.989  1.00  0.00    -0.033 C  
HETATM   48  C   UNL     1      -5.468   7.234  71.966  1.00  0.00    -0.037 C  
HETATM   49  H1  UNL     1      -6.834   3.489  70.837  1.00  0.00     0.000 HD 
HETATM   50  O   UNL     1      -5.482   7.690  73.326  1.00  0.00    -0.044 OA 
HETATM   51  H2  UNL     1      -7.188   3.955  69.264  1.00  0.00     0.000 HD 
HETATM   52  C   UNL     1      -6.322   5.963  71.848  1.00  0.00    -0.045 C  
HETATM   53  H   UNL     1      -5.163   7.030  73.931  1.00  0.00     0.000 HD 
HETATM   54  O   UNL     1      -5.774   4.933  72.689  1.00  0.00    -0.011 OA 
HETATM   55  C   UNL     1      -6.342   5.485  70.384  1.00  0.00    -0.027 C  
HETATM   56  N   UNL     1      -7.151   4.251  70.239  1.00  0.00    -0.041 NA 
HETATM   57  H   UNL     1      -6.302   4.146  72.616  1.00  0.00     0.000 HD 
BRANCH  47  58
HETATM   58  C   UNL     1      -5.157   9.606  71.015  1.00  0.00    -0.041 C  
HETATM   59  H1  UNL     1      -5.407  11.695  71.150  1.00  0.00     0.000 HD 
HETATM   60  N   UNL     1      -5.953  10.833  71.133  1.00  0.00    -0.352 NA 
HETATM   61  H2  UNL     1      -6.562  10.783  71.950  1.00  0.00     0.000 HD 
ENDBRANCH  47  58
ENDBRANCH  44  45
ENDBRANCH  40  44
ENDBRANCH  29  30
ENDBRANCH  22  29
ENDBRANCH  18  19
ENDBRANCH   7  18
ENDBRANCH   2   5
TORSDOF 9
ENDMDL
MODEL      180
REMARK 921   NORMALIZED FREE ENERGY PREDICTED BY IDOCK:   -4.11 KCAL/MOL
REMARK 922        TOTAL FREE ENERGY PREDICTED BY IDOCK:   -9.08 KCAL/MOL
REMARK 923 INTER-LIGAND FREE ENERGY PREDICTED BY IDOCK:   -8.30 KCAL/MOL
REMARK 924 INTRA-LIGAND FREE ENERGY PREDICTED BY IDOCK:   -0.78 KCAL/MOL
REMARK 927      BINDING AFFINITY PREDICTED BY RF-SCORE:    0.00 PKD
ROOT
HETATM    1  N   UNL     1      -5.562   3.968  67.418  1.00  0.00    -0.020 NA 
HETATM    2  C   UNL     1      -7.010   3.741  67.433  1.00  0.00    -0.055 C  
HETATM    3  H1  UNL     1      -4.995   3.166  67.144  1.00  0.00     0.000 HD 
HETATM    4  H2  UNL     1      -5.255   4.319  68.324  1.00  0.00     0.000 HD 
ENDROOT
BRANCH   2   5
HETATM    5  C   UNL     1      -7.873   4.961  67.850  1.00  0.00    -0.086 C  
HETATM    6  O   UNL     1      -7.418   6.219  67.287  1.00  0.00    -0.082 OA 
HETATM    7  C   UNL     1      -8.335   7.277  67.614  1.00  0.00    -0.117 C  
HETATM    8  C   UNL     1      -8.390   7.495  69.161  1.00  0.00    -0.135 C  
HETATM    9  O   UNL     1      -6.503   5.193  69.853  1.00  0.00    -0.032 OA 
HETATM   10  H   UNL     1      -6.492   5.242  70.803  1.00  0.00     0.000 HD 
HETATM   11  N   UNL     1      -7.086   8.046  69.658  1.00  0.00    -0.060 NA 
HETATM   12  C   UNL     1      -8.745   6.193  69.878  1.00  0.00    -0.136 C  
HETATM   13  H2  UNL     1      -6.821   8.898  69.164  1.00  0.00     0.000 HD 
HETATM   14  O   UNL     1     -10.132   5.859  69.731  1.00  0.00    -0.171 OA 
HETATM   15  C   UNL     1      -7.856   5.040  69.397  1.00  0.00    -0.075 C  
HETATM   16  H1  UNL     1      -7.122   8.188  70.667  1.00  0.00     0.000 HD 
HETATM   17  H   UNL     1     -10.353   5.050  70.177  1.00  0.00     0.000 HD 
BRANCH   7  18
HETATM   18  O   UNL     1      -7.930   8.553  67.152  1.00  0.00    -0.099 OA 
BRANCH  18  19
HETATM   19  C   UNL     1      -8.210   9.717  67.918  1.00  0.00    -0.106 C  
HETATM   20  O   UNL     1      -6.638  10.850  66.367  1.00  0.00    -0.117 OA 
HETATM   21  C   UNL     1      -9.700   9.934  67.623  1.00  0.00    -0.155 C  
HETATM   22  C   UNL     1      -8.729  11.934  67.030  1.00  0.00    -0.181 C  
HETATM   23  H   UNL     1      -6.232  11.662  66.088  1.00  0.00     0.000 HD 
HETATM   24  O   UNL     1      -9.787  11.032  66.700  1.00  0.00    -0.191 OA 
HETATM   25  C   UNL     1      -7.549  11.036  67.466  1.00  0.00    -0.106 C  
BRANCH  21  26
HETATM   26  C   UNL     1     -10.554  10.165  68.872  1.00  0.00    -0.215 C  
HETATM   27  H   UNL     1     -10.338  10.151  70.847  1.00  0.00     0.000 HD 
HETATM   28  O   UNL     1      -9.808  10.008  70.072  1.00  0.00    -0.241 OA 
ENDBRANCH  21  26
BRANCH  22  29
HETATM   29  O   UNL     1      -9.141  12.829  68.071  1.00  0.00    -0.194 OA 
BRANCH  29  30
HETATM   30  C   UNL     1     -10.110  13.875  67.719  1.00  0.00    -0.241 C  
HETATM   31  C   UNL     1     -11.450  13.247  67.256  1.00  0.00    -0.338 C  
HETATM   32  O   UNL     1     -12.307  13.078  68.407  1.00  0.00    -0.095 OA 
HETATM   33  C   UNL     1     -12.277  13.974  66.183  1.00  0.00    -0.465 C  
HETATM   34  C   UNL     1     -11.449  14.839  65.250  1.00  0.00    -0.352 C  
HETATM   35  N   UNL     1     -13.019  12.981  65.365  1.00  0.00    -0.621 NA 
HETATM   36  H   UNL     1     -13.128  12.694  68.123  1.00  0.00     0.000 HD 
HETATM   37  H1  UNL     1     -13.568  13.464  64.653  1.00  0.00     0.000 HD 
HETATM   38  H2  UNL     1     -13.594  12.363  65.939  1.00  0.00     0.000 HD 
HETATM   39  C   UNL     1     -10.570  15.792  66.059  1.00  0.00    -0.326 C  
HETATM   40  C   UNL     1      -9.491  14.987  66.828  1.00  0.00    -0.246 C  
HETATM   41  N   UNL     1      -9.960  16.770  65.131  1.00  0.00    -0.234 NA 
HETATM   42  H2  UNL     1     -10.654  17.260  64.568  1.00  0.00     0.000 HD 
HETATM   43  H1  UNL     1      -9.373  17.406  65.672  1.00  0.00     0.000 HD 
BRANCH  40  44
HETATM   44  O   UNL     1      -8.726  15.941  67.606  1.00  0.00    -0.165 OA 
BRANCH  44  45
HETATM   45  C   UNL     1      -7.336  16.025  67.281  1.00  0.00    -0.208 C  
HETATM   46  O   UNL     1      -7.079  17.054  66.322  1.00  0.00    -0.258 OA 
HETATM   47  C   UNL     1      -7.364  18.373  66.807  1.00  0.00    -0.212 C  
HETATM   48  C   UNL     1      -6.550  18.703  68.067  1.00  0.00    -0.219 C  
HETATM   49  H1  UNL     1      -6.193  15.334  70.453  1.00  0.00     0.000 HD 
HETATM   50  O   UNL     1      -6.863  20.000  68.594  1.00  0.00    -0.308 OA 
HETATM   51  H2  UNL     1      -6.567  14.265  69.214  1.00  0.00     0.000 HD 
HETATM   52  C   UNL     1      -6.807  17.640  69.146  1.00  0.00    -0.229 C  
HETATM   53  H   UNL     1      -6.358  20.203  69.373  1.00  0.00     0.000 HD 
HETATM   54  O   UNL     1      -5.967  17.895  70.285  1.00  0.00    -0.198 OA 
HETATM   55  C   UNL     1      -6.508  16.241  68.579  1.00  0.00    -0.129 C  
HETATM   56  N   UNL     1      -6.737  15.193  69.602  1.00  0.00    -0.169 NA 
HETATM   57  H   UNL     1      -6.126  17.238  70.952  1.00  0.00     0.000 HD 
BRANCH  47  58
HETATM   58  C   UNL     1      -7.137  19.375  65.652  1.00  0.00    -0.267 C  
HETATM   59  H1  UNL     1      -7.877  21.202  64.905  1.00  0.00     0.000 HD 
HETATM   60  N   UNL     1      -8.028  20.540  65.668  1.00  0.00    -0.448 NA 
HETATM   61  H2  UNL     1      -7.971  21.018  66.567  1.00  0.00     0.000 HD 
ENDBRANCH  47  58
ENDBRANCH  44  45
ENDBRANCH  40  44
ENDBRANCH  29  30
ENDBRANCH  22  29
ENDBRANCH  18  19
ENDBRANCH   7  18
ENDBRANCH   2   5
TORSDOF 9
ENDMDL
MODEL      181
REMARK 921   NORMALIZED FREE ENERGY PREDICTED BY IDOCK:   -4.11 KCAL/MOL
REMARK 922        TOTAL FREE ENERGY PREDICTED BY IDOCK:   -9.08 KCAL/MOL
REMARK 923 INTER-LIGAND FREE ENERGY PREDICTED BY IDOCK:   -6.62 KCAL/MOL
REMARK 924 INTRA-LIGAND FREE ENERGY PREDICTED BY IDOCK:   -2.46 KCAL/MOL
REMARK 927      BINDING AFFINITY PREDICTED BY RF-SCORE:    0.00 PKD
ROOT
HETATM    1  N   UNL     1      -6.274   1.922  65.687  1.00  0.00    -0.022 NA 
HETATM    2  C   UNL     1      -7.074   2.674  66.658  1.00  0.00    -0.049 C  
HETATM    3  H1  UNL     1      -5.689   1.184  66.079  1.00  0.00     0.000 HD 
HETATM    4  H2  UNL     1      -5.704   2.562  65.135  1.00  0.00     0.000 HD 
ENDROOT
BRANCH   2   5
HETATM    5  C   UNL     1      -7.962   3.798  66.062  1.00  0.00    -0.090 C  
HETATM    6  O   UNL     1      -7.734   5.102  66.658  1.00  0.00    -0.091 OA 
HETATM    7  C   UNL     1      -8.497   6.109  65.971  1.00  0.00    -0.141 C  
HETATM    8  C   UNL     1     -10.029   5.831  66.121  1.00  0.00    -0.019 C  
HETATM    9  O   UNL     1      -9.707   3.211  67.660  1.00  0.00    -0.291 OA 
HETATM   10  H   UNL     1     -10.614   2.955  67.782  1.00  0.00     0.000 HD 
HETATM   11  N   UNL     1     -10.459   6.029  67.545  1.00  0.00    -0.209 NA 
HETATM   12  C   UNL     1     -10.374   4.425  65.633  1.00  0.00    -0.225 C  
HETATM   13  H2  UNL     1     -10.204   6.953  67.894  1.00  0.00     0.000 HD 
HETATM   14  O   UNL     1     -10.351   4.332  64.202  1.00  0.00    -0.388 OA 
HETATM   15  C   UNL     1      -9.441   3.381  66.260  1.00  0.00    -0.113 C  
HETATM   16  H1  UNL     1     -11.457   5.847  67.643  1.00  0.00     0.000 HD 
HETATM   17  H   UNL     1     -10.566   3.457  63.898  1.00  0.00     0.000 HD 
BRANCH   7  18
HETATM   18  O   UNL     1      -8.377   7.404  66.531  1.00  0.00    -0.114 OA 
BRANCH  18  19
HETATM   19  C   UNL     1      -8.959   8.525  65.880  1.00  0.00    -0.189 C  
HETATM   20  O   UNL     1      -9.690   9.191  68.156  1.00  0.00    -0.149 OA 
HETATM   21  C   UNL     1      -7.720   9.253  65.345  1.00  0.00    -0.099 C  
HETATM   22  C   UNL     1      -8.793  10.854  66.602  1.00  0.00    -0.159 C  
HETATM   23  H   UNL     1     -10.115   9.840  68.705  1.00  0.00     0.000 HD 
HETATM   24  O   UNL     1      -7.504  10.391  66.197  1.00  0.00    -0.118 OA 
HETATM   25  C   UNL     1      -9.650   9.579  66.771  1.00  0.00    -0.176 C  
BRANCH  21  26
HETATM   26  C   UNL     1      -7.821   9.652  63.871  1.00  0.00    -0.136 C  
HETATM   27  H   UNL     1      -8.705   9.009  62.211  1.00  0.00     0.000 HD 
HETATM   28  O   UNL     1      -8.642   8.762  63.126  1.00  0.00    -0.170 OA 
ENDBRANCH  21  26
BRANCH  22  29
HETATM   29  O   UNL     1      -9.337  11.744  65.619  1.00  0.00    -0.221 OA 
BRANCH  29  30
HETATM   30  C   UNL     1     -10.046  12.935  66.104  1.00  0.00    -0.276 C  
HETATM   31  C   UNL     1     -11.464  13.020  65.483  1.00  0.00    -0.321 C  
HETATM   32  O   UNL     1     -12.392  12.325  66.345  1.00  0.00    -0.531 OA 
HETATM   33  C   UNL     1     -12.066  14.405  65.198  1.00  0.00    -0.395 C  
HETATM   34  C   UNL     1     -11.031  15.486  64.946  1.00  0.00    -0.452 C  
HETATM   35  N   UNL     1     -12.961  14.329  64.014  1.00  0.00    -0.204 NA 
HETATM   36  H   UNL     1     -13.261  12.377  65.964  1.00  0.00     0.000 HD 
HETATM   37  H1  UNL     1     -13.360  15.248  63.826  1.00  0.00     0.000 HD 
HETATM   38  H2  UNL     1     -13.679  13.613  64.121  1.00  0.00     0.000 HD 
HETATM   39  C   UNL     1     -10.012  15.513  66.084  1.00  0.00    -0.309 C  
HETATM   40  C   UNL     1      -9.164  14.215  66.061  1.00  0.00     0.030 C  
HETATM   41  N   UNL     1      -9.165  16.716  65.929  1.00  0.00    -0.512 NA 
HETATM   42  H2  UNL     1      -9.713  17.575  65.874  1.00  0.00     0.000 HD 
HETATM   43  H1  UNL     1      -8.485  16.733  66.688  1.00  0.00     0.000 HD 
BRANCH  40  44
HETATM   44  O   UNL     1      -8.255  14.283  67.187  1.00  0.00    -0.199 OA 
BRANCH  44  45
HETATM   45  C   UNL     1      -8.838  14.018  68.466  1.00  0.00    -0.160 C  
HETATM   46  O   UNL     1      -8.432  12.747  68.978  1.00  0.00     0.224 OA 
HETATM   47  C   UNL     1      -7.027  12.663  69.255  1.00  0.00     0.040 C  
HETATM   48  C   UNL     1      -6.584  13.731  70.266  1.00  0.00     0.139 C  
HETATM   49  H1  UNL     1      -8.656  17.259  69.610  1.00  0.00     0.000 HD 
HETATM   50  O   UNL     1      -5.171  13.693  70.514  1.00  0.00    -0.099 OA 
HETATM   51  H2  UNL     1      -9.884  16.520  68.734  1.00  0.00     0.000 HD 
HETATM   52  C   UNL     1      -6.972  15.126  69.753  1.00  0.00    -0.174 C  
HETATM   53  H   UNL     1      -4.897  14.354  71.139  1.00  0.00     0.000 HD 
HETATM   54  O   UNL     1      -6.647  16.114  70.747  1.00  0.00     0.700 OA 
HETATM   55  C   UNL     1      -8.481  15.166  69.451  1.00  0.00    -0.190 C  
HETATM   56  N   UNL     1      -8.890  16.505  68.963  1.00  0.00    -0.250 NA 
HETATM   57  H   UNL     1      -6.888  16.977  70.430  1.00  0.00     0.000 HD 
BRANCH  47  58
HETATM   58  C   UNL     1      -6.707  11.221  69.710  1.00  0.00    -0.099 C  
HETATM   59  H1  UNL     1      -7.667   9.473  70.394  1.00  0.00     0.000 HD 
HETATM   60  N   UNL     1      -7.879  10.425  70.093  1.00  0.00    -0.413 NA 
HETATM   61  H2  UNL     1      -8.563  10.414  69.336  1.00  0.00     0.000 HD 
ENDBRANCH  47  58
ENDBRANCH  44  45
ENDBRANCH  40  44
ENDBRANCH  29  30
ENDBRANCH  22  29
ENDBRANCH  18  19
ENDBRANCH   7  18
ENDBRANCH   2   5
TORSDOF 9
ENDMDL
MODEL      182
REMARK 921   NORMALIZED FREE ENERGY PREDICTED BY IDOCK:   -4.07 KCAL/MOL
REMARK 922        TOTAL FREE ENERGY PREDICTED BY IDOCK:   -9.03 KCAL/MOL
REMARK 923 INTER-LIGAND FREE ENERGY PREDICTED BY IDOCK:   -9.10 KCAL/MOL
REMARK 924 INTRA-LIGAND FREE ENERGY PREDICTED BY IDOCK:    0.08 KCAL/MOL
REMARK 927      BINDING AFFINITY PREDICTED BY RF-SCORE:    0.00 PKD
ROOT
HETATM    1  N   UNL     1     -12.207  14.287  70.080  1.00  0.00    -0.342 NA 
HETATM    2  C   UNL     1     -12.373  14.445  68.632  1.00  0.00    -0.016 C  
HETATM    3  H1  UNL     1     -13.013  14.551  70.645  1.00  0.00     0.000 HD 
HETATM    4  H2  UNL     1     -11.380  14.795  70.394  1.00  0.00     0.000 HD 
ENDROOT
BRANCH   2   5
HETATM    5  C   UNL     1     -11.146  14.045  67.772  1.00  0.00    -0.267 C  
HETATM    6  O   UNL     1     -10.653  12.706  68.044  1.00  0.00    -0.210 OA 
HETATM    7  C   UNL     1      -9.602  12.362  67.125  1.00  0.00    -0.206 C  
HETATM    8  C   UNL     1      -8.377  13.316  67.313  1.00  0.00    -0.177 C  
HETATM    9  O   UNL     1      -9.693  15.076  69.436  1.00  0.00    -0.303 OA 
HETATM   10  H   UNL     1      -9.006  15.712  69.601  1.00  0.00     0.000 HD 
HETATM   11  N   UNL     1      -7.724  13.073  68.642  1.00  0.00    -0.250 NA 
HETATM   12  C   UNL     1      -8.802  14.776  67.168  1.00  0.00    -0.216 C  
HETATM   13  H2  UNL     1      -7.465  12.094  68.765  1.00  0.00     0.000 HD 
HETATM   14  O   UNL     1      -9.051  15.130  65.801  1.00  0.00    -0.455 OA 
HETATM   15  C   UNL     1     -10.026  15.082  68.040  1.00  0.00    -0.219 C  
HETATM   16  H1  UNL     1      -6.926  13.695  68.765  1.00  0.00     0.000 HD 
HETATM   17  H   UNL     1      -9.315  16.039  65.711  1.00  0.00     0.000 HD 
BRANCH   7  18
HETATM   18  O   UNL     1      -9.023  11.091  67.363  1.00  0.00    -0.140 OA 
BRANCH  18  19
HETATM   19  C   UNL     1      -9.214  10.437  68.610  1.00  0.00    -0.164 C  
HETATM   20  O   UNL     1     -11.478   9.911  67.739  1.00  0.00    -0.553 OA 
HETATM   21  C   UNL     1      -8.192   9.296  68.525  1.00  0.00    -0.114 C  
HETATM   22  C   UNL     1     -10.182   8.216  68.938  1.00  0.00    -0.210 C  
HETATM   23  H   UNL     1     -12.305   9.464  67.873  1.00  0.00     0.000 HD 
HETATM   24  O   UNL     1      -8.932   8.093  68.258  1.00  0.00    -0.136 OA 
HETATM   25  C   UNL     1     -10.559   9.711  68.829  1.00  0.00    -0.216 C  
BRANCH  21  26
HETATM   26  C   UNL     1      -7.305   9.161  69.765  1.00  0.00    -0.064 C  
HETATM   27  H   UNL     1      -6.977  10.123  71.473  1.00  0.00     0.000 HD 
HETATM   28  O   UNL     1      -7.527  10.206  70.703  1.00  0.00    -0.277 OA 
ENDBRANCH  21  26
BRANCH  22  29
HETATM   29  O   UNL     1     -10.056   7.789  70.300  1.00  0.00    -0.192 OA 
BRANCH  29  30
HETATM   30  C   UNL     1     -10.586   6.464  70.644  1.00  0.00    -0.237 C  
HETATM   31  C   UNL     1     -11.085   6.437  72.112  1.00  0.00    -0.263 C  
HETATM   32  O   UNL     1     -12.479   6.814  72.138  1.00  0.00    -0.489 OA 
HETATM   33  C   UNL     1     -10.958   5.131  72.913  1.00  0.00    -0.284 C  
HETATM   34  C   UNL     1      -9.827   4.232  72.449  1.00  0.00    -0.217 C  
HETATM   35  N   UNL     1     -10.748   5.443  74.351  1.00  0.00    -0.403 NA 
HETATM   36  H   UNL     1     -12.784   6.798  73.038  1.00  0.00     0.000 HD 
HETATM   37  H1  UNL     1     -10.664   4.577  74.882  1.00  0.00     0.000 HD 
HETATM   38  H2  UNL     1     -11.477   6.052  74.722  1.00  0.00     0.000 HD 
HETATM   39  C   UNL     1      -9.932   3.989  70.945  1.00  0.00    -0.097 C  
HETATM   40  C   UNL     1      -9.658   5.308  70.178  1.00  0.00    -0.178 C  
HETATM   41  N   UNL     1      -8.966   2.933  70.570  1.00  0.00    -0.091 NA 
HETATM   42  H2  UNL     1      -9.090   2.079  71.115  1.00  0.00     0.000 HD 
HETATM   43  H1  UNL     1      -9.037   2.771  69.566  1.00  0.00     0.000 HD 
BRANCH  40  44
HETATM   44  O   UNL     1      -9.819   5.020  68.768  1.00  0.00    -0.153 OA 
BRANCH  44  45
HETATM   45  C   UNL     1      -8.827   4.161  68.198  1.00  0.00    -0.109 C  
HETATM   46  O   UNL     1      -9.240   3.644  66.931  1.00  0.00    -0.157 OA 
HETATM   47  C   UNL     1      -9.391   4.654  65.923  1.00  0.00    -0.155 C  
HETATM   48  C   UNL     1      -8.086   5.433  65.701  1.00  0.00    -0.115 C  
HETATM   49  H1  UNL     1      -6.118   5.971  69.307  1.00  0.00     0.000 HD 
HETATM   50  O   UNL     1      -8.236   6.481  64.732  1.00  0.00    -0.182 OA 
HETATM   51  H2  UNL     1      -6.949   4.737  70.087  1.00  0.00     0.000 HD 
HETATM   52  C   UNL     1      -7.606   6.035  67.030  1.00  0.00    -0.096 C  
HETATM   53  H   UNL     1      -7.428   6.963  64.595  1.00  0.00     0.000 HD 
HETATM   54  O   UNL     1      -6.334   6.677  66.839  1.00  0.00    -0.038 OA 
HETATM   55  C   UNL     1      -7.477   4.923  68.087  1.00  0.00    -0.074 C  
HETATM   56  N   UNL     1      -7.004   5.471  69.380  1.00  0.00    -0.061 NA 
HETATM   57  H   UNL     1      -6.037   7.049  67.661  1.00  0.00     0.000 HD 
BRANCH  47  58
HETATM   58  C   UNL     1      -9.928   3.982  64.639  1.00  0.00    -0.199 C  
HETATM   59  H1  UNL     1     -11.741   3.581  63.641  1.00  0.00     0.000 HD 
HETATM   60  N   UNL     1     -11.387   4.025  64.489  1.00  0.00    -0.776 NA 
HETATM   61  H2  UNL     1     -11.721   4.987  64.551  1.00  0.00     0.000 HD 
ENDBRANCH  47  58
ENDBRANCH  44  45
ENDBRANCH  40  44
ENDBRANCH  29  30
ENDBRANCH  22  29
ENDBRANCH  18  19
ENDBRANCH   7  18
ENDBRANCH   2   5
TORSDOF 9
ENDMDL
MODEL      183
REMARK 921   NORMALIZED FREE ENERGY PREDICTED BY IDOCK:   -4.07 KCAL/MOL
REMARK 922        TOTAL FREE ENERGY PREDICTED BY IDOCK:   -9.02 KCAL/MOL
REMARK 923 INTER-LIGAND FREE ENERGY PREDICTED BY IDOCK:   -9.10 KCAL/MOL
REMARK 924 INTRA-LIGAND FREE ENERGY PREDICTED BY IDOCK:    0.08 KCAL/MOL
REMARK 927      BINDING AFFINITY PREDICTED BY RF-SCORE:    0.00 PKD
ROOT
HETATM    1  N   UNL     1      -8.195   2.590  69.218  1.00  0.00    -0.050 NA 
HETATM    2  C   UNL     1      -9.134   3.661  69.562  1.00  0.00    -0.134 C  
HETATM    3  H1  UNL     1      -7.844   2.605  68.261  1.00  0.00     0.000 HD 
HETATM    4  H2  UNL     1      -8.611   1.682  69.423  1.00  0.00     0.000 HD 
ENDROOT
BRANCH   2   5
HETATM    5  C   UNL     1      -9.668   3.638  71.018  1.00  0.00    -0.173 C  
HETATM    6  O   UNL     1      -9.759   4.952  71.628  1.00  0.00    -0.158 OA 
HETATM    7  C   UNL     1     -10.378   4.862  72.924  1.00  0.00    -0.188 C  
HETATM    8  C   UNL     1      -9.502   4.000  73.890  1.00  0.00    -0.097 C  
HETATM    9  O   UNL     1      -7.391   3.268  71.805  1.00  0.00    -0.044 OA 
HETATM   10  H   UNL     1      -6.812   2.714  72.316  1.00  0.00     0.000 HD 
HETATM   11  N   UNL     1      -8.218   4.709  74.205  1.00  0.00    -0.100 NA 
HETATM   12  C   UNL     1      -9.236   2.619  73.291  1.00  0.00    -0.084 C  
HETATM   13  H2  UNL     1      -8.382   5.645  74.575  1.00  0.00     0.000 HD 
HETATM   14  O   UNL     1     -10.392   1.774  73.353  1.00  0.00    -0.093 OA 
HETATM   15  C   UNL     1      -8.724   2.735  71.850  1.00  0.00    -0.073 C  
HETATM   16  H1  UNL     1      -7.647   4.146  74.835  1.00  0.00     0.000 HD 
HETATM   17  H   UNL     1     -10.226   0.915  72.981  1.00  0.00     0.000 HD 
BRANCH   7  18
HETATM   18  O   UNL     1     -10.449   6.097  73.614  1.00  0.00    -0.238 OA 
BRANCH  18  19
HETATM   19  C   UNL     1     -10.819   7.285  72.927  1.00  0.00    -0.337 C  
HETATM   20  O   UNL     1      -8.447   7.944  73.241  1.00  0.00    -0.163 OA 
HETATM   21  C   UNL     1     -11.175   6.743  71.537  1.00  0.00    -0.260 C  
HETATM   22  C   UNL     1      -9.576   8.340  71.107  1.00  0.00    -0.163 C  
HETATM   23  H   UNL     1      -7.761   8.577  73.069  1.00  0.00     0.000 HD 
HETATM   24  O   UNL     1     -10.083   7.080  70.666  1.00  0.00    -0.191 OA 
HETATM   25  C   UNL     1      -9.704   8.315  72.647  1.00  0.00    -0.287 C  
BRANCH  21  26
HETATM   26  C   UNL     1     -12.516   7.247  70.998  1.00  0.00    -0.285 C  
HETATM   27  H   UNL     1     -14.156   8.137  71.681  1.00  0.00     0.000 HD 
HETATM   28  O   UNL     1     -13.324   7.824  72.015  1.00  0.00    -0.275 OA 
ENDBRANCH  21  26
BRANCH  22  29
HETATM   29  O   UNL     1     -10.323   9.414  70.520  1.00  0.00    -0.238 OA 
BRANCH  29  30
HETATM   30  C   UNL     1     -10.164   9.637  69.078  1.00  0.00    -0.199 C  
HETATM   31  C   UNL     1      -9.867   8.303  68.346  1.00  0.00    -0.172 C  
HETATM   32  O   UNL     1     -11.118   7.703  67.943  1.00  0.00    -0.475 OA 
HETATM   33  C   UNL     1      -8.960   8.325  67.104  1.00  0.00    -0.138 C  
HETATM   34  C   UNL     1      -7.963   9.469  67.092  1.00  0.00    -0.102 C  
HETATM   35  N   UNL     1      -8.208   7.048  67.010  1.00  0.00    -0.116 NA 
HETATM   36  H   UNL     1     -10.936   6.886  67.494  1.00  0.00     0.000 HD 
HETATM   37  H1  UNL     1      -7.606   7.063  66.187  1.00  0.00     0.000 HD 
HETATM   38  H2  UNL     1      -8.826   6.236  67.019  1.00  0.00     0.000 HD 
HETATM   39  C   UNL     1      -8.684  10.798  67.315  1.00  0.00    -0.130 C  
HETATM   40  C   UNL     1      -9.250  10.852  68.757  1.00  0.00    -0.183 C  
HETATM   41  N   UNL     1      -7.729  11.899  67.065  1.00  0.00    -0.212 NA 
HETATM   42  H2  UNL     1      -7.295  11.839  66.144  1.00  0.00     0.000 HD 
HETATM   43  H1  UNL     1      -8.210  12.786  67.214  1.00  0.00     0.000 HD 
BRANCH  40  44
HETATM   44  O   UNL     1      -9.958  12.110  68.887  1.00  0.00    -0.106 OA 
BRANCH  44  45
HETATM   45  C   UNL     1     -11.322  12.096  68.459  1.00  0.00    -0.275 C  
HETATM   46  O   UNL     1     -12.209  11.775  69.533  1.00  0.00    -0.258 OA 
HETATM   47  C   UNL     1     -12.223  12.759  70.577  1.00  0.00    -0.307 C  
HETATM   48  C   UNL     1     -12.622  14.144  70.046  1.00  0.00    -0.214 C  
HETATM   49  H1  UNL     1     -11.030  14.732  66.266  1.00  0.00     0.000 HD 
HETATM   50  O   UNL     1     -12.590  15.149  71.069  1.00  0.00    -0.318 OA 
HETATM   51  H2  UNL     1     -10.771  13.097  65.985  1.00  0.00     0.000 HD 
HETATM   52  C   UNL     1     -11.683  14.553  68.902  1.00  0.00    -0.319 C  
HETATM   53  H   UNL     1     -12.837  16.006  70.740  1.00  0.00     0.000 HD 
HETATM   54  O   UNL     1     -12.121  15.803  68.341  1.00  0.00    -0.457 OA 
HETATM   55  C   UNL     1     -11.683  13.463  67.814  1.00  0.00    -0.359 C  
HETATM   56  N   UNL     1     -10.793  13.835  66.689  1.00  0.00    -0.287 NA 
HETATM   57  H   UNL     1     -11.540  16.055  67.633  1.00  0.00     0.000 HD 
BRANCH  47  58
HETATM   58  C   UNL     1     -13.142  12.251  71.711  1.00  0.00    -0.344 C  
HETATM   59  H1  UNL     1     -13.699  10.466  72.686  1.00  0.00     0.000 HD 
HETATM   60  N   UNL     1     -13.092  10.802  71.938  1.00  0.00    -0.494 NA 
HETATM   61  H2  UNL     1     -12.130  10.502  72.100  1.00  0.00     0.000 HD 
ENDBRANCH  47  58
ENDBRANCH  44  45
ENDBRANCH  40  44
ENDBRANCH  29  30
ENDBRANCH  22  29
ENDBRANCH  18  19
ENDBRANCH   7  18
ENDBRANCH   2   5
TORSDOF 9
ENDMDL
MODEL      184
REMARK 921   NORMALIZED FREE ENERGY PREDICTED BY IDOCK:   -3.99 KCAL/MOL
REMARK 922        TOTAL FREE ENERGY PREDICTED BY IDOCK:   -8.90 KCAL/MOL
REMARK 923 INTER-LIGAND FREE ENERGY PREDICTED BY IDOCK:   -8.07 KCAL/MOL
REMARK 924 INTRA-LIGAND FREE ENERGY PREDICTED BY IDOCK:   -0.84 KCAL/MOL
REMARK 927      BINDING AFFINITY PREDICTED BY RF-SCORE:    0.00 PKD
ROOT
HETATM    1  N   UNL     1      -6.398  20.344  69.823  1.00  0.00    -0.283 NA 
HETATM    2  C   UNL     1      -7.142  20.703  68.611  1.00  0.00     0.126 C  
HETATM    3  H1  UNL     1      -5.629  20.966  70.065  1.00  0.00     0.000 HD 
HETATM    4  H2  UNL     1      -6.062  19.384  69.754  1.00  0.00     0.000 HD 
ENDROOT
BRANCH   2   5
HETATM    5  C   UNL     1      -8.313  19.755  68.242  1.00  0.00    -0.274 C  
HETATM    6  O   UNL     1      -8.001  18.347  68.411  1.00  0.00    -0.290 OA 
HETATM    7  C   UNL     1      -9.169  17.542  68.173  1.00  0.00    -0.277 C  
HETATM    8  C   UNL     1      -9.650  17.700  66.693  1.00  0.00    -0.295 C  
HETATM    9  O   UNL     1      -7.561  19.794  65.924  1.00  0.00    -0.316 OA 
HETATM   10  H   UNL     1      -7.797  19.966  65.019  1.00  0.00     0.000 HD 
HETATM   11  N   UNL     1      -8.652  17.092  65.752  1.00  0.00    -0.487 NA 
HETATM   12  C   UNL     1      -9.896  19.171  66.359  1.00  0.00    -0.381 C  
HETATM   13  H2  UNL     1      -8.454  16.119  65.984  1.00  0.00     0.000 HD 
HETATM   14  O   UNL     1     -11.104  19.663  66.956  1.00  0.00    -0.412 OA 
HETATM   15  C   UNL     1      -8.697  20.036  66.768  1.00  0.00    -0.333 C  
HETATM   16  H1  UNL     1      -8.966  17.196  64.787  1.00  0.00     0.000 HD 
HETATM   17  H   UNL     1     -11.257  20.577  66.748  1.00  0.00     0.000 HD 
BRANCH   7  18
HETATM   18  O   UNL     1      -8.933  16.147  68.257  1.00  0.00    -0.182 OA 
BRANCH  18  19
HETATM   19  C   UNL     1      -9.943  15.224  67.874  1.00  0.00    -0.228 C  
HETATM   20  O   UNL     1      -8.173  14.214  66.457  1.00  0.00    -0.330 OA 
HETATM   21  C   UNL     1     -10.223  14.500  69.196  1.00  0.00    -0.164 C  
HETATM   22  C   UNL     1      -9.697  12.796  67.742  1.00  0.00    -0.207 C  
HETATM   23  H   UNL     1      -7.920  13.515  65.866  1.00  0.00     0.000 HD 
HETATM   24  O   UNL     1      -9.598  13.209  69.106  1.00  0.00     0.271 OA 
HETATM   25  C   UNL     1      -9.533  14.088  66.912  1.00  0.00    -0.265 C  
BRANCH  21  26
HETATM   26  C   UNL     1     -11.711  14.394  69.544  1.00  0.00    -0.313 C  
HETATM   27  H   UNL     1     -12.896  13.287  70.692  1.00  0.00     0.000 HD 
HETATM   28  O   UNL     1     -11.974  13.353  70.476  1.00  0.00    -0.326 OA 
ENDBRANCH  21  26
BRANCH  22  29
HETATM   29  O   UNL     1     -10.958  12.157  67.504  1.00  0.00    -0.235 OA 
BRANCH  29  30
HETATM   30  C   UNL     1     -11.077  10.739  67.867  1.00  0.00    -0.308 C  
HETATM   31  C   UNL     1     -11.673  10.586  69.291  1.00  0.00    -0.209 C  
HETATM   32  O   UNL     1     -13.111  10.504  69.187  1.00  0.00    -0.199 OA 
HETATM   33  C   UNL     1     -11.217   9.404  70.161  1.00  0.00    -0.219 C  
HETATM   34  C   UNL     1      -9.824   8.899  69.833  1.00  0.00    -0.190 C  
HETATM   35  N   UNL     1     -11.247   9.796  71.594  1.00  0.00    -0.245 NA 
HETATM   36  H   UNL     1     -13.476  10.410  70.059  1.00  0.00     0.000 HD 
HETATM   37  H1  UNL     1     -10.945   9.011  72.171  1.00  0.00     0.000 HD 
HETATM   38  H2  UNL     1     -12.161  10.150  71.876  1.00  0.00     0.000 HD 
HETATM   39  C   UNL     1      -9.710   8.605  68.338  1.00  0.00    -0.162 C  
HETATM   40  C   UNL     1      -9.794   9.927  67.534  1.00  0.00    -0.169 C  
HETATM   41  N   UNL     1      -8.433   7.901  68.093  1.00  0.00    -0.123 NA 
HETATM   42  H2  UNL     1      -8.331   7.063  68.666  1.00  0.00     0.000 HD 
HETATM   43  H1  UNL     1      -8.357   7.704  67.095  1.00  0.00     0.000 HD 
BRANCH  40  44
HETATM   44  O   UNL     1      -9.728   9.574  66.130  1.00  0.00    -0.216 OA 
BRANCH  44  45
HETATM   45  C   UNL     1      -8.959  10.458  65.309  1.00  0.00    -0.187 C  
HETATM   46  O   UNL     1      -8.111  11.302  66.092  1.00  0.00    -0.149 OA 
HETATM   47  C   UNL     1      -7.096  10.586  66.810  1.00  0.00    -0.109 C  
HETATM   48  C   UNL     1      -6.197   9.776  65.864  1.00  0.00    -0.072 C  
HETATM   49  H1  UNL     1      -8.445   8.207  62.757  1.00  0.00     0.000 HD 
HETATM   50  O   UNL     1      -5.209   9.013  66.572  1.00  0.00    -0.033 OA 
HETATM   51  H2  UNL     1      -9.719   9.279  62.973  1.00  0.00     0.000 HD 
HETATM   52  C   UNL     1      -7.055   8.829  65.012  1.00  0.00    -0.080 C  
HETATM   53  H   UNL     1      -4.653   8.512  65.987  1.00  0.00     0.000 HD 
HETATM   54  O   UNL     1      -6.223   8.147  64.059  1.00  0.00    -0.064 OA 
HETATM   55  C   UNL     1      -8.142   9.634  64.276  1.00  0.00    -0.146 C  
HETATM   56  N   UNL     1      -8.982   8.748  63.435  1.00  0.00     0.188 NA 
HETATM   57  H   UNL     1      -6.754   7.561  63.532  1.00  0.00     0.000 HD 
BRANCH  47  58
HETATM   58  C   UNL     1      -6.315  11.595  67.682  1.00  0.00    -0.072 C  
HETATM   59  H1  UNL     1      -6.287  12.386  69.636  1.00  0.00     0.000 HD 
HETATM   60  N   UNL     1      -6.803  11.720  69.060  1.00  0.00    -0.099 NA 
HETATM   61  H2  UNL     1      -6.827  10.805  69.512  1.00  0.00     0.000 HD 
ENDBRANCH  47  58
ENDBRANCH  44  45
ENDBRANCH  40  44
ENDBRANCH  29  30
ENDBRANCH  22  29
ENDBRANCH  18  19
ENDBRANCH   7  18
ENDBRANCH   2   5
TORSDOF 9
ENDMDL
MODEL      185
REMARK 921   NORMALIZED FREE ENERGY PREDICTED BY IDOCK:   -3.98 KCAL/MOL
REMARK 922        TOTAL FREE ENERGY PREDICTED BY IDOCK:   -8.89 KCAL/MOL
REMARK 923 INTER-LIGAND FREE ENERGY PREDICTED BY IDOCK:   -7.78 KCAL/MOL
REMARK 924 INTRA-LIGAND FREE ENERGY PREDICTED BY IDOCK:   -1.11 KCAL/MOL
REMARK 927      BINDING AFFINITY PREDICTED BY RF-SCORE:    0.00 PKD
ROOT
HETATM    1  N   UNL     1     -10.673   3.375  64.286  1.00  0.00    -0.478 NA 
HETATM    2  C   UNL     1      -9.777   2.838  65.314  1.00  0.00     0.140 C  
HETATM    3  H1  UNL     1     -11.249   2.686  63.804  1.00  0.00     0.000 HD 
HETATM    4  H2  UNL     1     -10.140   3.920  63.608  1.00  0.00     0.000 HD 
ENDROOT
BRANCH   2   5
HETATM    5  C   UNL     1      -8.899   3.886  66.047  1.00  0.00    -0.123 C  
HETATM    6  O   UNL     1      -8.858   5.179  65.387  1.00  0.00    -0.148 OA 
HETATM    7  C   UNL     1      -8.133   6.129  66.188  1.00  0.00    -0.115 C  
HETATM    8  C   UNL     1      -6.643   5.683  66.351  1.00  0.00    -0.055 C  
HETATM    9  O   UNL     1      -6.955   3.044  64.841  1.00  0.00    -0.047 OA 
HETATM   10  H   UNL     1      -6.076   2.688  64.908  1.00  0.00     0.000 HD 
HETATM   11  N   UNL     1      -5.925   5.768  65.036  1.00  0.00    -0.024 NA 
HETATM   12  C   UNL     1      -6.561   4.272  66.931  1.00  0.00    -0.046 C  
HETATM   13  H2  UNL     1      -6.000   6.697  64.621  1.00  0.00     0.000 HD 
HETATM   14  O   UNL     1      -6.872   4.247  68.331  1.00  0.00    -0.046 OA 
HETATM   15  C   UNL     1      -7.467   3.305  66.157  1.00  0.00    -0.076 C  
HETATM   16  H1  UNL     1      -4.953   5.477  65.142  1.00  0.00     0.000 HD 
HETATM   17  H   UNL     1      -6.822   3.370  68.692  1.00  0.00     0.000 HD 
BRANCH   7  18
HETATM   18  O   UNL     1      -7.993   7.403  65.584  1.00  0.00    -0.104 OA 
BRANCH  18  19
HETATM   19  C   UNL     1      -8.645   8.537  66.140  1.00  0.00    -0.138 C  
HETATM   20  O   UNL     1      -7.030   8.274  68.006  1.00  0.00    -0.077 OA 
HETATM   21  C   UNL     1      -8.300   9.627  65.118  1.00  0.00    -0.137 C  
HETATM   22  C   UNL     1      -7.548  10.492  67.113  1.00  0.00    -0.097 C  
HETATM   23  H   UNL     1      -6.687   8.614  68.825  1.00  0.00     0.000 HD 
HETATM   24  O   UNL     1      -7.280  10.448  65.711  1.00  0.00    -0.134 OA 
HETATM   25  C   UNL     1      -8.088   9.089  67.470  1.00  0.00    -0.108 C  
BRANCH  21  26
HETATM   26  C   UNL     1      -9.506  10.453  64.660  1.00  0.00    -0.280 C  
HETATM   27  H   UNL     1     -10.181  11.305  62.997  1.00  0.00     0.000 HD 
HETATM   28  O   UNL     1      -9.434  10.793  63.282  1.00  0.00    -0.259 OA 
ENDBRANCH  21  26
BRANCH  22  29
HETATM   29  O   UNL     1      -8.495  11.527  67.409  1.00  0.00    -0.138 OA 
BRANCH  29  30
HETATM   30  C   UNL     1      -7.974  12.887  67.591  1.00  0.00    -0.167 C  
HETATM   31  C   UNL     1      -6.550  12.852  68.205  1.00  0.00    -0.093 C  
HETATM   32  O   UNL     1      -5.582  12.807  67.133  1.00  0.00    -0.334 OA 
HETATM   33  C   UNL     1      -6.122  13.987  69.149  1.00  0.00    -0.098 C  
HETATM   34  C   UNL     1      -7.278  14.649  69.878  1.00  0.00    -0.003 C  
HETATM   35  N   UNL     1      -5.169  13.464  70.161  1.00  0.00    -0.092 NA 
HETATM   36  H   UNL     1      -4.710  12.786  67.510  1.00  0.00     0.000 HD 
HETATM   37  H1  UNL     1      -4.885  14.217  70.788  1.00  0.00     0.000 HD 
HETATM   38  H2  UNL     1      -4.368  13.000  69.732  1.00  0.00     0.000 HD 
HETATM   39  C   UNL     1      -8.346  15.089  68.879  1.00  0.00    -0.183 C  
HETATM   40  C   UNL     1      -9.013  13.844  68.239  1.00  0.00    -0.187 C  
HETATM   41  N   UNL     1      -9.335  15.930  69.588  1.00  0.00    -0.201 NA 
HETATM   42  H2  UNL     1      -8.904  16.717  70.073  1.00  0.00     0.000 HD 
HETATM   43  H1  UNL     1     -10.048  16.223  68.921  1.00  0.00     0.000 HD 
BRANCH  40  44
HETATM   44  O   UNL     1      -9.977  14.329  67.274  1.00  0.00    -0.246 OA 
BRANCH  44  45
HETATM   45  C   UNL     1      -9.564  14.266  65.906  1.00  0.00    -0.196 C  
HETATM   46  O   UNL     1     -10.285  13.267  65.182  1.00  0.00    -0.307 OA 
HETATM   47  C   UNL     1     -11.689  13.543  65.068  1.00  0.00    -0.334 C  
HETATM   48  C   UNL     1     -11.948  14.891  64.378  1.00  0.00    -0.394 C  
HETATM   49  H1  UNL     1      -9.081  17.652  65.529  1.00  0.00     0.000 HD 
HETATM   50  O   UNL     1     -13.345  15.205  64.304  1.00  0.00     0.243 OA 
HETATM   51  H2  UNL     1      -7.995  16.489  66.064  1.00  0.00     0.000 HD 
HETATM   52  C   UNL     1     -11.214  16.011  65.131  1.00  0.00    -0.189 C  
HETATM   53  H   UNL     1     -13.505  16.039  63.877  1.00  0.00     0.000 HD 
HETATM   54  O   UNL     1     -11.375  17.254  64.426  1.00  0.00    -1.052 OA 
HETATM   55  C   UNL     1      -9.718  15.666  65.247  1.00  0.00    -0.033 C  
HETATM   56  N   UNL     1      -8.980  16.735  65.962  1.00  0.00    -0.495 NA 
HETATM   57  H   UNL     1     -10.921  17.946  64.892  1.00  0.00     0.000 HD 
BRANCH  47  58
HETATM   58  C   UNL     1     -12.362  12.350  64.352  1.00  0.00    -0.447 C  
HETATM   59  H1  UNL     1     -13.141  11.803  62.471  1.00  0.00     0.000 HD 
HETATM   60  N   UNL     1     -12.696  12.591  62.944  1.00  0.00    -0.478 NA 
HETATM   61  H2  UNL     1     -11.868  12.891  62.429  1.00  0.00     0.000 HD 
ENDBRANCH  47  58
ENDBRANCH  44  45
ENDBRANCH  40  44
ENDBRANCH  29  30
ENDBRANCH  22  29
ENDBRANCH  18  19
ENDBRANCH   7  18
ENDBRANCH   2   5
TORSDOF 9
ENDMDL
MODEL      186
REMARK 921   NORMALIZED FREE ENERGY PREDICTED BY IDOCK:   -3.92 KCAL/MOL
REMARK 922        TOTAL FREE ENERGY PREDICTED BY IDOCK:   -8.79 KCAL/MOL
REMARK 923 INTER-LIGAND FREE ENERGY PREDICTED BY IDOCK:   -6.79 KCAL/MOL
REMARK 924 INTRA-LIGAND FREE ENERGY PREDICTED BY IDOCK:   -2.00 KCAL/MOL
REMARK 927      BINDING AFFINITY PREDICTED BY RF-SCORE:    0.00 PKD
ROOT
HETATM    1  N   UNL     1      -8.906  16.826  66.229  1.00  0.00    -0.356 NA 
HETATM    2  C   UNL     1     -10.324  16.601  66.521  1.00  0.00    -0.299 C  
HETATM    3  H1  UNL     1      -8.567  17.771  66.405  1.00  0.00     0.000 HD 
HETATM    4  H2  UNL     1      -8.700  16.556  65.267  1.00  0.00     0.000 HD 
ENDROOT
BRANCH   2   5
HETATM    5  C   UNL     1     -10.840  15.163  66.251  1.00  0.00    -0.333 C  
HETATM    6  O   UNL     1      -9.782  14.189  66.055  1.00  0.00    -0.301 OA 
HETATM    7  C   UNL     1     -10.333  12.866  65.938  1.00  0.00    -0.285 C  
HETATM    8  C   UNL     1     -11.249  12.764  64.675  1.00  0.00    -0.319 C  
HETATM    9  O   UNL     1     -10.985  15.702  63.878  1.00  0.00    -0.334 OA 
HETATM   10  H   UNL     1     -11.541  15.735  63.108  1.00  0.00     0.000 HD 
HETATM   11  N   UNL     1     -10.428  12.874  63.424  1.00  0.00    -0.480 NA 
HETATM   12  C   UNL     1     -12.341  13.832  64.712  1.00  0.00    -0.386 C  
HETATM   13  H2  UNL     1      -9.674  12.187  63.402  1.00  0.00     0.000 HD 
HETATM   14  O   UNL     1     -13.369  13.518  65.660  1.00  0.00    -0.412 OA 
HETATM   15  C   UNL     1     -11.746  15.217  64.995  1.00  0.00    -0.174 C  
HETATM   16  H1  UNL     1     -11.026  12.808  62.600  1.00  0.00     0.000 HD 
HETATM   17  H   UNL     1     -14.048  14.182  65.683  1.00  0.00     0.000 HD 
BRANCH   7  18
HETATM   18  O   UNL     1      -9.367  11.861  65.682  1.00  0.00    -0.207 OA 
BRANCH  18  19
HETATM   19  C   UNL     1      -9.369  10.654  66.433  1.00  0.00    -0.169 C  
HETATM   20  O   UNL     1     -10.229   9.617  64.348  1.00  0.00    -0.258 OA 
HETATM   21  C   UNL     1      -7.873  10.452  66.702  1.00  0.00    -0.120 C  
HETATM   22  C   UNL     1      -8.514   8.492  65.682  1.00  0.00    -0.155 C  
HETATM   23  H   UNL     1     -10.487   8.824  63.894  1.00  0.00     0.000 HD 
HETATM   24  O   UNL     1      -7.428   9.408  65.820  1.00  0.00    -0.096 OA 
HETATM   25  C   UNL     1      -9.789   9.365  65.695  1.00  0.00    -0.223 C  
BRANCH  21  26
HETATM   26  C   UNL     1      -7.541  10.146  68.165  1.00  0.00    -0.087 C  
HETATM   27  H   UNL     1      -7.489  11.095  69.910  1.00  0.00     0.000 HD 
HETATM   28  O   UNL     1      -7.695  11.284  69.003  1.00  0.00    -0.135 OA 
ENDBRANCH  21  26
BRANCH  22  29
HETATM   29  O   UNL     1      -8.502   7.537  66.751  1.00  0.00    -0.118 OA 
BRANCH  29  30
HETATM   30  C   UNL     1      -7.756   6.291  66.535  1.00  0.00    -0.099 C  
HETATM   31  C   UNL     1      -7.840   5.851  65.050  1.00  0.00    -0.106 C  
HETATM   32  O   UNL     1      -6.735   6.438  64.328  1.00  0.00    -0.036 OA 
HETATM   33  C   UNL     1      -7.844   4.349  64.722  1.00  0.00    -0.089 C  
HETATM   34  C   UNL     1      -8.400   3.478  65.833  1.00  0.00    -0.106 C  
HETATM   35  N   UNL     1      -8.644   4.108  63.493  1.00  0.00    -0.100 NA 
HETATM   36  H   UNL     1      -6.787   6.168  63.418  1.00  0.00     0.000 HD 
HETATM   37  H1  UNL     1      -8.647   3.111  63.276  1.00  0.00     0.000 HD 
HETATM   38  H2  UNL     1      -8.320   4.671  62.708  1.00  0.00     0.000 HD 
HETATM   39  C   UNL     1      -7.689   3.788  67.150  1.00  0.00    -0.080 C  
HETATM   40  C   UNL     1      -8.055   5.219  67.620  1.00  0.00    -0.100 C  
HETATM   41  N   UNL     1      -8.084   2.771  68.148  1.00  0.00    -0.061 NA 
HETATM   42  H2  UNL     1      -7.913   1.818  67.826  1.00  0.00     0.000 HD 
HETATM   43  H1  UNL     1      -7.609   2.978  69.027  1.00  0.00     0.000 HD 
BRANCH  40  44
HETATM   44  O   UNL     1      -7.315   5.465  68.842  1.00  0.00    -0.067 OA 
BRANCH  44  45
HETATM   45  C   UNL     1      -8.095   5.912  69.954  1.00  0.00    -0.116 C  
HETATM   46  O   UNL     1      -8.786   4.830  70.584  1.00  0.00    -0.104 OA 
HETATM   47  C   UNL     1      -7.911   3.866  71.186  1.00  0.00    -0.063 C  
HETATM   48  C   UNL     1      -7.000   4.509  72.243  1.00  0.00    -0.060 C  
HETATM   49  H1  UNL     1      -5.856   8.298  71.017  1.00  0.00     0.000 HD 
HETATM   50  O   UNL     1      -6.083   3.568  72.817  1.00  0.00    -0.008 OA 
HETATM   51  H2  UNL     1      -7.098   8.447  69.898  1.00  0.00     0.000 HD 
HETATM   52  C   UNL     1      -6.211   5.667  71.614  1.00  0.00    -0.042 C  
HETATM   53  H   UNL     1      -5.520   3.966  73.471  1.00  0.00     0.000 HD 
HETATM   54  O   UNL     1      -5.436   6.331  72.627  1.00  0.00    -0.034 OA 
HETATM   55  C   UNL     1      -7.185   6.666  70.963  1.00  0.00    -0.078 C  
HETATM   56  N   UNL     1      -6.453   7.803  70.355  1.00  0.00    -0.037 NA 
HETATM   57  H   UNL     1      -4.949   7.048  72.238  1.00  0.00     0.000 HD 
BRANCH  47  58
HETATM   58  C   UNL     1      -8.772   2.710  71.744  1.00  0.00    -0.073 C  
HETATM   59  H1  UNL     1     -10.326   1.406  71.169  1.00  0.00     0.000 HD 
HETATM   60  N   UNL     1      -9.757   2.169  70.800  1.00  0.00    -0.088 NA 
HETATM   61  H2  UNL     1      -9.298   1.883  69.935  1.00  0.00     0.000 HD 
ENDBRANCH  47  58
ENDBRANCH  44  45
ENDBRANCH  40  44
ENDBRANCH  29  30
ENDBRANCH  22  29
ENDBRANCH  18  19
ENDBRANCH   7  18
ENDBRANCH   2   5
TORSDOF 9
ENDMDL
MODEL      187
REMARK 921   NORMALIZED FREE ENERGY PREDICTED BY IDOCK:   -3.91 KCAL/MOL
REMARK 922        TOTAL FREE ENERGY PREDICTED BY IDOCK:   -8.78 KCAL/MOL
REMARK 923 INTER-LIGAND FREE ENERGY PREDICTED BY IDOCK:   -9.53 KCAL/MOL
REMARK 924 INTRA-LIGAND FREE ENERGY PREDICTED BY IDOCK:    0.75 KCAL/MOL
REMARK 927      BINDING AFFINITY PREDICTED BY RF-SCORE:    0.00 PKD
ROOT
HETATM    1  N   UNL     1      -9.639   1.711  68.117  1.00  0.00    -0.334 NA 
HETATM    2  C   UNL     1      -9.616   3.177  68.119  1.00  0.00    -0.075 C  
HETATM    3  H1  UNL     1      -9.497   1.272  67.208  1.00  0.00     0.000 HD 
HETATM    4  H2  UNL     1     -10.506   1.375  68.535  1.00  0.00     0.000 HD 
ENDROOT
BRANCH   2   5
HETATM    5  C   UNL     1      -9.833   3.845  69.502  1.00  0.00    -0.010 C  
HETATM    6  O   UNL     1      -9.558   5.270  69.513  1.00  0.00    -0.130 OA 
HETATM    7  C   UNL     1      -9.902   5.839  70.788  1.00  0.00    -0.183 C  
HETATM    8  C   UNL     1      -9.014   5.223  71.918  1.00  0.00    -0.135 C  
HETATM    9  O   UNL     1      -7.546   3.251  70.103  1.00  0.00    -0.044 OA 
HETATM   10  H   UNL     1      -6.982   2.809  70.728  1.00  0.00     0.000 HD 
HETATM   11  N   UNL     1      -7.586   5.656  71.756  1.00  0.00    -0.094 NA 
HETATM   12  C   UNL     1      -9.128   3.699  71.927  1.00  0.00    -0.110 C  
HETATM   13  H2  UNL     1      -7.499   6.672  71.716  1.00  0.00     0.000 HD 
HETATM   14  O   UNL     1     -10.379   3.257  72.470  1.00  0.00    -0.162 OA 
HETATM   15  C   UNL     1      -8.914   3.124  70.521  1.00  0.00    -0.101 C  
HETATM   16  H1  UNL     1      -7.007   5.254  72.493  1.00  0.00     0.000 HD 
HETATM   17  H   UNL     1     -10.451   2.310  72.475  1.00  0.00     0.000 HD 
BRANCH   7  18
HETATM   18  O   UNL     1      -9.605   7.220  70.901  1.00  0.00    -0.170 OA 
BRANCH  18  19
HETATM   19  C   UNL     1      -9.114   7.943  69.781  1.00  0.00    -0.146 C  
HETATM   20  O   UNL     1     -11.273   7.333  68.719  1.00  0.00    -0.450 OA 
HETATM   21  C   UNL     1      -9.033   9.369  70.340  1.00  0.00    -0.250 C  
HETATM   22  C   UNL     1     -10.360   9.590  68.474  1.00  0.00    -0.207 C  
HETATM   23  H   UNL     1     -11.851   7.417  67.970  1.00  0.00     0.000 HD 
HETATM   24  O   UNL     1     -10.145  10.096  69.792  1.00  0.00    -0.230 OA 
HETATM   25  C   UNL     1     -10.052   8.078  68.562  1.00  0.00    -0.199 C  
BRANCH  21  26
HETATM   26  C   UNL     1      -7.699  10.069  70.068  1.00  0.00    -0.169 C  
HETATM   27  H   UNL     1      -5.949  10.340  70.968  1.00  0.00     0.000 HD 
HETATM   28  O   UNL     1      -6.776   9.906  71.137  1.00  0.00    -0.322 OA 
ENDBRANCH  21  26
BRANCH  22  29
HETATM   29  O   UNL     1      -9.510  10.261  67.535  1.00  0.00    -0.150 OA 
BRANCH  29  30
HETATM   30  C   UNL     1      -9.570   9.822  66.135  1.00  0.00    -0.227 C  
HETATM   31  C   UNL     1      -9.253   8.308  66.022  1.00  0.00    -0.166 C  
HETATM   32  O   UNL     1     -10.487   7.565  66.130  1.00  0.00    -0.302 OA 
HETATM   33  C   UNL     1      -8.528   7.796  64.766  1.00  0.00     0.031 C  
HETATM   34  C   UNL     1      -7.651   8.837  64.094  1.00  0.00    -0.122 C  
HETATM   35  N   UNL     1      -7.681   6.628  65.119  1.00  0.00    -0.094 NA 
HETATM   36  H   UNL     1     -10.292   6.637  66.060  1.00  0.00     0.000 HD 
HETATM   37  H1  UNL     1      -7.201   6.288  64.285  1.00  0.00     0.000 HD 
HETATM   38  H2  UNL     1      -8.215   5.892  65.580  1.00  0.00     0.000 HD 
HETATM   39  C   UNL     1      -8.455  10.109  63.829  1.00  0.00    -0.181 C  
HETATM   40  C   UNL     1      -8.824  10.788  65.173  1.00  0.00    -0.186 C  
HETATM   41  N   UNL     1      -7.648  11.005  62.972  1.00  0.00    -0.344 NA 
HETATM   42  H2  UNL     1      -7.339  10.551  62.113  1.00  0.00     0.000 HD 
HETATM   43  H1  UNL     1      -8.185  11.854  62.796  1.00  0.00     0.000 HD 
BRANCH  40  44
HETATM   44  O   UNL     1      -9.620  11.955  64.854  1.00  0.00    -0.185 OA 
BRANCH  44  45
HETATM   45  C   UNL     1     -10.458  12.436  65.908  1.00  0.00    -0.256 C  
HETATM   46  O   UNL     1      -9.885  13.570  66.563  1.00  0.00    -0.276 OA 
HETATM   47  C   UNL     1      -9.765  14.721  65.715  1.00  0.00    -0.313 C  
HETATM   48  C   UNL     1     -11.126  15.153  65.149  1.00  0.00    -0.403 C  
HETATM   49  H1  UNL     1     -13.436  11.820  64.297  1.00  0.00     0.000 HD 
HETATM   50  O   UNL     1     -11.015  16.271  64.257  1.00  0.00    -1.086 OA 
HETATM   51  H2  UNL     1     -12.540  10.794  65.279  1.00  0.00     0.000 HD 
HETATM   52  C   UNL     1     -11.780  13.976  64.409  1.00  0.00    -0.397 C  
HETATM   53  H   UNL     1     -11.857  16.538  63.907  1.00  0.00     0.000 HD 
HETATM   54  O   UNL     1     -13.096  14.353  63.969  1.00  0.00    -0.133 OA 
HETATM   55  C   UNL     1     -11.871  12.759  65.348  1.00  0.00    -0.415 C  
HETATM   56  N   UNL     1     -12.509  11.608  64.665  1.00  0.00    -0.013 NA 
HETATM   57  H   UNL     1     -13.500  13.625  63.512  1.00  0.00     0.000 HD 
BRANCH  47  58
HETATM   58  C   UNL     1      -9.051  15.837  66.510  1.00  0.00    -0.293 C  
HETATM   59  H1  UNL     1      -8.527  17.873  66.354  1.00  0.00     0.000 HD 
HETATM   60  N   UNL     1      -8.999  17.136  65.829  1.00  0.00    -0.501 NA 
HETATM   61  H2  UNL     1      -9.937  17.435  65.564  1.00  0.00     0.000 HD 
ENDBRANCH  47  58
ENDBRANCH  44  45
ENDBRANCH  40  44
ENDBRANCH  29  30
ENDBRANCH  22  29
ENDBRANCH  18  19
ENDBRANCH   7  18
ENDBRANCH   2   5
TORSDOF 9
ENDMDL
MODEL      188
REMARK 921   NORMALIZED FREE ENERGY PREDICTED BY IDOCK:   -3.84 KCAL/MOL
REMARK 922        TOTAL FREE ENERGY PREDICTED BY IDOCK:   -8.67 KCAL/MOL
REMARK 923 INTER-LIGAND FREE ENERGY PREDICTED BY IDOCK:   -7.15 KCAL/MOL
REMARK 924 INTRA-LIGAND FREE ENERGY PREDICTED BY IDOCK:   -1.52 KCAL/MOL
REMARK 927      BINDING AFFINITY PREDICTED BY RF-SCORE:    0.00 PKD
ROOT
HETATM    1  N   UNL     1     -11.172   3.094  64.116  1.00  0.00    -0.550 NA 
HETATM    2  C   UNL     1     -10.108   3.286  65.106  1.00  0.00     0.178 C  
HETATM    3  H1  UNL     1     -11.091   2.256  63.542  1.00  0.00     0.000 HD 
HETATM    4  H2  UNL     1     -11.249   3.919  63.521  1.00  0.00     0.000 HD 
ENDROOT
BRANCH   2   5
HETATM    5  C   UNL     1     -10.232   4.562  65.979  1.00  0.00    -0.260 C  
HETATM    6  O   UNL     1      -9.370   5.649  65.553  1.00  0.00    -0.087 OA 
HETATM    7  C   UNL     1      -9.632   6.832  66.328  1.00  0.00    -0.031 C  
HETATM    8  C   UNL     1      -9.297   6.585  67.835  1.00  0.00    -0.111 C  
HETATM    9  O   UNL     1      -8.563   3.637  67.497  1.00  0.00    -0.094 OA 
HETATM   10  H   UNL     1      -8.358   3.394  68.392  1.00  0.00     0.000 HD 
HETATM   11  N   UNL     1      -7.818   6.410  68.020  1.00  0.00    -0.104 NA 
HETATM   12  C   UNL     1     -10.064   5.375  68.368  1.00  0.00    -0.173 C  
HETATM   13  H2  UNL     1      -7.292   7.197  67.638  1.00  0.00     0.000 HD 
HETATM   14  O   UNL     1     -11.452   5.668  68.576  1.00  0.00     0.314 OA 
HETATM   15  C   UNL     1      -9.897   4.166  67.439  1.00  0.00    -0.101 C  
HETATM   16  H1  UNL     1      -7.599   6.249  69.003  1.00  0.00     0.000 HD 
HETATM   17  H   UNL     1     -11.929   4.916  68.907  1.00  0.00     0.000 HD 
BRANCH   7  18
HETATM   18  O   UNL     1      -8.786   7.925  66.014  1.00  0.00    -0.154 OA 
BRANCH  18  19
HETATM   19  C   UNL     1      -9.328   9.227  65.842  1.00  0.00    -0.236 C  
HETATM   20  O   UNL     1      -8.368   9.686  68.083  1.00  0.00    -0.116 OA 
HETATM   21  C   UNL     1      -8.512   9.750  64.654  1.00  0.00    -0.172 C  
HETATM   22  C   UNL     1      -8.177  11.336  66.287  1.00  0.00    -0.126 C  
HETATM   23  H   UNL     1      -8.201  10.320  68.770  1.00  0.00     0.000 HD 
HETATM   24  O   UNL     1      -7.551  10.678  65.185  1.00  0.00    -0.092 OA 
HETATM   25  C   UNL     1      -9.059  10.258  66.958  1.00  0.00    -0.139 C  
BRANCH  21  26
HETATM   26  C   UNL     1      -9.360  10.375  63.543  1.00  0.00    -0.297 C  
HETATM   27  H   UNL     1     -11.215  11.038  63.280  1.00  0.00     0.000 HD 
HETATM   28  O   UNL     1     -10.688  10.650  63.968  1.00  0.00    -0.168 OA 
ENDBRANCH  21  26
BRANCH  22  29
HETATM   29  O   UNL     1      -8.946  12.456  65.831  1.00  0.00     0.003 OA 
BRANCH  29  30
HETATM   30  C   UNL     1      -9.884  13.065  66.782  1.00  0.00    -0.243 C  
HETATM   31  C   UNL     1     -11.350  12.811  66.346  1.00  0.00    -0.323 C  
HETATM   32  O   UNL     1     -11.808  11.579  66.945  1.00  0.00    -0.542 OA 
HETATM   33  C   UNL     1     -12.410  13.881  66.654  1.00  0.00    -0.369 C  
HETATM   34  C   UNL     1     -11.852  15.288  66.757  1.00  0.00     0.127 C  
HETATM   35  N   UNL     1     -13.456  13.868  65.600  1.00  0.00    -0.557 NA 
HETATM   36  H   UNL     1     -12.706  11.423  66.678  1.00  0.00     0.000 HD 
HETATM   37  H1  UNL     1     -14.159  14.578  65.805  1.00  0.00     0.000 HD 
HETATM   38  H2  UNL     1     -13.868  12.943  65.479  1.00  0.00     0.000 HD 
HETATM   39  C   UNL     1     -10.683  15.320  67.741  1.00  0.00    -0.286 C  
HETATM   40  C   UNL     1      -9.488  14.518  67.165  1.00  0.00    -0.231 C  
HETATM   41  N   UNL     1     -10.319  16.731  67.994  1.00  0.00    -0.302 NA 
HETATM   42  H2  UNL     1     -11.112  17.289  68.310  1.00  0.00     0.000 HD 
HETATM   43  H1  UNL     1      -9.539  16.751  68.651  1.00  0.00     0.000 HD 
BRANCH  40  44
HETATM   44  O   UNL     1      -8.438  14.548  68.162  1.00  0.00    -0.143 OA 
BRANCH  44  45
HETATM   45  C   UNL     1      -7.109  14.689  67.651  1.00  0.00    -0.182 C  
HETATM   46  O   UNL     1      -7.001  15.800  66.758  1.00  0.00    -0.218 OA 
HETATM   47  C   UNL     1      -7.225  17.067  67.391  1.00  0.00    -0.156 C  
HETATM   48  C   UNL     1      -6.240  17.306  68.546  1.00  0.00    -0.160 C  
HETATM   49  H1  UNL     1      -5.517  13.755  70.556  1.00  0.00     0.000 HD 
HETATM   50  O   UNL     1      -6.485  18.547  69.223  1.00  0.00    -0.254 OA 
HETATM   51  H2  UNL     1      -6.057  12.787  69.295  1.00  0.00     0.000 HD 
HETATM   52  C   UNL     1      -6.331  16.151  69.555  1.00  0.00    -0.191 C  
HETATM   53  H   UNL     1      -5.876  18.694  69.937  1.00  0.00     0.000 HD 
HETATM   54  O   UNL     1      -5.339  16.326  70.580  1.00  0.00    -0.180 OA 
HETATM   55  C   UNL     1      -6.105  14.811  68.831  1.00  0.00    -0.082 C  
HETATM   56  N   UNL     1      -6.176  13.675  69.782  1.00  0.00    -0.124 NA 
HETATM   57  H   UNL     1      -5.395  15.611  71.204  1.00  0.00     0.000 HD 
BRANCH  47  58
HETATM   58  C   UNL     1      -7.173  18.168  66.307  1.00  0.00    -0.266 C  
HETATM   59  H1  UNL     1      -6.347  18.550  64.406  1.00  0.00     0.000 HD 
HETATM   60  N   UNL     1      -6.381  17.823  65.121  1.00  0.00     0.041 NA 
HETATM   61  H2  UNL     1      -6.710  16.944  64.719  1.00  0.00     0.000 HD 
ENDBRANCH  47  58
ENDBRANCH  44  45
ENDBRANCH  40  44
ENDBRANCH  29  30
ENDBRANCH  22  29
ENDBRANCH  18  19
ENDBRANCH   7  18
ENDBRANCH   2   5
TORSDOF 9
ENDMDL
MODEL      189
REMARK 921   NORMALIZED FREE ENERGY PREDICTED BY IDOCK:   -3.82 KCAL/MOL
REMARK 922        TOTAL FREE ENERGY PREDICTED BY IDOCK:   -8.64 KCAL/MOL
REMARK 923 INTER-LIGAND FREE ENERGY PREDICTED BY IDOCK:   -7.07 KCAL/MOL
REMARK 924 INTRA-LIGAND FREE ENERGY PREDICTED BY IDOCK:   -1.57 KCAL/MOL
REMARK 927      BINDING AFFINITY PREDICTED BY RF-SCORE:    0.00 PKD
ROOT
HETATM    1  N   UNL     1      -6.797   6.860  62.796  1.00  0.00    -0.050 NA 
HETATM    2  C   UNL     1      -7.309   5.564  62.341  1.00  0.00    -0.046 C  
HETATM    3  H1  UNL     1      -6.117   7.303  62.180  1.00  0.00     0.000 HD 
HETATM    4  H2  UNL     1      -6.412   6.773  63.736  1.00  0.00     0.000 HD 
ENDROOT
BRANCH   2   5
HETATM    5  C   UNL     1      -8.344   4.890  63.280  1.00  0.00    -0.114 C  
HETATM    6  O   UNL     1      -8.292   5.369  64.649  1.00  0.00    -0.135 OA 
HETATM    7  C   UNL     1      -9.358   4.794  65.424  1.00  0.00    -0.156 C  
HETATM    8  C   UNL     1      -9.197   3.241  65.508  1.00  0.00    -0.151 C  
HETATM    9  O   UNL     1      -6.743   3.098  63.692  1.00  0.00    -0.033 OA 
HETATM   10  H   UNL     1      -6.582   2.162  63.672  1.00  0.00     0.000 HD 
HETATM   11  N   UNL     1      -7.989   2.884  66.323  1.00  0.00    -0.081 NA 
HETATM   12  C   UNL     1      -9.117   2.629  64.109  1.00  0.00    -0.112 C  
HETATM   13  H2  UNL     1      -8.014   3.314  67.248  1.00  0.00     0.000 HD 
HETATM   14  O   UNL     1     -10.394   2.606  63.459  1.00  0.00    -0.160 OA 
HETATM   15  C   UNL     1      -8.082   3.363  63.247  1.00  0.00    -0.080 C  
HETATM   16  H1  UNL     1      -7.883   1.871  66.377  1.00  0.00     0.000 HD 
HETATM   17  H   UNL     1     -10.345   2.226  62.590  1.00  0.00     0.000 HD 
BRANCH   7  18
HETATM   18  O   UNL     1      -9.341   5.165  66.791  1.00  0.00    -0.125 OA 
BRANCH  18  19
HETATM   19  C   UNL     1      -9.650   6.497  67.178  1.00  0.00    -0.136 C  
HETATM   20  O   UNL     1     -10.194   5.497  69.383  1.00  0.00    -0.210 OA 
HETATM   21  C   UNL     1      -8.279   7.177  67.081  1.00  0.00    -0.118 C  
HETATM   22  C   UNL     1      -8.945   7.596  69.243  1.00  0.00    -0.135 C  
HETATM   23  H   UNL     1     -10.454   5.638  70.286  1.00  0.00     0.000 HD 
HETATM   24  O   UNL     1      -7.801   7.344  68.426  1.00  0.00    -0.117 OA 
HETATM   25  C   UNL     1     -10.073   6.727  68.644  1.00  0.00    -0.159 C  
BRANCH  21  26
HETATM   26  C   UNL     1      -8.293   8.498  66.309  1.00  0.00    -0.116 C  
HETATM   27  H   UNL     1      -9.104   9.250  64.658  1.00  0.00     0.000 HD 
HETATM   28  O   UNL     1      -9.096   8.431  65.138  1.00  0.00    -0.040 OA 
ENDBRANCH  21  26
BRANCH  22  29
HETATM   29  O   UNL     1      -9.272   8.992  69.229  1.00  0.00    -0.142 OA 
BRANCH  29  30
HETATM   30  C   UNL     1     -10.052   9.514  70.358  1.00  0.00    -0.271 C  
HETATM   31  C   UNL     1      -9.770   8.695  71.645  1.00  0.00    -0.278 C  
HETATM   32  O   UNL     1      -8.663   9.301  72.349  1.00  0.00    -0.037 OA 
HETATM   33  C   UNL     1     -10.903   8.507  72.666  1.00  0.00    -0.131 C  
HETATM   34  C   UNL     1     -12.294   8.567  72.061  1.00  0.00    -0.423 C  
HETATM   35  N   UNL     1     -10.748   7.198  73.352  1.00  0.00    -0.438 NA 
HETATM   36  H   UNL     1      -8.491   8.799  73.137  1.00  0.00     0.000 HD 
HETATM   37  H1  UNL     1     -11.500   7.074  74.030  1.00  0.00     0.000 HD 
HETATM   38  H2  UNL     1      -9.827   7.095  73.777  1.00  0.00     0.000 HD 
HETATM   39  C   UNL     1     -12.453   9.844  71.236  1.00  0.00    -0.381 C  
HETATM   40  C   UNL     1     -11.537   9.781  69.987  1.00  0.00    -0.130 C  
HETATM   41  N   UNL     1     -13.876   9.986  70.859  1.00  0.00    -0.176 NA 
HETATM   42  H2  UNL     1     -14.499   9.961  71.667  1.00  0.00     0.000 HD 
HETATM   43  H1  UNL     1     -13.982  10.838  70.309  1.00  0.00     0.000 HD 
BRANCH  40  44
HETATM   44  O   UNL     1     -11.700  11.035  69.279  1.00  0.00    -0.275 OA 
BRANCH  44  45
HETATM   45  C   UNL     1     -10.807  12.082  69.667  1.00  0.00     0.205 C  
HETATM   46  O   UNL     1      -9.583  12.031  68.929  1.00  0.00    -0.053 OA 
HETATM   47  C   UNL     1      -9.750  12.272  67.525  1.00  0.00    -0.190 C  
HETATM   48  C   UNL     1     -10.395  13.640  67.257  1.00  0.00    -0.249 C  
HETATM   49  H1  UNL     1     -13.245  14.461  70.151  1.00  0.00     0.000 HD 
HETATM   50  O   UNL     1     -10.617  13.872  65.859  1.00  0.00    -0.282 OA 
HETATM   51  H2  UNL     1     -12.638  13.340  71.243  1.00  0.00     0.000 HD 
HETATM   52  C   UNL     1     -11.732  13.741  68.007  1.00  0.00    -0.355 C  
HETATM   53  H   UNL     1     -11.016  14.719  65.693  1.00  0.00     0.000 HD 
HETATM   54  O   UNL     1     -12.284  15.058  67.836  1.00  0.00    -0.518 OA 
HETATM   55  C   UNL     1     -11.511  13.458  69.504  1.00  0.00    -0.244 C  
HETATM   56  N   UNL     1     -12.783  13.559  70.258  1.00  0.00    -0.129 NA 
HETATM   57  H   UNL     1     -13.110  15.121  68.300  1.00  0.00     0.000 HD 
BRANCH  47  58
HETATM   58  C   UNL     1      -8.378  12.097  66.836  1.00  0.00    -0.151 C  
HETATM   59  H1  UNL     1      -6.358  12.661  67.051  1.00  0.00     0.000 HD 
HETATM   60  N   UNL     1      -7.264  12.777  67.507  1.00  0.00    -0.147 NA 
HETATM   61  H2  UNL     1      -7.209  12.486  68.484  1.00  0.00     0.000 HD 
ENDBRANCH  47  58
ENDBRANCH  44  45
ENDBRANCH  40  44
ENDBRANCH  29  30
ENDBRANCH  22  29
ENDBRANCH  18  19
ENDBRANCH   7  18
ENDBRANCH   2   5
TORSDOF 9
ENDMDL
MODEL      190
REMARK 921   NORMALIZED FREE ENERGY PREDICTED BY IDOCK:   -3.77 KCAL/MOL
REMARK 922        TOTAL FREE ENERGY PREDICTED BY IDOCK:   -8.57 KCAL/MOL
REMARK 923 INTER-LIGAND FREE ENERGY PREDICTED BY IDOCK:   -9.55 KCAL/MOL
REMARK 924 INTRA-LIGAND FREE ENERGY PREDICTED BY IDOCK:    0.98 KCAL/MOL
REMARK 927      BINDING AFFINITY PREDICTED BY RF-SCORE:    0.00 PKD
ROOT
HETATM    1  N   UNL     1      -9.660   4.105  69.457  1.00  0.00    -0.196 NA 
HETATM    2  C   UNL     1      -9.722   4.664  68.104  1.00  0.00    -0.138 C  
HETATM    3  H1  UNL     1     -10.495   4.243  70.027  1.00  0.00     0.000 HD 
HETATM    4  H2  UNL     1      -8.841   4.465  69.947  1.00  0.00     0.000 HD 
ENDROOT
BRANCH   2   5
HETATM    5  C   UNL     1      -8.452   4.456  67.238  1.00  0.00    -0.104 C  
HETATM    6  O   UNL     1      -8.267   5.471  66.217  1.00  0.00    -0.108 OA 
HETATM    7  C   UNL     1      -7.010   5.283  65.543  1.00  0.00    -0.065 C  
HETATM    8  C   UNL     1      -6.992   3.911  64.793  1.00  0.00    -0.050 C  
HETATM    9  O   UNL     1      -9.742   3.001  65.767  1.00  0.00    -0.382 OA 
HETATM   10  H   UNL     1      -9.807   2.144  65.362  1.00  0.00     0.000 HD 
HETATM   11  N   UNL     1      -7.962   3.928  63.648  1.00  0.00    -0.086 NA 
HETATM   12  C   UNL     1      -7.298   2.764  65.755  1.00  0.00    -0.071 C  
HETATM   13  H2  UNL     1      -7.790   4.710  63.015  1.00  0.00     0.000 HD 
HETATM   14  O   UNL     1      -6.187   2.472  66.614  1.00  0.00    -0.023 OA 
HETATM   15  C   UNL     1      -8.558   3.058  66.578  1.00  0.00    -0.117 C  
HETATM   16  H1  UNL     1      -7.950   3.034  63.158  1.00  0.00     0.000 HD 
HETATM   17  H   UNL     1      -6.377   1.759  67.212  1.00  0.00     0.000 HD 
BRANCH   7  18
HETATM   18  O   UNL     1      -6.781   6.198  64.487  1.00  0.00    -0.040 OA 
BRANCH  18  19
HETATM   19  C   UNL     1      -6.584   7.579  64.763  1.00  0.00    -0.040 C  
HETATM   20  O   UNL     1      -8.486   7.935  63.209  1.00  0.00    -0.385 OA 
HETATM   21  C   UNL     1      -6.929   7.651  66.255  1.00  0.00    -0.066 C  
HETATM   22  C   UNL     1      -8.331   9.203  65.296  1.00  0.00    -0.146 C  
HETATM   23  H   UNL     1      -9.090   8.549  62.807  1.00  0.00     0.000 HD 
HETATM   24  O   UNL     1      -8.233   8.249  66.354  1.00  0.00    -0.102 OA 
HETATM   25  C   UNL     1      -7.564   8.576  64.109  1.00  0.00    -0.123 C  
BRANCH  21  26
HETATM   26  C   UNL     1      -5.891   8.397  67.098  1.00  0.00    -0.043 C  
HETATM   27  H   UNL     1      -5.016   8.230  68.874  1.00  0.00     0.000 HD 
HETATM   28  O   UNL     1      -5.660   7.768  68.351  1.00  0.00    -0.026 OA 
ENDBRANCH  21  26
BRANCH  22  29
HETATM   29  O   UNL     1      -7.770  10.458  65.700  1.00  0.00    -0.143 OA 
BRANCH  29  30
HETATM   30  C   UNL     1      -8.460  11.196  66.765  1.00  0.00    -0.153 C  
HETATM   31  C   UNL     1      -7.673  11.098  68.098  1.00  0.00    -0.107 C  
HETATM   32  O   UNL     1      -6.743  12.201  68.171  1.00  0.00    -0.061 OA 
HETATM   33  C   UNL     1      -8.457  11.082  69.421  1.00  0.00     0.178 C  
HETATM   34  C   UNL     1      -9.865  10.530  69.295  1.00  0.00    -0.225 C  
HETATM   35  N   UNL     1      -7.724  10.272  70.427  1.00  0.00    -0.440 NA 
HETATM   36  H   UNL     1      -6.261  12.141  68.988  1.00  0.00     0.000 HD 
HETATM   37  H1  UNL     1      -8.244  10.262  71.305  1.00  0.00     0.000 HD 
HETATM   38  H2  UNL     1      -6.764  10.593  70.554  1.00  0.00     0.000 HD 
HETATM   39  C   UNL     1     -10.616  11.252  68.178  1.00  0.00    -0.192 C  
HETATM   40  C   UNL     1      -9.985  10.898  66.807  1.00  0.00    -0.205 C  
HETATM   41  N   UNL     1     -12.040  10.859  68.238  1.00  0.00    -0.810 NA 
HETATM   42  H2  UNL     1     -12.453  11.023  69.156  1.00  0.00     0.000 HD 
HETATM   43  H1  UNL     1     -12.541  11.342  67.492  1.00  0.00     0.000 HD 
BRANCH  40  44
HETATM   44  O   UNL     1     -10.710  11.649  65.801  1.00  0.00    -0.266 OA 
BRANCH  44  45
HETATM   45  C   UNL     1     -11.840  12.384  66.278  1.00  0.00    -0.364 C  
HETATM   46  O   UNL     1     -11.445  13.491  67.092  1.00  0.00    -0.307 OA 
HETATM   47  C   UNL     1     -10.704  14.491  66.378  1.00  0.00    -0.309 C  
HETATM   48  C   UNL     1     -11.503  15.052  65.193  1.00  0.00    -0.339 C  
HETATM   49  H1  UNL     1     -13.718  12.034  63.416  1.00  0.00     0.000 HD 
HETATM   50  O   UNL     1     -10.755  16.015  64.439  1.00  0.00    -0.819 OA 
HETATM   51  H2  UNL     1     -13.633  11.017  64.748  1.00  0.00     0.000 HD 
HETATM   52  C   UNL     1     -11.935  13.905  64.267  1.00  0.00    -0.444 C  
HETATM   53  H   UNL     1     -11.250  16.362  63.705  1.00  0.00     0.000 HD 
HETATM   54  O   UNL     1     -12.768  14.421  63.214  1.00  0.00    -0.897 OA 
HETATM   55  C   UNL     1     -12.708  12.847  65.075  1.00  0.00    -0.404 C  
HETATM   56  N   UNL     1     -13.148  11.730  64.205  1.00  0.00    -0.452 NA 
HETATM   57  H   UNL     1     -13.035  13.711  62.642  1.00  0.00     0.000 HD 
BRANCH  47  58
HETATM   58  C   UNL     1     -10.259  15.576  67.385  1.00  0.00    -0.255 C  
HETATM   59  H1  UNL     1      -9.950  15.860  69.451  1.00  0.00     0.000 HD 
HETATM   60  N   UNL     1     -10.243  15.142  68.786  1.00  0.00    -0.227 NA 
HETATM   61  H2  UNL     1      -9.669  14.306  68.892  1.00  0.00     0.000 HD 
ENDBRANCH  47  58
ENDBRANCH  44  45
ENDBRANCH  40  44
ENDBRANCH  29  30
ENDBRANCH  22  29
ENDBRANCH  18  19
ENDBRANCH   7  18
ENDBRANCH   2   5
TORSDOF 9
ENDMDL
MODEL      191
REMARK 921   NORMALIZED FREE ENERGY PREDICTED BY IDOCK:   -3.77 KCAL/MOL
REMARK 922        TOTAL FREE ENERGY PREDICTED BY IDOCK:   -8.57 KCAL/MOL
REMARK 923 INTER-LIGAND FREE ENERGY PREDICTED BY IDOCK:   -8.45 KCAL/MOL
REMARK 924 INTRA-LIGAND FREE ENERGY PREDICTED BY IDOCK:   -0.11 KCAL/MOL
REMARK 927      BINDING AFFINITY PREDICTED BY RF-SCORE:    0.00 PKD
ROOT
HETATM    1  N   UNL     1     -11.294   3.200  63.984  1.00  0.00    -0.456 NA 
HETATM    2  C   UNL     1      -9.869   2.859  64.011  1.00  0.00    -0.154 C  
HETATM    3  H1  UNL     1     -11.875   2.612  63.388  1.00  0.00     0.000 HD 
HETATM    4  H2  UNL     1     -11.414   4.180  63.730  1.00  0.00     0.000 HD 
ENDROOT
BRANCH   2   5
HETATM    5  C   UNL     1      -8.986   3.755  64.918  1.00  0.00    -0.126 C  
HETATM    6  O   UNL     1      -8.732   5.074  64.368  1.00  0.00    -0.148 OA 
HETATM    7  C   UNL     1      -8.018   5.885  65.317  1.00  0.00    -0.115 C  
HETATM    8  C   UNL     1      -6.612   5.268  65.616  1.00  0.00    -0.044 C  
HETATM    9  O   UNL     1      -7.005   2.781  63.883  1.00  0.00    -0.039 OA 
HETATM   10  H   UNL     1      -6.182   2.326  64.024  1.00  0.00     0.000 HD 
HETATM   11  N   UNL     1      -5.733   5.357  64.403  1.00  0.00    -0.017 NA 
HETATM   12  C   UNL     1      -6.747   3.822  66.092  1.00  0.00    -0.049 C  
HETATM   13  H2  UNL     1      -5.662   6.313  64.055  1.00  0.00     0.000 HD 
HETATM   14  O   UNL     1      -7.229   3.743  67.441  1.00  0.00    -0.062 OA 
HETATM   15  C   UNL     1      -7.645   3.013  65.147  1.00  0.00    -0.080 C  
HETATM   16  H1  UNL     1      -4.817   4.954  64.598  1.00  0.00     0.000 HD 
HETATM   17  H   UNL     1      -7.313   2.844  67.737  1.00  0.00     0.000 HD 
BRANCH   7  18
HETATM   18  O   UNL     1      -7.676   7.172  64.833  1.00  0.00    -0.102 OA 
BRANCH  18  19
HETATM   19  C   UNL     1      -8.482   8.297  65.152  1.00  0.00    -0.146 C  
HETATM   20  O   UNL     1      -9.965   6.644  66.260  1.00  0.00    -0.393 OA 
HETATM   21  C   UNL     1      -7.559   9.088  66.088  1.00  0.00    -0.095 C  
HETATM   22  C   UNL     1      -9.471   8.787  67.333  1.00  0.00    -0.146 C  
HETATM   23  H   UNL     1     -10.741   6.488  66.786  1.00  0.00     0.000 HD 
HETATM   24  O   UNL     1      -8.049   8.887  67.424  1.00  0.00    -0.107 OA 
HETATM   25  C   UNL     1      -9.743   8.044  66.005  1.00  0.00     0.068 C  
BRANCH  21  26
HETATM   26  C   UNL     1      -7.443  10.573  65.737  1.00  0.00    -0.139 C  
HETATM   27  H   UNL     1      -6.499  12.191  66.402  1.00  0.00     0.000 HD 
HETATM   28  O   UNL     1      -6.572  11.269  66.619  1.00  0.00    -0.130 OA 
ENDBRANCH  21  26
BRANCH  22  29
HETATM   29  O   UNL     1     -10.067  10.090  67.354  1.00  0.00    -0.186 OA 
BRANCH  29  30
HETATM   30  C   UNL     1     -10.229  10.738  68.662  1.00  0.00    -0.185 C  
HETATM   31  C   UNL     1     -10.114   9.698  69.806  1.00  0.00    -0.233 C  
HETATM   32  O   UNL     1      -8.731   9.606  70.214  1.00  0.00    -0.218 OA 
HETATM   33  C   UNL     1     -10.946   9.906  71.082  1.00  0.00    -0.228 C  
HETATM   34  C   UNL     1     -12.223  10.696  70.862  1.00  0.00    -0.497 C  
HETATM   35  N   UNL     1     -11.305   8.588  71.666  1.00  0.00    -0.275 NA 
HETATM   36  H   UNL     1      -8.661   8.969  70.916  1.00  0.00     0.000 HD 
HETATM   37  H1  UNL     1     -11.857   8.726  72.513  1.00  0.00     0.000 HD 
HETATM   38  H2  UNL     1     -10.485   8.005  71.834  1.00  0.00     0.000 HD 
HETATM   39  C   UNL     1     -11.912  12.008  70.145  1.00  0.00    -0.321 C  
HETATM   40  C   UNL     1     -11.435  11.717  68.699  1.00  0.00    -0.290 C  
HETATM   41  N   UNL     1     -13.128  12.850  70.156  1.00  0.00     0.600 NA 
HETATM   42  H2  UNL     1     -13.494  12.996  71.097  1.00  0.00     0.000 HD 
HETATM   43  H1  UNL     1     -12.920  13.726  69.677  1.00  0.00     0.000 HD 
BRANCH  40  44
HETATM   44  O   UNL     1     -11.114  12.993  68.093  1.00  0.00    -0.234 OA 
BRANCH  44  45
HETATM   45  C   UNL     1      -9.921  13.018  67.305  1.00  0.00    -0.232 C  
HETATM   46  O   UNL     1     -10.171  12.613  65.956  1.00  0.00    -0.260 OA 
HETATM   47  C   UNL     1     -11.034  13.508  65.240  1.00  0.00    -0.295 C  
HETATM   48  C   UNL     1     -10.462  14.933  65.196  1.00  0.00    -0.417 C  
HETATM   49  H1  UNL     1      -8.583  15.824  68.780  1.00  0.00     0.000 HD 
HETATM   50  O   UNL     1     -11.338  15.851  64.528  1.00  0.00    -0.629 OA 
HETATM   51  H2  UNL     1      -8.423  14.217  69.239  1.00  0.00     0.000 HD 
HETATM   52  C   UNL     1     -10.196  15.432  66.624  1.00  0.00    -0.277 C  
HETATM   53  H   UNL     1     -10.984  16.732  64.501  1.00  0.00     0.000 HD 
HETATM   54  O   UNL     1      -9.568  16.724  66.576  1.00  0.00    -0.241 OA 
HETATM   55  C   UNL     1      -9.285  14.434  67.362  1.00  0.00    -0.198 C  
HETATM   56  N   UNL     1      -9.001  14.894  68.743  1.00  0.00    -0.184 NA 
HETATM   57  H   UNL     1      -9.404  17.032  67.459  1.00  0.00     0.000 HD 
BRANCH  47  58
HETATM   58  C   UNL     1     -11.297  12.911  63.839  1.00  0.00    -0.436 C  
HETATM   59  H1  UNL     1     -12.765  11.842  62.769  1.00  0.00     0.000 HD 
HETATM   60  N   UNL     1     -12.592  12.236  63.694  1.00  0.00    -0.738 NA 
HETATM   61  H2  UNL     1     -13.350  12.864  63.960  1.00  0.00     0.000 HD 
ENDBRANCH  47  58
ENDBRANCH  44  45
ENDBRANCH  40  44
ENDBRANCH  29  30
ENDBRANCH  22  29
ENDBRANCH  18  19
ENDBRANCH   7  18
ENDBRANCH   2   5
TORSDOF 9
ENDMDL
MODEL      192
REMARK 921   NORMALIZED FREE ENERGY PREDICTED BY IDOCK:   -3.74 KCAL/MOL
REMARK 922        TOTAL FREE ENERGY PREDICTED BY IDOCK:   -8.52 KCAL/MOL
REMARK 923 INTER-LIGAND FREE ENERGY PREDICTED BY IDOCK:   -6.54 KCAL/MOL
REMARK 924 INTRA-LIGAND FREE ENERGY PREDICTED BY IDOCK:   -1.98 KCAL/MOL
REMARK 927      BINDING AFFINITY PREDICTED BY RF-SCORE:    0.00 PKD
ROOT
HETATM    1  N   UNL     1      -7.625   2.774  73.741  1.00  0.00    -0.050 NA 
HETATM    2  C   UNL     1      -8.364   3.118  72.523  1.00  0.00    -0.075 C  
HETATM    3  H1  UNL     1      -7.898   1.899  74.187  1.00  0.00     0.000 HD 
HETATM    4  H2  UNL     1      -7.682   3.540  74.412  1.00  0.00     0.000 HD 
ENDROOT
BRANCH   2   5
HETATM    5  C   UNL     1      -7.949   4.451  71.845  1.00  0.00    -0.097 C  
HETATM    6  O   UNL     1      -8.742   4.784  70.676  1.00  0.00    -0.104 OA 
HETATM    7  C   UNL     1      -8.384   6.086  70.181  1.00  0.00    -0.120 C  
HETATM    8  C   UNL     1      -6.894   6.100  69.707  1.00  0.00    -0.068 C  
HETATM    9  O   UNL     1      -6.285   3.227  70.550  1.00  0.00    -0.022 OA 
HETATM   10  H   UNL     1      -5.369   3.154  70.308  1.00  0.00     0.000 HD 
HETATM   11  N   UNL     1      -6.725   5.244  68.486  1.00  0.00    -0.052 NA 
HETATM   12  C   UNL     1      -5.965   5.645  70.831  1.00  0.00    -0.029 C  
HETATM   13  H2  UNL     1      -7.364   5.516  67.739  1.00  0.00     0.000 HD 
HETATM   14  O   UNL     1      -5.805   6.654  71.837  1.00  0.00    -0.036 OA 
HETATM   15  C   UNL     1      -6.455   4.331  71.452  1.00  0.00    -0.019 C  
HETATM   16  H1  UNL     1      -5.754   5.253  68.177  1.00  0.00     0.000 HD 
HETATM   17  H   UNL     1      -5.226   6.371  72.537  1.00  0.00     0.000 HD 
BRANCH   7  18
HETATM   18  O   UNL     1      -9.072   6.461  69.000  1.00  0.00    -0.131 OA 
BRANCH  18  19
HETATM   19  C   UNL     1      -9.042   7.809  68.550  1.00  0.00    -0.132 C  
HETATM   20  O   UNL     1      -8.542   6.824  66.327  1.00  0.00    -0.127 OA 
HETATM   21  C   UNL     1     -10.497   8.242  68.767  1.00  0.00    -0.177 C  
HETATM   22  C   UNL     1     -10.126   8.677  66.538  1.00  0.00    -0.269 C  
HETATM   23  H   UNL     1      -8.399   6.969  65.399  1.00  0.00     0.000 HD 
HETATM   24  O   UNL     1     -11.124   8.265  67.474  1.00  0.00     0.027 OA 
HETATM   25  C   UNL     1      -8.809   8.045  67.042  1.00  0.00    -0.133 C  
BRANCH  21  26
HETATM   26  C   UNL     1     -10.645   9.578  69.500  1.00  0.00    -0.221 C  
HETATM   27  H   UNL     1      -9.699  10.620  70.903  1.00  0.00     0.000 HD 
HETATM   28  O   UNL     1      -9.608   9.791  70.448  1.00  0.00    -0.252 OA 
ENDBRANCH  21  26
BRANCH  22  29
HETATM   29  O   UNL     1     -10.052  10.108  66.483  1.00  0.00    -0.215 OA 
BRANCH  29  30
HETATM   30  C   UNL     1      -8.871  10.698  65.841  1.00  0.00    -0.174 C  
HETATM   31  C   UNL     1      -8.528   9.949  64.528  1.00  0.00    -0.175 C  
HETATM   32  O   UNL     1      -9.228  10.581  63.434  1.00  0.00    -0.221 OA 
HETATM   33  C   UNL     1      -7.054   9.828  64.108  1.00  0.00    -0.126 C  
HETATM   34  C   UNL     1      -6.078   9.868  65.269  1.00  0.00    -0.091 C  
HETATM   35  N   UNL     1      -6.847   8.557  63.366  1.00  0.00    -0.088 NA 
HETATM   36  H   UNL     1      -9.017  10.122  62.629  1.00  0.00     0.000 HD 
HETATM   37  H1  UNL     1      -5.869   8.477  63.088  1.00  0.00     0.000 HD 
HETATM   38  H2  UNL     1      -7.481   8.468  62.572  1.00  0.00     0.000 HD 
HETATM   39  C   UNL     1      -6.341  11.099  66.135  1.00  0.00    -0.056 C  
HETATM   40  C   UNL     1      -7.713  10.959  66.844  1.00  0.00    -0.135 C  
HETATM   41  N   UNL     1      -5.237  11.233  67.110  1.00  0.00    -0.053 NA 
HETATM   42  H2  UNL     1      -4.321  11.258  66.663  1.00  0.00     0.000 HD 
HETATM   43  H1  UNL     1      -5.414  12.055  67.688  1.00  0.00     0.000 HD 
BRANCH  40  44
HETATM   44  O   UNL     1      -7.921  12.173  67.607  1.00  0.00    -0.136 OA 
BRANCH  44  45
HETATM   45  C   UNL     1      -8.429  13.285  66.866  1.00  0.00    -0.060 C  
HETATM   46  O   UNL     1      -9.855  13.361  66.939  1.00  0.00    -0.242 OA 
HETATM   47  C   UNL     1     -10.348  13.618  68.261  1.00  0.00    -0.251 C  
HETATM   48  C   UNL     1      -9.787  14.929  68.831  1.00  0.00    -0.230 C  
HETATM   49  H1  UNL     1      -5.850  15.429  67.638  1.00  0.00     0.000 HD 
HETATM   50  O   UNL     1     -10.230  15.174  70.173  1.00  0.00    -0.477 OA 
HETATM   51  H2  UNL     1      -5.967  14.340  66.365  1.00  0.00     0.000 HD 
HETATM   52  C   UNL     1      -8.252  14.895  68.801  1.00  0.00    -0.161 C  
HETATM   53  H   UNL     1      -9.883  15.986  70.525  1.00  0.00     0.000 HD 
HETATM   54  O   UNL     1      -7.731  16.162  69.240  1.00  0.00    -0.229 OA 
HETATM   55  C   UNL     1      -7.766  14.597  67.371  1.00  0.00    -0.201 C  
HETATM   56  N   UNL     1      -6.285  14.568  67.307  1.00  0.00    -0.235 NA 
HETATM   57  H   UNL     1      -6.781  16.140  69.221  1.00  0.00     0.000 HD 
BRANCH  47  58
HETATM   58  C   UNL     1     -11.893  13.581  68.219  1.00  0.00    -0.366 C  
HETATM   59  H1  UNL     1     -13.514  14.311  67.086  1.00  0.00     0.000 HD 
HETATM   60  N   UNL     1     -12.494  14.335  67.113  1.00  0.00    -0.537 NA 
HETATM   61  H2  UNL     1     -12.108  14.023  66.221  1.00  0.00     0.000 HD 
ENDBRANCH  47  58
ENDBRANCH  44  45
ENDBRANCH  40  44
ENDBRANCH  29  30
ENDBRANCH  22  29
ENDBRANCH  18  19
ENDBRANCH   7  18
ENDBRANCH   2   5
TORSDOF 9
ENDMDL
MODEL      193
REMARK 921   NORMALIZED FREE ENERGY PREDICTED BY IDOCK:   -3.73 KCAL/MOL
REMARK 922        TOTAL FREE ENERGY PREDICTED BY IDOCK:   -8.51 KCAL/MOL
REMARK 923 INTER-LIGAND FREE ENERGY PREDICTED BY IDOCK:   -9.29 KCAL/MOL
REMARK 924 INTRA-LIGAND FREE ENERGY PREDICTED BY IDOCK:    0.77 KCAL/MOL
REMARK 927      BINDING AFFINITY PREDICTED BY RF-SCORE:    0.00 PKD
ROOT
HETATM    1  N   UNL     1      -6.115   9.822  68.175  1.00  0.00    -0.050 NA 
HETATM    2  C   UNL     1      -7.139   9.080  68.915  1.00  0.00    -0.069 C  
HETATM    3  H1  UNL     1      -5.195   9.856  68.614  1.00  0.00     0.000 HD 
HETATM    4  H2  UNL     1      -6.442  10.767  67.979  1.00  0.00     0.000 HD 
ENDROOT
BRANCH   2   5
HETATM    5  C   UNL     1      -8.538   9.029  68.247  1.00  0.00    -0.130 C  
HETATM    6  O   UNL     1      -8.846  10.198  67.444  1.00  0.00    -0.131 OA 
HETATM    7  C   UNL     1     -10.099  10.022  66.759  1.00  0.00    -0.226 C  
HETATM    8  C   UNL     1     -11.270   9.887  67.787  1.00  0.00    -0.003 C  
HETATM    9  O   UNL     1      -9.497   9.986  70.274  1.00  0.00    -0.380 OA 
HETATM   10  H   UNL     1     -10.142   9.890  70.965  1.00  0.00     0.000 HD 
HETATM   11  N   UNL     1     -11.486  11.186  68.506  1.00  0.00    -0.277 NA 
HETATM   12  C   UNL     1     -10.996   8.751  68.772  1.00  0.00     0.128 C  
HETATM   13  H2  UNL     1     -11.637  11.959  67.859  1.00  0.00     0.000 HD 
HETATM   14  O   UNL     1     -11.183   7.462  68.171  1.00  0.00    -0.453 OA 
HETATM   15  C   UNL     1      -9.591   8.871  69.373  1.00  0.00    -0.163 C  
HETATM   16  H1  UNL     1     -12.249  11.098  69.177  1.00  0.00     0.000 HD 
HETATM   17  H   UNL     1     -11.013   6.756  68.784  1.00  0.00     0.000 HD 
BRANCH   7  18
HETATM   18  O   UNL     1     -10.502  11.148  66.000  1.00  0.00    -0.251 OA 
BRANCH  18  19
HETATM   19  C   UNL     1     -10.632  12.422  66.617  1.00  0.00    -0.231 C  
HETATM   20  O   UNL     1      -8.164  12.539  66.389  1.00  0.00    -0.393 OA 
HETATM   21  C   UNL     1     -11.430  13.199  65.564  1.00  0.00    -0.315 C  
HETATM   22  C   UNL     1      -9.553  14.490  65.888  1.00  0.00    -0.247 C  
HETATM   23  H   UNL     1      -7.371  13.052  66.497  1.00  0.00     0.000 HD 
HETATM   24  O   UNL     1     -10.505  14.080  64.905  1.00  0.00    -0.393 OA 
HETATM   25  C   UNL     1      -9.345  13.255  66.794  1.00  0.00    -0.252 C  
BRANCH  21  26
HETATM   26  C   UNL     1     -12.636  13.954  66.130  1.00  0.00    -0.380 C  
HETATM   27  H   UNL     1     -14.132  15.082  65.467  1.00  0.00     0.000 HD 
HETATM   28  O   UNL     1     -13.384  14.614  65.116  1.00  0.00    -0.304 OA 
ENDBRANCH  21  26
BRANCH  22  29
HETATM   29  O   UNL     1     -10.045  15.620  66.621  1.00  0.00    -0.257 OA 
BRANCH  29  30
HETATM   30  C   UNL     1      -9.056  16.584  67.119  1.00  0.00    -0.213 C  
HETATM   31  C   UNL     1      -9.496  18.036  66.798  1.00  0.00    -0.293 C  
HETATM   32  O   UNL     1     -10.287  18.537  67.898  1.00  0.00    -0.363 OA 
HETATM   33  C   UNL     1      -8.415  19.090  66.506  1.00  0.00    -0.314 C  
HETATM   34  C   UNL     1      -7.130  18.512  65.940  1.00  0.00    -0.287 C  
HETATM   35  N   UNL     1      -8.940  20.093  65.545  1.00  0.00    -0.405 NA 
HETATM   36  H   UNL     1     -10.556  19.427  67.700  1.00  0.00     0.000 HD 
HETATM   37  H1  UNL     1      -8.223  20.792  65.352  1.00  0.00     0.000 HD 
HETATM   38  H2  UNL     1      -9.810  20.516  65.868  1.00  0.00     0.000 HD 
HETATM   39  C   UNL     1      -6.622  17.383  66.835  1.00  0.00    -0.189 C  
HETATM   40  C   UNL     1      -7.597  16.180  66.769  1.00  0.00    -0.233 C  
HETATM   41  N   UNL     1      -5.263  17.006  66.390  1.00  0.00    -0.358 NA 
HETATM   42  H2  UNL     1      -4.625  17.801  66.363  1.00  0.00     0.000 HD 
HETATM   43  H1  UNL     1      -4.924  16.252  66.988  1.00  0.00     0.000 HD 
BRANCH  40  44
HETATM   44  O   UNL     1      -7.084  15.169  67.671  1.00  0.00    -0.152 OA 
BRANCH  44  45
HETATM   45  C   UNL     1      -5.665  15.166  67.849  1.00  0.00    -0.135 C  
HETATM   46  O   UNL     1      -5.261  16.070  68.881  1.00  0.00    -0.105 OA 
HETATM   47  C   UNL     1      -5.737  15.702  70.183  1.00  0.00    -0.151 C  
HETATM   48  C   UNL     1      -5.261  14.299  70.586  1.00  0.00    -0.116 C  
HETATM   49  H1  UNL     1      -5.247  11.798  67.282  1.00  0.00     0.000 HD 
HETATM   50  O   UNL     1      -5.772  13.896  71.864  1.00  0.00    -0.317 OA 
HETATM   51  H2  UNL     1      -5.252  13.058  66.173  1.00  0.00     0.000 HD 
HETATM   52  C   UNL     1      -5.691  13.277  69.522  1.00  0.00    -0.094 C  
HETATM   53  H   UNL     1      -5.478  13.027  72.113  1.00  0.00     0.000 HD 
HETATM   54  O   UNL     1      -5.157  11.983  69.850  1.00  0.00    -0.070 OA 
HETATM   55  C   UNL     1      -5.177  13.720  68.139  1.00  0.00    -0.109 C  
HETATM   56  N   UNL     1      -5.568  12.747  67.091  1.00  0.00    -0.345 NA 
HETATM   57  H   UNL     1      -5.423  11.352  69.192  1.00  0.00     0.000 HD 
BRANCH  47  58
HETATM   58  C   UNL     1      -5.314  16.802  71.183  1.00  0.00    -0.000 C  
HETATM   59  H1  UNL     1      -4.901  18.868  71.261  1.00  0.00     0.000 HD 
HETATM   60  N   UNL     1      -5.181  18.142  70.600  1.00  0.00    -0.259 NA 
HETATM   61  H2  UNL     1      -6.043  18.409  70.124  1.00  0.00     0.000 HD 
ENDBRANCH  47  58
ENDBRANCH  44  45
ENDBRANCH  40  44
ENDBRANCH  29  30
ENDBRANCH  22  29
ENDBRANCH  18  19
ENDBRANCH   7  18
ENDBRANCH   2   5
TORSDOF 9
ENDMDL
MODEL      194
REMARK 921   NORMALIZED FREE ENERGY PREDICTED BY IDOCK:   -3.68 KCAL/MOL
REMARK 922        TOTAL FREE ENERGY PREDICTED BY IDOCK:   -8.44 KCAL/MOL
REMARK 923 INTER-LIGAND FREE ENERGY PREDICTED BY IDOCK:   -7.91 KCAL/MOL
REMARK 924 INTRA-LIGAND FREE ENERGY PREDICTED BY IDOCK:   -0.53 KCAL/MOL
REMARK 927      BINDING AFFINITY PREDICTED BY RF-SCORE:    0.00 PKD
ROOT
HETATM    1  N   UNL     1     -10.153   4.655  67.379  1.00  0.00    -0.137 NA 
HETATM    2  C   UNL     1      -9.851   4.046  66.081  1.00  0.00    -0.162 C  
HETATM    3  H1  UNL     1     -11.108   4.527  67.711  1.00  0.00     0.000 HD 
HETATM    4  H2  UNL     1      -9.920   5.648  67.362  1.00  0.00     0.000 HD 
ENDROOT
BRANCH   2   5
HETATM    5  C   UNL     1      -8.397   4.242  65.575  1.00  0.00    -0.110 C  
HETATM    6  O   UNL     1      -7.841   5.547  65.882  1.00  0.00    -0.100 OA 
HETATM    7  C   UNL     1      -6.457   5.608  65.497  1.00  0.00    -0.039 C  
HETATM    8  C   UNL     1      -6.312   5.433  63.950  1.00  0.00    -0.022 C  
HETATM    9  O   UNL     1      -9.285   4.964  63.423  1.00  0.00    -0.332 OA 
HETATM   10  H   UNL     1      -9.286   4.827  62.482  1.00  0.00     0.000 HD 
HETATM   11  N   UNL     1      -6.888   6.619  63.234  1.00  0.00    -0.045 NA 
HETATM   12  C   UNL     1      -6.974   4.136  63.488  1.00  0.00    -0.045 C  
HETATM   13  H2  UNL     1      -6.478   7.495  63.558  1.00  0.00     0.000 HD 
HETATM   14  O   UNL     1      -6.197   2.982  63.835  1.00  0.00    -0.017 OA 
HETATM   15  C   UNL     1      -8.399   4.018  64.042  1.00  0.00    -0.094 C  
HETATM   16  H1  UNL     1      -6.794   6.505  62.225  1.00  0.00     0.000 HD 
HETATM   17  H   UNL     1      -6.609   2.175  63.548  1.00  0.00     0.000 HD 
BRANCH   7  18
HETATM   18  O   UNL     1      -5.856   6.873  65.708  1.00  0.00    -0.033 OA 
BRANCH  18  19
HETATM   19  C   UNL     1      -6.637   7.975  66.150  1.00  0.00    -0.047 C  
HETATM   20  O   UNL     1      -6.773   6.736  68.296  1.00  0.00    -0.062 OA 
HETATM   21  C   UNL     1      -5.615   9.118  66.111  1.00  0.00    -0.048 C  
HETATM   22  C   UNL     1      -6.390   9.153  68.277  1.00  0.00    -0.054 C  
HETATM   23  H   UNL     1      -7.067   6.726  69.199  1.00  0.00     0.000 HD 
HETATM   24  O   UNL     1      -5.234   9.383  67.471  1.00  0.00    -0.036 OA 
HETATM   25  C   UNL     1      -7.116   7.958  67.617  1.00  0.00    -0.083 C  
BRANCH  21  26
HETATM   26  C   UNL     1      -6.117  10.377  65.400  1.00  0.00    -0.132 C  
HETATM   27  H   UNL     1      -5.463  12.202  64.963  1.00  0.00     0.000 HD 
HETATM   28  O   UNL     1      -5.152  11.421  65.404  1.00  0.00    -0.287 OA 
ENDBRANCH  21  26
BRANCH  22  29
HETATM   29  O   UNL     1      -7.212  10.327  68.321  1.00  0.00    -0.081 OA 
BRANCH  29  30
HETATM   30  C   UNL     1      -8.195  10.422  69.406  1.00  0.00    -0.151 C  
HETATM   31  C   UNL     1      -7.982   9.287  70.441  1.00  0.00    -0.156 C  
HETATM   32  O   UNL     1      -7.068   9.750  71.459  1.00  0.00    -0.259 OA 
HETATM   33  C   UNL     1      -9.207   8.708  71.168  1.00  0.00    -0.213 C  
HETATM   34  C   UNL     1     -10.501   8.825  70.383  1.00  0.00    -0.240 C  
HETATM   35  N   UNL     1      -8.975   7.274  71.477  1.00  0.00    -0.130 NA 
HETATM   36  H   UNL     1      -6.937   9.055  72.093  1.00  0.00     0.000 HD 
HETATM   37  H1  UNL     1      -9.787   6.890  71.960  1.00  0.00     0.000 HD 
HETATM   38  H2  UNL     1      -8.113   7.129  72.003  1.00  0.00     0.000 HD 
HETATM   39  C   UNL     1     -10.714  10.270  69.933  1.00  0.00    -0.294 C  
HETATM   40  C   UNL     1      -9.640  10.658  68.885  1.00  0.00    -0.196 C  
HETATM   41  N   UNL     1     -12.081  10.393  69.382  1.00  0.00    -0.538 NA 
HETATM   42  H2  UNL     1     -12.797  10.077  70.036  1.00  0.00     0.000 HD 
HETATM   43  H1  UNL     1     -12.223  11.358  69.082  1.00  0.00     0.000 HD 
BRANCH  40  44
HETATM   44  O   UNL     1      -9.870  12.046  68.538  1.00  0.00    -0.209 OA 
BRANCH  44  45
HETATM   45  C   UNL     1     -11.136  12.327  67.933  1.00  0.00    -0.243 C  
HETATM   46  O   UNL     1     -11.694  13.550  68.421  1.00  0.00    -0.315 OA 
HETATM   47  C   UNL     1     -10.922  14.709  68.077  1.00  0.00    -0.267 C  
HETATM   48  C   UNL     1     -10.758  14.851  66.557  1.00  0.00    -0.309 C  
HETATM   49  H1  UNL     1     -10.313  11.115  64.820  1.00  0.00     0.000 HD 
HETATM   50  O   UNL     1      -9.944  15.977  66.199  1.00  0.00    -0.282 OA 
HETATM   51  H2  UNL     1     -10.959  10.291  66.132  1.00  0.00     0.000 HD 
HETATM   52  C   UNL     1     -10.136  13.571  65.979  1.00  0.00    -0.310 C  
HETATM   53  H   UNL     1      -9.843  16.064  65.258  1.00  0.00     0.000 HD 
HETATM   54  O   UNL     1     -10.077  13.666  64.545  1.00  0.00    -0.612 OA 
HETATM   55  C   UNL     1     -10.983  12.351  66.387  1.00  0.00    -0.276 C  
HETATM   56  N   UNL     1     -10.413  11.100  65.834  1.00  0.00    -0.257 NA 
HETATM   57  H   UNL     1      -9.693  12.875  64.188  1.00  0.00     0.000 HD 
BRANCH  47  58
HETATM   58  C   UNL     1     -11.577  15.943  68.739  1.00  0.00    -0.386 C  
HETATM   59  H1  UNL     1     -11.116  17.909  69.345  1.00  0.00     0.000 HD 
HETATM   60  N   UNL     1     -10.683  17.094  68.908  1.00  0.00    -0.302 NA 
HETATM   61  H2  UNL     1     -10.265  17.352  68.013  1.00  0.00     0.000 HD 
ENDBRANCH  47  58
ENDBRANCH  44  45
ENDBRANCH  40  44
ENDBRANCH  29  30
ENDBRANCH  22  29
ENDBRANCH  18  19
ENDBRANCH   7  18
ENDBRANCH   2   5
TORSDOF 9
ENDMDL
MODEL      195
REMARK 921   NORMALIZED FREE ENERGY PREDICTED BY IDOCK:   -3.68 KCAL/MOL
REMARK 922        TOTAL FREE ENERGY PREDICTED BY IDOCK:   -8.43 KCAL/MOL
REMARK 923 INTER-LIGAND FREE ENERGY PREDICTED BY IDOCK:   -7.63 KCAL/MOL
REMARK 924 INTRA-LIGAND FREE ENERGY PREDICTED BY IDOCK:   -0.80 KCAL/MOL
REMARK 927      BINDING AFFINITY PREDICTED BY RF-SCORE:    0.00 PKD
ROOT
HETATM    1  N   UNL     1     -10.269  20.304  68.522  1.00  0.00    -0.271 NA 
HETATM    2  C   UNL     1     -10.110  20.470  67.074  1.00  0.00    -0.276 C  
HETATM    3  H1  UNL     1     -10.985  20.886  68.954  1.00  0.00     0.000 HD 
HETATM    4  H2  UNL     1      -9.374  20.447  68.990  1.00  0.00     0.000 HD 
ENDROOT
BRANCH   2   5
HETATM    5  C   UNL     1      -9.019  19.584  66.417  1.00  0.00    -0.370 C  
HETATM    6  O   UNL     1      -8.960  18.236  66.951  1.00  0.00    -0.264 OA 
HETATM    7  C   UNL     1      -8.018  17.442  66.210  1.00  0.00    -0.279 C  
HETATM    8  C   UNL     1      -6.575  18.025  66.359  1.00  0.00    -0.221 C  
HETATM    9  O   UNL     1      -7.404  20.449  68.025  1.00  0.00    -0.283 OA 
HETATM   10  H   UNL     1      -6.567  20.883  68.150  1.00  0.00     0.000 HD 
HETATM   11  N   UNL     1      -6.086  17.858  67.768  1.00  0.00    -0.153 NA 
HETATM   12  C   UNL     1      -6.538  19.493  65.935  1.00  0.00    -0.230 C  
HETATM   13  H2  UNL     1      -6.136  16.886  68.075  1.00  0.00     0.000 HD 
HETATM   14  O   UNL     1      -6.607  19.643  64.511  1.00  0.00    -0.362 OA 
HETATM   15  C   UNL     1      -7.655  20.291  66.620  1.00  0.00    -0.265 C  
HETATM   16  H1  UNL     1      -5.145  18.238  67.865  1.00  0.00     0.000 HD 
HETATM   17  H   UNL     1      -6.585  20.556  64.247  1.00  0.00     0.000 HD 
BRANCH   7  18
HETATM   18  O   UNL     1      -7.856  16.126  66.709  1.00  0.00    -0.218 OA 
BRANCH  18  19
HETATM   19  C   UNL     1      -8.963  15.237  66.765  1.00  0.00    -0.262 C  
HETATM   20  O   UNL     1      -7.250  13.445  66.663  1.00  0.00    -0.067 OA 
HETATM   21  C   UNL     1      -9.529  15.531  68.160  1.00  0.00    -0.198 C  
HETATM   22  C   UNL     1      -9.152  13.261  68.191  1.00  0.00    -0.207 C  
HETATM   23  H   UNL     1      -7.059  12.514  66.687  1.00  0.00     0.000 HD 
HETATM   24  O   UNL     1      -9.144  14.434  69.006  1.00  0.00    -0.123 OA 
HETATM   25  C   UNL     1      -8.654  13.725  66.804  1.00  0.00    -0.035 C  
BRANCH  21  26
HETATM   26  C   UNL     1     -11.042  15.767  68.180  1.00  0.00    -0.341 C  
HETATM   27  H   UNL     1     -12.567  15.761  66.907  1.00  0.00     0.000 HD 
HETATM   28  O   UNL     1     -11.629  15.614  66.895  1.00  0.00    -0.032 OA 
ENDBRANCH  21  26
BRANCH  22  29
HETATM   29  O   UNL     1     -10.470  12.701  68.133  1.00  0.00    -0.217 OA 
BRANCH  29  30
HETATM   30  C   UNL     1     -10.626  11.298  68.539  1.00  0.00    -0.199 C  
HETATM   31  C   UNL     1     -11.747  11.157  69.602  1.00  0.00    -0.339 C  
HETATM   32  O   UNL     1     -13.002  10.924  68.927  1.00  0.00    -0.160 OA 
HETATM   33  C   UNL     1     -11.610  10.072  70.683  1.00  0.00    -0.340 C  
HETATM   34  C   UNL     1     -10.173   9.696  70.998  1.00  0.00    -0.252 C  
HETATM   35  N   UNL     1     -12.260  10.530  71.937  1.00  0.00    -0.065 NA 
HETATM   36  H   UNL     1     -13.688  10.837  69.578  1.00  0.00     0.000 HD 
HETATM   37  H1  UNL     1     -12.169   9.810  72.654  1.00  0.00     0.000 HD 
HETATM   38  H2  UNL     1     -13.231  10.803  71.789  1.00  0.00     0.000 HD 
HETATM   39  C   UNL     1      -9.429   9.340  69.712  1.00  0.00    -0.191 C  
HETATM   40  C   UNL     1      -9.266  10.605  68.832  1.00  0.00    -0.183 C  
HETATM   41  N   UNL     1      -8.118   8.759  70.074  1.00  0.00    -0.104 NA 
HETATM   42  H2  UNL     1      -8.203   7.965  70.709  1.00  0.00     0.000 HD 
HETATM   43  H1  UNL     1      -7.621   8.521  69.215  1.00  0.00     0.000 HD 
BRANCH  40  44
HETATM   44  O   UNL     1      -8.598  10.191  67.615  1.00  0.00    -0.118 OA 
BRANCH  44  45
HETATM   45  C   UNL     1      -7.453   9.353  67.796  1.00  0.00    -0.087 C  
HETATM   46  O   UNL     1      -7.664   8.047  67.255  1.00  0.00    -0.098 OA 
HETATM   47  C   UNL     1      -7.832   8.037  65.830  1.00  0.00    -0.099 C  
HETATM   48  C   UNL     1      -6.617   8.644  65.112  1.00  0.00    -0.064 C  
HETATM   49  H1  UNL     1      -5.120  11.832  67.294  1.00  0.00     0.000 HD 
HETATM   50  O   UNL     1      -6.792   8.689  63.689  1.00  0.00    -0.087 OA 
HETATM   51  H2  UNL     1      -5.869  11.367  68.723  1.00  0.00     0.000 HD 
HETATM   52  C   UNL     1      -6.357  10.064  65.637  1.00  0.00    -0.094 C  
HETATM   53  H   UNL     1      -6.041   9.064  63.245  1.00  0.00     0.000 HD 
HETATM   54  O   UNL     1      -5.161  10.590  65.037  1.00  0.00    -0.107 OA 
HETATM   55  C   UNL     1      -6.203  10.031  67.169  1.00  0.00    -0.066 C  
HETATM   56  N   UNL     1      -5.940  11.388  67.706  1.00  0.00    -0.047 NA 
HETATM   57  H   UNL     1      -5.000  11.468  65.363  1.00  0.00     0.000 HD 
BRANCH  47  58
HETATM   58  C   UNL     1      -8.144   6.590  65.388  1.00  0.00    -0.129 C  
HETATM   59  H1  UNL     1      -9.066   4.829  66.091  1.00  0.00     0.000 HD 
HETATM   60  N   UNL     1      -8.861   5.785  66.384  1.00  0.00    -0.127 NA 
HETATM   61  H2  UNL     1      -9.717   6.260  66.673  1.00  0.00     0.000 HD 
ENDBRANCH  47  58
ENDBRANCH  44  45
ENDBRANCH  40  44
ENDBRANCH  29  30
ENDBRANCH  22  29
ENDBRANCH  18  19
ENDBRANCH   7  18
ENDBRANCH   2   5
TORSDOF 9
ENDMDL
MODEL      196
REMARK 921   NORMALIZED FREE ENERGY PREDICTED BY IDOCK:   -3.68 KCAL/MOL
REMARK 922        TOTAL FREE ENERGY PREDICTED BY IDOCK:   -8.43 KCAL/MOL
REMARK 923 INTER-LIGAND FREE ENERGY PREDICTED BY IDOCK:   -8.37 KCAL/MOL
REMARK 924 INTRA-LIGAND FREE ENERGY PREDICTED BY IDOCK:   -0.06 KCAL/MOL
REMARK 927      BINDING AFFINITY PREDICTED BY RF-SCORE:    0.00 PKD
ROOT
HETATM    1  N   UNL     1      -7.577  20.482  65.531  1.00  0.00    -0.512 NA 
HETATM    2  C   UNL     1      -7.103  19.390  66.386  1.00  0.00    -0.229 C  
HETATM    3  H1  UNL     1      -6.907  20.822  64.842  1.00  0.00     0.000 HD 
HETATM    4  H2  UNL     1      -7.910  21.256  66.106  1.00  0.00     0.000 HD 
ENDROOT
BRANCH   2   5
HETATM    5  C   UNL     1      -8.122  18.872  67.434  1.00  0.00    -0.261 C  
HETATM    6  O   UNL     1      -8.273  17.429  67.440  1.00  0.00    -0.197 OA 
HETATM    7  C   UNL     1      -9.134  17.018  68.517  1.00  0.00    -0.259 C  
HETATM    8  C   UNL     1     -10.572  17.598  68.319  1.00  0.00    -0.339 C  
HETATM    9  O   UNL     1      -9.905  19.199  65.803  1.00  0.00    -0.443 OA 
HETATM   10  H   UNL     1     -10.741  19.610  65.618  1.00  0.00     0.000 HD 
HETATM   11  N   UNL     1     -11.233  16.965  67.130  1.00  0.00     0.162 NA 
HETATM   12  C   UNL     1     -10.527  19.119  68.177  1.00  0.00    -0.338 C  
HETATM   13  H2  UNL     1     -11.240  15.947  67.197  1.00  0.00     0.000 HD 
HETATM   14  O   UNL     1     -10.281  19.769  69.431  1.00  0.00    -0.641 OA 
HETATM   15  C   UNL     1      -9.486  19.543  67.133  1.00  0.00    -0.332 C  
HETATM   16  H1  UNL     1     -12.171  17.343  67.001  1.00  0.00     0.000 HD 
HETATM   17  H   UNL     1     -10.252  20.715  69.343  1.00  0.00     0.000 HD 
BRANCH   7  18
HETATM   18  O   UNL     1      -9.383  15.623  68.555  1.00  0.00    -0.187 OA 
BRANCH  18  19
HETATM   19  C   UNL     1      -9.062  14.806  67.437  1.00  0.00    -0.195 C  
HETATM   20  O   UNL     1      -7.069  14.154  68.764  1.00  0.00    -0.096 OA 
HETATM   21  C   UNL     1     -10.218  13.799  67.445  1.00  0.00    -0.252 C  
HETATM   22  C   UNL     1      -8.340  12.473  67.521  1.00  0.00    -0.175 C  
HETATM   23  H   UNL     1      -6.293  13.609  68.832  1.00  0.00     0.000 HD 
HETATM   24  O   UNL     1      -9.694  12.565  67.965  1.00  0.00    -0.202 OA 
HETATM   25  C   UNL     1      -7.802  13.921  67.547  1.00  0.00    -0.181 C  
BRANCH  21  26
HETATM   26  C   UNL     1     -10.886  13.608  66.081  1.00  0.00    -0.279 C  
HETATM   27  H   UNL     1     -10.838  14.428  64.271  1.00  0.00     0.000 HD 
HETATM   28  O   UNL     1     -10.424  14.546  65.118  1.00  0.00    -0.364 OA 
ENDBRANCH  21  26
BRANCH  22  29
HETATM   29  O   UNL     1      -8.281  11.898  66.210  1.00  0.00    -0.030 OA 
BRANCH  29  30
HETATM   30  C   UNL     1      -7.670  10.569  66.081  1.00  0.00    -0.142 C  
HETATM   31  C   UNL     1      -6.925  10.436  64.727  1.00  0.00    -0.032 C  
HETATM   32  O   UNL     1      -5.556  10.861  64.906  1.00  0.00    -0.322 OA 
HETATM   33  C   UNL     1      -6.883   9.063  64.037  1.00  0.00    -0.088 C  
HETATM   34  C   UNL     1      -8.058   8.166  64.380  1.00  0.00    -0.138 C  
HETATM   35  N   UNL     1      -6.848   9.245  62.563  1.00  0.00    -0.092 NA 
HETATM   36  H   UNL     1      -5.100  10.780  64.076  1.00  0.00     0.000 HD 
HETATM   37  H1  UNL     1      -6.820   8.334  62.105  1.00  0.00     0.000 HD 
HETATM   38  H2  UNL     1      -6.079   9.846  62.268  1.00  0.00     0.000 HD 
HETATM   39  C   UNL     1      -8.209   8.055  65.897  1.00  0.00    -0.127 C  
HETATM   40  C   UNL     1      -8.640   9.423  66.484  1.00  0.00    -0.134 C  
HETATM   41  N   UNL     1      -9.202   7.000  66.194  1.00  0.00    -0.315 NA 
HETATM   42  H2  UNL     1      -8.968   6.108  65.758  1.00  0.00     0.000 HD 
HETATM   43  H1  UNL     1      -9.302   6.926  67.207  1.00  0.00     0.000 HD 
BRANCH  40  44
HETATM   44  O   UNL     1      -8.719   9.262  67.921  1.00  0.00    -0.124 OA 
BRANCH  44  45
HETATM   45  C   UNL     1      -9.847   8.522  68.396  1.00  0.00    -0.173 C  
HETATM   46  O   UNL     1      -9.515   7.153  68.643  1.00  0.00    -0.141 OA 
HETATM   47  C   UNL     1      -8.562   6.978  69.701  1.00  0.00    -0.134 C  
HETATM   48  C   UNL     1      -9.065   7.577  71.023  1.00  0.00    -0.148 C  
HETATM   49  H1  UNL     1     -11.166  11.073  70.292  1.00  0.00     0.000 HD 
HETATM   50  O   UNL     1      -8.101   7.455  72.078  1.00  0.00    -0.092 OA 
HETATM   51  H2  UNL     1     -11.432  10.721  68.672  1.00  0.00     0.000 HD 
HETATM   52  C   UNL     1      -9.415   9.059  70.823  1.00  0.00    -0.251 C  
HETATM   53  H   UNL     1      -8.413   7.826  72.896  1.00  0.00     0.000 HD 
HETATM   54  O   UNL     1      -9.980   9.591  72.034  1.00  0.00     0.110 OA 
HETATM   55  C   UNL     1     -10.423   9.204  69.668  1.00  0.00    -0.223 C  
HETATM   56  N   UNL     1     -10.788  10.625  69.457  1.00  0.00    -0.244 NA 
HETATM   57  H   UNL     1     -10.196  10.507  71.910  1.00  0.00     0.000 HD 
BRANCH  47  58
HETATM   58  C   UNL     1      -8.221   5.474  69.803  1.00  0.00    -0.101 C  
HETATM   59  H1  UNL     1      -8.834   3.605  69.043  1.00  0.00     0.000 HD 
HETATM   60  N   UNL     1      -9.059   4.598  68.975  1.00  0.00    -0.110 NA 
HETATM   61  H2  UNL     1      -9.035   4.902  68.001  1.00  0.00     0.000 HD 
ENDBRANCH  47  58
ENDBRANCH  44  45
ENDBRANCH  40  44
ENDBRANCH  29  30
ENDBRANCH  22  29
ENDBRANCH  18  19
ENDBRANCH   7  18
ENDBRANCH   2   5
TORSDOF 9
ENDMDL
MODEL      197
REMARK 921   NORMALIZED FREE ENERGY PREDICTED BY IDOCK:   -3.66 KCAL/MOL
REMARK 922        TOTAL FREE ENERGY PREDICTED BY IDOCK:   -8.40 KCAL/MOL
REMARK 923 INTER-LIGAND FREE ENERGY PREDICTED BY IDOCK:   -7.19 KCAL/MOL
REMARK 924 INTRA-LIGAND FREE ENERGY PREDICTED BY IDOCK:   -1.21 KCAL/MOL
REMARK 927      BINDING AFFINITY PREDICTED BY RF-SCORE:    0.00 PKD
ROOT
HETATM    1  N   UNL     1     -13.036  13.910  66.118  1.00  0.00    -0.374 NA 
HETATM    2  C   UNL     1     -12.302  14.644  67.153  1.00  0.00     0.105 C  
HETATM    3  H1  UNL     1     -14.023  13.745  66.314  1.00  0.00     0.000 HD 
HETATM    4  H2  UNL     1     -12.567  13.027  65.918  1.00  0.00     0.000 HD 
ENDROOT
BRANCH   2   5
HETATM    5  C   UNL     1     -10.801  14.895  66.855  1.00  0.00    -0.319 C  
HETATM    6  O   UNL     1      -9.919  13.878  67.397  1.00  0.00    -0.235 OA 
HETATM    7  C   UNL     1      -8.564  14.109  66.974  1.00  0.00    -0.184 C  
HETATM    8  C   UNL     1      -8.041  15.472  67.534  1.00  0.00    -0.165 C  
HETATM    9  O   UNL     1     -10.675  16.279  68.857  1.00  0.00    -0.260 OA 
HETATM   10  H   UNL     1     -10.448  17.129  69.218  1.00  0.00     0.000 HD 
HETATM   11  N   UNL     1      -7.896  15.402  69.026  1.00  0.00    -0.176 NA 
HETATM   12  C   UNL     1      -8.968  16.616  67.125  1.00  0.00    -0.210 C  
HETATM   13  H2  UNL     1      -7.306  14.622  69.315  1.00  0.00     0.000 HD 
HETATM   14  O   UNL     1      -8.816  16.962  65.742  1.00  0.00    -0.522 OA 
HETATM   15  C   UNL     1     -10.430  16.280  67.443  1.00  0.00    -0.304 C  
HETATM   16  H1  UNL     1      -7.556  16.291  69.392  1.00  0.00     0.000 HD 
HETATM   17  H   UNL     1      -9.392  17.674  65.487  1.00  0.00     0.000 HD 
BRANCH   7  18
HETATM   18  O   UNL     1      -7.628  13.192  67.512  1.00  0.00    -0.148 OA 
BRANCH  18  19
HETATM   19  C   UNL     1      -7.562  11.861  67.019  1.00  0.00    -0.134 C  
HETATM   20  O   UNL     1      -6.875  11.272  69.330  1.00  0.00    -0.106 OA 
HETATM   21  C   UNL     1      -9.030  11.581  66.675  1.00  0.00    -0.185 C  
HETATM   22  C   UNL     1      -8.472   9.874  68.113  1.00  0.00    -0.114 C  
HETATM   23  H   UNL     1      -6.654  10.589  69.952  1.00  0.00     0.000 HD 
HETATM   24  O   UNL     1      -9.545  10.725  67.708  1.00  0.00    -0.159 OA 
HETATM   25  C   UNL     1      -7.202  10.750  68.029  1.00  0.00    -0.086 C  
BRANCH  21  26
HETATM   26  C   UNL     1      -9.239  10.986  65.280  1.00  0.00    -0.207 C  
HETATM   27  H   UNL     1      -9.978  11.540  63.520  1.00  0.00     0.000 HD 
HETATM   28  O   UNL     1      -9.847  11.909  64.386  1.00  0.00    -0.241 OA 
ENDBRANCH  21  26
BRANCH  22  29
HETATM   29  O   UNL     1      -8.394   8.726  67.257  1.00  0.00    -0.104 OA 
BRANCH  29  30
HETATM   30  C   UNL     1      -7.635   7.569  67.747  1.00  0.00    -0.106 C  
HETATM   31  C   UNL     1      -6.462   7.236  66.788  1.00  0.00    -0.052 C  
HETATM   32  O   UNL     1      -5.291   7.968  67.213  1.00  0.00    -0.034 OA 
HETATM   33  C   UNL     1      -6.037   5.768  66.620  1.00  0.00    -0.026 C  
HETATM   34  C   UNL     1      -7.154   4.772  66.874  1.00  0.00    -0.075 C  
HETATM   35  N   UNL     1      -5.521   5.551  65.244  1.00  0.00    -0.013 NA 
HETATM   36  H   UNL     1      -4.573   7.764  66.625  1.00  0.00     0.000 HD 
HETATM   37  H1  UNL     1      -5.239   4.577  65.132  1.00  0.00     0.000 HD 
HETATM   38  H2  UNL     1      -4.768   6.198  65.010  1.00  0.00     0.000 HD 
HETATM   39  C   UNL     1      -7.801   5.042  68.231  1.00  0.00    -0.086 C  
HETATM   40  C   UNL     1      -8.553   6.397  68.194  1.00  0.00    -0.117 C  
HETATM   41  N   UNL     1      -8.714   3.923  68.548  1.00  0.00    -0.095 NA 
HETATM   42  H2  UNL     1      -8.250   3.016  68.510  1.00  0.00     0.000 HD 
HETATM   43  H1  UNL     1      -9.146   4.104  69.454  1.00  0.00     0.000 HD 
BRANCH  40  44
HETATM   44  O   UNL     1      -9.101   6.614  69.518  1.00  0.00    -0.143 OA 
BRANCH  44  45
HETATM   45  C   UNL     1     -10.484   6.286  69.672  1.00  0.00    -0.238 C  
HETATM   46  O   UNL     1     -10.659   5.001  70.273  1.00  0.00    -0.229 OA 
HETATM   47  C   UNL     1     -10.171   4.927  71.620  1.00  0.00    -0.197 C  
HETATM   48  C   UNL     1     -10.857   5.959  72.529  1.00  0.00    -0.247 C  
HETATM   49  H1  UNL     1     -11.516   9.477  70.443  1.00  0.00     0.000 HD 
HETATM   50  O   UNL     1     -10.342   5.933  73.867  1.00  0.00    -0.234 OA 
HETATM   51  H2  UNL     1     -11.363   8.758  68.934  1.00  0.00     0.000 HD 
HETATM   52  C   UNL     1     -10.679   7.368  71.944  1.00  0.00    -0.216 C  
HETATM   53  H   UNL     1     -10.767   6.571  74.429  1.00  0.00     0.000 HD 
HETATM   54  O   UNL     1     -11.407   8.318  72.741  1.00  0.00    -0.381 OA 
HETATM   55  C   UNL     1     -11.196   7.397  70.494  1.00  0.00    -0.274 C  
HETATM   56  N   UNL     1     -11.048   8.749  69.904  1.00  0.00    -0.180 NA 
HETATM   57  H   UNL     1     -11.298   9.189  72.379  1.00  0.00     0.000 HD 
BRANCH  47  58
HETATM   58  C   UNL     1     -10.332   3.473  72.117  1.00  0.00    -0.020 C  
HETATM   59  H1  UNL     1      -9.570   2.149  73.570  1.00  0.00     0.000 HD 
HETATM   60  N   UNL     1      -9.464   3.110  73.242  1.00  0.00    -0.092 NA 
HETATM   61  H2  UNL     1      -9.593   3.764  74.015  1.00  0.00     0.000 HD 
ENDBRANCH  47  58
ENDBRANCH  44  45
ENDBRANCH  40  44
ENDBRANCH  29  30
ENDBRANCH  22  29
ENDBRANCH  18  19
ENDBRANCH   7  18
ENDBRANCH   2   5
TORSDOF 9
ENDMDL
MODEL      198
REMARK 921   NORMALIZED FREE ENERGY PREDICTED BY IDOCK:   -3.65 KCAL/MOL
REMARK 922        TOTAL FREE ENERGY PREDICTED BY IDOCK:   -8.38 KCAL/MOL
REMARK 923 INTER-LIGAND FREE ENERGY PREDICTED BY IDOCK:   -6.09 KCAL/MOL
REMARK 924 INTRA-LIGAND FREE ENERGY PREDICTED BY IDOCK:   -2.29 KCAL/MOL
REMARK 927      BINDING AFFINITY PREDICTED BY RF-SCORE:    0.00 PKD
ROOT
HETATM    1  N   UNL     1     -13.021  14.782  66.520  1.00  0.00     0.325 NA 
HETATM    2  C   UNL     1     -11.854  14.397  67.318  1.00  0.00    -0.405 C  
HETATM    3  H1  UNL     1     -13.465  15.659  66.789  1.00  0.00     0.000 HD 
HETATM    4  H2  UNL     1     -13.708  14.029  66.520  1.00  0.00     0.000 HD 
ENDROOT
BRANCH   2   5
HETATM    5  C   UNL     1     -11.178  13.062  66.910  1.00  0.00    -0.295 C  
HETATM    6  O   UNL     1     -10.297  12.517  67.927  1.00  0.00    -0.206 OA 
HETATM    7  C   UNL     1      -9.810  11.223  67.529  1.00  0.00    -0.178 C  
HETATM    8  C   UNL     1      -8.945  11.340  66.232  1.00  0.00    -0.197 C  
HETATM    9  O   UNL     1      -9.396  14.337  65.841  1.00  0.00    -0.504 OA 
HETATM   10  H   UNL     1      -8.907  14.495  65.042  1.00  0.00     0.000 HD 
HETATM   11  N   UNL     1      -7.672  12.080  66.516  1.00  0.00    -0.385 NA 
HETATM   12  C   UNL     1      -9.737  12.017  65.113  1.00  0.00    -0.144 C  
HETATM   13  H2  UNL     1      -7.150  11.657  67.284  1.00  0.00     0.000 HD 
HETATM   14  O   UNL     1     -10.725  11.144  64.550  1.00  0.00    -0.336 OA 
HETATM   15  C   UNL     1     -10.381  13.319  65.606  1.00  0.00    -0.287 C  
HETATM   16  H1  UNL     1      -7.108  12.156  65.670  1.00  0.00     0.000 HD 
HETATM   17  H   UNL     1     -11.218  11.565  63.855  1.00  0.00     0.000 HD 
BRANCH   7  18
HETATM   18  O   UNL     1      -8.892  10.648  68.443  1.00  0.00    -0.132 OA 
BRANCH  18  19
HETATM   19  C   UNL     1      -8.979   9.269  68.776  1.00  0.00    -0.132 C  
HETATM   20  O   UNL     1      -7.825   9.929  70.872  1.00  0.00    -0.380 OA 
HETATM   21  C   UNL     1     -10.495   9.071  68.892  1.00  0.00    -0.210 C  
HETATM   22  C   UNL     1      -9.694   8.351  70.925  1.00  0.00    -0.174 C  
HETATM   23  H   UNL     1      -7.497   9.667  71.724  1.00  0.00     0.000 HD 
HETATM   24  O   UNL     1     -10.801   8.997  70.294  1.00  0.00    -0.226 OA 
HETATM   25  C   UNL     1      -8.445   8.842  70.160  1.00  0.00    -0.146 C  
BRANCH  21  26
HETATM   26  C   UNL     1     -11.023   7.855  68.125  1.00  0.00     0.189 C  
HETATM   27  H   UNL     1     -10.986   7.130  66.276  1.00  0.00     0.000 HD 
HETATM   28  O   UNL     1     -10.659   7.884  66.752  1.00  0.00    -0.326 OA 
ENDBRANCH  21  26
BRANCH  22  29
HETATM   29  O   UNL     1      -9.842   6.927  70.860  1.00  0.00    -0.185 OA 
BRANCH  29  30
HETATM   30  C   UNL     1      -8.848   6.111  71.568  1.00  0.00    -0.135 C  
HETATM   31  C   UNL     1      -8.451   6.774  72.912  1.00  0.00    -0.116 C  
HETATM   32  O   UNL     1      -9.334   6.292  73.948  1.00  0.00    -0.129 OA 
HETATM   33  C   UNL     1      -7.014   6.598  73.429  1.00  0.00    -0.076 C  
HETATM   34  C   UNL     1      -5.990   6.366  72.332  1.00  0.00    -0.038 C  
HETATM   35  N   UNL     1      -6.608   7.800  74.201  1.00  0.00    -0.094 NA 
HETATM   36  H   UNL     1      -9.091   6.699  74.772  1.00  0.00     0.000 HD 
HETATM   37  H1  UNL     1      -5.655   7.682  74.544  1.00  0.00     0.000 HD 
HETATM   38  H2  UNL     1      -7.263   8.012  74.953  1.00  0.00     0.000 HD 
HETATM   39  C   UNL     1      -6.436   5.214  71.433  1.00  0.00    -0.031 C  
HETATM   40  C   UNL     1      -7.701   5.626  70.638  1.00  0.00    -0.092 C  
HETATM   41  N   UNL     1      -5.318   4.863  70.529  1.00  0.00    -0.004 NA 
HETATM   42  H2  UNL     1      -4.457   4.655  71.035  1.00  0.00     0.000 HD 
HETATM   43  H1  UNL     1      -5.615   4.094  69.929  1.00  0.00     0.000 HD 
BRANCH  40  44
HETATM   44  O   UNL     1      -8.095   4.479  69.845  1.00  0.00    -0.066 OA 
BRANCH  44  45
HETATM   45  C   UNL     1      -8.859   4.776  68.673  1.00  0.00    -0.099 C  
HETATM   46  O   UNL     1      -8.339   5.911  67.976  1.00  0.00    -0.111 OA 
HETATM   47  C   UNL     1      -7.023   5.702  67.444  1.00  0.00    -0.065 C  
HETATM   48  C   UNL     1      -6.985   4.510  66.477  1.00  0.00    -0.062 C  
HETATM   49  H1  UNL     1      -9.491   1.500  67.829  1.00  0.00     0.000 HD 
HETATM   50  O   UNL     1      -5.665   4.257  65.976  1.00  0.00    -0.020 OA 
HETATM   51  H2  UNL     1     -10.371   2.514  68.837  1.00  0.00     0.000 HD 
HETATM   52  C   UNL     1      -7.512   3.251  67.182  1.00  0.00    -0.074 C  
HETATM   53  H   UNL     1      -5.642   3.519  65.378  1.00  0.00     0.000 HD 
HETATM   54  O   UNL     1      -7.570   2.161  66.245  1.00  0.00    -0.065 OA 
HETATM   55  C   UNL     1      -8.915   3.523  67.754  1.00  0.00    -0.140 C  
HETATM   56  N   UNL     1      -9.455   2.321  68.432  1.00  0.00    -0.203 NA 
HETATM   57  H   UNL     1      -7.896   1.382  66.681  1.00  0.00     0.000 HD 
BRANCH  47  58
HETATM   58  C   UNL     1      -6.544   7.024  66.803  1.00  0.00    -0.055 C  
HETATM   59  H1  UNL     1      -7.189   8.519  65.464  1.00  0.00     0.000 HD 
HETATM   60  N   UNL     1      -7.507   7.646  65.888  1.00  0.00    -0.080 NA 
HETATM   61  H2  UNL     1      -8.403   7.784  66.356  1.00  0.00     0.000 HD 
ENDBRANCH  47  58
ENDBRANCH  44  45
ENDBRANCH  40  44
ENDBRANCH  29  30
ENDBRANCH  22  29
ENDBRANCH  18  19
ENDBRANCH   7  18
ENDBRANCH   2   5
TORSDOF 9
ENDMDL
MODEL      199
REMARK 921   NORMALIZED FREE ENERGY PREDICTED BY IDOCK:   -3.63 KCAL/MOL
REMARK 922        TOTAL FREE ENERGY PREDICTED BY IDOCK:   -8.36 KCAL/MOL
REMARK 923 INTER-LIGAND FREE ENERGY PREDICTED BY IDOCK:   -8.59 KCAL/MOL
REMARK 924 INTRA-LIGAND FREE ENERGY PREDICTED BY IDOCK:    0.23 KCAL/MOL
REMARK 927      BINDING AFFINITY PREDICTED BY RF-SCORE:    0.00 PKD
ROOT
HETATM    1  N   UNL     1      -9.622   2.365  65.851  1.00  0.00    -0.355 NA 
HETATM    2  C   UNL     1      -8.162   2.315  65.965  1.00  0.00    -0.089 C  
HETATM    3  H1  UNL     1     -10.092   1.460  65.836  1.00  0.00     0.000 HD 
HETATM    4  H2  UNL     1      -9.890   2.911  65.033  1.00  0.00     0.000 HD 
ENDROOT
BRANCH   2   5
HETATM    5  C   UNL     1      -7.448   3.692  65.988  1.00  0.00    -0.077 C  
HETATM    6  O   UNL     1      -7.876   4.591  64.932  1.00  0.00    -0.084 OA 
HETATM    7  C   UNL     1      -7.267   5.884  65.094  1.00  0.00    -0.066 C  
HETATM    8  C   UNL     1      -5.713   5.776  64.961  1.00  0.00    -0.024 C  
HETATM    9  O   UNL     1      -5.650   2.737  64.647  1.00  0.00    -0.009 OA 
HETATM   10  H   UNL     1      -4.716   2.578  64.575  1.00  0.00     0.000 HD 
HETATM   11  N   UNL     1      -5.332   5.424  63.553  1.00  0.00    -0.013 NA 
HETATM   12  C   UNL     1      -5.154   4.756  65.953  1.00  0.00    -0.008 C  
HETATM   13  H2  UNL     1      -5.726   6.079  62.877  1.00  0.00     0.000 HD 
HETATM   14  O   UNL     1      -5.149   5.260  67.295  1.00  0.00    -0.004 OA 
HETATM   15  C   UNL     1      -5.925   3.432  65.872  1.00  0.00    -0.023 C  
HETATM   16  H1  UNL     1      -4.318   5.354  63.466  1.00  0.00     0.000 HD 
HETATM   17  H   UNL     1      -4.801   4.626  67.912  1.00  0.00     0.000 HD 
BRANCH   7  18
HETATM   18  O   UNL     1      -7.587   6.804  64.065  1.00  0.00    -0.094 OA 
BRANCH  18  19
HETATM   19  C   UNL     1      -7.990   8.128  64.386  1.00  0.00    -0.145 C  
HETATM   20  O   UNL     1      -8.144   7.283  66.714  1.00  0.00    -0.115 OA 
HETATM   21  C   UNL     1      -6.723   8.928  64.057  1.00  0.00    -0.087 C  
HETATM   22  C   UNL     1      -7.158   9.473  66.249  1.00  0.00    -0.092 C  
HETATM   23  H   UNL     1      -8.303   7.479  67.630  1.00  0.00     0.000 HD 
HETATM   24  O   UNL     1      -6.103   9.263  65.310  1.00  0.00    -0.061 OA 
HETATM   25  C   UNL     1      -8.250   8.447  65.874  1.00  0.00    -0.123 C  
BRANCH  21  26
HETATM   26  C   UNL     1      -6.977  10.167  63.194  1.00  0.00    -0.132 C  
HETATM   27  H   UNL     1      -8.457  10.967  62.136  1.00  0.00     0.000 HD 
HETATM   28  O   UNL     1      -8.299  10.199  62.671  1.00  0.00    -0.135 OA 
ENDBRANCH  21  26
BRANCH  22  29
HETATM   29  O   UNL     1      -7.635  10.823  66.172  1.00  0.00    -0.141 OA 
BRANCH  29  30
HETATM   30  C   UNL     1      -8.421  11.328  67.304  1.00  0.00    -0.144 C  
HETATM   31  C   UNL     1      -8.098  10.530  68.595  1.00  0.00    -0.127 C  
HETATM   32  O   UNL     1      -7.007  11.180  69.283  1.00  0.00    -0.097 OA 
HETATM   33  C   UNL     1      -9.215  10.312  69.629  1.00  0.00    -0.129 C  
HETATM   34  C   UNL     1     -10.612  10.318  69.037  1.00  0.00    -0.247 C  
HETATM   35  N   UNL     1      -9.007   9.015  70.324  1.00  0.00    -0.179 NA 
HETATM   36  H   UNL     1      -6.809  10.691  70.073  1.00  0.00     0.000 HD 
HETATM   37  H1  UNL     1      -9.748   8.871  71.010  1.00  0.00     0.000 HD 
HETATM   38  H2  UNL     1      -8.079   8.947  70.741  1.00  0.00     0.000 HD 
HETATM   39  C   UNL     1     -10.824  11.582  68.204  1.00  0.00    -0.215 C  
HETATM   40  C   UNL     1      -9.919  11.540  66.946  1.00  0.00    -0.205 C  
HETATM   41  N   UNL     1     -12.255  11.670  67.840  1.00  0.00    -0.437 NA 
HETATM   42  H2  UNL     1     -12.869  11.631  68.654  1.00  0.00     0.000 HD 
HETATM   43  H1  UNL     1     -12.396  12.514  67.284  1.00  0.00     0.000 HD 
BRANCH  40  44
HETATM   44  O   UNL     1     -10.132  12.781  66.229  1.00  0.00    -0.249 OA 
BRANCH  44  45
HETATM   45  C   UNL     1     -11.066  13.684  66.827  1.00  0.00    -0.307 C  
HETATM   46  O   UNL     1     -10.450  14.488  67.836  1.00  0.00    -0.239 OA 
HETATM   47  C   UNL     1      -9.444  15.375  67.326  1.00  0.00    -0.210 C  
HETATM   48  C   UNL     1     -10.013  16.325  66.261  1.00  0.00    -0.317 C  
HETATM   49  H1  UNL     1     -12.815  14.345  63.938  1.00  0.00     0.000 HD 
HETATM   50  O   UNL     1      -9.007  17.183  65.704  1.00  0.00    -0.491 OA 
HETATM   51  H2  UNL     1     -13.060  13.118  65.058  1.00  0.00     0.000 HD 
HETATM   52  C   UNL     1     -10.668  15.512  65.134  1.00  0.00    -0.440 C  
HETATM   53  H   UNL     1      -9.359  17.771  65.045  1.00  0.00     0.000 HD 
HETATM   54  O   UNL     1     -11.287  16.404  64.191  1.00  0.00    -1.302 OA 
HETATM   55  C   UNL     1     -11.724  14.561  65.726  1.00  0.00    -0.344 C  
HETATM   56  N   UNL     1     -12.383  13.769  64.660  1.00  0.00    -0.550 NA 
HETATM   57  H   UNL     1     -11.692  15.901  63.495  1.00  0.00     0.000 HD 
BRANCH  47  58
HETATM   58  C   UNL     1      -8.797  16.113  68.520  1.00  0.00    -0.200 C  
HETATM   59  H1  UNL     1      -8.741  18.014  69.430  1.00  0.00     0.000 HD 
HETATM   60  N   UNL     1      -9.169  17.527  68.641  1.00  0.00    -0.280 NA 
HETATM   61  H2  UNL     1     -10.185  17.624  68.673  1.00  0.00     0.000 HD 
ENDBRANCH  47  58
ENDBRANCH  44  45
ENDBRANCH  40  44
ENDBRANCH  29  30
ENDBRANCH  22  29
ENDBRANCH  18  19
ENDBRANCH   7  18
ENDBRANCH   2   5
TORSDOF 9
ENDMDL
MODEL      200
REMARK 921   NORMALIZED FREE ENERGY PREDICTED BY IDOCK:   -3.63 KCAL/MOL
REMARK 922        TOTAL FREE ENERGY PREDICTED BY IDOCK:   -8.35 KCAL/MOL
REMARK 923 INTER-LIGAND FREE ENERGY PREDICTED BY IDOCK:   -7.29 KCAL/MOL
REMARK 924 INTRA-LIGAND FREE ENERGY PREDICTED BY IDOCK:   -1.06 KCAL/MOL
REMARK 927      BINDING AFFINITY PREDICTED BY RF-SCORE:    0.00 PKD
ROOT
HETATM    1  N   UNL     1      -9.627   8.997  63.312  1.00  0.00     0.216 NA 
HETATM    2  C   UNL     1      -8.182   8.966  63.552  1.00  0.00    -0.177 C  
HETATM    3  H1  UNL     1     -10.042   9.927  63.255  1.00  0.00     0.000 HD 
HETATM    4  H2  UNL     1     -10.111   8.443  64.019  1.00  0.00     0.000 HD 
ENDROOT
BRANCH   2   5
HETATM    5  C   UNL     1      -7.551   7.551  63.641  1.00  0.00    -0.118 C  
HETATM    6  O   UNL     1      -7.960   6.801  64.815  1.00  0.00    -0.118 OA 
HETATM    7  C   UNL     1      -7.438   5.462  64.762  1.00  0.00    -0.070 C  
HETATM    8  C   UNL     1      -5.875   5.482  64.789  1.00  0.00    -0.021 C  
HETATM    9  O   UNL     1      -5.616   8.527  64.757  1.00  0.00    -0.046 OA 
HETATM   10  H   UNL     1      -4.671   8.632  64.753  1.00  0.00     0.000 HD 
HETATM   11  N   UNL     1      -5.381   5.959  66.123  1.00  0.00    -0.009 NA 
HETATM   12  C   UNL     1      -5.326   6.350  63.657  1.00  0.00    -0.018 C  
HETATM   13  H2  UNL     1      -5.767   5.408  66.890  1.00  0.00     0.000 HD 
HETATM   14  O   UNL     1      -5.439   5.706  62.382  1.00  0.00    -0.013 OA 
HETATM   15  C   UNL     1      -6.012   7.722  63.635  1.00  0.00    -0.058 C  
HETATM   16  H1  UNL     1      -4.361   5.972  66.141  1.00  0.00     0.000 HD 
HETATM   17  H   UNL     1      -5.098   6.245  61.678  1.00  0.00     0.000 HD 
BRANCH   7  18
HETATM   18  O   UNL     1      -7.741   4.681  65.905  1.00  0.00    -0.092 OA 
BRANCH  18  19
HETATM   19  C   UNL     1      -8.689   5.141  66.859  1.00  0.00    -0.107 C  
HETATM   20  O   UNL     1      -9.568   2.822  66.779  1.00  0.00    -0.402 OA 
HETATM   21  C   UNL     1      -7.791   5.466  68.059  1.00  0.00    -0.092 C  
HETATM   22  C   UNL     1      -9.335   3.991  68.916  1.00  0.00    -0.164 C  
HETATM   23  H   UNL     1     -10.183   2.185  67.122  1.00  0.00     0.000 HD 
HETATM   24  O   UNL     1      -7.972   4.407  69.014  1.00  0.00    -0.069 OA 
HETATM   25  C   UNL     1      -9.689   4.107  67.416  1.00  0.00    -0.154 C  
BRANCH  21  26
HETATM   26  C   UNL     1      -8.050   6.844  68.674  1.00  0.00    -0.121 C  
HETATM   27  H   UNL     1      -7.516   8.734  68.372  1.00  0.00     0.000 HD 
HETATM   28  O   UNL     1      -7.356   7.879  67.990  1.00  0.00    -0.091 OA 
ENDBRANCH  21  26
BRANCH  22  29
HETATM   29  O   UNL     1     -10.171   4.818  69.735  1.00  0.00    -0.246 OA 
BRANCH  29  30
HETATM   30  C   UNL     1      -9.595   5.339  70.980  1.00  0.00    -0.171 C  
HETATM   31  C   UNL     1      -9.170   4.177  71.916  1.00  0.00    -0.126 C  
HETATM   32  O   UNL     1      -7.799   3.825  71.629  1.00  0.00    -0.059 OA 
HETATM   33  C   UNL     1      -9.273   4.377  73.437  1.00  0.00    -0.112 C  
HETATM   34  C   UNL     1     -10.335   5.378  73.856  1.00  0.00    -0.287 C  
HETATM   35  N   UNL     1      -9.571   3.078  74.094  1.00  0.00    -0.088 NA 
HETATM   36  H   UNL     1      -7.540   3.113  72.203  1.00  0.00     0.000 HD 
HETATM   37  H1  UNL     1      -9.639   3.211  75.103  1.00  0.00     0.000 HD 
HETATM   38  H2  UNL     1      -8.892   2.358  73.847  1.00  0.00     0.000 HD 
HETATM   39  C   UNL     1     -10.142   6.694  73.104  1.00  0.00    -0.194 C  
HETATM   40  C   UNL     1     -10.441   6.487  71.597  1.00  0.00    -0.213 C  
HETATM   41  N   UNL     1     -11.035   7.711  73.700  1.00  0.00    -0.465 NA 
HETATM   42  H2  UNL     1     -10.897   7.812  74.705  1.00  0.00     0.000 HD 
HETATM   43  H1  UNL     1     -10.906   8.590  73.197  1.00  0.00     0.000 HD 
BRANCH  40  44
HETATM   44  O   UNL     1     -10.195   7.754  70.938  1.00  0.00    -0.198 OA 
BRANCH  44  45
HETATM   45  C   UNL     1     -11.109   8.091  69.891  1.00  0.00    -0.108 C  
HETATM   46  O   UNL     1     -12.445   7.688  70.206  1.00  0.00     0.286 OA 
HETATM   47  C   UNL     1     -12.999   8.378  71.335  1.00  0.00    -0.229 C  
HETATM   48  C   UNL     1     -13.014   9.899  71.119  1.00  0.00    -0.369 C  
HETATM   49  H1  UNL     1      -9.613  11.077  69.066  1.00  0.00     0.000 HD 
HETATM   50  O   UNL     1     -13.518  10.606  72.260  1.00  0.00    -0.594 OA 
HETATM   51  H2  UNL     1      -9.282   9.539  68.482  1.00  0.00     0.000 HD 
HETATM   52  C   UNL     1     -11.595  10.393  70.801  1.00  0.00    -0.358 C  
HETATM   53  H   UNL     1     -13.527  11.547  72.127  1.00  0.00     0.000 HD 
HETATM   54  O   UNL     1     -11.629  11.799  70.500  1.00  0.00    -0.493 OA 
HETATM   55  C   UNL     1     -11.031   9.615  69.598  1.00  0.00    -0.229 C  
HETATM   56  N   UNL     1      -9.664  10.077  69.259  1.00  0.00    -0.203 NA 
HETATM   57  H   UNL     1     -10.751  12.105  70.302  1.00  0.00     0.000 HD 
BRANCH  47  58
HETATM   58  C   UNL     1     -14.398   7.789  71.626  1.00  0.00    -0.481 C  
HETATM   59  H1  UNL     1     -15.314   6.168  72.614  1.00  0.00     0.000 HD 
HETATM   60  N   UNL     1     -14.390   6.557  72.423  1.00  0.00    -0.631 NA 
HETATM   61  H2  UNL     1     -13.879   6.703  73.294  1.00  0.00     0.000 HD 
ENDBRANCH  47  58
ENDBRANCH  44  45
ENDBRANCH  40  44
ENDBRANCH  29  30
ENDBRANCH  22  29
ENDBRANCH  18  19
ENDBRANCH   7  18
ENDBRANCH   2   5
TORSDOF 9
ENDMDL
MODEL      201
REMARK 921   NORMALIZED FREE ENERGY PREDICTED BY IDOCK:   -3.54 KCAL/MOL
REMARK 922        TOTAL FREE ENERGY PREDICTED BY IDOCK:   -8.21 KCAL/MOL
REMARK 923 INTER-LIGAND FREE ENERGY PREDICTED BY IDOCK:   -9.20 KCAL/MOL
REMARK 924 INTRA-LIGAND FREE ENERGY PREDICTED BY IDOCK:    0.99 KCAL/MOL
REMARK 927      BINDING AFFINITY PREDICTED BY RF-SCORE:    0.00 PKD
ROOT
HETATM    1  N   UNL     1     -10.433  19.865  68.043  1.00  0.00    -0.399 NA 
HETATM    2  C   UNL     1     -10.217  19.981  66.598  1.00  0.00    -0.471 C  
HETATM    3  H1  UNL     1     -11.323  20.228  68.384  1.00  0.00     0.000 HD 
HETATM    4  H2  UNL     1      -9.662  20.301  68.548  1.00  0.00     0.000 HD 
ENDROOT
BRANCH   2   5
HETATM    5  C   UNL     1      -8.863  19.428  66.080  1.00  0.00    -0.283 C  
HETATM    6  O   UNL     1      -8.224  18.497  66.992  1.00  0.00    -0.237 OA 
HETATM    7  C   UNL     1      -7.045  17.933  66.391  1.00  0.00    -0.257 C  
HETATM    8  C   UNL     1      -5.988  19.051  66.109  1.00  0.00    -0.161 C  
HETATM    9  O   UNL     1      -7.747  21.368  67.046  1.00  0.00    -0.772 OA 
HETATM   10  H   UNL     1      -7.174  22.110  66.888  1.00  0.00     0.000 HD 
HETATM   11  N   UNL     1      -5.451  19.600  67.398  1.00  0.00    -0.165 NA 
HETATM   12  C   UNL     1      -6.590  20.160  65.247  1.00  0.00    -0.295 C  
HETATM   13  H2  UNL     1      -5.076  18.865  67.998  1.00  0.00     0.000 HD 
HETATM   14  O   UNL     1      -6.741  19.756  63.880  1.00  0.00    -0.035 OA 
HETATM   15  C   UNL     1      -7.930  20.637  65.823  1.00  0.00     0.383 C  
HETATM   16  H1  UNL     1      -4.762  20.329  67.214  1.00  0.00     0.000 HD 
HETATM   17  H   UNL     1      -7.116  20.446  63.344  1.00  0.00     0.000 HD 
BRANCH   7  18
HETATM   18  O   UNL     1      -6.327  17.058  67.243  1.00  0.00    -0.136 OA 
BRANCH  18  19
HETATM   19  C   UNL     1      -6.867  15.790  67.590  1.00  0.00    -0.173 C  
HETATM   20  O   UNL     1      -6.095  16.336  69.885  1.00  0.00    -0.192 OA 
HETATM   21  C   UNL     1      -8.363  16.006  67.329  1.00  0.00    -0.181 C  
HETATM   22  C   UNL     1      -8.287  15.312  69.521  1.00  0.00    -0.190 C  
HETATM   23  H   UNL     1      -6.059  16.085  70.801  1.00  0.00     0.000 HD 
HETATM   24  O   UNL     1      -8.994  16.156  68.612  1.00  0.00    -0.200 OA 
HETATM   25  C   UNL     1      -6.808  15.381  69.078  1.00  0.00    -0.136 C  
BRANCH  21  26
HETATM   26  C   UNL     1      -9.014  14.899  66.496  1.00  0.00    -0.253 C  
HETATM   27  H   UNL     1      -9.695  14.629  64.649  1.00  0.00     0.000 HD 
HETATM   28  O   UNL     1      -9.291  15.316  65.166  1.00  0.00     0.105 OA 
ENDBRANCH  21  26
BRANCH  22  29
HETATM   29  O   UNL     1      -8.805  13.976  69.469  1.00  0.00     0.491 OA 
BRANCH  29  30
HETATM   30  C   UNL     1     -10.239  13.818  69.201  1.00  0.00     0.079 C  
HETATM   31  C   UNL     1     -11.077  14.703  70.160  1.00  0.00    -0.132 C  
HETATM   32  O   UNL     1     -11.279  15.994  69.546  1.00  0.00    -0.305 OA 
HETATM   33  C   UNL     1     -12.458  14.201  70.614  1.00  0.00    -0.362 C  
HETATM   34  C   UNL     1     -12.592  12.689  70.618  1.00  0.00    -0.241 C  
HETATM   35  N   UNL     1     -12.748  14.700  71.983  1.00  0.00    -0.322 NA 
HETATM   36  H   UNL     1     -11.792  16.536  70.133  1.00  0.00     0.000 HD 
HETATM   37  H1  UNL     1     -13.664  14.367  72.283  1.00  0.00     0.000 HD 
HETATM   38  H2  UNL     1     -12.668  15.715  72.046  1.00  0.00     0.000 HD 
HETATM   39  C   UNL     1     -12.179  12.121  69.261  1.00  0.00    -0.051 C  
HETATM   40  C   UNL     1     -10.658  12.329  69.045  1.00  0.00    -0.066 C  
HETATM   41  N   UNL     1     -12.541  10.687  69.222  1.00  0.00    -0.683 NA 
HETATM   42  H2  UNL     1     -13.527  10.527  69.429  1.00  0.00     0.000 HD 
HETATM   43  H1  UNL     1     -12.265  10.308  68.316  1.00  0.00     0.000 HD 
BRANCH  40  44
HETATM   44  O   UNL     1     -10.342  11.813  67.729  1.00  0.00    -0.188 OA 
BRANCH  44  45
HETATM   45  C   UNL     1     -11.396  11.097  67.080  1.00  0.00    -0.139 C  
HETATM   46  O   UNL     1     -11.890  11.801  65.938  1.00  0.00    -0.414 OA 
HETATM   47  C   UNL     1     -10.920  11.943  64.890  1.00  0.00    -0.313 C  
HETATM   48  C   UNL     1     -10.407  10.579  64.404  1.00  0.00    -0.174 C  
HETATM   49  H1  UNL     1     -10.065   7.967  67.603  1.00  0.00     0.000 HD 
HETATM   50  O   UNL     1      -9.399  10.705  63.392  1.00  0.00    -0.238 OA 
HETATM   51  H2  UNL     1     -11.084   8.856  68.598  1.00  0.00     0.000 HD 
HETATM   52  C   UNL     1      -9.839   9.784  65.590  1.00  0.00    -0.301 C  
HETATM   53  H   UNL     1      -9.081   9.861  63.092  1.00  0.00     0.000 HD 
HETATM   54  O   UNL     1      -9.453   8.470  65.151  1.00  0.00    -0.380 OA 
HETATM   55  C   UNL     1     -10.903   9.673  66.698  1.00  0.00     0.071 C  
HETATM   56  N   UNL     1     -10.388   8.901  67.854  1.00  0.00    -0.222 NA 
HETATM   57  H   UNL     1      -9.102   7.979  65.884  1.00  0.00     0.000 HD 
BRANCH  47  58
HETATM   58  C   UNL     1     -11.545  12.797  63.763  1.00  0.00    -0.481 C  
HETATM   59  H1  UNL     1     -13.211  12.832  62.473  1.00  0.00     0.000 HD 
HETATM   60  N   UNL     1     -12.799  12.268  63.217  1.00  0.00    -0.784 NA 
HETATM   61  H2  UNL     1     -13.477  12.119  63.965  1.00  0.00     0.000 HD 
ENDBRANCH  47  58
ENDBRANCH  44  45
ENDBRANCH  40  44
ENDBRANCH  29  30
ENDBRANCH  22  29
ENDBRANCH  18  19
ENDBRANCH   7  18
ENDBRANCH   2   5
TORSDOF 9
ENDMDL
MODEL      202
REMARK 921   NORMALIZED FREE ENERGY PREDICTED BY IDOCK:   -3.52 KCAL/MOL
REMARK 922        TOTAL FREE ENERGY PREDICTED BY IDOCK:   -8.18 KCAL/MOL
REMARK 923 INTER-LIGAND FREE ENERGY PREDICTED BY IDOCK:   -9.47 KCAL/MOL
REMARK 924 INTRA-LIGAND FREE ENERGY PREDICTED BY IDOCK:    1.29 KCAL/MOL
REMARK 927      BINDING AFFINITY PREDICTED BY RF-SCORE:    0.00 PKD
ROOT
HETATM    1  N   UNL     1      -8.727  17.556  68.754  1.00  0.00    -0.255 NA 
HETATM    2  C   UNL     1      -9.695  18.174  67.843  1.00  0.00    -0.299 C  
HETATM    3  H1  UNL     1      -8.186  18.206  69.324  1.00  0.00     0.000 HD 
HETATM    4  H2  UNL     1      -8.100  16.943  68.234  1.00  0.00     0.000 HD 
ENDROOT
BRANCH   2   5
HETATM    5  C   UNL     1     -10.518  17.186  66.975  1.00  0.00    -0.282 C  
HETATM    6  O   UNL     1     -10.934  15.991  67.685  1.00  0.00    -0.325 OA 
HETATM    7  C   UNL     1     -11.795  15.189  66.858  1.00  0.00     0.004 C  
HETATM    8  C   UNL     1     -11.026  14.689  65.591  1.00  0.00    -0.335 C  
HETATM    9  O   UNL     1      -8.432  16.183  66.209  1.00  0.00    -0.310 OA 
HETATM   10  H   UNL     1      -7.898  15.944  65.460  1.00  0.00     0.000 HD 
HETATM   11  N   UNL     1      -9.960  13.707  65.980  1.00  0.00    -0.303 NA 
HETATM   12  C   UNL     1     -10.432  15.867  64.819  1.00  0.00     0.025 C  
HETATM   13  H2  UNL     1     -10.339  12.932  66.525  1.00  0.00     0.000 HD 
HETATM   14  O   UNL     1     -11.434  16.598  64.099  1.00  0.00    -1.375 OA 
HETATM   15  C   UNL     1      -9.648  16.797  65.754  1.00  0.00    -0.079 C  
HETATM   16  H1  UNL     1      -9.458  13.381  65.155  1.00  0.00     0.000 HD 
HETATM   17  H   UNL     1     -11.064  17.330  63.619  1.00  0.00     0.000 HD 
BRANCH   7  18
HETATM   18  O   UNL     1     -12.197  13.970  67.457  1.00  0.00    -0.366 OA 
BRANCH  18  19
HETATM   19  C   UNL     1     -11.234  12.975  67.777  1.00  0.00    -0.279 C  
HETATM   20  O   UNL     1     -11.637  13.655  70.130  1.00  0.00    -0.452 OA 
HETATM   21  C   UNL     1     -11.947  11.694  67.329  1.00  0.00     0.132 C  
HETATM   22  C   UNL     1     -11.436  11.290  69.536  1.00  0.00    -0.307 C  
HETATM   23  H   UNL     1     -11.458  13.505  71.051  1.00  0.00     0.000 HD 
HETATM   24  O   UNL     1     -12.407  11.034  68.521  1.00  0.00    -0.536 OA 
HETATM   25  C   UNL     1     -10.942  12.731  69.273  1.00  0.00    -0.070 C  
BRANCH  21  26
HETATM   26  C   UNL     1     -11.086  10.774  66.460  1.00  0.00     0.010 C  
HETATM   27  H   UNL     1      -9.163  10.356  66.186  1.00  0.00     0.000 HD 
HETATM   28  O   UNL     1      -9.698  10.926  66.724  1.00  0.00    -0.183 OA 
ENDBRANCH  21  26
BRANCH  22  29
HETATM   29  O   UNL     1     -10.372  10.332  69.465  1.00  0.00    -0.217 OA 
BRANCH  29  30
HETATM   30  C   UNL     1     -10.715   8.924  69.700  1.00  0.00    -0.217 C  
HETATM   31  C   UNL     1     -11.589   8.777  70.972  1.00  0.00    -0.288 C  
HETATM   32  O   UNL     1     -12.980   8.875  70.595  1.00  0.00    -0.416 OA 
HETATM   33  C   UNL     1     -11.444   7.508  71.828  1.00  0.00    -0.260 C  
HETATM   34  C   UNL     1     -10.078   6.854  71.731  1.00  0.00    -0.198 C  
HETATM   35  N   UNL     1     -11.709   7.832  73.253  1.00  0.00    -0.590 NA 
HETATM   36  H   UNL     1     -13.516   8.785  71.375  1.00  0.00     0.000 HD 
HETATM   37  H1  UNL     1     -11.613   6.989  73.820  1.00  0.00     0.000 HD 
HETATM   38  H2  UNL     1     -12.615   8.280  73.383  1.00  0.00     0.000 HD 
HETATM   39  C   UNL     1      -9.709   6.619  70.267  1.00  0.00    -0.171 C  
HETATM   40  C   UNL     1      -9.489   7.979  69.556  1.00  0.00    -0.160 C  
HETATM   41  N   UNL     1      -8.494   5.778  70.217  1.00  0.00    -0.126 NA 
HETATM   42  H2  UNL     1      -8.599   4.907  70.739  1.00  0.00     0.000 HD 
HETATM   43  H1  UNL     1      -8.248   5.621  69.240  1.00  0.00     0.000 HD 
BRANCH  40  44
HETATM   44  O   UNL     1      -9.191   7.688  68.169  1.00  0.00    -0.138 OA 
BRANCH  44  45
HETATM   45  C   UNL     1      -8.130   8.456  67.593  1.00  0.00    -0.118 C  
HETATM   46  O   UNL     1      -7.568   9.371  68.537  1.00  0.00    -0.080 OA 
HETATM   47  C   UNL     1      -6.920   8.727  69.643  1.00  0.00    -0.050 C  
HETATM   48  C   UNL     1      -5.792   7.796  69.175  1.00  0.00    -0.030 C  
HETATM   49  H1  UNL     1      -6.873   5.912  65.646  1.00  0.00     0.000 HD 
HETATM   50  O   UNL     1      -5.168   7.105  70.266  1.00  0.00    -0.022 OA 
HETATM   51  H2  UNL     1      -8.075   7.024  65.276  1.00  0.00     0.000 HD 
HETATM   52  C   UNL     1      -6.344   6.770  68.174  1.00  0.00    -0.037 C  
HETATM   53  H   UNL     1      -4.469   6.529  69.976  1.00  0.00     0.000 HD 
HETATM   54  O   UNL     1      -5.268   5.966  67.661  1.00  0.00    -0.004 OA 
HETATM   55  C   UNL     1      -7.047   7.502  67.016  1.00  0.00    -0.084 C  
HETATM   56  N   UNL     1      -7.583   6.538  66.025  1.00  0.00    -0.084 NA 
HETATM   57  H   UNL     1      -5.609   5.333  67.041  1.00  0.00     0.000 HD 
BRANCH  47  58
HETATM   58  C   UNL     1      -6.443   9.817  70.629  1.00  0.00    -0.109 C  
HETATM   59  H1  UNL     1      -6.484  11.908  70.895  1.00  0.00     0.000 HD 
HETATM   60  N   UNL     1      -6.799  11.188  70.244  1.00  0.00    -0.488 NA 
HETATM   61  H2  UNL     1      -7.805  11.264  70.092  1.00  0.00     0.000 HD 
ENDBRANCH  47  58
ENDBRANCH  44  45
ENDBRANCH  40  44
ENDBRANCH  29  30
ENDBRANCH  22  29
ENDBRANCH  18  19
ENDBRANCH   7  18
ENDBRANCH   2   5
TORSDOF 9
ENDMDL
MODEL      203
REMARK 921   NORMALIZED FREE ENERGY PREDICTED BY IDOCK:   -3.51 KCAL/MOL
REMARK 922        TOTAL FREE ENERGY PREDICTED BY IDOCK:   -8.18 KCAL/MOL
REMARK 923 INTER-LIGAND FREE ENERGY PREDICTED BY IDOCK:   -8.38 KCAL/MOL
REMARK 924 INTRA-LIGAND FREE ENERGY PREDICTED BY IDOCK:    0.21 KCAL/MOL
REMARK 927      BINDING AFFINITY PREDICTED BY RF-SCORE:    0.00 PKD
ROOT
HETATM    1  N   UNL     1     -10.570  14.529  66.496  1.00  0.00    -0.292 NA 
HETATM    2  C   UNL     1      -9.756  15.466  67.275  1.00  0.00    -0.212 C  
HETATM    3  H1  UNL     1     -11.577  14.673  66.550  1.00  0.00     0.000 HD 
HETATM    4  H2  UNL     1     -10.340  13.569  66.754  1.00  0.00     0.000 HD 
ENDROOT
BRANCH   2   5
HETATM    5  C   UNL     1      -8.223  15.246  67.193  1.00  0.00    -0.219 C  
HETATM    6  O   UNL     1      -7.755  14.101  67.952  1.00  0.00    -0.127 OA 
HETATM    7  C   UNL     1      -6.351  13.887  67.726  1.00  0.00    -0.158 C  
HETATM    8  C   UNL     1      -5.522  15.110  68.241  1.00  0.00    -0.120 C  
HETATM    9  O   UNL     1      -7.942  16.785  69.063  1.00  0.00    -0.238 OA 
HETATM   10  H   UNL     1      -7.520  17.576  69.380  1.00  0.00     0.000 HD 
HETATM   11  N   UNL     1      -5.589  15.194  69.737  1.00  0.00    -0.104 NA 
HETATM   12  C   UNL     1      -6.011  16.405  67.594  1.00  0.00    -0.144 C  
HETATM   13  H2  UNL     1      -5.297  14.323  70.181  1.00  0.00     0.000 HD 
HETATM   14  O   UNL     1      -5.594  16.514  66.227  1.00  0.00    -0.161 OA 
HETATM   15  C   UNL     1      -7.535  16.535  67.709  1.00  0.00    -0.145 C  
HETATM   16  H1  UNL     1      -5.050  15.992  70.073  1.00  0.00     0.000 HD 
HETATM   17  H   UNL     1      -5.898  17.320  65.825  1.00  0.00     0.000 HD 
BRANCH   7  18
HETATM   18  O   UNL     1      -5.801  12.822  68.481  1.00  0.00    -0.057 OA 
BRANCH  18  19
HETATM   19  C   UNL     1      -6.391  11.530  68.435  1.00  0.00    -0.050 C  
HETATM   20  O   UNL     1      -6.495  11.728  70.906  1.00  0.00    -0.393 OA 
HETATM   21  C   UNL     1      -7.704  11.812  67.694  1.00  0.00    -0.137 C  
HETATM   22  C   UNL     1      -8.386  10.814  69.652  1.00  0.00     0.203 C  
HETATM   23  H   UNL     1      -6.777  11.350  71.731  1.00  0.00     0.000 HD 
HETATM   24  O   UNL     1      -8.751  11.794  68.679  1.00  0.00    -0.143 OA 
HETATM   25  C   UNL     1      -6.849  10.913  69.774  1.00  0.00    -0.134 C  
BRANCH  21  26
HETATM   26  C   UNL     1      -7.986  10.848  66.539  1.00  0.00    -0.152 C  
HETATM   27  H   UNL     1      -7.035   9.441  65.507  1.00  0.00     0.000 HD 
HETATM   28  O   UNL     1      -6.860  10.039  66.224  1.00  0.00    -0.089 OA 
ENDBRANCH  21  26
BRANCH  22  29
HETATM   29  O   UNL     1      -8.812   9.511  69.234  1.00  0.00    -0.136 OA 
BRANCH  29  30
HETATM   30  C   UNL     1     -10.063   8.994  69.802  1.00  0.00    -0.200 C  
HETATM   31  C   UNL     1     -11.171  10.079  69.764  1.00  0.00    -0.258 C  
HETATM   32  O   UNL     1     -11.890   9.967  68.516  1.00  0.00    -0.575 OA 
HETATM   33  C   UNL     1     -12.221  10.104  70.887  1.00  0.00    -0.356 C  
HETATM   34  C   UNL     1     -11.730   9.525  72.201  1.00  0.00     0.007 C  
HETATM   35  N   UNL     1     -12.664  11.502  71.127  1.00  0.00    -0.391 NA 
HETATM   36  H   UNL     1     -12.569  10.632  68.494  1.00  0.00     0.000 HD 
HETATM   37  H1  UNL     1     -13.361  11.518  71.872  1.00  0.00     0.000 HD 
HETATM   38  H2  UNL     1     -13.002  11.949  70.276  1.00  0.00     0.000 HD 
HETATM   39  C   UNL     1     -11.146   8.132  71.976  1.00  0.00    -0.306 C  
HETATM   40  C   UNL     1      -9.845   8.236  71.140  1.00  0.00    -0.175 C  
HETATM   41  N   UNL     1     -10.896   7.508  73.294  1.00  0.00    -0.442 NA 
HETATM   42  H2  UNL     1     -11.728   7.493  73.884  1.00  0.00     0.000 HD 
HETATM   43  H1  UNL     1     -10.506   6.578  73.143  1.00  0.00     0.000 HD 
BRANCH  40  44
HETATM   44  O   UNL     1      -9.370   6.884  70.925  1.00  0.00    -0.157 OA 
BRANCH  44  45
HETATM   45  C   UNL     1     -10.385   5.911  70.662  1.00  0.00    -0.235 C  
HETATM   46  O   UNL     1     -11.003   6.122  69.390  1.00  0.00    -0.314 OA 
HETATM   47  C   UNL     1     -10.109   5.944  68.283  1.00  0.00    -0.166 C  
HETATM   48  C   UNL     1      -9.496   4.535  68.270  1.00  0.00    -0.149 C  
HETATM   49  H1  UNL     1      -8.737   3.278  72.145  1.00  0.00     0.000 HD 
HETATM   50  O   UNL     1      -8.559   4.359  67.198  1.00  0.00    -0.104 OA 
HETATM   51  H2  UNL     1      -9.781   4.392  72.843  1.00  0.00     0.000 HD 
HETATM   52  C   UNL     1      -8.793   4.261  69.608  1.00  0.00    -0.086 C  
HETATM   53  H   UNL     1      -8.180   3.488  67.190  1.00  0.00     0.000 HD 
HETATM   54  O   UNL     1      -8.308   2.908  69.631  1.00  0.00    -0.053 OA 
HETATM   55  C   UNL     1      -9.780   4.483  70.768  1.00  0.00    -0.197 C  
HETATM   56  N   UNL     1      -9.133   4.215  72.075  1.00  0.00    -0.118 NA 
HETATM   57  H   UNL     1      -7.874   2.738  70.459  1.00  0.00     0.000 HD 
BRANCH  47  58
HETATM   58  C   UNL     1     -10.870   6.290  66.983  1.00  0.00    -0.383 C  
HETATM   59  H1  UNL     1     -11.652   5.373  65.254  1.00  0.00     0.000 HD 
HETATM   60  N   UNL     1     -11.149   5.143  66.112  1.00  0.00    -0.712 NA 
HETATM   61  H2  UNL     1     -11.645   4.417  66.630  1.00  0.00     0.000 HD 
ENDBRANCH  47  58
ENDBRANCH  44  45
ENDBRANCH  40  44
ENDBRANCH  29  30
ENDBRANCH  22  29
ENDBRANCH  18  19
ENDBRANCH   7  18
ENDBRANCH   2   5
TORSDOF 9
ENDMDL
MODEL      204
REMARK 921   NORMALIZED FREE ENERGY PREDICTED BY IDOCK:   -3.51 KCAL/MOL
REMARK 922        TOTAL FREE ENERGY PREDICTED BY IDOCK:   -8.16 KCAL/MOL
REMARK 923 INTER-LIGAND FREE ENERGY PREDICTED BY IDOCK:   -7.07 KCAL/MOL
REMARK 924 INTRA-LIGAND FREE ENERGY PREDICTED BY IDOCK:   -1.09 KCAL/MOL
REMARK 927      BINDING AFFINITY PREDICTED BY RF-SCORE:    0.00 PKD
ROOT
HETATM    1  N   UNL     1      -5.338   9.045  72.836  1.00  0.00    -0.074 NA 
HETATM    2  C   UNL     1      -6.324   8.308  73.631  1.00  0.00    -0.115 C  
HETATM    3  H1  UNL     1      -5.205  10.022  73.097  1.00  0.00     0.000 HD 
HETATM    4  H2  UNL     1      -5.568   8.978  71.845  1.00  0.00     0.000 HD 
ENDROOT
BRANCH   2   5
HETATM    5  C   UNL     1      -6.525   6.823  73.232  1.00  0.00    -0.063 C  
HETATM    6  O   UNL     1      -7.217   6.645  71.969  1.00  0.00    -0.079 OA 
HETATM    7  C   UNL     1      -7.254   5.253  71.607  1.00  0.00    -0.076 C  
HETATM    8  C   UNL     1      -8.069   4.436  72.661  1.00  0.00    -0.098 C  
HETATM    9  O   UNL     1      -8.587   6.795  74.533  1.00  0.00    -0.153 OA 
HETATM   10  H   UNL     1      -9.076   6.373  75.231  1.00  0.00     0.000 HD 
HETATM   11  N   UNL     1      -9.521   4.812  72.605  1.00  0.00    -0.133 NA 
HETATM   12  C   UNL     1      -7.501   4.643  74.064  1.00  0.00    -0.082 C  
HETATM   13  H2  UNL     1      -9.905   4.710  71.666  1.00  0.00     0.000 HD 
HETATM   14  O   UNL     1      -6.269   3.935  74.255  1.00  0.00    -0.023 OA 
HETATM   15  C   UNL     1      -7.322   6.135  74.370  1.00  0.00    -0.090 C  
HETATM   16  H1  UNL     1     -10.053   4.279  73.293  1.00  0.00     0.000 HD 
HETATM   17  H   UNL     1      -5.915   4.064  75.128  1.00  0.00     0.000 HD 
BRANCH   7  18
HETATM   18  O   UNL     1      -7.968   4.988  70.413  1.00  0.00    -0.081 OA 
BRANCH  18  19
HETATM   19  C   UNL     1      -8.398   6.056  69.580  1.00  0.00    -0.119 C  
HETATM   20  O   UNL     1      -6.260   5.687  68.375  1.00  0.00    -0.027 OA 
HETATM   21  C   UNL     1      -9.642   5.453  68.916  1.00  0.00    -0.141 C  
HETATM   22  C   UNL     1      -8.331   6.093  67.137  1.00  0.00    -0.105 C  
HETATM   23  H   UNL     1      -5.702   5.918  67.642  1.00  0.00     0.000 HD 
HETATM   24  O   UNL     1      -9.273   5.111  67.570  1.00  0.00    -0.113 OA 
HETATM   25  C   UNL     1      -7.491   6.433  68.389  1.00  0.00    -0.088 C  
BRANCH  21  26
HETATM   26  C   UNL     1     -10.873   6.363  68.959  1.00  0.00    -0.327 C  
HETATM   27  H   UNL     1     -12.220   6.984  70.281  1.00  0.00     0.000 HD 
HETATM   28  O   UNL     1     -11.457   6.420  70.254  1.00  0.00    -0.370 OA 
ENDBRANCH  21  26
BRANCH  22  29
HETATM   29  O   UNL     1      -9.011   7.242  66.615  1.00  0.00    -0.137 OA 
BRANCH  29  30
HETATM   30  C   UNL     1      -8.746   7.607  65.218  1.00  0.00     0.055 C  
HETATM   31  C   UNL     1      -8.020   6.453  64.478  1.00  0.00    -0.117 C  
HETATM   32  O   UNL     1      -9.011   5.585  63.884  1.00  0.00    -0.348 OA 
HETATM   33  C   UNL     1      -7.009   6.801  63.374  1.00  0.00    -0.056 C  
HETATM   34  C   UNL     1      -6.355   8.161  63.545  1.00  0.00    -0.072 C  
HETATM   35  N   UNL     1      -5.940   5.770  63.329  1.00  0.00    -0.021 NA 
HETATM   36  H   UNL     1      -8.566   4.878  63.431  1.00  0.00     0.000 HD 
HETATM   37  H1  UNL     1      -5.270   6.002  62.597  1.00  0.00     0.000 HD 
HETATM   38  H2  UNL     1      -6.319   4.830  63.220  1.00  0.00     0.000 HD 
HETATM   39  C   UNL     1      -7.423   9.238  63.723  1.00  0.00    -0.106 C  
HETATM   40  C   UNL     1      -8.153   9.037  65.075  1.00  0.00    -0.137 C  
HETATM   41  N   UNL     1      -6.770  10.564  63.651  1.00  0.00    -0.348 NA 
HETATM   42  H2  UNL     1      -6.228  10.687  62.796  1.00  0.00     0.000 HD 
HETATM   43  H1  UNL     1      -7.483  11.283  63.770  1.00  0.00     0.000 HD 
BRANCH  40  44
HETATM   44  O   UNL     1      -9.178  10.057  65.160  1.00  0.00    -0.185 OA 
BRANCH  44  45
HETATM   45  C   UNL     1      -8.766  11.296  65.746  1.00  0.00    -0.109 C  
HETATM   46  O   UNL     1      -9.678  12.354  65.439  1.00  0.00    -0.217 OA 
HETATM   47  C   UNL     1     -10.984  12.165  66.000  1.00  0.00    -0.293 C  
HETATM   48  C   UNL     1     -10.930  12.031  67.530  1.00  0.00    -0.253 C  
HETATM   49  H1  UNL     1      -7.547   9.919  68.654  1.00  0.00     0.000 HD 
HETATM   50  O   UNL     1     -12.224  11.790  68.101  1.00  0.00    -0.507 OA 
HETATM   51  H2  UNL     1      -6.752  10.175  67.198  1.00  0.00     0.000 HD 
HETATM   52  C   UNL     1      -9.982  10.887  67.919  1.00  0.00    -0.176 C  
HETATM   53  H   UNL     1     -12.190  11.706  69.047  1.00  0.00     0.000 HD 
HETATM   54  O   UNL     1      -9.855  10.830  69.350  1.00  0.00    -0.365 OA 
HETATM   55  C   UNL     1      -8.600  11.119  67.281  1.00  0.00    -0.140 C  
HETATM   56  N   UNL     1      -7.657  10.035  67.647  1.00  0.00    -0.090 NA 
HETATM   57  H   UNL     1      -9.268  10.123  69.591  1.00  0.00     0.000 HD 
BRANCH  47  58
HETATM   58  C   UNL     1     -11.891  13.321  65.520  1.00  0.00    -0.370 C  
HETATM   59  H1  UNL     1     -13.413  13.728  64.119  1.00  0.00     0.000 HD 
HETATM   60  N   UNL     1     -12.814  12.965  64.437  1.00  0.00    -0.725 NA 
HETATM   61  H2  UNL     1     -13.380  12.159  64.704  1.00  0.00     0.000 HD 
ENDBRANCH  47  58
ENDBRANCH  44  45
ENDBRANCH  40  44
ENDBRANCH  29  30
ENDBRANCH  22  29
ENDBRANCH  18  19
ENDBRANCH   7  18
ENDBRANCH   2   5
TORSDOF 9
ENDMDL
MODEL      205
REMARK 921   NORMALIZED FREE ENERGY PREDICTED BY IDOCK:   -3.48 KCAL/MOL
REMARK 922        TOTAL FREE ENERGY PREDICTED BY IDOCK:   -8.13 KCAL/MOL
REMARK 923 INTER-LIGAND FREE ENERGY PREDICTED BY IDOCK:   -7.27 KCAL/MOL
REMARK 924 INTRA-LIGAND FREE ENERGY PREDICTED BY IDOCK:   -0.86 KCAL/MOL
REMARK 927      BINDING AFFINITY PREDICTED BY RF-SCORE:    0.00 PKD
ROOT
HETATM    1  N   UNL     1      -9.376  16.484  65.841  1.00  0.00    -0.489 NA 
HETATM    2  C   UNL     1     -10.111  15.714  66.848  1.00  0.00    -0.263 C  
HETATM    3  H1  UNL     1      -8.860  17.289  66.195  1.00  0.00     0.000 HD 
HETATM    4  H2  UNL     1     -10.007  16.775  65.095  1.00  0.00     0.000 HD 
ENDROOT
BRANCH   2   5
HETATM    5  C   UNL     1     -10.895  14.489  66.309  1.00  0.00    -0.317 C  
HETATM    6  O   UNL     1     -10.049  13.372  65.933  1.00  0.00    -0.286 OA 
HETATM    7  C   UNL     1     -10.850  12.235  65.565  1.00  0.00    -0.282 C  
HETATM    8  C   UNL     1     -11.716  12.562  64.304  1.00  0.00    -0.382 C  
HETATM    9  O   UNL     1     -10.832  15.479  64.082  1.00  0.00    -0.587 OA 
HETATM   10  H   UNL     1     -11.337  15.768  63.331  1.00  0.00     0.000 HD 
HETATM   11  N   UNL     1     -10.840  12.731  63.098  1.00  0.00    -0.525 NA 
HETATM   12  C   UNL     1     -12.570  13.806  64.542  1.00  0.00    -0.202 C  
HETATM   13  H2  UNL     1     -10.239  11.920  62.947  1.00  0.00     0.000 HD 
HETATM   14  O   UNL     1     -13.678  13.539  65.412  1.00  0.00    -0.165 OA 
HETATM   15  C   UNL     1     -11.720  14.961  65.085  1.00  0.00    -0.295 C  
HETATM   16  H1  UNL     1     -11.404  12.944  62.276  1.00  0.00     0.000 HD 
HETATM   17  H   UNL     1     -14.210  14.313  65.560  1.00  0.00     0.000 HD 
BRANCH   7  18
HETATM   18  O   UNL     1     -10.098  11.119  65.124  1.00  0.00    -0.248 OA 
BRANCH  18  19
HETATM   19  C   UNL     1     -10.036   9.938  65.911  1.00  0.00    -0.277 C  
HETATM   20  O   UNL     1      -7.751   9.694  64.972  1.00  0.00    -0.109 OA 
HETATM   21  C   UNL     1     -10.107  10.507  67.334  1.00  0.00    -0.197 C  
HETATM   22  C   UNL     1      -8.174   9.259  67.342  1.00  0.00    -0.117 C  
HETATM   23  H   UNL     1      -6.935   9.209  64.963  1.00  0.00     0.000 HD 
HETATM   24  O   UNL     1      -8.779  10.436  67.879  1.00  0.00    -0.118 OA 
HETATM   25  C   UNL     1      -8.710   9.148  65.897  1.00  0.00    -0.158 C  
BRANCH  21  26
HETATM   26  C   UNL     1     -11.133   9.810  68.231  1.00  0.00    -0.102 C  
HETATM   27  H   UNL     1     -11.811   9.937  70.095  1.00  0.00     0.000 HD 
HETATM   28  O   UNL     1     -11.175  10.369  69.538  1.00  0.00    -0.238 OA 
ENDBRANCH  21  26
BRANCH  22  29
HETATM   29  O   UNL     1      -8.517   8.114  68.134  1.00  0.00    -0.125 OA 
BRANCH  29  30
HETATM   30  C   UNL     1      -7.599   6.969  68.099  1.00  0.00    -0.108 C  
HETATM   31  C   UNL     1      -6.984   6.802  66.685  1.00  0.00    -0.066 C  
HETATM   32  O   UNL     1      -5.760   7.567  66.616  1.00  0.00    -0.029 OA 
HETATM   33  C   UNL     1      -6.657   5.387  66.181  1.00  0.00    -0.048 C  
HETATM   34  C   UNL     1      -7.520   4.301  66.798  1.00  0.00    -0.081 C  
HETATM   35  N   UNL     1      -6.818   5.331  64.706  1.00  0.00    -0.048 NA 
HETATM   36  H   UNL     1      -5.384   7.465  65.750  1.00  0.00     0.000 HD 
HETATM   37  H1  UNL     1      -6.601   4.392  64.372  1.00  0.00     0.000 HD 
HETATM   38  H2  UNL     1      -6.264   6.044  64.232  1.00  0.00     0.000 HD 
HETATM   39  C   UNL     1      -7.485   4.403  68.322  1.00  0.00    -0.065 C  
HETATM   40  C   UNL     1      -8.195   5.704  68.777  1.00  0.00    -0.103 C  
HETATM   41  N   UNL     1      -8.137   3.202  68.889  1.00  0.00    -0.059 NA 
HETATM   42  H2  UNL     1      -7.724   2.335  68.545  1.00  0.00     0.000 HD 
HETATM   43  H1  UNL     1      -8.113   3.271  69.906  1.00  0.00     0.000 HD 
BRANCH  40  44
HETATM   44  O   UNL     1      -8.085   5.762  70.221  1.00  0.00    -0.101 OA 
BRANCH  44  45
HETATM   45  C   UNL     1      -6.755   5.684  70.741  1.00  0.00    -0.048 C  
HETATM   46  O   UNL     1      -6.101   6.955  70.712  1.00  0.00    -0.031 OA 
HETATM   47  C   UNL     1      -6.711   7.932  71.567  1.00  0.00    -0.047 C  
HETATM   48  C   UNL     1      -6.745   7.464  73.030  1.00  0.00    -0.065 C  
HETATM   49  H1  UNL     1      -7.476   3.389  73.202  1.00  0.00     0.000 HD 
HETATM   50  O   UNL     1      -7.399   8.408  73.889  1.00  0.00    -0.220 OA 
HETATM   51  H2  UNL     1      -7.026   3.115  71.608  1.00  0.00     0.000 HD 
HETATM   52  C   UNL     1      -7.462   6.109  73.126  1.00  0.00    -0.096 C  
HETATM   53  H   UNL     1      -7.420   8.118  74.794  1.00  0.00     0.000 HD 
HETATM   54  O   UNL     1      -7.404   5.626  74.479  1.00  0.00    -0.087 OA 
HETATM   55  C   UNL     1      -6.790   5.097  72.180  1.00  0.00    -0.065 C  
HETATM   56  N   UNL     1      -7.454   3.774  72.258  1.00  0.00    -0.059 NA 
HETATM   57  H   UNL     1      -7.847   4.787  74.538  1.00  0.00     0.000 HD 
BRANCH  47  58
HETATM   58  C   UNL     1      -5.973   9.276  71.373  1.00  0.00    -0.075 C  
HETATM   59  H1  UNL     1      -4.918  10.734  72.472  1.00  0.00     0.000 HD 
HETATM   60  N   UNL     1      -5.405   9.846  72.600  1.00  0.00    -0.285 NA 
HETATM   61  H2  UNL     1      -4.794   9.169  73.056  1.00  0.00     0.000 HD 
ENDBRANCH  47  58
ENDBRANCH  44  45
ENDBRANCH  40  44
ENDBRANCH  29  30
ENDBRANCH  22  29
ENDBRANCH  18  19
ENDBRANCH   7  18
ENDBRANCH   2   5
TORSDOF 9
ENDMDL
MODEL      206
REMARK 921   NORMALIZED FREE ENERGY PREDICTED BY IDOCK:   -3.48 KCAL/MOL
REMARK 922        TOTAL FREE ENERGY PREDICTED BY IDOCK:   -8.13 KCAL/MOL
REMARK 923 INTER-LIGAND FREE ENERGY PREDICTED BY IDOCK:   -7.45 KCAL/MOL
REMARK 924 INTRA-LIGAND FREE ENERGY PREDICTED BY IDOCK:   -0.68 KCAL/MOL
REMARK 927      BINDING AFFINITY PREDICTED BY RF-SCORE:    0.00 PKD
ROOT
HETATM    1  N   UNL     1      -8.010   4.010  66.991  1.00  0.00    -0.095 NA 
HETATM    2  C   UNL     1      -8.017   5.336  67.614  1.00  0.00    -0.100 C  
HETATM    3  H1  UNL     1      -8.464   3.271  67.528  1.00  0.00     0.000 HD 
HETATM    4  H2  UNL     1      -7.055   3.737  66.761  1.00  0.00     0.000 HD 
ENDROOT
BRANCH   2   5
HETATM    5  C   UNL     1      -7.326   6.460  66.798  1.00  0.00    -0.079 C  
HETATM    6  O   UNL     1      -7.981   7.751  66.909  1.00  0.00    -0.108 OA 
HETATM    7  C   UNL     1      -7.216   8.763  66.232  1.00  0.00    -0.086 C  
HETATM    8  C   UNL     1      -7.133   8.454  64.702  1.00  0.00    -0.080 C  
HETATM    9  O   UNL     1      -8.637   5.798  64.852  1.00  0.00    -0.239 OA 
HETATM   10  H   UNL     1      -8.618   5.523  63.942  1.00  0.00     0.000 HD 
HETATM   11  N   UNL     1      -8.484   8.604  64.065  1.00  0.00    -0.353 NA 
HETATM   12  C   UNL     1      -6.565   7.056  64.462  1.00  0.00    -0.042 C  
HETATM   13  H2  UNL     1      -8.890   9.523  64.245  1.00  0.00     0.000 HD 
HETATM   14  O   UNL     1      -5.151   7.004  64.695  1.00  0.00    -0.026 OA 
HETATM   15  C   UNL     1      -7.295   6.012  65.315  1.00  0.00    -0.076 C  
HETATM   16  H1  UNL     1      -8.430   8.403  63.066  1.00  0.00     0.000 HD 
HETATM   17  H   UNL     1      -4.797   6.135  64.545  1.00  0.00     0.000 HD 
BRANCH   7  18
HETATM   18  O   UNL     1      -7.820  10.044  66.241  1.00  0.00    -0.106 OA 
BRANCH  18  19
HETATM   19  C   UNL     1      -8.870  10.337  67.153  1.00  0.00    -0.136 C  
HETATM   20  O   UNL     1      -8.436  12.705  66.553  1.00  0.00    -0.408 OA 
HETATM   21  C   UNL     1     -10.075   9.690  66.460  1.00  0.00    -0.244 C  
HETATM   22  C   UNL     1     -10.728  11.876  66.763  1.00  0.00    -0.246 C  
HETATM   23  H   UNL     1      -8.689  13.616  66.646  1.00  0.00     0.000 HD 
HETATM   24  O   UNL     1     -10.847  10.757  65.883  1.00  0.00    -0.138 OA 
HETATM   25  C   UNL     1      -9.282  11.816  67.305  1.00  0.00    -0.173 C  
BRANCH  21  26
HETATM   26  C   UNL     1     -10.920   8.804  67.379  1.00  0.00     0.164 C  
HETATM   27  H   UNL     1     -11.374   6.881  67.588  1.00  0.00     0.000 HD 
HETATM   28  O   UNL     1     -10.850   7.431  67.018  1.00  0.00    -0.354 OA 
ENDBRANCH  21  26
BRANCH  22  29
HETATM   29  O   UNL     1     -11.702  11.793  67.812  1.00  0.00    -0.464 OA 
BRANCH  29  30
HETATM   30  C   UNL     1     -11.430  12.540  69.046  1.00  0.00    -0.304 C  
HETATM   31  C   UNL     1     -12.046  11.816  70.272  1.00  0.00    -0.342 C  
HETATM   32  O   UNL     1     -11.068  10.900  70.812  1.00  0.00    -0.314 OA 
HETATM   33  C   UNL     1     -12.567  12.660  71.446  1.00  0.00    -0.202 C  
HETATM   34  C   UNL     1     -13.014  14.056  71.050  1.00  0.00    -0.378 C  
HETATM   35  N   UNL     1     -13.713  11.968  72.091  1.00  0.00    -0.343 NA 
HETATM   36  H   UNL     1     -11.446  10.456  71.562  1.00  0.00     0.000 HD 
HETATM   37  H1  UNL     1     -14.058  12.529  72.870  1.00  0.00     0.000 HD 
HETATM   38  H2  UNL     1     -13.476  11.018  72.377  1.00  0.00     0.000 HD 
HETATM   39  C   UNL     1     -11.906  14.759  70.268  1.00  0.00    -0.302 C  
HETATM   40  C   UNL     1     -11.705  14.062  68.898  1.00  0.00    -0.340 C  
HETATM   41  N   UNL     1     -12.277  16.182  70.103  1.00  0.00    -0.335 NA 
HETATM   42  H2  UNL     1     -12.479  16.639  70.992  1.00  0.00     0.000 HD 
HETATM   43  H1  UNL     1     -11.537  16.651  69.581  1.00  0.00     0.000 HD 
BRANCH  40  44
HETATM   44  O   UNL     1     -10.615  14.745  68.230  1.00  0.00    -0.234 OA 
BRANCH  44  45
HETATM   45  C   UNL     1     -11.001  15.802  67.347  1.00  0.00    -0.279 C  
HETATM   46  O   UNL     1     -10.879  17.083  67.971  1.00  0.00    -0.371 OA 
HETATM   47  C   UNL     1      -9.528  17.433  68.301  1.00  0.00    -0.290 C  
HETATM   48  C   UNL     1      -8.623  17.436  67.060  1.00  0.00    -0.233 C  
HETATM   49  H1  UNL     1      -9.711  14.366  64.499  1.00  0.00     0.000 HD 
HETATM   50  O   UNL     1      -7.258  17.734  67.382  1.00  0.00    -0.182 OA 
HETATM   51  H2  UNL     1     -11.236  14.176  65.174  1.00  0.00     0.000 HD 
HETATM   52  C   UNL     1      -8.694  16.071  66.360  1.00  0.00    -0.327 C  
HETATM   53  H   UNL     1      -6.698  17.736  66.613  1.00  0.00     0.000 HD 
HETATM   54  O   UNL     1      -7.927  16.110  65.144  1.00  0.00     1.915 OA 
HETATM   55  C   UNL     1     -10.161  15.726  66.042  1.00  0.00    -0.337 C  
HETATM   56  N   UNL     1     -10.261  14.416  65.355  1.00  0.00    -0.363 NA 
HETATM   57  H   UNL     1      -7.972  15.265  64.711  1.00  0.00     0.000 HD 
BRANCH  47  58
HETATM   58  C   UNL     1      -9.545  18.786  69.048  1.00  0.00    -0.248 C  
HETATM   59  H1  UNL     1     -10.783  20.464  69.359  1.00  0.00     0.000 HD 
HETATM   60  N   UNL     1     -10.771  19.571  68.866  1.00  0.00    -0.256 NA 
HETATM   61  H2  UNL     1     -11.589  19.015  69.120  1.00  0.00     0.000 HD 
ENDBRANCH  47  58
ENDBRANCH  44  45
ENDBRANCH  40  44
ENDBRANCH  29  30
ENDBRANCH  22  29
ENDBRANCH  18  19
ENDBRANCH   7  18
ENDBRANCH   2   5
TORSDOF 9
ENDMDL
MODEL      207
REMARK 921   NORMALIZED FREE ENERGY PREDICTED BY IDOCK:   -3.42 KCAL/MOL
REMARK 922        TOTAL FREE ENERGY PREDICTED BY IDOCK:   -8.03 KCAL/MOL
REMARK 923 INTER-LIGAND FREE ENERGY PREDICTED BY IDOCK:   -6.16 KCAL/MOL
REMARK 924 INTRA-LIGAND FREE ENERGY PREDICTED BY IDOCK:   -1.87 KCAL/MOL
REMARK 927      BINDING AFFINITY PREDICTED BY RF-SCORE:    0.00 PKD
ROOT
HETATM    1  N   UNL     1     -12.350   7.970  71.768  1.00  0.00    -0.306 NA 
HETATM    2  C   UNL     1     -11.363   7.509  70.787  1.00  0.00    -0.280 C  
HETATM    3  H1  UNL     1     -13.228   8.311  71.378  1.00  0.00     0.000 HD 
HETATM    4  H2  UNL     1     -11.937   8.680  72.371  1.00  0.00     0.000 HD 
ENDROOT
BRANCH   2   5
HETATM    5  C   UNL     1     -10.027   6.990  71.380  1.00  0.00    -0.184 C  
HETATM    6  O   UNL     1      -8.886   7.180  70.504  1.00  0.00    -0.151 OA 
HETATM    7  C   UNL     1      -7.671   6.793  71.169  1.00  0.00    -0.093 C  
HETATM    8  C   UNL     1      -7.698   5.268  71.513  1.00  0.00    -0.104 C  
HETATM    9  O   UNL     1     -10.534   4.780  70.484  1.00  0.00    -0.178 OA 
HETATM   10  H   UNL     1     -10.643   3.855  70.675  1.00  0.00     0.000 HD 
HETATM   11  N   UNL     1      -7.643   4.447  70.258  1.00  0.00    -0.049 NA 
HETATM   12  C   UNL     1      -8.934   4.922  72.342  1.00  0.00    -0.129 C  
HETATM   13  H2  UNL     1      -6.839   4.691  69.679  1.00  0.00     0.000 HD 
HETATM   14  O   UNL     1      -8.816   5.373  73.698  1.00  0.00    -0.125 OA 
HETATM   15  C   UNL     1     -10.206   5.483  71.692  1.00  0.00    -0.209 C  
HETATM   16  H1  UNL     1      -7.660   3.452  70.482  1.00  0.00     0.000 HD 
HETATM   17  H   UNL     1      -9.585   5.158  74.213  1.00  0.00     0.000 HD 
BRANCH   7  18
HETATM   18  O   UNL     1      -6.514   6.890  70.357  1.00  0.00    -0.044 OA 
BRANCH  18  19
HETATM   19  C   UNL     1      -6.122   8.142  69.812  1.00  0.00    -0.029 C  
HETATM   20  O   UNL     1      -7.859   7.691  68.098  1.00  0.00    -0.117 OA 
HETATM   21  C   UNL     1      -6.532   9.111  70.928  1.00  0.00    -0.074 C  
HETATM   22  C   UNL     1      -7.624   9.923  69.073  1.00  0.00    -0.086 C  
HETATM   23  H   UNL     1      -8.338   8.004  67.339  1.00  0.00     0.000 HD 
HETATM   24  O   UNL     1      -7.731   9.770  70.489  1.00  0.00    -0.207 OA 
HETATM   25  C   UNL     1      -6.899   8.650  68.579  1.00  0.00    -0.064 C  
BRANCH  21  26
HETATM   26  C   UNL     1      -5.439  10.109  71.318  1.00  0.00    -0.066 C  
HETATM   27  H   UNL     1      -4.567  10.795  72.967  1.00  0.00     0.000 HD 
HETATM   28  O   UNL     1      -5.245  10.176  72.725  1.00  0.00    -0.290 OA 
ENDBRANCH  21  26
BRANCH  22  29
HETATM   29  O   UNL     1      -6.899  11.117  68.752  1.00  0.00    -0.067 OA 
BRANCH  29  30
HETATM   30  C   UNL     1      -7.567  12.103  67.894  1.00  0.00    -0.123 C  
HETATM   31  C   UNL     1      -7.417  13.531  68.481  1.00  0.00    -0.122 C  
HETATM   32  O   UNL     1      -6.217  14.131  67.946  1.00  0.00    -0.135 OA 
HETATM   33  C   UNL     1      -8.557  14.541  68.271  1.00  0.00    -0.171 C  
HETATM   34  C   UNL     1      -9.922  13.901  68.096  1.00  0.00    -0.240 C  
HETATM   35  N   UNL     1      -8.621  15.472  69.427  1.00  0.00    -0.261 NA 
HETATM   36  H   UNL     1      -6.126  15.006  68.305  1.00  0.00     0.000 HD 
HETATM   37  H1  UNL     1      -9.377  16.142  69.288  1.00  0.00     0.000 HD 
HETATM   38  H2  UNL     1      -7.728  15.932  69.600  1.00  0.00     0.000 HD 
HETATM   39  C   UNL     1      -9.869  12.841  66.997  1.00  0.00    -0.231 C  
HETATM   40  C   UNL     1      -8.988  11.651  67.457  1.00  0.00    -0.165 C  
HETATM   41  N   UNL     1     -11.250  12.409  66.693  1.00  0.00    -0.297 NA 
HETATM   42  H2  UNL     1     -11.861  13.190  66.454  1.00  0.00     0.000 HD 
HETATM   43  H1  UNL     1     -11.214  11.701  65.960  1.00  0.00     0.000 HD 
BRANCH  40  44
HETATM   44  O   UNL     1      -8.942  10.709  66.358  1.00  0.00    -0.155 OA 
BRANCH  44  45
HETATM   45  C   UNL     1      -8.102  11.083  65.262  1.00  0.00     0.158 C  
HETATM   46  O   UNL     1      -6.890  10.324  65.242  1.00  0.00    -0.131 OA 
HETATM   47  C   UNL     1      -7.096   8.923  65.010  1.00  0.00    -0.083 C  
HETATM   48  C   UNL     1      -7.822   8.669  63.681  1.00  0.00    -0.148 C  
HETATM   49  H1  UNL     1     -10.662  11.614  63.025  1.00  0.00     0.000 HD 
HETATM   50  O   UNL     1      -8.081   7.276  63.460  1.00  0.00    -0.270 OA 
HETATM   51  H2  UNL     1      -9.975  12.693  64.111  1.00  0.00     0.000 HD 
HETATM   52  C   UNL     1      -9.149   9.442  63.656  1.00  0.00    -0.018 C  
HETATM   53  H   UNL     1      -8.530   7.118  62.637  1.00  0.00     0.000 HD 
HETATM   54  O   UNL     1      -9.777   9.283  62.372  1.00  0.00    -0.454 OA 
HETATM   55  C   UNL     1      -8.886  10.935  63.928  1.00  0.00    -0.057 C  
HETATM   56  N   UNL     1     -10.149  11.711  63.900  1.00  0.00    -0.323 NA 
HETATM   57  H   UNL     1     -10.598   9.762  62.357  1.00  0.00     0.000 HD 
BRANCH  47  58
HETATM   58  C   UNL     1      -5.728   8.210  65.106  1.00  0.00    -0.044 C  
HETATM   59  H1  UNL     1      -4.897   6.326  65.559  1.00  0.00     0.000 HD 
HETATM   60  N   UNL     1      -5.800   6.797  65.496  1.00  0.00    -0.033 NA 
HETATM   61  H2  UNL     1      -6.422   6.288  64.868  1.00  0.00     0.000 HD 
ENDBRANCH  47  58
ENDBRANCH  44  45
ENDBRANCH  40  44
ENDBRANCH  29  30
ENDBRANCH  22  29
ENDBRANCH  18  19
ENDBRANCH   7  18
ENDBRANCH   2   5
TORSDOF 9
ENDMDL
MODEL      208
REMARK 921   NORMALIZED FREE ENERGY PREDICTED BY IDOCK:   -3.34 KCAL/MOL
REMARK 922        TOTAL FREE ENERGY PREDICTED BY IDOCK:   -7.91 KCAL/MOL
REMARK 923 INTER-LIGAND FREE ENERGY PREDICTED BY IDOCK:   -7.64 KCAL/MOL
REMARK 924 INTRA-LIGAND FREE ENERGY PREDICTED BY IDOCK:   -0.27 KCAL/MOL
REMARK 927      BINDING AFFINITY PREDICTED BY RF-SCORE:    0.00 PKD
ROOT
HETATM    1  N   UNL     1      -9.234  14.419  66.035  1.00  0.00    -0.521 NA 
HETATM    2  C   UNL     1      -9.593  13.116  66.601  1.00  0.00    -0.260 C  
HETATM    3  H1  UNL     1      -9.822  15.200  66.326  1.00  0.00     0.000 HD 
HETATM    4  H2  UNL     1      -9.208  14.362  65.017  1.00  0.00     0.000 HD 
ENDROOT
BRANCH   2   5
HETATM    5  C   UNL     1      -8.699  11.927  66.158  1.00  0.00    -0.009 C  
HETATM    6  O   UNL     1      -9.358  10.637  66.243  1.00  0.00    -0.164 OA 
HETATM    7  C   UNL     1      -8.515   9.606  65.699  1.00  0.00    -0.132 C  
HETATM    8  C   UNL     1      -7.202   9.473  66.538  1.00  0.00    -0.089 C  
HETATM    9  O   UNL     1      -7.821  11.794  68.428  1.00  0.00    -0.128 OA 
HETATM   10  H   UNL     1      -7.045  11.797  68.977  1.00  0.00     0.000 HD 
HETATM   11  N   UNL     1      -7.508   8.939  67.907  1.00  0.00    -0.092 NA 
HETATM   12  C   UNL     1      -6.476  10.815  66.621  1.00  0.00    -0.108 C  
HETATM   13  H2  UNL     1      -8.022   8.059  67.865  1.00  0.00     0.000 HD 
HETATM   14  O   UNL     1      -5.825  11.152  65.389  1.00  0.00    -0.395 OA 
HETATM   15  C   UNL     1      -7.434  11.933  67.052  1.00  0.00    -0.126 C  
HETATM   16  H1  UNL     1      -6.652   8.853  68.454  1.00  0.00     0.000 HD 
HETATM   17  H   UNL     1      -5.374  11.986  65.441  1.00  0.00     0.000 HD 
BRANCH   7  18
HETATM   18  O   UNL     1      -9.061   8.303  65.801  1.00  0.00    -0.176 OA 
BRANCH  18  19
HETATM   19  C   UNL     1      -9.086   7.630  67.053  1.00  0.00    -0.135 C  
HETATM   20  O   UNL     1     -11.210   8.858  67.424  1.00  0.00    -0.337 OA 
HETATM   21  C   UNL     1      -9.237   6.167  66.618  1.00  0.00    -0.144 C  
HETATM   22  C   UNL     1     -11.014   6.499  68.042  1.00  0.00    -0.282 C  
HETATM   23  H   UNL     1     -11.964   9.008  67.982  1.00  0.00     0.000 HD 
HETATM   24  O   UNL     1     -10.603   5.796  66.868  1.00  0.00    -0.254 OA 
HETATM   25  C   UNL     1     -10.310   7.872  67.962  1.00  0.00    -0.209 C  
BRANCH  21  26
HETATM   26  C   UNL     1      -8.250   5.212  67.296  1.00  0.00    -0.107 C  
HETATM   27  H   UNL     1      -6.799   5.285  68.651  1.00  0.00     0.000 HD 
HETATM   28  O   UNL     1      -7.411   5.877  68.231  1.00  0.00    -0.082 OA 
ENDBRANCH  21  26
BRANCH  22  29
HETATM   29  O   UNL     1     -10.643   5.769  69.218  1.00  0.00    -0.255 OA 
BRANCH  29  30
HETATM   30  C   UNL     1     -10.727   6.473  70.504  1.00  0.00    -0.254 C  
HETATM   31  C   UNL     1     -11.985   7.379  70.552  1.00  0.00    -0.108 C  
HETATM   32  O   UNL     1     -13.088   6.617  71.090  1.00  0.00    -0.151 OA 
HETATM   33  C   UNL     1     -11.920   8.695  71.344  1.00  0.00    -0.304 C  
HETATM   34  C   UNL     1     -10.523   9.280  71.450  1.00  0.00    -0.408 C  
HETATM   35  N   UNL     1     -12.803   9.707  70.708  1.00  0.00    -0.540 NA 
HETATM   36  H   UNL     1     -13.858   7.173  71.119  1.00  0.00     0.000 HD 
HETATM   37  H1  UNL     1     -12.760  10.580  71.234  1.00  0.00     0.000 HD 
HETATM   38  H2  UNL     1     -13.760   9.369  70.603  1.00  0.00     0.000 HD 
HETATM   39  C   UNL     1      -9.552   8.228  71.982  1.00  0.00    -0.248 C  
HETATM   40  C   UNL     1      -9.372   7.101  70.933  1.00  0.00    -0.160 C  
HETATM   41  N   UNL     1      -8.266   8.889  72.293  1.00  0.00    -0.362 NA 
HETATM   42  H2  UNL     1      -8.376   9.678  72.931  1.00  0.00     0.000 HD 
HETATM   43  H1  UNL     1      -7.618   8.186  72.648  1.00  0.00     0.000 HD 
BRANCH  40  44
HETATM   44  O   UNL     1      -8.481   6.118  71.515  1.00  0.00    -0.126 OA 
BRANCH  44  45
HETATM   45  C   UNL     1      -8.671   5.865  72.910  1.00  0.00    -0.124 C  
HETATM   46  O   UNL     1      -9.629   4.828  73.133  1.00  0.00    -0.133 OA 
HETATM   47  C   UNL     1      -9.212   3.547  72.641  1.00  0.00    -0.104 C  
HETATM   48  C   UNL     1      -7.888   3.098  73.278  1.00  0.00    -0.064 C  
HETATM   49  H1  UNL     1      -5.385   6.358  73.805  1.00  0.00     0.000 HD 
HETATM   50  O   UNL     1      -7.431   1.843  72.757  1.00  0.00    -0.031 OA 
HETATM   51  H2  UNL     1      -6.624   7.485  73.691  1.00  0.00     0.000 HD 
HETATM   52  C   UNL     1      -6.810   4.167  73.047  1.00  0.00    -0.056 C  
HETATM   53  H   UNL     1      -6.612   1.565  73.152  1.00  0.00     0.000 HD 
HETATM   54  O   UNL     1      -5.602   3.791  73.731  1.00  0.00    -0.003 OA 
HETATM   55  C   UNL     1      -7.305   5.527  73.571  1.00  0.00    -0.091 C  
HETATM   56  N   UNL     1      -6.280   6.579  73.371  1.00  0.00    -0.063 NA 
HETATM   57  H   UNL     1      -4.935   4.453  73.588  1.00  0.00     0.000 HD 
BRANCH  47  58
HETATM   58  C   UNL     1     -10.366   2.543  72.858  1.00  0.00    -0.154 C  
HETATM   59  H1  UNL     1     -12.295   2.430  73.702  1.00  0.00     0.000 HD 
HETATM   60  N   UNL     1     -11.533   3.094  73.558  1.00  0.00    -0.154 NA 
HETATM   61  H2  UNL     1     -11.873   3.927  73.078  1.00  0.00     0.000 HD 
ENDBRANCH  47  58
ENDBRANCH  44  45
ENDBRANCH  40  44
ENDBRANCH  29  30
ENDBRANCH  22  29
ENDBRANCH  18  19
ENDBRANCH   7  18
ENDBRANCH   2   5
TORSDOF 9
ENDMDL
MODEL      209
REMARK 921   NORMALIZED FREE ENERGY PREDICTED BY IDOCK:   -3.32 KCAL/MOL
REMARK 922        TOTAL FREE ENERGY PREDICTED BY IDOCK:   -7.88 KCAL/MOL
REMARK 923 INTER-LIGAND FREE ENERGY PREDICTED BY IDOCK:   -7.12 KCAL/MOL
REMARK 924 INTRA-LIGAND FREE ENERGY PREDICTED BY IDOCK:   -0.76 KCAL/MOL
REMARK 927      BINDING AFFINITY PREDICTED BY RF-SCORE:    0.00 PKD
ROOT
HETATM    1  N   UNL     1      -5.304  18.826  71.124  1.00  0.00    -0.271 NA 
HETATM    2  C   UNL     1      -6.122  19.554  70.150  1.00  0.00    -0.250 C  
HETATM    3  H1  UNL     1      -4.898  19.394  71.866  1.00  0.00     0.000 HD 
HETATM    4  H2  UNL     1      -4.572  18.304  70.644  1.00  0.00     0.000 HD 
ENDROOT
BRANCH   2   5
HETATM    5  C   UNL     1      -6.740  18.690  69.020  1.00  0.00    -0.276 C  
HETATM    6  O   UNL     1      -6.030  17.447  68.780  1.00  0.00    -0.160 OA 
HETATM    7  C   UNL     1      -6.731  16.646  67.812  1.00  0.00    -0.139 C  
HETATM    8  C   UNL     1      -6.789  17.381  66.433  1.00  0.00    -0.274 C  
HETATM    9  O   UNL     1      -5.412  19.933  67.397  1.00  0.00    -0.170 OA 
HETATM   10  H   UNL     1      -5.420  20.458  66.605  1.00  0.00     0.000 HD 
HETATM   11  N   UNL     1      -5.417  17.470  65.831  1.00  0.00    -0.252 NA 
HETATM   12  C   UNL     1      -7.414  18.767  66.584  1.00  0.00    -0.233 C  
HETATM   13  H2  UNL     1      -4.975  16.554  65.755  1.00  0.00     0.000 HD 
HETATM   14  O   UNL     1      -8.834  18.699  66.769  1.00  0.00    -0.278 OA 
HETATM   15  C   UNL     1      -6.754  19.546  67.728  1.00  0.00    -0.230 C  
HETATM   16  H1  UNL     1      -5.454  17.949  64.931  1.00  0.00     0.000 HD 
HETATM   17  H   UNL     1      -9.223  19.560  66.863  1.00  0.00     0.000 HD 
BRANCH   7  18
HETATM   18  O   UNL     1      -6.070  15.440  67.475  1.00  0.00    -0.234 OA 
BRANCH  18  19
HETATM   19  C   UNL     1      -6.813  14.246  67.272  1.00  0.00     0.187 C  
HETATM   20  O   UNL     1      -5.178  13.223  68.835  1.00  0.00    -0.071 OA 
HETATM   21  C   UNL     1      -8.170  14.614  67.884  1.00  0.00    -0.150 C  
HETATM   22  C   UNL     1      -7.563  12.704  69.014  1.00  0.00     0.146 C  
HETATM   23  H   UNL     1      -4.909  12.455  69.325  1.00  0.00     0.000 HD 
HETATM   24  O   UNL     1      -8.249  13.948  69.155  1.00  0.00     0.084 OA 
HETATM   25  C   UNL     1      -6.376  12.998  68.068  1.00  0.00    -0.115 C  
BRANCH  21  26
HETATM   26  C   UNL     1      -9.366  14.283  66.988  1.00  0.00    -0.241 C  
HETATM   27  H   UNL     1      -9.744  13.974  65.062  1.00  0.00     0.000 HD 
HETATM   28  O   UNL     1      -9.003  14.180  65.618  1.00  0.00     0.402 OA 
ENDBRANCH  21  26
BRANCH  22  29
HETATM   29  O   UNL     1      -8.442  11.705  68.482  1.00  0.00    -0.154 OA 
BRANCH  29  30
HETATM   30  C   UNL     1      -8.627  10.479  69.268  1.00  0.00    -0.126 C  
HETATM   31  C   UNL     1      -7.591   9.401  68.854  1.00  0.00    -0.075 C  
HETATM   32  O   UNL     1      -6.412   9.548  69.676  1.00  0.00    -0.039 OA 
HETATM   33  C   UNL     1      -7.999   7.920  68.915  1.00  0.00    -0.123 C  
HETATM   34  C   UNL     1      -9.489   7.685  68.747  1.00  0.00    -0.152 C  
HETATM   35  N   UNL     1      -7.284   7.160  67.858  1.00  0.00    -0.089 NA 
HETATM   36  H   UNL     1      -5.778   8.888  69.423  1.00  0.00     0.000 HD 
HETATM   37  H1  UNL     1      -7.555   6.177  67.898  1.00  0.00     0.000 HD 
HETATM   38  H2  UNL     1      -6.273   7.282  67.914  1.00  0.00     0.000 HD 
HETATM   39  C   UNL     1     -10.271   8.550  69.735  1.00  0.00    -0.206 C  
HETATM   40  C   UNL     1     -10.116  10.046  69.361  1.00  0.00    -0.219 C  
HETATM   41  N   UNL     1     -11.689   8.128  69.708  1.00  0.00    -0.193 NA 
HETATM   42  H2  UNL     1     -11.804   7.130  69.886  1.00  0.00     0.000 HD 
HETATM   43  H1  UNL     1     -12.211   8.705  70.368  1.00  0.00     0.000 HD 
BRANCH  40  44
HETATM   44  O   UNL     1     -10.840  10.809  70.358  1.00  0.00    -0.143 OA 
BRANCH  44  45
HETATM   45  C   UNL     1     -12.231  11.005  70.093  1.00  0.00    -0.344 C  
HETATM   46  O   UNL     1     -12.905  11.590  71.210  1.00  0.00    -0.404 OA 
HETATM   47  C   UNL     1     -12.458  12.919  71.516  1.00  0.00    -0.056 C  
HETATM   48  C   UNL     1     -12.636  13.867  70.321  1.00  0.00    -0.264 C  
HETATM   49  H1  UNL     1     -11.839  11.862  66.783  1.00  0.00     0.000 HD 
HETATM   50  O   UNL     1     -12.146  15.186  70.594  1.00  0.00    -0.281 OA 
HETATM   51  H2  UNL     1     -12.033  10.337  67.459  1.00  0.00     0.000 HD 
HETATM   52  C   UNL     1     -11.909  13.299  69.093  1.00  0.00    -0.329 C  
HETATM   53  H   UNL     1     -12.256  15.773  69.855  1.00  0.00     0.000 HD 
HETATM   54  O   UNL     1     -12.162  14.136  67.951  1.00  0.00    -0.543 OA 
HETATM   55  C   UNL     1     -12.403  11.868  68.812  1.00  0.00     0.286 C  
HETATM   56  N   UNL     1     -11.726  11.296  67.624  1.00  0.00    -0.605 NA 
HETATM   57  H   UNL     1     -11.713  13.784  67.192  1.00  0.00     0.000 HD 
BRANCH  47  58
HETATM   58  C   UNL     1     -13.191  13.396  72.790  1.00  0.00    -0.160 C  
HETATM   59  H1  UNL     1     -13.098  14.905  74.260  1.00  0.00     0.000 HD 
HETATM   60  N   UNL     1     -12.614  14.590  73.418  1.00  0.00    -0.375 NA 
HETATM   61  H2  UNL     1     -12.548  15.350  72.741  1.00  0.00     0.000 HD 
ENDBRANCH  47  58
ENDBRANCH  44  45
ENDBRANCH  40  44
ENDBRANCH  29  30
ENDBRANCH  22  29
ENDBRANCH  18  19
ENDBRANCH   7  18
ENDBRANCH   2   5
TORSDOF 9
ENDMDL
MODEL      210
REMARK 921   NORMALIZED FREE ENERGY PREDICTED BY IDOCK:   -3.30 KCAL/MOL
REMARK 922        TOTAL FREE ENERGY PREDICTED BY IDOCK:   -7.85 KCAL/MOL
REMARK 923 INTER-LIGAND FREE ENERGY PREDICTED BY IDOCK:   -7.38 KCAL/MOL
REMARK 924 INTRA-LIGAND FREE ENERGY PREDICTED BY IDOCK:   -0.47 KCAL/MOL
REMARK 927      BINDING AFFINITY PREDICTED BY RF-SCORE:    0.00 PKD
ROOT
HETATM    1  N   UNL     1      -7.533   3.015  68.520  1.00  0.00    -0.049 NA 
HETATM    2  C   UNL     1      -6.695   4.208  68.374  1.00  0.00    -0.047 C  
HETATM    3  H1  UNL     1      -7.239   2.204  67.977  1.00  0.00     0.000 HD 
HETATM    4  H2  UNL     1      -8.504   3.243  68.310  1.00  0.00     0.000 HD 
ENDROOT
BRANCH   2   5
HETATM    5  C   UNL     1      -7.142   5.442  69.201  1.00  0.00    -0.057 C  
HETATM    6  O   UNL     1      -6.423   6.659  68.872  1.00  0.00    -0.036 OA 
HETATM    7  C   UNL     1      -6.976   7.779  69.584  1.00  0.00    -0.048 C  
HETATM    8  C   UNL     1      -6.806   7.585  71.126  1.00  0.00    -0.050 C  
HETATM    9  O   UNL     1      -5.558   4.802  70.940  1.00  0.00    -0.010 OA 
HETATM   10  H   UNL     1      -5.434   4.593  71.859  1.00  0.00     0.000 HD 
HETATM   11  N   UNL     1      -5.356   7.659  71.505  1.00  0.00    -0.034 NA 
HETATM   12  C   UNL     1      -7.426   6.263  71.576  1.00  0.00    -0.090 C  
HETATM   13  H2  UNL     1      -4.922   8.523  71.181  1.00  0.00     0.000 HD 
HETATM   14  O   UNL     1      -8.859   6.320  71.596  1.00  0.00    -0.137 OA 
HETATM   15  C   UNL     1      -6.941   5.102  70.699  1.00  0.00    -0.052 C  
HETATM   16  H1  UNL     1      -5.245   7.532  72.511  1.00  0.00     0.000 HD 
HETATM   17  H   UNL     1      -9.245   5.498  71.876  1.00  0.00     0.000 HD 
BRANCH   7  18
HETATM   18  O   UNL     1      -6.289   8.998  69.364  1.00  0.00    -0.043 OA 
BRANCH  18  19
HETATM   19  C   UNL     1      -6.806   9.961  68.454  1.00  0.00    -0.063 C  
HETATM   20  O   UNL     1      -8.535  10.350  70.191  1.00  0.00    -0.324 OA 
HETATM   21  C   UNL     1      -5.670  10.991  68.411  1.00  0.00    -0.042 C  
HETATM   22  C   UNL     1      -7.511  12.233  69.011  1.00  0.00     0.058 C  
HETATM   23  H   UNL     1      -9.288  10.855  70.474  1.00  0.00     0.000 HD 
HETATM   24  O   UNL     1      -6.099  12.118  69.193  1.00  0.00    -0.068 OA 
HETATM   25  C   UNL     1      -8.030  10.781  68.914  1.00  0.00    -0.143 C  
BRANCH  21  26
HETATM   26  C   UNL     1      -5.255  11.399  66.995  1.00  0.00    -0.088 C  
HETATM   27  H   UNL     1      -5.681  10.907  65.118  1.00  0.00     0.000 HD 
HETATM   28  O   UNL     1      -5.938  10.654  65.996  1.00  0.00    -0.101 OA 
ENDBRANCH  21  26
BRANCH  22  29
HETATM   29  O   UNL     1      -7.804  12.992  67.831  1.00  0.00    -0.122 OA 
BRANCH  29  30
HETATM   30  C   UNL     1      -9.201  13.389  67.612  1.00  0.00    -0.212 C  
HETATM   31  C   UNL     1     -10.170  12.309  68.161  1.00  0.00    -0.212 C  
HETATM   32  O   UNL     1     -10.477  12.616  69.538  1.00  0.00    -0.332 OA 
HETATM   33  C   UNL     1     -11.510  12.083  67.441  1.00  0.00    -0.336 C  
HETATM   34  C   UNL     1     -11.485  12.443  65.967  1.00  0.00    -0.431 C  
HETATM   35  N   UNL     1     -11.912  10.659  67.568  1.00  0.00    -0.180 NA 
HETATM   36  H   UNL     1     -11.071  11.955  69.874  1.00  0.00     0.000 HD 
HETATM   37  H1  UNL     1     -12.801  10.509  67.091  1.00  0.00     0.000 HD 
HETATM   38  H2  UNL     1     -11.943  10.354  68.541  1.00  0.00     0.000 HD 
HETATM   39  C   UNL     1     -10.952  13.863  65.782  1.00  0.00    -0.285 C  
HETATM   40  C   UNL     1      -9.453  13.918  66.173  1.00  0.00    -0.171 C  
HETATM   41  N   UNL     1     -11.160  14.263  64.373  1.00  0.00    -0.605 NA 
HETATM   42  H2  UNL     1     -12.132  14.168  64.078  1.00  0.00     0.000 HD 
HETATM   43  H1  UNL     1     -10.805  15.211  64.250  1.00  0.00     0.000 HD 
BRANCH  40  44
HETATM   44  O   UNL     1      -9.025  15.294  66.020  1.00  0.00    -0.292 OA 
BRANCH  44  45
HETATM   45  C   UNL     1      -8.565  15.931  67.214  1.00  0.00    -0.184 C  
HETATM   46  O   UNL     1      -7.221  16.400  67.078  1.00  0.00    -0.179 OA 
HETATM   47  C   UNL     1      -7.073  17.436  66.097  1.00  0.00    -0.284 C  
HETATM   48  C   UNL     1      -7.955  18.652  66.418  1.00  0.00    -0.277 C  
HETATM   49  H1  UNL     1     -11.573  17.403  68.007  1.00  0.00     0.000 HD 
HETATM   50  O   UNL     1      -7.857  19.675  65.418  1.00  0.00    -0.348 OA 
HETATM   51  H2  UNL     1     -11.005  15.880  68.427  1.00  0.00     0.000 HD 
HETATM   52  C   UNL     1      -9.421  18.210  66.551  1.00  0.00    -0.304 C  
HETATM   53  H   UNL     1      -8.403  20.427  65.616  1.00  0.00     0.000 HD 
HETATM   54  O   UNL     1     -10.229  19.331  66.950  1.00  0.00    -0.343 OA 
HETATM   55  C   UNL     1      -9.532  17.086  67.597  1.00  0.00    -0.236 C  
HETATM   56  N   UNL     1     -10.939  16.646  67.756  1.00  0.00    -0.286 NA 
HETATM   57  H   UNL     1     -11.135  19.058  67.032  1.00  0.00     0.000 HD 
BRANCH  47  58
HETATM   58  C   UNL     1      -5.571  17.785  65.982  1.00  0.00    -0.206 C  
HETATM   59  H1  UNL     1      -4.160  19.182  66.689  1.00  0.00     0.000 HD 
HETATM   60  N   UNL     1      -5.152  18.952  66.766  1.00  0.00    -0.132 NA 
HETATM   61  H2  UNL     1      -5.414  18.835  67.745  1.00  0.00     0.000 HD 
ENDBRANCH  47  58
ENDBRANCH  44  45
ENDBRANCH  40  44
ENDBRANCH  29  30
ENDBRANCH  22  29
ENDBRANCH  18  19
ENDBRANCH   7  18
ENDBRANCH   2   5
TORSDOF 9
ENDMDL
MODEL      211
REMARK 921   NORMALIZED FREE ENERGY PREDICTED BY IDOCK:   -3.29 KCAL/MOL
REMARK 922        TOTAL FREE ENERGY PREDICTED BY IDOCK:   -7.84 KCAL/MOL
REMARK 923 INTER-LIGAND FREE ENERGY PREDICTED BY IDOCK:   -6.56 KCAL/MOL
REMARK 924 INTRA-LIGAND FREE ENERGY PREDICTED BY IDOCK:   -1.28 KCAL/MOL
REMARK 927      BINDING AFFINITY PREDICTED BY RF-SCORE:    0.00 PKD
ROOT
HETATM    1  N   UNL     1      -8.172   1.769  70.925  1.00  0.00    -0.048 NA 
HETATM    2  C   UNL     1      -9.211   1.819  71.958  1.00  0.00    -0.082 C  
HETATM    3  H1  UNL     1      -7.634   0.904  70.887  1.00  0.00     0.000 HD 
HETATM    4  H2  UNL     1      -7.544   2.566  71.023  1.00  0.00     0.000 HD 
ENDROOT
BRANCH   2   5
HETATM    5  C   UNL     1     -10.029   3.136  72.017  1.00  0.00    -0.152 C  
HETATM    6  O   UNL     1      -9.451   4.219  71.241  1.00  0.00    -0.138 OA 
HETATM    7  C   UNL     1     -10.326   5.360  71.241  1.00  0.00    -0.228 C  
HETATM    8  C   UNL     1     -10.499   5.917  72.692  1.00  0.00    -0.206 C  
HETATM    9  O   UNL     1      -8.823   3.748  74.045  1.00  0.00    -0.089 OA 
HETATM   10  H   UNL     1      -8.891   4.005  74.958  1.00  0.00     0.000 HD 
HETATM   11  N   UNL     1      -9.211   6.510  73.182  1.00  0.00    -0.128 NA 
HETATM   12  C   UNL     1     -10.994   4.821  73.636  1.00  0.00    -0.318 C  
HETATM   13  H2  UNL     1      -8.852   7.220  72.543  1.00  0.00     0.000 HD 
HETATM   14  O   UNL     1     -12.381   4.521  73.431  1.00  0.00    -0.134 OA 
HETATM   15  C   UNL     1     -10.139   3.555  73.504  1.00  0.00    -0.127 C  
HETATM   16  H1  UNL     1      -9.324   6.873  74.128  1.00  0.00     0.000 HD 
HETATM   17  H   UNL     1     -12.689   3.840  74.018  1.00  0.00     0.000 HD 
BRANCH   7  18
HETATM   18  O   UNL     1      -9.805   6.485  70.556  1.00  0.00    -0.178 OA 
BRANCH  18  19
HETATM   19  C   UNL     1     -10.095   6.685  69.179  1.00  0.00    -0.169 C  
HETATM   20  O   UNL     1     -10.365   9.071  69.808  1.00  0.00    -0.197 OA 
HETATM   21  C   UNL     1      -8.758   6.323  68.522  1.00  0.00    -0.112 C  
HETATM   22  C   UNL     1      -9.182   8.451  67.758  1.00  0.00    -0.131 C  
HETATM   23  H   UNL     1     -10.523   9.963  69.522  1.00  0.00     0.000 HD 
HETATM   24  O   UNL     1      -8.133   7.559  68.137  1.00  0.00    -0.121 OA 
HETATM   25  C   UNL     1     -10.353   8.134  68.715  1.00  0.00    -0.202 C  
BRANCH  21  26
HETATM   26  C   UNL     1      -8.886   5.354  67.343  1.00  0.00    -0.105 C  
HETATM   27  H   UNL     1     -10.307   4.330  66.405  1.00  0.00     0.000 HD 
HETATM   28  O   UNL     1     -10.227   4.931  67.136  1.00  0.00    -0.195 OA 
ENDBRANCH  21  26
BRANCH  22  29
HETATM   29  O   UNL     1      -9.537   8.250  66.384  1.00  0.00    -0.217 OA 
BRANCH  29  30
HETATM   30  C   UNL     1      -8.613   8.763  65.365  1.00  0.00    -0.178 C  
HETATM   31  C   UNL     1      -7.760   7.613  64.769  1.00  0.00    -0.116 C  
HETATM   32  O   UNL     1      -8.450   7.066  63.624  1.00  0.00    -0.349 OA 
HETATM   33  C   UNL     1      -6.319   7.913  64.325  1.00  0.00    -0.057 C  
HETATM   34  C   UNL     1      -5.674   9.067  65.069  1.00  0.00    -0.058 C  
HETATM   35  N   UNL     1      -5.475   6.705  64.513  1.00  0.00    -0.026 NA 
HETATM   36  H   UNL     1      -7.927   6.362  63.259  1.00  0.00     0.000 HD 
HETATM   37  H1  UNL     1      -4.519   6.904  64.218  1.00  0.00     0.000 HD 
HETATM   38  H2  UNL     1      -5.861   5.889  64.038  1.00  0.00     0.000 HD 
HETATM   39  C   UNL     1      -6.574  10.300  65.009  1.00  0.00    -0.114 C  
HETATM   40  C   UNL     1      -7.867  10.047  65.825  1.00  0.00    -0.128 C  
HETATM   41  N   UNL     1      -5.820  11.459  65.534  1.00  0.00    -0.447 NA 
HETATM   42  H2  UNL     1      -4.932  11.599  65.051  1.00  0.00     0.000 HD 
HETATM   43  H1  UNL     1      -6.421  12.282  65.494  1.00  0.00     0.000 HD 
BRANCH  40  44
HETATM   44  O   UNL     1      -8.693  11.230  65.689  1.00  0.00    -0.169 OA 
BRANCH  44  45
HETATM   45  C   UNL     1      -9.441  11.595  66.852  1.00  0.00    -0.185 C  
HETATM   46  O   UNL     1      -8.844  11.083  68.046  1.00  0.00    -0.130 OA 
HETATM   47  C   UNL     1      -7.550  11.637  68.323  1.00  0.00    -0.120 C  
HETATM   48  C   UNL     1      -7.605  13.166  68.454  1.00  0.00    -0.133 C  
HETATM   49  H1  UNL     1     -10.313  14.731  65.737  1.00  0.00     0.000 HD 
HETATM   50  O   UNL     1      -6.309  13.740  68.679  1.00  0.00    -0.080 OA 
HETATM   51  H2  UNL     1     -11.111  13.273  65.503  1.00  0.00     0.000 HD 
HETATM   52  C   UNL     1      -8.216  13.776  67.184  1.00  0.00    -0.108 C  
HETATM   53  H   UNL     1      -6.343  14.686  68.760  1.00  0.00     0.000 HD 
HETATM   54  O   UNL     1      -8.359  15.197  67.350  1.00  0.00    -0.159 OA 
HETATM   55  C   UNL     1      -9.592  13.141  66.913  1.00  0.00    -0.248 C  
HETATM   56  N   UNL     1     -10.213  13.717  65.697  1.00  0.00    -0.305 NA 
HETATM   57  H   UNL     1      -8.737  15.574  66.564  1.00  0.00     0.000 HD 
BRANCH  47  58
HETATM   58  C   UNL     1      -6.980  10.936  69.577  1.00  0.00    -0.131 C  
HETATM   59  H1  UNL     1      -5.797   9.279  70.127  1.00  0.00     0.000 HD 
HETATM   60  N   UNL     1      -6.173   9.742  69.299  1.00  0.00    -0.037 NA 
HETATM   61  H2  UNL     1      -5.422   9.967  68.646  1.00  0.00     0.000 HD 
ENDBRANCH  47  58
ENDBRANCH  44  45
ENDBRANCH  40  44
ENDBRANCH  29  30
ENDBRANCH  22  29
ENDBRANCH  18  19
ENDBRANCH   7  18
ENDBRANCH   2   5
TORSDOF 9
ENDMDL
MODEL      212
REMARK 921   NORMALIZED FREE ENERGY PREDICTED BY IDOCK:   -3.28 KCAL/MOL
REMARK 922        TOTAL FREE ENERGY PREDICTED BY IDOCK:   -7.82 KCAL/MOL
REMARK 923 INTER-LIGAND FREE ENERGY PREDICTED BY IDOCK:   -5.99 KCAL/MOL
REMARK 924 INTRA-LIGAND FREE ENERGY PREDICTED BY IDOCK:   -1.83 KCAL/MOL
REMARK 927      BINDING AFFINITY PREDICTED BY RF-SCORE:    0.00 PKD
ROOT
HETATM    1  N   UNL     1      -9.121   6.871  62.402  1.00  0.00     0.055 NA 
HETATM    2  C   UNL     1      -8.043   5.885  62.519  1.00  0.00    -0.105 C  
HETATM    3  H1  UNL     1      -9.011   7.554  61.654  1.00  0.00     0.000 HD 
HETATM    4  H2  UNL     1      -9.256   7.348  63.293  1.00  0.00     0.000 HD 
ENDROOT
BRANCH   2   5
HETATM    5  C   UNL     1      -8.211   4.846  63.659  1.00  0.00    -0.118 C  
HETATM    6  O   UNL     1      -8.139   5.420  64.990  1.00  0.00    -0.107 OA 
HETATM    7  C   UNL     1      -8.429   4.423  65.984  1.00  0.00    -0.113 C  
HETATM    8  C   UNL     1      -7.354   3.287  65.949  1.00  0.00    -0.072 C  
HETATM    9  O   UNL     1      -5.815   4.409  63.559  1.00  0.00    -0.016 OA 
HETATM   10  H   UNL     1      -5.134   3.753  63.453  1.00  0.00     0.000 HD 
HETATM   11  N   UNL     1      -6.025   3.811  66.408  1.00  0.00    -0.023 NA 
HETATM   12  C   UNL     1      -7.252   2.682  64.550  1.00  0.00    -0.054 C  
HETATM   13  H2  UNL     1      -6.085   4.249  67.328  1.00  0.00     0.000 HD 
HETATM   14  O   UNL     1      -8.368   1.832  64.249  1.00  0.00    -0.076 OA 
HETATM   15  C   UNL     1      -7.102   3.777  63.486  1.00  0.00    -0.049 C  
HETATM   16  H1  UNL     1      -5.324   3.071  66.385  1.00  0.00     0.000 HD 
HETATM   17  H   UNL     1      -8.305   1.456  63.379  1.00  0.00     0.000 HD 
BRANCH   7  18
HETATM   18  O   UNL     1      -8.319   4.890  67.317  1.00  0.00    -0.106 OA 
BRANCH  18  19
HETATM   19  C   UNL     1      -8.408   6.279  67.601  1.00  0.00    -0.117 C  
HETATM   20  O   UNL     1     -10.838   5.845  67.864  1.00  0.00    -0.271 OA 
HETATM   21  C   UNL     1      -7.612   6.383  68.907  1.00  0.00    -0.100 C  
HETATM   22  C   UNL     1      -9.656   7.294  69.441  1.00  0.00    -0.154 C  
HETATM   23  H   UNL     1     -11.694   6.187  68.092  1.00  0.00     0.000 HD 
HETATM   24  O   UNL     1      -8.569   6.533  69.969  1.00  0.00    -0.136 OA 
HETATM   25  C   UNL     1      -9.799   6.836  67.972  1.00  0.00    -0.136 C  
BRANCH  21  26
HETATM   26  C   UNL     1      -6.569   7.505  68.912  1.00  0.00    -0.048 C  
HETATM   27  H   UNL     1      -5.567   8.600  70.232  1.00  0.00     0.000 HD 
HETATM   28  O   UNL     1      -6.213   7.905  70.229  1.00  0.00    -0.032 OA 
ENDBRANCH  21  26
BRANCH  22  29
HETATM   29  O   UNL     1      -9.382   8.697  69.545  1.00  0.00    -0.152 OA 
BRANCH  29  30
HETATM   30  C   UNL     1     -10.219   9.483  70.460  1.00  0.00    -0.287 C  
HETATM   31  C   UNL     1     -10.978   8.555  71.444  1.00  0.00    -0.264 C  
HETATM   32  O   UNL     1     -10.166   8.362  72.623  1.00  0.00    -0.302 OA 
HETATM   33  C   UNL     1     -12.377   8.971  71.925  1.00  0.00    -0.384 C  
HETATM   34  C   UNL     1     -13.123   9.862  70.948  1.00  0.00    -0.344 C  
HETATM   35  N   UNL     1     -13.201   7.761  72.177  1.00  0.00    -0.508 NA 
HETATM   36  H   UNL     1     -10.631   7.793  73.225  1.00  0.00     0.000 HD 
HETATM   37  H1  UNL     1     -14.129   8.038  72.496  1.00  0.00     0.000 HD 
HETATM   38  H2  UNL     1     -12.748   7.117  72.825  1.00  0.00     0.000 HD 
HETATM   39  C   UNL     1     -12.256  11.059  70.561  1.00  0.00    -0.381 C  
HETATM   40  C   UNL     1     -11.040  10.580  69.727  1.00  0.00    -0.295 C  
HETATM   41  N   UNL     1     -13.090  12.018  69.803  1.00  0.00     0.973 NA 
HETATM   42  H2  UNL     1     -13.931  12.292  70.311  1.00  0.00     0.000 HD 
HETATM   43  H1  UNL     1     -12.510  12.817  69.545  1.00  0.00     0.000 HD 
BRANCH  40  44
HETATM   44  O   UNL     1     -10.239  11.751  69.434  1.00  0.00     0.080 OA 
BRANCH  44  45
HETATM   45  C   UNL     1     -10.601  12.462  68.247  1.00  0.00    -0.222 C  
HETATM   46  O   UNL     1     -10.991  13.807  68.536  1.00  0.00    -0.244 OA 
HETATM   47  C   UNL     1      -9.927  14.610  69.066  1.00  0.00    -0.193 C  
HETATM   48  C   UNL     1      -8.730  14.672  68.106  1.00  0.00    -0.168 C  
HETATM   49  H1  UNL     1      -8.219  11.013  66.231  1.00  0.00     0.000 HD 
HETATM   50  O   UNL     1      -7.637  15.429  68.645  1.00  0.00    -0.118 OA 
HETATM   51  H2  UNL     1      -9.777  10.484  66.564  1.00  0.00     0.000 HD 
HETATM   52  C   UNL     1      -8.250  13.250  67.779  1.00  0.00    -0.168 C  
HETATM   53  H   UNL     1      -6.897  15.467  68.051  1.00  0.00     0.000 HD 
HETATM   54  O   UNL     1      -7.197  13.308  66.802  1.00  0.00    -0.293 OA 
HETATM   55  C   UNL     1      -9.425  12.419  67.232  1.00  0.00    -0.191 C  
HETATM   56  N   UNL     1      -8.990  11.042  66.897  1.00  0.00    -0.155 NA 
HETATM   57  H   UNL     1      -6.900  12.428  66.600  1.00  0.00     0.000 HD 
BRANCH  47  58
HETATM   58  C   UNL     1     -10.499  16.002  69.421  1.00  0.00    -0.271 C  
HETATM   59  H1  UNL     1     -10.731  17.930  68.600  1.00  0.00     0.000 HD 
HETATM   60  N   UNL     1     -10.353  17.011  68.366  1.00  0.00    -0.329 NA 
HETATM   61  H2  UNL     1     -10.760  16.672  67.493  1.00  0.00     0.000 HD 
ENDBRANCH  47  58
ENDBRANCH  44  45
ENDBRANCH  40  44
ENDBRANCH  29  30
ENDBRANCH  22  29
ENDBRANCH  18  19
ENDBRANCH   7  18
ENDBRANCH   2   5
TORSDOF 9
ENDMDL
MODEL      213
REMARK 921   NORMALIZED FREE ENERGY PREDICTED BY IDOCK:   -3.27 KCAL/MOL
REMARK 922        TOTAL FREE ENERGY PREDICTED BY IDOCK:   -7.81 KCAL/MOL
REMARK 923 INTER-LIGAND FREE ENERGY PREDICTED BY IDOCK:   -7.42 KCAL/MOL
REMARK 924 INTRA-LIGAND FREE ENERGY PREDICTED BY IDOCK:   -0.39 KCAL/MOL
REMARK 927      BINDING AFFINITY PREDICTED BY RF-SCORE:    0.00 PKD
ROOT
HETATM    1  N   UNL     1      -9.593   2.019  67.092  1.00  0.00    -0.388 NA 
HETATM    2  C   UNL     1      -9.432   3.418  67.499  1.00  0.00    -0.180 C  
HETATM    3  H1  UNL     1      -9.770   1.870  66.099  1.00  0.00     0.000 HD 
HETATM    4  H2  UNL     1     -10.324   1.576  67.647  1.00  0.00     0.000 HD 
ENDROOT
BRANCH   2   5
HETATM    5  C   UNL     1      -9.164   3.645  69.010  1.00  0.00    -0.159 C  
HETATM    6  O   UNL     1      -8.512   4.909  69.305  1.00  0.00    -0.086 OA 
HETATM    7  C   UNL     1      -8.412   5.103  70.726  1.00  0.00    -0.117 C  
HETATM    8  C   UNL     1      -7.513   3.997  71.368  1.00  0.00    -0.058 C  
HETATM    9  O   UNL     1      -7.055   2.444  68.776  1.00  0.00    -0.043 OA 
HETATM   10  H   UNL     1      -6.517   1.724  69.085  1.00  0.00     0.000 HD 
HETATM   11  N   UNL     1      -6.088   4.162  70.929  1.00  0.00    -0.014 NA 
HETATM   12  C   UNL     1      -8.038   2.604  71.021  1.00  0.00    -0.050 C  
HETATM   13  H2  UNL     1      -5.735   5.099  71.124  1.00  0.00     0.000 HD 
HETATM   14  O   UNL     1      -9.220   2.276  71.762  1.00  0.00    -0.081 OA 
HETATM   15  C   UNL     1      -8.287   2.471  69.513  1.00  0.00    -0.045 C  
HETATM   16  H1  UNL     1      -5.501   3.440  71.347  1.00  0.00     0.000 HD 
HETATM   17  H   UNL     1      -9.547   1.410  71.546  1.00  0.00     0.000 HD 
BRANCH   7  18
HETATM   18  O   UNL     1      -7.731   6.288  71.099  1.00  0.00    -0.098 OA 
BRANCH  18  19
HETATM   19  C   UNL     1      -7.707   7.408  70.224  1.00  0.00    -0.093 C  
HETATM   20  O   UNL     1     -10.183   7.286  70.356  1.00  0.00    -0.192 OA 
HETATM   21  C   UNL     1      -7.052   8.479  71.105  1.00  0.00    -0.073 C  
HETATM   22  C   UNL     1      -9.038   9.445  70.459  1.00  0.00    -0.256 C  
HETATM   23  H   UNL     1     -11.019   7.669  70.119  1.00  0.00     0.000 HD 
HETATM   24  O   UNL     1      -8.099   9.366  71.533  1.00  0.00    -0.285 OA 
HETATM   25  C   UNL     1      -9.066   8.031  69.837  1.00  0.00    -0.145 C  
BRANCH  21  26
HETATM   26  C   UNL     1      -5.906   9.230  70.422  1.00  0.00    -0.038 C  
HETATM   27  H   UNL     1      -4.920  10.944  70.623  1.00  0.00     0.000 HD 
HETATM   28  O   UNL     1      -5.631  10.477  71.047  1.00  0.00    -0.104 OA 
ENDBRANCH  21  26
BRANCH  22  29
HETATM   29  O   UNL     1      -8.633  10.443  69.513  1.00  0.00    -0.159 OA 
BRANCH  29  30
HETATM   30  C   UNL     1      -9.425  10.568  68.283  1.00  0.00    -0.155 C  
HETATM   31  C   UNL     1     -10.404   9.374  68.138  1.00  0.00    -0.211 C  
HETATM   32  O   UNL     1     -11.654   9.717  68.774  1.00  0.00    -0.481 OA 
HETATM   33  C   UNL     1     -10.743   8.863  66.728  1.00  0.00    -0.028 C  
HETATM   34  C   UNL     1      -9.653   9.117  65.703  1.00  0.00    -0.287 C  
HETATM   35  N   UNL     1     -11.009   7.402  66.776  1.00  0.00    -0.509 NA 
HETATM   36  H   UNL     1     -12.254   8.986  68.685  1.00  0.00     0.000 HD 
HETATM   37  H1  UNL     1     -11.234   7.063  65.841  1.00  0.00     0.000 HD 
HETATM   38  H2  UNL     1     -11.733   7.165  67.455  1.00  0.00     0.000 HD 
HETATM   39  C   UNL     1      -9.258  10.592  65.711  1.00  0.00    -0.189 C  
HETATM   40  C   UNL     1      -8.557  10.941  67.049  1.00  0.00    -0.136 C  
HETATM   41  N   UNL     1      -8.374  10.849  64.553  1.00  0.00    -0.374 NA 
HETATM   42  H2  UNL     1      -8.794  10.561  63.669  1.00  0.00     0.000 HD 
HETATM   43  H1  UNL     1      -8.110  11.834  64.559  1.00  0.00     0.000 HD 
BRANCH  40  44
HETATM   44  O   UNL     1      -8.252  12.357  67.011  1.00  0.00    -0.178 OA 
BRANCH  44  45
HETATM   45  C   UNL     1      -9.061  13.184  67.851  1.00  0.00    -0.207 C  
HETATM   46  O   UNL     1      -8.288  13.811  68.877  1.00  0.00    -0.040 OA 
HETATM   47  C   UNL     1      -7.315  14.738  68.376  1.00  0.00    -0.116 C  
HETATM   48  C   UNL     1      -7.969  15.852  67.544  1.00  0.00    -0.145 C  
HETATM   49  H1  UNL     1     -11.126  14.317  65.343  1.00  0.00     0.000 HD 
HETATM   50  O   UNL     1      -7.003  16.758  66.992  1.00  0.00    -0.165 OA 
HETATM   51  H2  UNL     1     -11.284  12.943  66.294  1.00  0.00     0.000 HD 
HETATM   52  C   UNL     1      -8.796  15.235  66.406  1.00  0.00    -0.276 C  
HETATM   53  H   UNL     1      -7.408  17.447  66.478  1.00  0.00     0.000 HD 
HETATM   54  O   UNL     1      -9.487  16.274  65.692  1.00  0.00    -0.463 OA 
HETATM   55  C   UNL     1      -9.812  14.234  66.986  1.00  0.00    -0.254 C  
HETATM   56  N   UNL     1     -10.633  13.629  65.911  1.00  0.00    -0.284 NA 
HETATM   57  H   UNL     1      -9.998  15.893  64.989  1.00  0.00     0.000 HD 
BRANCH  47  58
HETATM   58  C   UNL     1      -6.490  15.270  69.569  1.00  0.00    -0.152 C  
HETATM   59  H1  UNL     1      -4.724  16.343  69.985  1.00  0.00     0.000 HD 
HETATM   60  N   UNL     1      -5.268  15.992  69.197  1.00  0.00    -0.108 NA 
HETATM   61  H2  UNL     1      -5.488  16.751  68.551  1.00  0.00     0.000 HD 
ENDBRANCH  47  58
ENDBRANCH  44  45
ENDBRANCH  40  44
ENDBRANCH  29  30
ENDBRANCH  22  29
ENDBRANCH  18  19
ENDBRANCH   7  18
ENDBRANCH   2   5
TORSDOF 9
ENDMDL
MODEL      214
REMARK 921   NORMALIZED FREE ENERGY PREDICTED BY IDOCK:   -3.27 KCAL/MOL
REMARK 922        TOTAL FREE ENERGY PREDICTED BY IDOCK:   -7.81 KCAL/MOL
REMARK 923 INTER-LIGAND FREE ENERGY PREDICTED BY IDOCK:   -6.24 KCAL/MOL
REMARK 924 INTRA-LIGAND FREE ENERGY PREDICTED BY IDOCK:   -1.57 KCAL/MOL
REMARK 927      BINDING AFFINITY PREDICTED BY RF-SCORE:    0.00 PKD
ROOT
HETATM    1  N   UNL     1     -10.073   4.531  68.525  1.00  0.00    -0.028 NA 
HETATM    2  C   UNL     1     -10.264   4.818  67.101  1.00  0.00    -0.130 C  
HETATM    3  H1  UNL     1     -10.916   4.565  69.096  1.00  0.00     0.000 HD 
HETATM    4  H2  UNL     1      -9.363   5.152  68.914  1.00  0.00     0.000 HD 
ENDROOT
BRANCH   2   5
HETATM    5  C   UNL     1      -8.980   4.767  66.232  1.00  0.00    -0.119 C  
HETATM    6  O   UNL     1      -8.924   5.797  65.211  1.00  0.00    -0.108 OA 
HETATM    7  C   UNL     1      -7.655   5.764  64.533  1.00  0.00    -0.084 C  
HETATM    8  C   UNL     1      -7.471   4.405  63.782  1.00  0.00    -0.055 C  
HETATM    9  O   UNL     1     -10.086   3.166  64.763  1.00  0.00    -0.355 OA 
HETATM   10  H   UNL     1     -10.047   2.307  64.358  1.00  0.00     0.000 HD 
HETATM   11  N   UNL     1      -8.439   4.304  62.640  1.00  0.00    -0.085 NA 
HETATM   12  C   UNL     1      -7.632   3.229  64.745  1.00  0.00    -0.077 C  
HETATM   13  H2  UNL     1      -8.365   5.101  62.007  1.00  0.00     0.000 HD 
HETATM   14  O   UNL     1      -6.492   3.075  65.600  1.00  0.00    -0.030 OA 
HETATM   15  C   UNL     1      -8.917   3.367  65.571  1.00  0.00    -0.140 C  
HETATM   16  H1  UNL     1      -8.319   3.418  62.150  1.00  0.00     0.000 HD 
HETATM   17  H   UNL     1      -6.591   2.344  66.199  1.00  0.00     0.000 HD 
BRANCH   7  18
HETATM   18  O   UNL     1      -7.543   6.701  63.477  1.00  0.00    -0.086 OA 
BRANCH  18  19
HETATM   19  C   UNL     1      -7.299   8.073  63.757  1.00  0.00    -0.102 C  
HETATM   20  O   UNL     1      -9.347   8.483  62.416  1.00  0.00    -0.407 OA 
HETATM   21  C   UNL     1      -7.486   8.120  65.278  1.00  0.00    -0.080 C  
HETATM   22  C   UNL     1      -8.958   9.707  64.499  1.00  0.00    -0.235 C  
HETATM   23  H   UNL     1      -9.981   9.112  62.091  1.00  0.00     0.000 HD 
HETATM   24  O   UNL     1      -8.763   8.731  65.523  1.00  0.00    -0.166 OA 
HETATM   25  C   UNL     1      -8.328   9.095  63.228  1.00  0.00    -0.193 C  
BRANCH  21  26
HETATM   26  C   UNL     1      -6.355   8.836  66.021  1.00  0.00    -0.057 C  
HETATM   27  H   UNL     1      -5.069   8.465  67.490  1.00  0.00     0.000 HD 
HETATM   28  O   UNL     1      -5.770   8.021  67.029  1.00  0.00    -0.035 OA 
ENDBRANCH  21  26
BRANCH  22  29
HETATM   29  O   UNL     1      -8.340  10.947  64.866  1.00  0.00    -0.077 OA 
BRANCH  29  30
HETATM   30  C   UNL     1      -8.922  11.684  65.994  1.00  0.00    -0.147 C  
HETATM   31  C   UNL     1     -10.092  12.583  65.517  1.00  0.00    -0.265 C  
HETATM   32  O   UNL     1     -11.322  11.829  65.597  1.00  0.00    -0.307 OA 
HETATM   33  C   UNL     1     -10.339  13.920  66.235  1.00  0.00    -0.293 C  
HETATM   34  C   UNL     1      -9.095  14.517  66.868  1.00  0.00    -0.274 C  
HETATM   35  N   UNL     1     -10.895  14.909  65.276  1.00  0.00    -0.359 NA 
HETATM   36  H   UNL     1     -12.038  12.380  65.305  1.00  0.00     0.000 HD 
HETATM   37  H1  UNL     1     -11.059  15.796  65.752  1.00  0.00     0.000 HD 
HETATM   38  H2  UNL     1     -11.735  14.562  64.811  1.00  0.00     0.000 HD 
HETATM   39  C   UNL     1      -8.417  13.485  67.768  1.00  0.00    -0.184 C  
HETATM   40  C   UNL     1      -7.843  12.332  66.906  1.00  0.00    -0.044 C  
HETATM   41  N   UNL     1      -7.356  14.163  68.544  1.00  0.00    -0.112 NA 
HETATM   42  H2  UNL     1      -7.705  14.967  69.065  1.00  0.00     0.000 HD 
HETATM   43  H1  UNL     1      -6.903  13.474  69.145  1.00  0.00     0.000 HD 
BRANCH  40  44
HETATM   44  O   UNL     1      -7.258  11.371  67.819  1.00  0.00    -0.083 OA 
BRANCH  44  45
HETATM   45  C   UNL     1      -7.863  11.305  69.113  1.00  0.00    -0.017 C  
HETATM   46  O   UNL     1      -9.137  10.659  69.069  1.00  0.00    -0.174 OA 
HETATM   47  C   UNL     1      -9.065   9.277  68.691  1.00  0.00    -0.132 C  
HETATM   48  C   UNL     1      -8.173   8.473  69.648  1.00  0.00    -0.115 C  
HETATM   49  H1  UNL     1      -4.936  10.768  70.841  1.00  0.00     0.000 HD 
HETATM   50  O   UNL     1      -8.049   7.100  69.253  1.00  0.00    -0.117 OA 
HETATM   51  H2  UNL     1      -5.654  12.225  70.417  1.00  0.00     0.000 HD 
HETATM   52  C   UNL     1      -6.776   9.109  69.716  1.00  0.00    -0.050 C  
HETATM   53  H   UNL     1      -7.496   6.602  69.845  1.00  0.00     0.000 HD 
HETATM   54  O   UNL     1      -5.975   8.416  70.688  1.00  0.00    -0.032 OA 
HETATM   55  C   UNL     1      -6.901  10.594  70.105  1.00  0.00    -0.113 C  
HETATM   56  N   UNL     1      -5.567  11.235  70.190  1.00  0.00    -0.095 NA 
HETATM   57  H   UNL     1      -5.112   8.810  70.730  1.00  0.00     0.000 HD 
BRANCH  47  58
HETATM   58  C   UNL     1     -10.506   8.725  68.590  1.00  0.00    -0.183 C  
HETATM   59  H1  UNL     1     -11.807   7.798  67.215  1.00  0.00     0.000 HD 
HETATM   60  N   UNL     1     -10.856   8.162  67.281  1.00  0.00    -0.494 NA 
HETATM   61  H2  UNL     1     -10.182   7.444  67.013  1.00  0.00     0.000 HD 
ENDBRANCH  47  58
ENDBRANCH  44  45
ENDBRANCH  40  44
ENDBRANCH  29  30
ENDBRANCH  22  29
ENDBRANCH  18  19
ENDBRANCH   7  18
ENDBRANCH   2   5
TORSDOF 9
ENDMDL
MODEL      215
REMARK 921   NORMALIZED FREE ENERGY PREDICTED BY IDOCK:   -3.21 KCAL/MOL
REMARK 922        TOTAL FREE ENERGY PREDICTED BY IDOCK:   -7.71 KCAL/MOL
REMARK 923 INTER-LIGAND FREE ENERGY PREDICTED BY IDOCK:   -7.05 KCAL/MOL
REMARK 924 INTRA-LIGAND FREE ENERGY PREDICTED BY IDOCK:   -0.66 KCAL/MOL
REMARK 927      BINDING AFFINITY PREDICTED BY RF-SCORE:    0.00 PKD
ROOT
HETATM    1  N   UNL     1      -8.938  15.032  67.788  1.00  0.00    -0.176 NA 
HETATM    2  C   UNL     1      -8.947  13.686  68.367  1.00  0.00    -0.160 C  
HETATM    3  H1  UNL     1      -9.383  15.755  68.353  1.00  0.00     0.000 HD 
HETATM    4  H2  UNL     1      -9.351  15.014  66.856  1.00  0.00     0.000 HD 
ENDROOT
BRANCH   2   5
HETATM    5  C   UNL     1      -8.270  12.586  67.507  1.00  0.00    -0.175 C  
HETATM    6  O   UNL     1      -9.069  11.383  67.361  1.00  0.00    -0.157 OA 
HETATM    7  C   UNL     1      -8.436  10.466  66.452  1.00  0.00    -0.138 C  
HETATM    8  C   UNL     1      -7.056   9.997  67.021  1.00  0.00    -0.089 C  
HETATM    9  O   UNL     1      -7.143  11.770  69.509  1.00  0.00    -0.311 OA 
HETATM   10  H   UNL     1      -6.311  11.557  69.917  1.00  0.00     0.000 HD 
HETATM   11  N   UNL     1      -7.256   9.144  68.240  1.00  0.00    -0.077 NA 
HETATM   12  C   UNL     1      -6.163  11.198  67.331  1.00  0.00    -0.066 C  
HETATM   13  H2  UNL     1      -7.878   8.357  68.055  1.00  0.00     0.000 HD 
HETATM   14  O   UNL     1      -5.632  11.794  66.141  1.00  0.00    -0.498 OA 
HETATM   15  C   UNL     1      -6.914  12.239  68.171  1.00  0.00    -0.087 C  
HETATM   16  H1  UNL     1      -6.357   8.839  68.611  1.00  0.00     0.000 HD 
HETATM   17  H   UNL     1      -5.077  12.541  66.333  1.00  0.00     0.000 HD 
BRANCH   7  18
HETATM   18  O   UNL     1      -9.124   9.237  66.302  1.00  0.00    -0.151 OA 
BRANCH  18  19
HETATM   19  C   UNL     1      -9.225   8.332  67.393  1.00  0.00    -0.141 C  
HETATM   20  O   UNL     1     -11.387   9.463  67.845  1.00  0.00    -0.472 OA 
HETATM   21  C   UNL     1      -9.325   6.982  66.672  1.00  0.00    -0.165 C  
HETATM   22  C   UNL     1     -11.201   7.029  68.003  1.00  0.00     0.078 C  
HETATM   23  H   UNL     1     -12.180   9.500  68.368  1.00  0.00     0.000 HD 
HETATM   24  O   UNL     1     -10.699   6.569  66.748  1.00  0.00    -0.291 OA 
HETATM   25  C   UNL     1     -10.512   8.392  68.243  1.00  0.00    -0.163 C  
BRANCH  21  26
HETATM   26  C   UNL     1      -8.374   5.914  67.218  1.00  0.00    -0.105 C  
HETATM   27  H   UNL     1      -7.222   5.619  68.810  1.00  0.00     0.000 HD 
HETATM   28  O   UNL     1      -7.812   6.281  68.471  1.00  0.00    -0.102 OA 
ENDBRANCH  21  26
BRANCH  22  29
HETATM   29  O   UNL     1     -10.902   6.083  69.038  1.00  0.00    -0.289 OA 
BRANCH  29  30
HETATM   30  C   UNL     1     -11.115   6.511  70.426  1.00  0.00    -0.332 C  
HETATM   31  C   UNL     1     -12.350   7.444  70.529  1.00  0.00     0.059 C  
HETATM   32  O   UNL     1     -13.523   6.638  70.777  1.00  0.00    -0.016 OA 
HETATM   33  C   UNL     1     -12.345   8.565  71.581  1.00  0.00    -0.326 C  
HETATM   34  C   UNL     1     -10.957   9.053  71.954  1.00  0.00    -0.423 C  
HETATM   35  N   UNL     1     -13.130   9.724  71.081  1.00  0.00    -0.471 NA 
HETATM   36  H   UNL     1     -14.279   7.209  70.840  1.00  0.00     0.000 HD 
HETATM   37  H1  UNL     1     -13.127  10.468  71.779  1.00  0.00     0.000 HD 
HETATM   38  H2  UNL     1     -14.076   9.458  70.808  1.00  0.00     0.000 HD 
HETATM   39  C   UNL     1     -10.075   7.871  72.353  1.00  0.00    -0.248 C  
HETATM   40  C   UNL     1      -9.803   6.977  71.117  1.00  0.00    -0.176 C  
HETATM   41  N   UNL     1      -8.818   8.397  72.930  1.00  0.00    -0.315 NA 
HETATM   42  H2  UNL     1      -8.982   9.042  73.703  1.00  0.00     0.000 HD 
HETATM   43  H1  UNL     1      -8.230   7.607  73.196  1.00  0.00     0.000 HD 
BRANCH  40  44
HETATM   44  O   UNL     1      -9.005   5.856  71.572  1.00  0.00    -0.142 OA 
BRANCH  44  45
HETATM   45  C   UNL     1      -9.534   4.562  71.273  1.00  0.00    -0.158 C  
HETATM   46  O   UNL     1      -8.671   3.827  70.401  1.00  0.00    -0.073 OA 
HETATM   47  C   UNL     1      -7.399   3.514  70.986  1.00  0.00    -0.037 C  
HETATM   48  C   UNL     1      -7.554   2.698  72.278  1.00  0.00    -0.052 C  
HETATM   49  H1  UNL     1     -10.871   4.000  74.393  1.00  0.00     0.000 HD 
HETATM   50  O   UNL     1      -6.293   2.422  72.902  1.00  0.00    -0.009 OA 
HETATM   51  H2  UNL     1     -11.574   4.755  73.069  1.00  0.00     0.000 HD 
HETATM   52  C   UNL     1      -8.455   3.454  73.266  1.00  0.00    -0.078 C  
HETATM   53  H   UNL     1      -6.389   1.917  73.702  1.00  0.00     0.000 HD 
HETATM   54  O   UNL     1      -8.680   2.644  74.433  1.00  0.00    -0.070 OA 
HETATM   55  C   UNL     1      -9.799   3.787  72.593  1.00  0.00    -0.151 C  
HETATM   56  N   UNL     1     -10.696   4.509  73.527  1.00  0.00    -0.230 NA 
HETATM   57  H   UNL     1      -9.238   3.111  75.043  1.00  0.00     0.000 HD 
BRANCH  47  58
HETATM   58  C   UNL     1      -6.534   2.808  69.917  1.00  0.00    -0.029 C  
HETATM   59  H1  UNL     1      -5.935   3.010  67.906  1.00  0.00     0.000 HD 
HETATM   60  N   UNL     1      -6.506   3.477  68.612  1.00  0.00    -0.036 NA 
HETATM   61  H2  UNL     1      -6.215   4.449  68.718  1.00  0.00     0.000 HD 
ENDBRANCH  47  58
ENDBRANCH  44  45
ENDBRANCH  40  44
ENDBRANCH  29  30
ENDBRANCH  22  29
ENDBRANCH  18  19
ENDBRANCH   7  18
ENDBRANCH   2   5
TORSDOF 9
ENDMDL
MODEL      216
REMARK 921   NORMALIZED FREE ENERGY PREDICTED BY IDOCK:   -3.18 KCAL/MOL
REMARK 922        TOTAL FREE ENERGY PREDICTED BY IDOCK:   -7.67 KCAL/MOL
REMARK 923 INTER-LIGAND FREE ENERGY PREDICTED BY IDOCK:   -7.72 KCAL/MOL
REMARK 924 INTRA-LIGAND FREE ENERGY PREDICTED BY IDOCK:    0.05 KCAL/MOL
REMARK 927      BINDING AFFINITY PREDICTED BY RF-SCORE:    0.00 PKD
ROOT
HETATM    1  N   UNL     1     -10.139   3.546  72.216  1.00  0.00    -0.164 NA 
HETATM    2  C   UNL     1      -9.703   4.622  71.321  1.00  0.00    -0.182 C  
HETATM    3  H1  UNL     1     -10.961   3.753  72.782  1.00  0.00     0.000 HD 
HETATM    4  H2  UNL     1      -9.367   3.255  72.814  1.00  0.00     0.000 HD 
ENDROOT
BRANCH   2   5
HETATM    5  C   UNL     1      -8.452   4.308  70.459  1.00  0.00    -0.076 C  
HETATM    6  O   UNL     1      -8.301   5.179  69.308  1.00  0.00    -0.086 OA 
HETATM    7  C   UNL     1      -7.059   4.910  68.634  1.00  0.00    -0.057 C  
HETATM    8  C   UNL     1      -7.047   3.451  68.072  1.00  0.00    -0.051 C  
HETATM    9  O   UNL     1      -9.765   2.664  69.227  1.00  0.00    -0.044 OA 
HETATM   10  H   UNL     1      -9.833   1.760  68.941  1.00  0.00     0.000 HD 
HETATM   11  N   UNL     1      -8.045   3.311  66.960  1.00  0.00    -0.083 NA 
HETATM   12  C   UNL     1      -7.320   2.440  69.185  1.00  0.00    -0.044 C  
HETATM   13  H2  UNL     1      -7.894   4.002  66.225  1.00  0.00     0.000 HD 
HETATM   14  O   UNL     1      -6.187   2.271  70.047  1.00  0.00    -0.023 OA 
HETATM   15  C   UNL     1      -8.563   2.834  69.993  1.00  0.00    -0.058 C  
HETATM   16  H1  UNL     1      -8.037   2.359  66.593  1.00  0.00     0.000 HD 
HETATM   17  H   UNL     1      -6.356   1.642  70.739  1.00  0.00     0.000 HD 
BRANCH   7  18
HETATM   18  O   UNL     1      -6.863   5.678  67.460  1.00  0.00    -0.057 OA 
BRANCH  18  19
HETATM   19  C   UNL     1      -7.467   6.959  67.331  1.00  0.00    -0.097 C  
HETATM   20  O   UNL     1      -6.447   7.420  69.546  1.00  0.00    -0.035 OA 
HETATM   21  C   UNL     1      -6.716   7.537  66.125  1.00  0.00    -0.053 C  
HETATM   22  C   UNL     1      -6.391   9.108  67.775  1.00  0.00    -0.055 C  
HETATM   23  H   UNL     1      -6.284   8.050  70.239  1.00  0.00     0.000 HD 
HETATM   24  O   UNL     1      -5.778   8.497  66.640  1.00  0.00    -0.042 OA 
HETATM   25  C   UNL     1      -7.202   7.981  68.456  1.00  0.00    -0.085 C  
BRANCH  21  26
HETATM   26  C   UNL     1      -7.630   8.144  65.057  1.00  0.00    -0.096 C  
HETATM   27  H   UNL     1      -9.558   8.549  64.802  1.00  0.00     0.000 HD 
HETATM   28  O   UNL     1      -8.991   8.173  65.464  1.00  0.00    -0.137 OA 
ENDBRANCH  21  26
BRANCH  22  29
HETATM   29  O   UNL     1      -7.224  10.201  67.367  1.00  0.00    -0.087 OA 
BRANCH  29  30
HETATM   30  C   UNL     1      -8.215  10.692  68.332  1.00  0.00    -0.125 C  
HETATM   31  C   UNL     1      -7.997  10.041  69.722  1.00  0.00    -0.180 C  
HETATM   32  O   UNL     1      -7.094  10.868  70.488  1.00  0.00    -0.452 OA 
HETATM   33  C   UNL     1      -9.221   9.768  70.612  1.00  0.00     0.066 C  
HETATM   34  C   UNL     1     -10.510   9.561  69.839  1.00  0.00    -0.269 C  
HETATM   35  N   UNL     1      -8.976   8.563  71.446  1.00  0.00    -0.184 NA 
HETATM   36  H   UNL     1      -6.961  10.469  71.340  1.00  0.00     0.000 HD 
HETATM   37  H1  UNL     1      -9.788   8.383  72.037  1.00  0.00     0.000 HD 
HETATM   38  H2  UNL     1      -8.116   8.640  71.989  1.00  0.00     0.000 HD 
HETATM   39  C   UNL     1     -10.736  10.722  68.872  1.00  0.00    -0.222 C  
HETATM   40  C   UNL     1      -9.659  10.694  67.757  1.00  0.00    -0.157 C  
HETATM   41  N   UNL     1     -12.100  10.609  68.312  1.00  0.00    -0.789 NA 
HETATM   42  H2  UNL     1     -12.817  10.557  69.036  1.00  0.00     0.000 HD 
HETATM   43  H1  UNL     1     -12.250  11.384  67.666  1.00  0.00     0.000 HD 
BRANCH  40  44
HETATM   44  O   UNL     1      -9.901  11.841  66.906  1.00  0.00    -0.199 OA 
BRANCH  44  45
HETATM   45  C   UNL     1     -10.800  12.820  67.434  1.00  0.00    -0.240 C  
HETATM   46  O   UNL     1     -10.113  13.804  68.210  1.00  0.00    -0.227 OA 
HETATM   47  C   UNL     1      -9.201  14.603  67.444  1.00  0.00    -0.198 C  
HETATM   48  C   UNL     1      -9.913  15.335  66.297  1.00  0.00    -0.284 C  
HETATM   49  H1  UNL     1     -12.866  12.917  64.683  1.00  0.00     0.000 HD 
HETATM   50  O   UNL     1      -9.005  16.097  65.490  1.00  0.00    -0.304 OA 
HETATM   51  H2  UNL     1     -12.946  11.908  66.023  1.00  0.00     0.000 HD 
HETATM   52  C   UNL     1     -10.651  14.320  65.410  1.00  0.00    -0.354 C  
HETATM   53  H   UNL     1      -9.446  16.550  64.780  1.00  0.00     0.000 HD 
HETATM   54  O   UNL     1     -11.399  15.016  64.398  1.00  0.00    -0.615 OA 
HETATM   55  C   UNL     1     -11.603  13.472  66.274  1.00  0.00    -0.345 C  
HETATM   56  N   UNL     1     -12.339  12.489  65.444  1.00  0.00    -0.635 NA 
HETATM   57  H   UNL     1     -11.856  14.388  63.851  1.00  0.00     0.000 HD 
BRANCH  47  58
HETATM   58  C   UNL     1      -8.460  15.556  68.410  1.00  0.00    -0.163 C  
HETATM   59  H1  UNL     1      -8.296  17.605  68.877  1.00  0.00     0.000 HD 
HETATM   60  N   UNL     1      -8.786  16.976  68.239  1.00  0.00    -0.233 NA 
HETATM   61  H2  UNL     1      -9.794  17.119  68.305  1.00  0.00     0.000 HD 
ENDBRANCH  47  58
ENDBRANCH  44  45
ENDBRANCH  40  44
ENDBRANCH  29  30
ENDBRANCH  22  29
ENDBRANCH  18  19
ENDBRANCH   7  18
ENDBRANCH   2   5
TORSDOF 9
ENDMDL
MODEL      217
REMARK 921   NORMALIZED FREE ENERGY PREDICTED BY IDOCK:   -3.13 KCAL/MOL
REMARK 922        TOTAL FREE ENERGY PREDICTED BY IDOCK:   -7.59 KCAL/MOL
REMARK 923 INTER-LIGAND FREE ENERGY PREDICTED BY IDOCK:   -6.34 KCAL/MOL
REMARK 924 INTRA-LIGAND FREE ENERGY PREDICTED BY IDOCK:   -1.24 KCAL/MOL
REMARK 927      BINDING AFFINITY PREDICTED BY RF-SCORE:    0.00 PKD
ROOT
HETATM    1  N   UNL     1     -13.470  14.937  65.356  1.00  0.00     0.210 NA 
HETATM    2  C   UNL     1     -12.471  14.582  66.368  1.00  0.00    -0.063 C  
HETATM    3  H1  UNL     1     -13.895  15.858  65.463  1.00  0.00     0.000 HD 
HETATM    4  H2  UNL     1     -14.195  14.221  65.315  1.00  0.00     0.000 HD 
ENDROOT
BRANCH   2   5
HETATM    5  C   UNL     1     -11.825  13.182  66.205  1.00  0.00    -0.401 C  
HETATM    6  O   UNL     1     -11.126  12.718  67.389  1.00  0.00    -0.255 OA 
HETATM    7  C   UNL     1     -10.666  11.368  67.206  1.00  0.00    -0.241 C  
HETATM    8  C   UNL     1      -9.626  11.299  66.040  1.00  0.00    -0.218 C  
HETATM    9  O   UNL     1      -9.842  14.249  65.273  1.00  0.00    -0.533 OA 
HETATM   10  H   UNL     1      -9.239  14.294  64.539  1.00  0.00     0.000 HD 
HETATM   11  N   UNL     1      -8.362  12.011  66.423  1.00  0.00    -0.391 NA 
HETATM   12  C   UNL     1     -10.215  11.878  64.754  1.00  0.00    -0.276 C  
HETATM   13  H2  UNL     1      -7.976  11.656  67.298  1.00  0.00     0.000 HD 
HETATM   14  O   UNL     1     -11.166  10.990  64.151  1.00  0.00    -0.338 OA 
HETATM   15  C   UNL     1     -10.843  13.254  65.009  1.00  0.00    -0.322 C  
HETATM   16  H1  UNL     1      -7.684  11.967  65.663  1.00  0.00     0.000 HD 
HETATM   17  H   UNL     1     -11.533  11.350  63.352  1.00  0.00     0.000 HD 
BRANCH   7  18
HETATM   18  O   UNL     1      -9.918  10.861  68.297  1.00  0.00    -0.165 OA 
BRANCH  18  19
HETATM   19  C   UNL     1      -9.453   9.518  68.287  1.00  0.00    -0.133 C  
HETATM   20  O   UNL     1      -8.308  10.131  70.402  1.00  0.00    -0.380 OA 
HETATM   21  C   UNL     1     -10.761   8.734  68.448  1.00  0.00    -0.062 C  
HETATM   22  C   UNL     1      -9.457   7.981  70.188  1.00  0.00    -0.160 C  
HETATM   23  H   UNL     1      -7.782   9.848  71.141  1.00  0.00     0.000 HD 
HETATM   24  O   UNL     1     -10.803   8.267  69.807  1.00  0.00    -0.241 OA 
HETATM   25  C   UNL     1      -8.598   9.058  69.487  1.00  0.00    -0.138 C  
BRANCH  21  26
HETATM   26  C   UNL     1     -10.929   7.592  67.443  1.00  0.00    -0.095 C  
HETATM   27  H   UNL     1     -11.624   5.730  67.407  1.00  0.00     0.000 HD 
HETATM   28  O   UNL     1     -11.519   6.439  68.030  1.00  0.00    -0.163 OA 
ENDBRANCH  21  26
BRANCH  22  29
HETATM   29  O   UNL     1      -9.093   6.654  69.785  1.00  0.00    -0.142 OA 
BRANCH  29  30
HETATM   30  C   UNL     1      -7.662   6.334  69.728  1.00  0.00    -0.105 C  
HETATM   31  C   UNL     1      -6.859   7.234  70.703  1.00  0.00    -0.053 C  
HETATM   32  O   UNL     1      -6.781   6.577  71.987  1.00  0.00    -0.061 OA 
HETATM   33  C   UNL     1      -5.428   7.646  70.322  1.00  0.00    -0.023 C  
HETATM   34  C   UNL     1      -5.177   7.687  68.826  1.00  0.00    -0.025 C  
HETATM   35  N   UNL     1      -5.127   8.989  70.884  1.00  0.00    -0.027 NA 
HETATM   36  H   UNL     1      -6.290   7.129  72.584  1.00  0.00     0.000 HD 
HETATM   37  H1  UNL     1      -4.177   9.261  70.631  1.00  0.00     0.000 HD 
HETATM   38  H2  UNL     1      -5.282   9.027  71.891  1.00  0.00     0.000 HD 
HETATM   39  C   UNL     1      -5.596   6.364  68.187  1.00  0.00    -0.008 C  
HETATM   40  C   UNL     1      -7.135   6.203  68.272  1.00  0.00    -0.082 C  
HETATM   41  N   UNL     1      -5.125   6.349  66.785  1.00  0.00    -0.008 NA 
HETATM   42  H2  UNL     1      -4.123   6.522  66.706  1.00  0.00     0.000 HD 
HETATM   43  H1  UNL     1      -5.405   5.466  66.358  1.00  0.00     0.000 HD 
BRANCH  40  44
HETATM   44  O   UNL     1      -7.459   4.914  67.694  1.00  0.00    -0.077 OA 
BRANCH  44  45
HETATM   45  C   UNL     1      -8.692   4.857  66.971  1.00  0.00    -0.103 C  
HETATM   46  O   UNL     1      -8.646   5.653  65.785  1.00  0.00    -0.137 OA 
HETATM   47  C   UNL     1      -7.697   5.184  64.816  1.00  0.00    -0.086 C  
HETATM   48  C   UNL     1      -7.989   3.738  64.391  1.00  0.00    -0.086 C  
HETATM   49  H1  UNL     1      -9.334   1.543  67.637  1.00  0.00     0.000 HD 
HETATM   50  O   UNL     1      -7.018   3.237  63.461  1.00  0.00    -0.045 OA 
HETATM   51  H2  UNL     1      -9.755   2.896  68.536  1.00  0.00     0.000 HD 
HETATM   52  C   UNL     1      -8.026   2.828  65.628  1.00  0.00    -0.082 C  
HETATM   53  H   UNL     1      -7.199   2.342  63.198  1.00  0.00     0.000 HD 
HETATM   54  O   UNL     1      -8.399   1.495  65.237  1.00  0.00    -0.075 OA 
HETATM   55  C   UNL     1      -9.040   3.377  66.647  1.00  0.00    -0.164 C  
HETATM   56  N   UNL     1      -9.105   2.513  67.850  1.00  0.00    -0.169 NA 
HETATM   57  H   UNL     1      -8.422   0.933  66.002  1.00  0.00     0.000 HD 
BRANCH  47  58
HETATM   58  C   UNL     1      -7.679   6.178  63.633  1.00  0.00    -0.101 C  
HETATM   59  H1  UNL     1      -8.797   6.704  61.925  1.00  0.00     0.000 HD 
HETATM   60  N   UNL     1      -8.810   6.048  62.707  1.00  0.00    -0.321 NA 
HETATM   61  H2  UNL     1      -9.693   6.117  63.214  1.00  0.00     0.000 HD 
ENDBRANCH  47  58
ENDBRANCH  44  45
ENDBRANCH  40  44
ENDBRANCH  29  30
ENDBRANCH  22  29
ENDBRANCH  18  19
ENDBRANCH   7  18
ENDBRANCH   2   5
TORSDOF 9
ENDMDL
MODEL      218
REMARK 921   NORMALIZED FREE ENERGY PREDICTED BY IDOCK:   -3.12 KCAL/MOL
REMARK 922        TOTAL FREE ENERGY PREDICTED BY IDOCK:   -7.58 KCAL/MOL
REMARK 923 INTER-LIGAND FREE ENERGY PREDICTED BY IDOCK:   -5.85 KCAL/MOL
REMARK 924 INTRA-LIGAND FREE ENERGY PREDICTED BY IDOCK:   -1.73 KCAL/MOL
REMARK 927      BINDING AFFINITY PREDICTED BY RF-SCORE:    0.00 PKD
ROOT
HETATM    1  N   UNL     1      -9.674   4.920  69.204  1.00  0.00    -0.167 NA 
HETATM    2  C   UNL     1      -9.628   4.967  67.740  1.00  0.00    -0.148 C  
HETATM    3  H1  UNL     1     -10.490   4.456  69.603  1.00  0.00     0.000 HD 
HETATM    4  H2  UNL     1      -9.587   5.861  69.586  1.00  0.00     0.000 HD 
ENDROOT
BRANCH   2   5
HETATM    5  C   UNL     1      -8.387   5.673  67.134  1.00  0.00    -0.104 C  
HETATM    6  O   UNL     1      -8.622   6.246  65.822  1.00  0.00    -0.147 OA 
HETATM    7  C   UNL     1      -7.472   6.988  65.383  1.00  0.00    -0.088 C  
HETATM    8  C   UNL     1      -6.238   6.040  65.222  1.00  0.00    -0.037 C  
HETATM    9  O   UNL     1      -7.658   3.529  66.230  1.00  0.00    -0.079 OA 
HETATM   10  H   UNL     1      -6.958   2.889  66.181  1.00  0.00     0.000 HD 
HETATM   11  N   UNL     1      -6.453   5.092  64.079  1.00  0.00    -0.033 NA 
HETATM   12  C   UNL     1      -5.965   5.283  66.521  1.00  0.00    -0.023 C  
HETATM   13  H2  UNL     1      -6.670   5.584  63.212  1.00  0.00     0.000 HD 
HETATM   14  O   UNL     1      -5.370   6.124  67.518  1.00  0.00    -0.004 OA 
HETATM   15  C   UNL     1      -7.245   4.629  67.056  1.00  0.00    -0.076 C  
HETATM   16  H1  UNL     1      -5.649   4.474  63.974  1.00  0.00     0.000 HD 
HETATM   17  H   UNL     1      -5.200   5.654  68.326  1.00  0.00     0.000 HD 
BRANCH   7  18
HETATM   18  O   UNL     1      -7.598   7.529  64.080  1.00  0.00    -0.099 OA 
BRANCH  18  19
HETATM   19  C   UNL     1      -7.690   8.935  63.892  1.00  0.00    -0.129 C  
HETATM   20  O   UNL     1      -9.659   8.396  62.480  1.00  0.00     0.301 OA 
HETATM   21  C   UNL     1      -8.009   9.420  65.311  1.00  0.00    -0.110 C  
HETATM   22  C   UNL     1      -9.728  10.276  64.044  1.00  0.00    -0.278 C  
HETATM   23  H   UNL     1     -10.387   8.717  61.962  1.00  0.00     0.000 HD 
HETATM   24  O   UNL     1      -9.407   9.755  65.334  1.00  0.00    -0.212 OA 
HETATM   25  C   UNL     1      -8.873   9.459  63.049  1.00  0.00    -0.195 C  
BRANCH  21  26
HETATM   26  C   UNL     1      -7.132  10.584  65.782  1.00  0.00    -0.124 C  
HETATM   27  H   UNL     1      -5.482  11.531  65.211  1.00  0.00     0.000 HD 
HETATM   28  O   UNL     1      -6.025  10.809  64.919  1.00  0.00    -0.073 OA 
ENDBRANCH  21  26
BRANCH  22  29
HETATM   29  O   UNL     1      -9.434  11.678  63.983  1.00  0.00    -0.160 OA 
BRANCH  29  30
HETATM   30  C   UNL     1     -10.106  12.551  64.954  1.00  0.00    -0.226 C  
HETATM   31  C   UNL     1     -11.500  12.984  64.430  1.00  0.00    -0.365 C  
HETATM   32  O   UNL     1     -12.483  12.022  64.873  1.00  0.00    -0.400 OA 
HETATM   33  C   UNL     1     -12.032  14.376  64.807  1.00  0.00    -0.447 C  
HETATM   34  C   UNL     1     -10.944  15.397  65.085  1.00  0.00    -0.430 C  
HETATM   35  N   UNL     1     -12.893  14.896  63.713  1.00  0.00    -0.641 NA 
HETATM   36  H   UNL     1     -13.336  12.288  64.551  1.00  0.00     0.000 HD 
HETATM   37  H1  UNL     1     -13.246  15.819  63.963  1.00  0.00     0.000 HD 
HETATM   38  H2  UNL     1     -13.644  14.249  63.475  1.00  0.00     0.000 HD 
HETATM   39  C   UNL     1      -9.960  14.848  66.116  1.00  0.00    -0.303 C  
HETATM   40  C   UNL     1      -9.169  13.661  65.508  1.00  0.00     0.573 C  
HETATM   41  N   UNL     1      -9.058  15.943  66.535  1.00  0.00    -0.257 NA 
HETATM   42  H2  UNL     1      -9.565  16.759  66.875  1.00  0.00     0.000 HD 
HETATM   43  H1  UNL     1      -8.401  15.576  67.223  1.00  0.00     0.000 HD 
BRANCH  40  44
HETATM   44  O   UNL     1      -8.292  13.160  66.547  1.00  0.00     0.108 OA 
BRANCH  44  45
HETATM   45  C   UNL     1      -8.743  13.369  67.887  1.00  0.00    -0.187 C  
HETATM   46  O   UNL     1      -9.397  12.211  68.412  1.00  0.00    -0.203 OA 
HETATM   47  C   UNL     1      -8.528  11.078  68.552  1.00  0.00    -0.153 C  
HETATM   48  C   UNL     1      -7.333  11.388  69.466  1.00  0.00     0.083 C  
HETATM   49  H1  UNL     1      -6.057  15.285  68.866  1.00  0.00     0.000 HD 
HETATM   50  O   UNL     1      -6.428  10.281  69.574  1.00  0.00    -0.047 OA 
HETATM   51  H2  UNL     1      -7.494  15.777  68.149  1.00  0.00     0.000 HD 
HETATM   52  C   UNL     1      -6.576  12.614  68.934  1.00  0.00    -0.095 C  
HETATM   53  H   UNL     1      -5.689  10.474  70.139  1.00  0.00     0.000 HD 
HETATM   54  O   UNL     1      -5.520  12.963  69.846  1.00  0.00    -0.086 OA 
HETATM   55  C   UNL     1      -7.547  13.799  68.781  1.00  0.00    -0.099 C  
HETATM   56  N   UNL     1      -6.842  15.003  68.279  1.00  0.00    -0.109 NA 
HETATM   57  H   UNL     1      -5.052  13.722  69.518  1.00  0.00     0.000 HD 
BRANCH  47  58
HETATM   58  C   UNL     1      -9.371   9.876  69.035  1.00  0.00    -0.174 C  
HETATM   59  H1  UNL     1     -10.756   9.350  70.534  1.00  0.00     0.000 HD 
HETATM   60  N   UNL     1     -10.200  10.144  70.215  1.00  0.00    -0.411 NA 
HETATM   61  H2  UNL     1     -10.799  10.954  70.051  1.00  0.00     0.000 HD 
ENDBRANCH  47  58
ENDBRANCH  44  45
ENDBRANCH  40  44
ENDBRANCH  29  30
ENDBRANCH  22  29
ENDBRANCH  18  19
ENDBRANCH   7  18
ENDBRANCH   2   5
TORSDOF 9
ENDMDL
MODEL      219
REMARK 921   NORMALIZED FREE ENERGY PREDICTED BY IDOCK:   -3.11 KCAL/MOL
REMARK 922        TOTAL FREE ENERGY PREDICTED BY IDOCK:   -7.56 KCAL/MOL
REMARK 923 INTER-LIGAND FREE ENERGY PREDICTED BY IDOCK:   -8.19 KCAL/MOL
REMARK 924 INTRA-LIGAND FREE ENERGY PREDICTED BY IDOCK:    0.63 KCAL/MOL
REMARK 927      BINDING AFFINITY PREDICTED BY RF-SCORE:    0.00 PKD
ROOT
HETATM    1  N   UNL     1     -10.179  19.147  68.878  1.00  0.00    -0.534 NA 
HETATM    2  C   UNL     1     -10.765  18.897  67.559  1.00  0.00    -0.434 C  
HETATM    3  H1  UNL     1     -10.097  20.129  69.143  1.00  0.00     0.000 HD 
HETATM    4  H2  UNL     1      -9.271  18.690  68.949  1.00  0.00     0.000 HD 
ENDROOT
BRANCH   2   5
HETATM    5  C   UNL     1     -10.889  17.404  67.156  1.00  0.00    -0.090 C  
HETATM    6  O   UNL     1     -11.424  16.558  68.207  1.00  0.00    -0.283 OA 
HETATM    7  C   UNL     1     -11.627  15.220  67.720  1.00  0.00    -0.265 C  
HETATM    8  C   UNL     1     -10.264  14.577  67.303  1.00  0.00    -0.255 C  
HETATM    9  O   UNL     1      -8.579  17.065  67.856  1.00  0.00    -0.201 OA 
HETATM   10  H   UNL     1      -7.714  16.761  67.606  1.00  0.00     0.000 HD 
HETATM   11  N   UNL     1      -9.405  14.343  68.511  1.00  0.00    -0.203 NA 
HETATM   12  C   UNL     1      -9.545  15.451  66.277  1.00  0.00    -0.313 C  
HETATM   13  H2  UNL     1      -9.887  13.788  69.219  1.00  0.00     0.000 HD 
HETATM   14  O   UNL     1     -10.148  15.364  64.979  1.00  0.00    -0.314 OA 
HETATM   15  C   UNL     1      -9.479  16.910  66.748  1.00  0.00    -0.255 C  
HETATM   16  H1  UNL     1      -8.516  13.924  68.239  1.00  0.00     0.000 HD 
HETATM   17  H   UNL     1      -9.701  15.908  64.341  1.00  0.00     0.000 HD 
BRANCH   7  18
HETATM   18  O   UNL     1     -12.091  14.313  68.705  1.00  0.00    -0.325 OA 
BRANCH  18  19
HETATM   19  C   UNL     1     -11.305  13.188  69.072  1.00  0.00    -0.282 C  
HETATM   20  O   UNL     1     -12.117  13.646  71.372  1.00  0.00    -0.364 OA 
HETATM   21  C   UNL     1     -12.022  12.051  68.333  1.00  0.00    -0.194 C  
HETATM   22  C   UNL     1     -12.009  11.353  70.525  1.00  0.00    -0.356 C  
HETATM   23  H   UNL     1     -12.143  13.376  72.282  1.00  0.00     0.000 HD 
HETATM   24  O   UNL     1     -12.771  11.320  69.318  1.00  0.00    -0.202 OA 
HETATM   25  C   UNL     1     -11.346  12.749  70.551  1.00  0.00     0.861 C  
BRANCH  21  26
HETATM   26  C   UNL     1     -11.086  11.142  67.533  1.00  0.00    -0.291 C  
HETATM   27  H   UNL     1     -10.301  11.046  65.710  1.00  0.00     0.000 HD 
HETATM   28  O   UNL     1     -10.881  11.610  66.206  1.00  0.00    -0.267 OA 
ENDBRANCH  21  26
BRANCH  22  29
HETATM   29  O   UNL     1     -11.041  10.296  70.535  1.00  0.00    -0.302 OA 
BRANCH  29  30
HETATM   30  C   UNL     1     -11.513   8.945  70.207  1.00  0.00    -0.105 C  
HETATM   31  C   UNL     1     -12.623   8.497  71.194  1.00  0.00    -0.144 C  
HETATM   32  O   UNL     1     -13.906   8.891  70.661  1.00  0.00    -0.321 OA 
HETATM   33  C   UNL     1     -12.728   7.008  71.564  1.00  0.00    -0.381 C  
HETATM   34  C   UNL     1     -11.414   6.255  71.462  1.00  0.00    -0.351 C  
HETATM   35  N   UNL     1     -13.238   6.872  72.952  1.00  0.00     0.648 NA 
HETATM   36  H   UNL     1     -14.586   8.616  71.265  1.00  0.00     0.000 HD 
HETATM   37  H1  UNL     1     -13.308   5.885  73.198  1.00  0.00     0.000 HD 
HETATM   38  H2  UNL     1     -14.121   7.364  73.087  1.00  0.00     0.000 HD 
HETATM   39  C   UNL     1     -10.788   6.474  70.085  1.00  0.00    -0.282 C  
HETATM   40  C   UNL     1     -10.348   7.953  69.937  1.00  0.00    -0.224 C  
HETATM   41  N   UNL     1      -9.643   5.549  69.937  1.00  0.00    -0.155 NA 
HETATM   42  H2  UNL     1      -9.903   4.576  70.098  1.00  0.00     0.000 HD 
HETATM   43  H1  UNL     1      -9.226   5.696  69.017  1.00  0.00     0.000 HD 
BRANCH  40  44
HETATM   44  O   UNL     1      -9.809   8.103  68.601  1.00  0.00    -0.173 OA 
BRANCH  44  45
HETATM   45  C   UNL     1      -8.388   7.983  68.493  1.00  0.00    -0.127 C  
HETATM   46  O   UNL     1      -7.918   8.396  67.208  1.00  0.00    -0.103 OA 
HETATM   47  C   UNL     1      -8.132   9.789  66.940  1.00  0.00    -0.113 C  
HETATM   48  C   UNL     1      -7.449  10.679  67.989  1.00  0.00    -0.090 C  
HETATM   49  H1  UNL     1      -7.711   8.923  71.733  1.00  0.00     0.000 HD 
HETATM   50  O   UNL     1      -7.698  12.074  67.765  1.00  0.00    -0.120 OA 
HETATM   51  H2  UNL     1      -8.033   7.391  71.129  1.00  0.00     0.000 HD 
HETATM   52  C   UNL     1      -7.937  10.296  69.395  1.00  0.00    -0.159 C  
HETATM   53  H   UNL     1      -7.275  12.624  68.414  1.00  0.00     0.000 HD 
HETATM   54  O   UNL     1      -7.221  11.061  70.380  1.00  0.00    -0.423 OA 
HETATM   55  C   UNL     1      -7.707   8.792  69.632  1.00  0.00    -0.088 C  
HETATM   56  N   UNL     1      -8.158   8.393  70.986  1.00  0.00    -0.108 NA 
HETATM   57  H   UNL     1      -7.522  10.823  71.249  1.00  0.00     0.000 HD 
BRANCH  47  58
HETATM   58  C   UNL     1      -7.671  10.083  65.495  1.00  0.00    -0.135 C  
HETATM   59  H1  UNL     1      -8.130  11.324  63.854  1.00  0.00     0.000 HD 
HETATM   60  N   UNL     1      -8.435  11.130  64.809  1.00  0.00    -0.367 NA 
HETATM   61  H2  UNL     1      -8.436  11.988  65.362  1.00  0.00     0.000 HD 
ENDBRANCH  47  58
ENDBRANCH  44  45
ENDBRANCH  40  44
ENDBRANCH  29  30
ENDBRANCH  22  29
ENDBRANCH  18  19
ENDBRANCH   7  18
ENDBRANCH   2   5
TORSDOF 9
ENDMDL
MODEL      220
REMARK 921   NORMALIZED FREE ENERGY PREDICTED BY IDOCK:   -3.11 KCAL/MOL
REMARK 922        TOTAL FREE ENERGY PREDICTED BY IDOCK:   -7.56 KCAL/MOL
REMARK 923 INTER-LIGAND FREE ENERGY PREDICTED BY IDOCK:   -8.21 KCAL/MOL
REMARK 924 INTRA-LIGAND FREE ENERGY PREDICTED BY IDOCK:    0.65 KCAL/MOL
REMARK 927      BINDING AFFINITY PREDICTED BY RF-SCORE:    0.00 PKD
ROOT
HETATM    1  N   UNL     1      -5.828  19.832  68.886  1.00  0.00    -0.225 NA 
HETATM    2  C   UNL     1      -7.025  20.587  68.505  1.00  0.00    -0.086 C  
HETATM    3  H1  UNL     1      -4.963  20.370  68.921  1.00  0.00     0.000 HD 
HETATM    4  H2  UNL     1      -5.713  19.027  68.271  1.00  0.00     0.000 HD 
ENDROOT
BRANCH   2   5
HETATM    5  C   UNL     1      -8.341  19.767  68.451  1.00  0.00    -0.254 C  
HETATM    6  O   UNL     1      -8.222  18.433  69.010  1.00  0.00    -0.214 OA 
HETATM    7  C   UNL     1      -9.506  17.784  69.041  1.00  0.00    -0.096 C  
HETATM    8  C   UNL     1     -10.056  17.593  67.590  1.00  0.00    -0.339 C  
HETATM    9  O   UNL     1      -7.747  19.037  66.203  1.00  0.00    -0.277 OA 
HETATM   10  H   UNL     1      -8.016  18.983  65.292  1.00  0.00     0.000 HD 
HETATM   11  N   UNL     1      -9.220  16.599  66.839  1.00  0.00    -0.219 NA 
HETATM   12  C   UNL     1     -10.113  18.931  66.853  1.00  0.00    -0.364 C  
HETATM   13  H2  UNL     1      -9.147  15.711  67.337  1.00  0.00     0.000 HD 
HETATM   14  O   UNL     1     -11.196  19.751  67.310  1.00  0.00    -0.263 OA 
HETATM   15  C   UNL     1      -8.779  19.679  66.968  1.00  0.00    -0.316 C  
HETATM   16  H1  UNL     1      -9.579  16.474  65.893  1.00  0.00     0.000 HD 
HETATM   17  H   UNL     1     -11.231  20.583  66.852  1.00  0.00     0.000 HD 
BRANCH   7  18
HETATM   18  O   UNL     1      -9.465  16.450  69.517  1.00  0.00    -0.168 OA 
BRANCH  18  19
HETATM   19  C   UNL     1     -10.415  15.496  69.062  1.00  0.00    -0.231 C  
HETATM   20  O   UNL     1      -8.482  13.942  68.969  1.00  0.00    -0.356 OA 
HETATM   21  C   UNL     1     -11.322  15.348  70.289  1.00  0.00    -0.311 C  
HETATM   22  C   UNL     1     -10.637  13.195  69.855  1.00  0.00     0.988 C  
HETATM   23  H   UNL     1      -8.169  13.059  68.811  1.00  0.00     0.000 HD 
HETATM   24  O   UNL     1     -10.987  14.095  70.908  1.00  0.00     0.442 OA 
HETATM   25  C   UNL     1      -9.907  14.062  68.804  1.00  0.00    -0.139 C  
BRANCH  21  26
HETATM   26  C   UNL     1     -12.817  15.450  69.973  1.00  0.00    -0.064 C  
HETATM   27  H   UNL     1     -14.545  14.832  70.735  1.00  0.00     0.000 HD 
HETATM   28  O   UNL     1     -13.618  14.769  70.930  1.00  0.00    -0.351 OA 
ENDBRANCH  21  26
BRANCH  22  29
HETATM   29  O   UNL     1     -11.811  12.570  69.320  1.00  0.00    -0.304 OA 
BRANCH  29  30
HETATM   30  C   UNL     1     -11.852  11.103  69.316  1.00  0.00    -0.352 C  
HETATM   31  C   UNL     1     -11.958  10.553  70.762  1.00  0.00    -0.370 C  
HETATM   32  O   UNL     1     -13.354  10.422  71.110  1.00  0.00    -0.344 OA 
HETATM   33  C   UNL     1     -11.284   9.212  71.096  1.00  0.00    -0.325 C  
HETATM   34  C   UNL     1     -10.092   8.887  70.215  1.00  0.00    -0.218 C  
HETATM   35  N   UNL     1     -10.834   9.216  72.511  1.00  0.00     0.326 NA 
HETATM   36  H   UNL     1     -13.418  10.085  71.996  1.00  0.00     0.000 HD 
HETATM   37  H1  UNL     1     -10.387   8.326  72.732  1.00  0.00     0.000 HD 
HETATM   38  H2  UNL     1     -11.593   9.435  73.155  1.00  0.00     0.000 HD 
HETATM   39  C   UNL     1     -10.481   8.997  68.742  1.00  0.00    -0.206 C  
HETATM   40  C   UNL     1     -10.777  10.477  68.385  1.00  0.00    -0.224 C  
HETATM   41  N   UNL     1      -9.377   8.452  67.922  1.00  0.00    -0.135 NA 
HETATM   42  H2  UNL     1      -9.123   7.501  68.190  1.00  0.00     0.000 HD 
HETATM   43  H1  UNL     1      -9.637   8.526  66.938  1.00  0.00     0.000 HD 
BRANCH  40  44
HETATM   44  O   UNL     1     -11.182  10.504  66.995  1.00  0.00    -0.238 OA 
BRANCH  44  45
HETATM   45  C   UNL     1     -10.119  10.418  66.042  1.00  0.00    -0.243 C  
HETATM   46  O   UNL     1     -10.603  10.517  64.700  1.00  0.00    -0.250 OA 
HETATM   47  C   UNL     1     -11.189  11.791  64.396  1.00  0.00    -0.316 C  
HETATM   48  C   UNL     1     -10.193  12.940  64.614  1.00  0.00    -0.298 C  
HETATM   49  H1  UNL     1      -7.822  12.160  67.921  1.00  0.00     0.000 HD 
HETATM   50  O   UNL     1     -10.781  14.224  64.364  1.00  0.00    -0.605 OA 
HETATM   51  H2  UNL     1      -8.150  10.514  67.923  1.00  0.00     0.000 HD 
HETATM   52  C   UNL     1      -9.657  12.899  66.053  1.00  0.00    -0.165 C  
HETATM   53  H   UNL     1     -10.165  14.935  64.499  1.00  0.00     0.000 HD 
HETATM   54  O   UNL     1      -8.652  13.912  66.224  1.00  0.00    -0.387 OA 
HETATM   55  C   UNL     1      -9.056  11.511  66.343  1.00  0.00    -0.200 C  
HETATM   56  N   UNL     1      -8.520  11.443  67.724  1.00  0.00    -0.124 NA 
HETATM   57  H   UNL     1      -8.320  13.886  67.113  1.00  0.00     0.000 HD 
BRANCH  47  58
HETATM   58  C   UNL     1     -11.752  11.735  62.958  1.00  0.00     0.111 C  
HETATM   59  H1  UNL     1     -13.574  11.900  61.909  1.00  0.00     0.000 HD 
HETATM   60  N   UNL     1     -13.202  11.937  62.859  1.00  0.00    -0.501 NA 
HETATM   61  H2  UNL     1     -13.469  12.812  63.311  1.00  0.00     0.000 HD 
ENDBRANCH  47  58
ENDBRANCH  44  45
ENDBRANCH  40  44
ENDBRANCH  29  30
ENDBRANCH  22  29
ENDBRANCH  18  19
ENDBRANCH   7  18
ENDBRANCH   2   5
TORSDOF 9
ENDMDL
MODEL      221
REMARK 921   NORMALIZED FREE ENERGY PREDICTED BY IDOCK:   -3.10 KCAL/MOL
REMARK 922        TOTAL FREE ENERGY PREDICTED BY IDOCK:   -7.54 KCAL/MOL
REMARK 923 INTER-LIGAND FREE ENERGY PREDICTED BY IDOCK:   -7.26 KCAL/MOL
REMARK 924 INTRA-LIGAND FREE ENERGY PREDICTED BY IDOCK:   -0.28 KCAL/MOL
REMARK 927      BINDING AFFINITY PREDICTED BY RF-SCORE:    0.00 PKD
ROOT
HETATM    1  N   UNL     1      -6.612  10.174  69.188  1.00  0.00    -0.052 NA 
HETATM    2  C   UNL     1      -6.560   8.846  68.570  1.00  0.00    -0.059 C  
HETATM    3  H1  UNL     1      -5.893  10.360  69.887  1.00  0.00     0.000 HD 
HETATM    4  H2  UNL     1      -7.536  10.338  69.586  1.00  0.00     0.000 HD 
ENDROOT
BRANCH   2   5
HETATM    5  C   UNL     1      -7.654   8.563  67.507  1.00  0.00    -0.098 C  
HETATM    6  O   UNL     1      -8.011   9.723  66.711  1.00  0.00    -0.105 OA 
HETATM    7  C   UNL     1      -8.933   9.355  65.670  1.00  0.00    -0.193 C  
HETATM    8  C   UNL     1     -10.270   8.829  66.285  1.00  0.00    -0.087 C  
HETATM    9  O   UNL     1      -9.355   9.013  69.195  1.00  0.00    -0.146 OA 
HETATM   10  H   UNL     1     -10.122   8.686  69.651  1.00  0.00     0.000 HD 
HETATM   11  N   UNL     1     -11.004   9.942  66.973  1.00  0.00    -0.131 NA 
HETATM   12  C   UNL     1     -10.005   7.670  67.245  1.00  0.00    -0.208 C  
HETATM   13  H2  UNL     1     -11.158  10.737  66.352  1.00  0.00     0.000 HD 
HETATM   14  O   UNL     1      -9.681   6.459  66.549  1.00  0.00    -0.175 OA 
HETATM   15  C   UNL     1      -8.904   8.030  68.250  1.00  0.00    -0.133 C  
HETATM   16  H1  UNL     1     -11.876   9.599  67.374  1.00  0.00     0.000 HD 
HETATM   17  H   UNL     1      -9.516   5.738  67.146  1.00  0.00     0.000 HD 
BRANCH   7  18
HETATM   18  O   UNL     1      -9.380  10.446  64.885  1.00  0.00    -0.201 OA 
BRANCH  18  19
HETATM   19  C   UNL     1     -10.195  11.458  65.459  1.00  0.00    -0.264 C  
HETATM   20  O   UNL     1      -8.058  12.391  66.308  1.00  0.00    -0.351 OA 
HETATM   21  C   UNL     1     -10.766  12.145  64.213  1.00  0.00    -0.338 C  
HETATM   22  C   UNL     1      -9.774  13.864  65.376  1.00  0.00    -0.062 C  
HETATM   23  H   UNL     1      -7.616  13.093  66.771  1.00  0.00     0.000 HD 
HETATM   24  O   UNL     1     -10.060  13.388  64.061  1.00  0.00    -0.286 OA 
HETATM   25  C   UNL     1      -9.479  12.599  66.213  1.00  0.00    -0.207 C  
BRANCH  21  26
HETATM   26  C   UNL     1     -12.283  12.348  64.254  1.00  0.00    -0.452 C  
HETATM   27  H   UNL     1     -13.630  13.650  63.592  1.00  0.00     0.000 HD 
HETATM   28  O   UNL     1     -12.689  13.524  63.567  1.00  0.00    -0.697 OA 
ENDBRANCH  21  26
BRANCH  22  29
HETATM   29  O   UNL     1     -10.887  14.606  65.893  1.00  0.00    -0.296 OA 
BRANCH  29  30
HETATM   30  C   UNL     1     -10.590  15.822  66.661  1.00  0.00    -0.307 C  
HETATM   31  C   UNL     1      -9.822  16.848  65.788  1.00  0.00    -0.137 C  
HETATM   32  O   UNL     1     -10.778  17.705  65.126  1.00  0.00    -0.658 OA 
HETATM   33  C   UNL     1      -8.788  17.765  66.461  1.00  0.00    -0.262 C  
HETATM   34  C   UNL     1      -8.167  17.176  67.715  1.00  0.00    -0.200 C  
HETATM   35  N   UNL     1      -7.698  18.080  65.502  1.00  0.00    -0.354 NA 
HETATM   36  H   UNL     1     -10.308  18.333  64.591  1.00  0.00     0.000 HD 
HETATM   37  H1  UNL     1      -7.013  18.689  65.949  1.00  0.00     0.000 HD 
HETATM   38  H2  UNL     1      -8.054  18.476  64.632  1.00  0.00     0.000 HD 
HETATM   39  C   UNL     1      -9.261  16.720  68.678  1.00  0.00    -0.257 C  
HETATM   40  C   UNL     1     -10.023  15.513  68.074  1.00  0.00    -0.214 C  
HETATM   41  N   UNL     1      -8.633  16.372  69.972  1.00  0.00     0.966 NA 
HETATM   42  H2  UNL     1      -8.070  17.134  70.351  1.00  0.00     0.000 HD 
HETATM   43  H1  UNL     1      -9.363  16.068  70.615  1.00  0.00     0.000 HD 
BRANCH  40  44
HETATM   44  O   UNL     1     -11.071  15.161  69.012  1.00  0.00    -0.231 OA 
BRANCH  44  45
HETATM   45  C   UNL     1     -10.652  14.387  70.139  1.00  0.00     0.340 C  
HETATM   46  O   UNL     1     -10.792  15.115  71.362  1.00  0.00    -0.203 OA 
HETATM   47  C   UNL     1     -12.153  15.429  71.689  1.00  0.00    -0.380 C  
HETATM   48  C   UNL     1     -13.014  14.162  71.806  1.00  0.00    -0.348 C  
HETATM   49  H1  UNL     1     -11.848  11.382  68.963  1.00  0.00     0.000 HD 
HETATM   50  O   UNL     1     -14.389  14.462  72.081  1.00  0.00    -0.506 OA 
HETATM   51  H2  UNL     1     -10.347  12.089  68.707  1.00  0.00     0.000 HD 
HETATM   52  C   UNL     1     -12.923  13.349  70.506  1.00  0.00     0.091 C  
HETATM   53  H   UNL     1     -14.922  13.679  72.153  1.00  0.00     0.000 HD 
HETATM   54  O   UNL     1     -13.648  12.116  70.654  1.00  0.00     0.921 OA 
HETATM   55  C   UNL     1     -11.447  13.052  70.181  1.00  0.00     0.067 C  
HETATM   56  N   UNL     1     -11.326  12.258  68.936  1.00  0.00    -0.266 NA 
HETATM   57  H   UNL     1     -13.591  11.613  69.851  1.00  0.00     0.000 HD 
BRANCH  47  58
HETATM   58  C   UNL     1     -12.157  16.291  72.972  1.00  0.00    -0.530 C  
HETATM   59  H1  UNL     1     -11.806  16.137  75.045  1.00  0.00     0.000 HD 
HETATM   60  N   UNL     1     -11.802  15.567  74.198  1.00  0.00    -0.255 NA 
HETATM   61  H2  UNL     1     -10.901  15.103  74.086  1.00  0.00     0.000 HD 
ENDBRANCH  47  58
ENDBRANCH  44  45
ENDBRANCH  40  44
ENDBRANCH  29  30
ENDBRANCH  22  29
ENDBRANCH  18  19
ENDBRANCH   7  18
ENDBRANCH   2   5
TORSDOF 9
ENDMDL
MODEL      222
REMARK 921   NORMALIZED FREE ENERGY PREDICTED BY IDOCK:   -3.03 KCAL/MOL
REMARK 922        TOTAL FREE ENERGY PREDICTED BY IDOCK:   -7.43 KCAL/MOL
REMARK 923 INTER-LIGAND FREE ENERGY PREDICTED BY IDOCK:   -6.68 KCAL/MOL
REMARK 924 INTRA-LIGAND FREE ENERGY PREDICTED BY IDOCK:   -0.76 KCAL/MOL
REMARK 927      BINDING AFFINITY PREDICTED BY RF-SCORE:    0.00 PKD
ROOT
HETATM    1  N   UNL     1      -6.968  16.024  68.799  1.00  0.00    -0.131 NA 
HETATM    2  C   UNL     1      -7.917  15.373  67.891  1.00  0.00    -0.135 C  
HETATM    3  H1  UNL     1      -7.208  16.975  69.075  1.00  0.00     0.000 HD 
HETATM    4  H2  UNL     1      -6.031  16.002  68.399  1.00  0.00     0.000 HD 
ENDROOT
BRANCH   2   5
HETATM    5  C   UNL     1      -7.552  13.925  67.471  1.00  0.00    -0.176 C  
HETATM    6  O   UNL     1      -8.541  12.936  67.859  1.00  0.00    -0.163 OA 
HETATM    7  C   UNL     1      -8.197  11.645  67.327  1.00  0.00    -0.159 C  
HETATM    8  C   UNL     1      -6.840  11.151  67.927  1.00  0.00    -0.068 C  
HETATM    9  O   UNL     1      -6.287  13.686  69.542  1.00  0.00    -0.108 OA 
HETATM   10  H   UNL     1      -5.448  13.475  69.936  1.00  0.00     0.000 HD 
HETATM   11  N   UNL     1      -6.991  10.857  69.391  1.00  0.00    -0.112 NA 
HETATM   12  C   UNL     1      -5.735  12.178  67.683  1.00  0.00    -0.101 C  
HETATM   13  H2  UNL     1      -7.748  10.197  69.570  1.00  0.00     0.000 HD 
HETATM   14  O   UNL     1      -5.296  12.183  66.319  1.00  0.00    -0.440 OA 
HETATM   15  C   UNL     1      -6.184  13.581  68.113  1.00  0.00    -0.114 C  
HETATM   16  H1  UNL     1      -6.106  10.535  69.782  1.00  0.00     0.000 HD 
HETATM   17  H   UNL     1      -4.609  12.821  66.167  1.00  0.00     0.000 HD 
BRANCH   7  18
HETATM   18  O   UNL     1      -9.083  10.609  67.713  1.00  0.00    -0.141 OA 
BRANCH  18  19
HETATM   19  C   UNL     1      -8.757   9.250  67.452  1.00  0.00    -0.118 C  
HETATM   20  O   UNL     1      -9.648   8.827  69.729  1.00  0.00    -0.167 OA 
HETATM   21  C   UNL     1      -9.709   8.917  66.297  1.00  0.00    -0.275 C  
HETATM   22  C   UNL     1     -10.190   7.318  67.881  1.00  0.00    -0.191 C  
HETATM   23  H   UNL     1      -9.871   8.190  70.398  1.00  0.00     0.000 HD 
HETATM   24  O   UNL     1     -10.769   8.118  66.849  1.00  0.00    -0.309 OA 
HETATM   25  C   UNL     1      -9.118   8.216  68.538  1.00  0.00    -0.136 C  
BRANCH  21  26
HETATM   26  C   UNL     1      -9.031   8.229  65.110  1.00  0.00     0.109 C  
HETATM   27  H   UNL     1      -8.306   8.713  63.324  1.00  0.00     0.000 HD 
HETATM   28  O   UNL     1      -8.727   9.139  64.061  1.00  0.00    -0.200 OA 
ENDBRANCH  21  26
BRANCH  22  29
HETATM   29  O   UNL     1      -9.629   6.120  67.330  1.00  0.00    -0.112 OA 
BRANCH  29  30
HETATM   30  C   UNL     1      -8.773   5.310  68.206  1.00  0.00    -0.101 C  
HETATM   31  C   UNL     1      -7.818   4.420  67.369  1.00  0.00    -0.096 C  
HETATM   32  O   UNL     1      -6.593   5.147  67.130  1.00  0.00    -0.050 OA 
HETATM   33  C   UNL     1      -7.421   3.040  67.919  1.00  0.00    -0.053 C  
HETATM   34  C   UNL     1      -8.450   2.430  68.852  1.00  0.00    -0.097 C  
HETATM   35  N   UNL     1      -7.194   2.099  66.792  1.00  0.00    -0.055 NA 
HETATM   36  H   UNL     1      -6.008   4.602  66.617  1.00  0.00     0.000 HD 
HETATM   37  H1  UNL     1      -6.930   1.183  67.157  1.00  0.00     0.000 HD 
HETATM   38  H2  UNL     1      -6.512   2.456  66.124  1.00  0.00     0.000 HD 
HETATM   39  C   UNL     1      -8.809   3.420  69.958  1.00  0.00    -0.089 C  
HETATM   40  C   UNL     1      -9.568   4.630  69.356  1.00  0.00    -0.187 C  
HETATM   41  N   UNL     1      -9.626   2.718  70.972  1.00  0.00    -0.156 NA 
HETATM   42  H2  UNL     1      -9.169   1.879  71.330  1.00  0.00     0.000 HD 
HETATM   43  H1  UNL     1      -9.865   3.379  71.710  1.00  0.00     0.000 HD 
BRANCH  40  44
HETATM   44  O   UNL     1      -9.835   5.548  70.444  1.00  0.00    -0.175 OA 
BRANCH  44  45
HETATM   45  C   UNL     1     -10.884   5.157  71.334  1.00  0.00    -0.013 C  
HETATM   46  O   UNL     1     -10.372   4.528  72.511  1.00  0.00    -0.187 OA 
HETATM   47  C   UNL     1      -9.581   5.402  73.330  1.00  0.00    -0.142 C  
HETATM   48  C   UNL     1     -10.379   6.637  73.776  1.00  0.00    -0.349 C  
HETATM   49  H1  UNL     1     -12.892   7.885  70.727  1.00  0.00     0.000 HD 
HETATM   50  O   UNL     1      -9.586   7.546  74.552  1.00  0.00    -0.358 OA 
HETATM   51  H2  UNL     1     -12.838   6.418  69.913  1.00  0.00     0.000 HD 
HETATM   52  C   UNL     1     -10.935   7.370  72.546  1.00  0.00    -0.296 C  
HETATM   53  H   UNL     1     -10.080   8.310  74.827  1.00  0.00     0.000 HD 
HETATM   54  O   UNL     1     -11.764   8.466  72.970  1.00  0.00    -0.328 OA 
HETATM   55  C   UNL     1     -11.759   6.393  71.687  1.00  0.00    -0.313 C  
HETATM   56  N   UNL     1     -12.318   7.075  70.495  1.00  0.00    -0.203 NA 
HETATM   57  H   UNL     1     -12.108   8.919  72.209  1.00  0.00     0.000 HD 
BRANCH  47  58
HETATM   58  C   UNL     1      -9.015   4.582  74.510  1.00  0.00    -0.107 C  
HETATM   59  H1  UNL     1      -8.015   2.769  74.908  1.00  0.00     0.000 HD 
HETATM   60  N   UNL     1      -8.389   3.311  74.128  1.00  0.00    -0.073 NA 
HETATM   61  H2  UNL     1      -7.665   3.469  73.427  1.00  0.00     0.000 HD 
ENDBRANCH  47  58
ENDBRANCH  44  45
ENDBRANCH  40  44
ENDBRANCH  29  30
ENDBRANCH  22  29
ENDBRANCH  18  19
ENDBRANCH   7  18
ENDBRANCH   2   5
TORSDOF 9
ENDMDL
MODEL      223
REMARK 921   NORMALIZED FREE ENERGY PREDICTED BY IDOCK:   -2.99 KCAL/MOL
REMARK 922        TOTAL FREE ENERGY PREDICTED BY IDOCK:   -7.37 KCAL/MOL
REMARK 923 INTER-LIGAND FREE ENERGY PREDICTED BY IDOCK:   -6.77 KCAL/MOL
REMARK 924 INTRA-LIGAND FREE ENERGY PREDICTED BY IDOCK:   -0.61 KCAL/MOL
REMARK 927      BINDING AFFINITY PREDICTED BY RF-SCORE:    0.00 PKD
ROOT
HETATM    1  N   UNL     1     -11.051   8.253  67.323  1.00  0.00    -0.331 NA 
HETATM    2  C   UNL     1      -9.774   7.594  67.034  1.00  0.00    -0.195 C  
HETATM    3  H1  UNL     1     -11.879   7.780  66.962  1.00  0.00     0.000 HD 
HETATM    4  H2  UNL     1     -11.028   9.217  66.993  1.00  0.00     0.000 HD 
ENDROOT
BRANCH   2   5
HETATM    5  C   UNL     1      -8.513   8.313  67.582  1.00  0.00    -0.130 C  
HETATM    6  O   UNL     1      -8.059   9.412  66.750  1.00  0.00    -0.107 OA 
HETATM    7  C   UNL     1      -6.970  10.106  67.383  1.00  0.00    -0.082 C  
HETATM    8  C   UNL     1      -5.739   9.156  67.549  1.00  0.00    -0.042 C  
HETATM    9  O   UNL     1      -7.125   6.673  66.430  1.00  0.00    -0.064 OA 
HETATM   10  H   UNL     1      -6.436   6.024  66.512  1.00  0.00     0.000 HD 
HETATM   11  N   UNL     1      -5.156   8.816  66.209  1.00  0.00    -0.030 NA 
HETATM   12  C   UNL     1      -6.130   7.892  68.315  1.00  0.00    -0.041 C  
HETATM   13  H2  UNL     1      -4.922   9.652  65.673  1.00  0.00     0.000 HD 
HETATM   14  O   UNL     1      -6.306   8.145  69.715  1.00  0.00    -0.035 OA 
HETATM   15  C   UNL     1      -7.390   7.255  67.716  1.00  0.00    -0.093 C  
HETATM   16  H1  UNL     1      -4.354   8.197  66.317  1.00  0.00     0.000 HD 
HETATM   17  H   UNL     1      -6.549   7.360  70.191  1.00  0.00     0.000 HD 
BRANCH   7  18
HETATM   18  O   UNL     1      -6.427  11.157  66.605  1.00  0.00    -0.113 OA 
BRANCH  18  19
HETATM   19  C   UNL     1      -6.607  12.511  67.000  1.00  0.00     0.070 C  
HETATM   20  O   UNL     1      -9.016  12.080  66.590  1.00  0.00    -0.199 OA 
HETATM   21  C   UNL     1      -6.169  12.468  68.469  1.00  0.00    -0.063 C  
HETATM   22  C   UNL     1      -8.296  13.342  68.559  1.00  0.00    -0.075 C  
HETATM   23  H   UNL     1      -9.908  12.406  66.629  1.00  0.00     0.000 HD 
HETATM   24  O   UNL     1      -7.367  12.517  69.263  1.00  0.00     0.048 OA 
HETATM   25  C   UNL     1      -8.055  13.042  67.062  1.00  0.00    -0.033 C  
BRANCH  21  26
HETATM   26  C   UNL     1      -5.180  13.570  68.856  1.00  0.00    -0.070 C  
HETATM   27  H   UNL     1      -4.847  14.807  70.375  1.00  0.00     0.000 HD 
HETATM   28  O   UNL     1      -5.461  14.123  70.135  1.00  0.00    -0.097 OA 
ENDBRANCH  21  26
BRANCH  22  29
HETATM   29  O   UNL     1      -8.079  14.723  68.875  1.00  0.00    -0.151 OA 
BRANCH  29  30
HETATM   30  C   UNL     1      -8.137  15.686  67.769  1.00  0.00    -0.146 C  
HETATM   31  C   UNL     1      -7.065  16.793  67.948  1.00  0.00    -0.141 C  
HETATM   32  O   UNL     1      -5.848  16.373  67.292  1.00  0.00    -0.147 OA 
HETATM   33  C   UNL     1      -7.377  18.213  67.449  1.00  0.00    -0.210 C  
HETATM   34  C   UNL     1      -8.857  18.547  67.429  1.00  0.00    -0.276 C  
HETATM   35  N   UNL     1      -6.684  19.209  68.307  1.00  0.00    -0.244 NA 
HETATM   36  H   UNL     1      -5.192  17.051  67.402  1.00  0.00     0.000 HD 
HETATM   37  H1  UNL     1      -6.891  20.151  67.976  1.00  0.00     0.000 HD 
HETATM   38  H2  UNL     1      -5.681  19.034  68.365  1.00  0.00     0.000 HD 
HETATM   39  C   UNL     1      -9.628  17.474  66.661  1.00  0.00    -0.282 C  
HETATM   40  C   UNL     1      -9.589  16.137  67.444  1.00  0.00    -0.229 C  
HETATM   41  N   UNL     1     -11.015  17.945  66.460  1.00  0.00     0.076 NA 
HETATM   42  H2  UNL     1     -11.057  18.857  66.005  1.00  0.00     0.000 HD 
HETATM   43  H1  UNL     1     -11.529  17.228  65.947  1.00  0.00     0.000 HD 
BRANCH  40  44
HETATM   44  O   UNL     1     -10.293  15.156  66.643  1.00  0.00    -0.263 OA 
BRANCH  44  45
HETATM   45  C   UNL     1     -11.705  15.086  66.858  1.00  0.00    -0.172 C  
HETATM   46  O   UNL     1     -12.347  14.254  65.889  1.00  0.00    -0.430 OA 
HETATM   47  C   UNL     1     -11.953  12.877  65.966  1.00  0.00    -0.446 C  
HETATM   48  C   UNL     1     -12.245  12.281  67.351  1.00  0.00     0.327 C  
HETATM   49  H1  UNL     1     -11.538  15.110  70.295  1.00  0.00     0.000 HD 
HETATM   50  O   UNL     1     -11.810  10.919  67.461  1.00  0.00    -0.565 OA 
HETATM   51  H2  UNL     1     -11.616  16.411  69.238  1.00  0.00     0.000 HD 
HETATM   52  C   UNL     1     -11.557  13.123  68.436  1.00  0.00    -0.337 C  
HETATM   53  H   UNL     1     -11.991  10.550  68.318  1.00  0.00     0.000 HD 
HETATM   54  O   UNL     1     -11.915  12.623  69.736  1.00  0.00    -0.319 OA 
HETATM   55  C   UNL     1     -11.991  14.595  68.305  1.00  0.00    -0.247 C  
HETATM   56  N   UNL     1     -11.351  15.433  69.346  1.00  0.00    -0.284 NA 
HETATM   57  H   UNL     1     -11.490  13.144  70.407  1.00  0.00     0.000 HD 
BRANCH  47  58
HETATM   58  C   UNL     1     -12.640  12.110  64.814  1.00  0.00    -0.087 C  
HETATM   59  H1  UNL     1     -12.266  11.429  62.854  1.00  0.00     0.000 HD 
HETATM   60  N   UNL     1     -11.812  11.935  63.615  1.00  0.00    -0.510 NA 
HETATM   61  H2  UNL     1     -10.927  11.490  63.858  1.00  0.00     0.000 HD 
ENDBRANCH  47  58
ENDBRANCH  44  45
ENDBRANCH  40  44
ENDBRANCH  29  30
ENDBRANCH  22  29
ENDBRANCH  18  19
ENDBRANCH   7  18
ENDBRANCH   2   5
TORSDOF 9
ENDMDL
MODEL      224
REMARK 921   NORMALIZED FREE ENERGY PREDICTED BY IDOCK:   -2.94 KCAL/MOL
REMARK 922        TOTAL FREE ENERGY PREDICTED BY IDOCK:   -7.29 KCAL/MOL
REMARK 923 INTER-LIGAND FREE ENERGY PREDICTED BY IDOCK:   -5.99 KCAL/MOL
REMARK 924 INTRA-LIGAND FREE ENERGY PREDICTED BY IDOCK:   -1.30 KCAL/MOL
REMARK 927      BINDING AFFINITY PREDICTED BY RF-SCORE:    0.00 PKD
ROOT
HETATM    1  N   UNL     1      -9.282   8.595  63.996  1.00  0.00     0.058 NA 
HETATM    2  C   UNL     1      -7.858   8.376  63.726  1.00  0.00    -0.151 C  
HETATM    3  H1  UNL     1      -9.590   9.566  63.960  1.00  0.00     0.000 HD 
HETATM    4  H2  UNL     1      -9.534   8.181  64.893  1.00  0.00     0.000 HD 
ENDROOT
BRANCH   2   5
HETATM    5  C   UNL     1      -7.388   6.899  63.781  1.00  0.00    -0.080 C  
HETATM    6  O   UNL     1      -7.750   6.215  65.009  1.00  0.00    -0.086 OA 
HETATM    7  C   UNL     1      -7.394   4.824  64.934  1.00  0.00    -0.071 C  
HETATM    8  C   UNL     1      -5.845   4.662  64.794  1.00  0.00    -0.014 C  
HETATM    9  O   UNL     1      -5.244   7.655  64.661  1.00  0.00    -0.029 OA 
HETATM   10  H   UNL     1      -4.299   7.650  64.555  1.00  0.00     0.000 HD 
HETATM   11  N   UNL     1      -5.158   5.093  66.057  1.00  0.00    -0.008 NA 
HETATM   12  C   UNL     1      -5.326   5.447  63.590  1.00  0.00    -0.013 C  
HETATM   13  H2  UNL     1      -5.520   4.600  66.873  1.00  0.00     0.000 HD 
HETATM   14  O   UNL     1      -5.650   4.805  62.350  1.00  0.00    -0.013 OA 
HETATM   15  C   UNL     1      -5.848   6.889  63.608  1.00  0.00    -0.036 C  
HETATM   16  H1  UNL     1      -4.148   4.988  65.966  1.00  0.00     0.000 HD 
HETATM   17  H   UNL     1      -5.327   5.293  61.601  1.00  0.00     0.000 HD 
BRANCH   7  18
HETATM   18  O   UNL     1      -7.659   4.097  66.120  1.00  0.00    -0.087 OA 
BRANCH  18  19
HETATM   19  C   UNL     1      -8.761   4.447  66.947  1.00  0.00    -0.112 C  
HETATM   20  O   UNL     1      -8.057   2.511  68.331  1.00  0.00    -0.057 OA 
HETATM   21  C   UNL     1      -8.334   5.823  67.471  1.00  0.00    -0.104 C  
HETATM   22  C   UNL     1      -8.736   4.612  69.385  1.00  0.00    -0.082 C  
HETATM   23  H   UNL     1      -8.189   1.999  69.120  1.00  0.00     0.000 HD 
HETATM   24  O   UNL     1      -7.912   5.639  68.832  1.00  0.00    -0.094 OA 
HETATM   25  C   UNL     1      -8.976   3.615  68.229  1.00  0.00    -0.129 C  
BRANCH  21  26
HETATM   26  C   UNL     1      -9.415   6.900  67.346  1.00  0.00    -0.132 C  
HETATM   27  H   UNL     1      -9.576   8.786  66.741  1.00  0.00     0.000 HD 
HETATM   28  O   UNL     1      -8.906   8.118  66.818  1.00  0.00    -0.128 OA 
ENDBRANCH  21  26
BRANCH  22  29
HETATM   29  O   UNL     1      -9.961   5.167  69.882  1.00  0.00    -0.202 OA 
BRANCH  29  30
HETATM   30  C   UNL     1      -9.881   6.022  71.073  1.00  0.00    -0.183 C  
HETATM   31  C   UNL     1      -9.368   5.214  72.294  1.00  0.00    -0.138 C  
HETATM   32  O   UNL     1      -7.927   5.306  72.341  1.00  0.00    -0.100 OA 
HETATM   33  C   UNL     1      -9.887   5.579  73.694  1.00  0.00    -0.169 C  
HETATM   34  C   UNL     1     -11.266   6.214  73.693  1.00  0.00     0.272 C  
HETATM   35  N   UNL     1      -9.933   4.362  74.545  1.00  0.00    -0.172 NA 
HETATM   36  H   UNL     1      -7.613   4.811  73.088  1.00  0.00     0.000 HD 
HETATM   37  H1  UNL     1     -10.277   4.605  75.474  1.00  0.00     0.000 HD 
HETATM   38  H2  UNL     1      -9.032   3.885  74.582  1.00  0.00     0.000 HD 
HETATM   39  C   UNL     1     -11.298   7.398  72.729  1.00  0.00    -0.308 C  
HETATM   40  C   UNL     1     -11.153   6.893  71.270  1.00  0.00    -0.258 C  
HETATM   41  N   UNL     1     -12.569   8.130  72.925  1.00  0.00    -0.632 NA 
HETATM   42  H2  UNL     1     -12.713   8.411  73.895  1.00  0.00     0.000 HD 
HETATM   43  H1  UNL     1     -12.590   8.921  72.281  1.00  0.00     0.000 HD 
BRANCH  40  44
HETATM   44  O   UNL     1     -11.144   8.063  70.416  1.00  0.00    -0.250 OA 
BRANCH  44  45
HETATM   45  C   UNL     1     -10.730   9.280  71.043  1.00  0.00    -0.316 C  
HETATM   46  O   UNL     1      -9.326   9.500  70.893  1.00  0.00    -0.229 OA 
HETATM   47  C   UNL     1      -8.919   9.700  69.531  1.00  0.00    -0.194 C  
HETATM   48  C   UNL     1      -9.645  10.893  68.892  1.00  0.00    -0.181 C  
HETATM   49  H1  UNL     1     -13.559  11.067  70.239  1.00  0.00     0.000 HD 
HETATM   50  O   UNL     1      -9.288  11.073  67.515  1.00  0.00    -0.157 OA 
HETATM   51  H2  UNL     1     -13.270  10.105  71.584  1.00  0.00     0.000 HD 
HETATM   52  C   UNL     1     -11.165  10.698  69.001  1.00  0.00    -0.265 C  
HETATM   53  H   UNL     1      -9.737  11.812  67.119  1.00  0.00     0.000 HD 
HETATM   54  O   UNL     1     -11.839  11.862  68.494  1.00  0.00    -0.308 OA 
HETATM   55  C   UNL     1     -11.554  10.468  70.473  1.00  0.00    -0.350 C  
HETATM   56  N   UNL     1     -13.019  10.287  70.613  1.00  0.00    -0.327 NA 
HETATM   57  H   UNL     1     -12.779  11.742  68.562  1.00  0.00     0.000 HD 
BRANCH  47  58
HETATM   58  C   UNL     1      -7.380   9.831  69.498  1.00  0.00    -0.092 C  
HETATM   59  H1  UNL     1      -5.766   9.787  68.143  1.00  0.00     0.000 HD 
HETATM   60  N   UNL     1      -6.783   9.701  68.164  1.00  0.00    -0.061 NA 
HETATM   61  H2  UNL     1      -7.209  10.366  67.519  1.00  0.00     0.000 HD 
ENDBRANCH  47  58
ENDBRANCH  44  45
ENDBRANCH  40  44
ENDBRANCH  29  30
ENDBRANCH  22  29
ENDBRANCH  18  19
ENDBRANCH   7  18
ENDBRANCH   2   5
TORSDOF 9
ENDMDL
MODEL      225
REMARK 921   NORMALIZED FREE ENERGY PREDICTED BY IDOCK:   -2.80 KCAL/MOL
REMARK 922        TOTAL FREE ENERGY PREDICTED BY IDOCK:   -7.09 KCAL/MOL
REMARK 923 INTER-LIGAND FREE ENERGY PREDICTED BY IDOCK:   -6.38 KCAL/MOL
REMARK 924 INTRA-LIGAND FREE ENERGY PREDICTED BY IDOCK:   -0.71 KCAL/MOL
REMARK 927      BINDING AFFINITY PREDICTED BY RF-SCORE:    0.00 PKD
ROOT
HETATM    1  N   UNL     1     -11.165  13.301  66.436  1.00  0.00    -0.296 NA 
HETATM    2  C   UNL     1     -10.714  14.377  67.323  1.00  0.00    -0.285 C  
HETATM    3  H1  UNL     1     -12.174  13.165  66.390  1.00  0.00     0.000 HD 
HETATM    4  H2  UNL     1     -10.706  12.426  66.689  1.00  0.00     0.000 HD 
ENDROOT
BRANCH   2   5
HETATM    5  C   UNL     1      -9.178  14.584  67.394  1.00  0.00    -0.200 C  
HETATM    6  O   UNL     1      -8.470  13.492  68.037  1.00  0.00    -0.155 OA 
HETATM    7  C   UNL     1      -7.049  13.694  67.952  1.00  0.00    -0.149 C  
HETATM    8  C   UNL     1      -6.634  14.988  68.725  1.00  0.00    -0.094 C  
HETATM    9  O   UNL     1      -9.479  15.811  69.479  1.00  0.00    -0.259 OA 
HETATM   10  H   UNL     1      -9.318  16.621  69.949  1.00  0.00     0.000 HD 
HETATM   11  N   UNL     1      -6.836  14.804  70.200  1.00  0.00    -0.292 NA 
HETATM   12  C   UNL     1      -7.412  16.199  68.211  1.00  0.00    -0.145 C  
HETATM   13  H2  UNL     1      -6.348  13.979  70.551  1.00  0.00     0.000 HD 
HETATM   14  O   UNL     1      -6.938  16.638  66.931  1.00  0.00    -0.187 OA 
HETATM   15  C   UNL     1      -8.917  15.904  68.161  1.00  0.00    -0.181 C  
HETATM   16  H1  UNL     1      -6.566  15.648  70.705  1.00  0.00     0.000 HD 
HETATM   17  H   UNL     1      -7.422  17.391  66.611  1.00  0.00     0.000 HD 
BRANCH   7  18
HETATM   18  O   UNL     1      -6.285  12.700  68.612  1.00  0.00    -0.063 OA 
BRANCH  18  19
HETATM   19  C   UNL     1      -6.351  11.345  68.189  1.00  0.00    -0.049 C  
HETATM   20  O   UNL     1      -6.962  10.868  70.547  1.00  0.00    -0.480 OA 
HETATM   21  C   UNL     1      -7.522  11.383  67.199  1.00  0.00    -0.138 C  
HETATM   22  C   UNL     1      -8.138   9.760  68.709  1.00  0.00    -0.102 C  
HETATM   23  H   UNL     1      -7.231  10.225  71.191  1.00  0.00     0.000 HD 
HETATM   24  O   UNL     1      -8.650  10.791  67.864  1.00  0.00    -0.122 OA 
HETATM   25  C   UNL     1      -6.788  10.299  69.236  1.00  0.00    -0.068 C  
BRANCH  21  26
HETATM   26  C   UNL     1      -7.225  10.705  65.859  1.00  0.00    -0.119 C  
HETATM   27  H   UNL     1      -5.708   9.794  64.954  1.00  0.00     0.000 HD 
HETATM   28  O   UNL     1      -5.893  10.215  65.785  1.00  0.00    -0.060 OA 
ENDBRANCH  21  26
BRANCH  22  29
HETATM   29  O   UNL     1      -7.982   8.540  67.973  1.00  0.00    -0.109 OA 
BRANCH  29  30
HETATM   30  C   UNL     1      -8.958   7.472  68.224  1.00  0.00    -0.130 C  
HETATM   31  C   UNL     1     -10.310   8.064  68.699  1.00  0.00    -0.200 C  
HETATM   32  O   UNL     1     -11.139   8.316  67.544  1.00  0.00    -0.471 OA 
HETATM   33  C   UNL     1     -11.161   7.259  69.695  1.00  0.00    -0.141 C  
HETATM   34  C   UNL     1     -10.354   6.328  70.582  1.00  0.00    -0.254 C  
HETATM   35  N   UNL     1     -11.925   8.189  70.566  1.00  0.00    -0.484 NA 
HETATM   36  H   UNL     1     -11.968   8.679  67.835  1.00  0.00     0.000 HD 
HETATM   37  H1  UNL     1     -12.489   7.656  71.227  1.00  0.00     0.000 HD 
HETATM   38  H2  UNL     1     -12.486   8.848  70.026  1.00  0.00     0.000 HD 
HETATM   39  C   UNL     1      -9.455   5.437  69.727  1.00  0.00    -0.151 C  
HETATM   40  C   UNL     1      -8.359   6.296  69.046  1.00  0.00    -0.117 C  
HETATM   41  N   UNL     1      -8.865   4.394  70.594  1.00  0.00    -0.092 NA 
HETATM   42  H2  UNL     1      -9.572   3.863  71.103  1.00  0.00     0.000 HD 
HETATM   43  H1  UNL     1      -8.265   3.799  70.023  1.00  0.00     0.000 HD 
BRANCH  40  44
HETATM   44  O   UNL     1      -7.574   5.403  68.218  1.00  0.00    -0.079 OA 
BRANCH  44  45
HETATM   45  C   UNL     1      -8.282   4.285  67.675  1.00  0.00    -0.098 C  
HETATM   46  O   UNL     1      -8.810   4.574  66.379  1.00  0.00    -0.112 OA 
HETATM   47  C   UNL     1      -7.800   4.810  65.388  1.00  0.00    -0.091 C  
HETATM   48  C   UNL     1      -6.855   3.608  65.245  1.00  0.00    -0.052 C  
HETATM   49  H1  UNL     1      -6.175   1.882  68.950  1.00  0.00     0.000 HD 
HETATM   50  O   UNL     1      -5.807   3.849  64.295  1.00  0.00    -0.014 OA 
HETATM   51  H2  UNL     1      -7.526   2.580  69.661  1.00  0.00     0.000 HD 
HETATM   52  C   UNL     1      -6.235   3.266  66.608  1.00  0.00    -0.028 C  
HETATM   53  H   UNL     1      -5.222   3.105  64.207  1.00  0.00     0.000 HD 
HETATM   54  O   UNL     1      -5.431   2.080  66.491  1.00  0.00    -0.012 OA 
HETATM   55  C   UNL     1      -7.352   3.041  67.644  1.00  0.00    -0.054 C  
HETATM   56  N   UNL     1      -6.785   2.698  68.971  1.00  0.00    -0.033 NA 
HETATM   57  H   UNL     1      -5.048   1.869  67.335  1.00  0.00     0.000 HD 
BRANCH  47  58
HETATM   58  C   UNL     1      -8.498   5.200  64.066  1.00  0.00    -0.123 C  
HETATM   59  H1  UNL     1      -8.176   6.347  62.326  1.00  0.00     0.000 HD 
HETATM   60  N   UNL     1      -7.715   6.089  63.199  1.00  0.00    -0.089 NA 
HETATM   61  H2  UNL     1      -6.799   5.682  63.010  1.00  0.00     0.000 HD 
ENDBRANCH  47  58
ENDBRANCH  44  45
ENDBRANCH  40  44
ENDBRANCH  29  30
ENDBRANCH  22  29
ENDBRANCH  18  19
ENDBRANCH   7  18
ENDBRANCH   2   5
TORSDOF 9
ENDMDL
MODEL      226
REMARK 921   NORMALIZED FREE ENERGY PREDICTED BY IDOCK:   -2.79 KCAL/MOL
REMARK 922        TOTAL FREE ENERGY PREDICTED BY IDOCK:   -7.06 KCAL/MOL
REMARK 923 INTER-LIGAND FREE ENERGY PREDICTED BY IDOCK:   -8.07 KCAL/MOL
REMARK 924 INTRA-LIGAND FREE ENERGY PREDICTED BY IDOCK:    1.01 KCAL/MOL
REMARK 927      BINDING AFFINITY PREDICTED BY RF-SCORE:    0.00 PKD
ROOT
HETATM    1  N   UNL     1      -7.619   8.935  64.735  1.00  0.00    -0.102 NA 
HETATM    2  C   UNL     1      -7.203   7.766  65.515  1.00  0.00    -0.064 C  
HETATM    3  H1  UNL     1      -6.892   9.361  64.162  1.00  0.00     0.000 HD 
HETATM    4  H2  UNL     1      -8.033   9.635  65.350  1.00  0.00     0.000 HD 
ENDROOT
BRANCH   2   5
HETATM    5  C   UNL     1      -8.310   7.118  66.388  1.00  0.00    -0.125 C  
HETATM    6  O   UNL     1      -8.509   7.779  67.665  1.00  0.00    -0.120 OA 
HETATM    7  C   UNL     1      -9.630   7.204  68.359  1.00  0.00    -0.137 C  
HETATM    8  C   UNL     1      -9.354   5.701  68.692  1.00  0.00    -0.123 C  
HETATM    9  O   UNL     1      -6.648   5.574  67.279  1.00  0.00    -0.050 OA 
HETATM   10  H   UNL     1      -6.409   4.664  67.420  1.00  0.00     0.000 HD 
HETATM   11  N   UNL     1      -8.260   5.583  69.712  1.00  0.00    -0.100 NA 
HETATM   12  C   UNL     1      -9.011   4.921  67.424  1.00  0.00    -0.107 C  
HETATM   13  H2  UNL     1      -8.462   6.127  70.551  1.00  0.00     0.000 HD 
HETATM   14  O   UNL     1     -10.167   4.678  66.612  1.00  0.00    -0.237 OA 
HETATM   15  C   UNL     1      -7.920   5.636  66.617  1.00  0.00    -0.101 C  
HETATM   16  H1  UNL     1      -8.081   4.603  69.929  1.00  0.00     0.000 HD 
HETATM   17  H   UNL     1      -9.953   4.193  65.823  1.00  0.00     0.000 HD 
BRANCH   7  18
HETATM   18  O   UNL     1      -9.853   7.754  69.646  1.00  0.00    -0.178 OA 
BRANCH  18  19
HETATM   19  C   UNL     1      -9.793   9.159  69.847  1.00  0.00    -0.190 C  
HETATM   20  O   UNL     1      -7.333   8.841  69.793  1.00  0.00    -0.050 OA 
HETATM   21  C   UNL     1     -10.419   9.687  68.550  1.00  0.00    -0.212 C  
HETATM   22  C   UNL     1      -8.368  10.728  68.629  1.00  0.00    -0.141 C  
HETATM   23  H   UNL     1      -6.471   9.242  69.808  1.00  0.00     0.000 HD 
HETATM   24  O   UNL     1      -9.341  10.181  67.737  1.00  0.00    -0.140 OA 
HETATM   25  C   UNL     1      -8.394   9.810  69.872  1.00  0.00    -0.184 C  
BRANCH  21  26
HETATM   26  C   UNL     1     -11.504  10.745  68.768  1.00  0.00    -0.295 C  
HETATM   27  H   UNL     1     -12.255  11.821  70.260  1.00  0.00     0.000 HD 
HETATM   28  O   UNL     1     -11.583  11.165  70.124  1.00  0.00    -0.303 OA 
ENDBRANCH  21  26
BRANCH  22  29
HETATM   29  O   UNL     1      -8.693  12.086  68.952  1.00  0.00     0.028 OA 
BRANCH  29  30
HETATM   30  C   UNL     1      -7.649  13.097  68.748  1.00  0.00    -0.033 C  
HETATM   31  C   UNL     1      -6.454  12.853  69.706  1.00  0.00    -0.003 C  
HETATM   32  O   UNL     1      -5.502  11.985  69.053  1.00  0.00    -0.051 OA 
HETATM   33  C   UNL     1      -5.668  14.065  70.233  1.00  0.00    -0.137 C  
HETATM   34  C   UNL     1      -6.482  15.345  70.299  1.00  0.00     0.007 C  
HETATM   35  N   UNL     1      -5.147  13.771  71.593  1.00  0.00    -0.153 NA 
HETATM   36  H   UNL     1      -4.771  11.836  69.640  1.00  0.00     0.000 HD 
HETATM   37  H1  UNL     1      -4.625  14.575  71.942  1.00  0.00     0.000 HD 
HETATM   38  H2  UNL     1      -4.593  12.915  71.616  1.00  0.00     0.000 HD 
HETATM   39  C   UNL     1      -7.143  15.617  68.949  1.00  0.00    -0.138 C  
HETATM   40  C   UNL     1      -8.221  14.540  68.665  1.00  0.00    -0.152 C  
HETATM   41  N   UNL     1      -7.728  16.975  68.978  1.00  0.00    -0.220 NA 
HETATM   42  H2  UNL     1      -7.045  17.690  69.230  1.00  0.00     0.000 HD 
HETATM   43  H1  UNL     1      -8.169  17.157  68.076  1.00  0.00     0.000 HD 
BRANCH  40  44
HETATM   44  O   UNL     1      -8.773  14.828  67.357  1.00  0.00    -0.175 OA 
BRANCH  44  45
HETATM   45  C   UNL     1      -9.853  15.766  67.338  1.00  0.00    -0.233 C  
HETATM   46  O   UNL     1     -10.433  15.876  66.036  1.00  0.00    -0.316 OA 
HETATM   47  C   UNL     1     -11.064  14.669  65.585  1.00  0.00    -0.338 C  
HETATM   48  C   UNL     1     -12.171  14.215  66.548  1.00  0.00    -0.433 C  
HETATM   49  H1  UNL     1     -11.055  14.979  70.464  1.00  0.00     0.000 HD 
HETATM   50  O   UNL     1     -12.776  12.981  66.138  1.00  0.00    -0.334 OA 
HETATM   51  H2  UNL     1      -9.880  16.101  70.042  1.00  0.00     0.000 HD 
HETATM   52  C   UNL     1     -11.598  14.054  67.964  1.00  0.00    -0.337 C  
HETATM   53  H   UNL     1     -13.462  12.700  66.734  1.00  0.00     0.000 HD 
HETATM   54  O   UNL     1     -12.656  13.727  68.880  1.00  0.00    -0.286 OA 
HETATM   55  C   UNL     1     -10.914  15.363  68.399  1.00  0.00    -0.284 C  
HETATM   56  N   UNL     1     -10.359  15.243  69.768  1.00  0.00    -0.264 NA 
HETATM   57  H   UNL     1     -12.301  13.628  69.756  1.00  0.00     0.000 HD 
BRANCH  47  58
HETATM   58  C   UNL     1     -11.564  14.892  64.140  1.00  0.00    -0.054 C  
HETATM   59  H1  UNL     1     -11.793  16.424  62.710  1.00  0.00     0.000 HD 
HETATM   60  N   UNL     1     -11.463  16.277  63.664  1.00  0.00    -1.207 NA 
HETATM   61  H2  UNL     1     -10.507  16.617  63.765  1.00  0.00     0.000 HD 
ENDBRANCH  47  58
ENDBRANCH  44  45
ENDBRANCH  40  44
ENDBRANCH  29  30
ENDBRANCH  22  29
ENDBRANCH  18  19
ENDBRANCH   7  18
ENDBRANCH   2   5
TORSDOF 9
ENDMDL
MODEL      227
REMARK 921   NORMALIZED FREE ENERGY PREDICTED BY IDOCK:   -2.79 KCAL/MOL
REMARK 922        TOTAL FREE ENERGY PREDICTED BY IDOCK:   -7.06 KCAL/MOL
REMARK 923 INTER-LIGAND FREE ENERGY PREDICTED BY IDOCK:   -6.68 KCAL/MOL
REMARK 924 INTRA-LIGAND FREE ENERGY PREDICTED BY IDOCK:   -0.38 KCAL/MOL
REMARK 927      BINDING AFFINITY PREDICTED BY RF-SCORE:    0.00 PKD
ROOT
HETATM    1  N   UNL     1     -12.685  15.817  69.714  1.00  0.00    -0.546 NA 
HETATM    2  C   UNL     1     -12.482  14.366  69.723  1.00  0.00    -0.217 C  
HETATM    3  H1  UNL     1     -12.986  16.223  70.599  1.00  0.00     0.000 HD 
HETATM    4  H2  UNL     1     -13.336  16.074  68.973  1.00  0.00     0.000 HD 
ENDROOT
BRANCH   2   5
HETATM    5  C   UNL     1     -12.024  13.748  68.376  1.00  0.00    -0.360 C  
HETATM    6  O   UNL     1     -10.654  13.270  68.388  1.00  0.00    -0.240 OA 
HETATM    7  C   UNL     1     -10.344  12.600  67.154  1.00  0.00    -0.231 C  
HETATM    8  C   UNL     1     -10.440  13.596  65.952  1.00  0.00    -0.296 C  
HETATM    9  O   UNL     1     -11.396  15.976  67.614  1.00  0.00    -0.244 OA 
HETATM   10  H   UNL     1     -11.500  16.641  66.942  1.00  0.00     0.000 HD 
HETATM   11  N   UNL     1      -9.349  14.622  66.034  1.00  0.00    -0.487 NA 
HETATM   12  C   UNL     1     -11.816  14.260  65.909  1.00  0.00    -0.380 C  
HETATM   13  H2  UNL     1      -8.426  14.191  66.097  1.00  0.00     0.000 HD 
HETATM   14  O   UNL     1     -12.830  13.364  65.434  1.00  0.00    -0.594 OA 
HETATM   15  C   UNL     1     -12.195  14.831  67.281  1.00  0.00     0.050 C  
HETATM   16  H1  UNL     1      -9.411  15.272  65.251  1.00  0.00     0.000 HD 
HETATM   17  H   UNL     1     -13.686  13.777  65.407  1.00  0.00     0.000 HD 
BRANCH   7  18
HETATM   18  O   UNL     1      -9.002  12.157  67.060  1.00  0.00    -0.187 OA 
BRANCH  18  19
HETATM   19  C   UNL     1      -8.431  11.371  68.098  1.00  0.00    -0.152 C  
HETATM   20  O   UNL     1      -8.962   9.442  66.630  1.00  0.00    -0.140 OA 
HETATM   21  C   UNL     1      -6.970  11.836  68.074  1.00  0.00    -0.076 C  
HETATM   22  C   UNL     1      -6.821   9.555  67.808  1.00  0.00    -0.078 C  
HETATM   23  H   UNL     1      -8.904   8.505  66.483  1.00  0.00     0.000 HD 
HETATM   24  O   UNL     1      -6.210  10.793  67.441  1.00  0.00    -0.052 OA 
HETATM   25  C   UNL     1      -8.337   9.849  67.861  1.00  0.00    -0.114 C  
BRANCH  21  26
HETATM   26  C   UNL     1      -6.410  12.197  69.453  1.00  0.00    -0.116 C  
HETATM   27  H   UNL     1      -4.879  11.696  70.616  1.00  0.00     0.000 HD 
HETATM   28  O   UNL     1      -5.227  11.472  69.761  1.00  0.00    -0.056 OA 
ENDBRANCH  21  26
BRANCH  22  29
HETATM   29  O   UNL     1      -6.314   9.102  69.070  1.00  0.00    -0.043 OA 
BRANCH  29  30
HETATM   30  C   UNL     1      -7.172   8.213  69.863  1.00  0.00    -0.060 C  
HETATM   31  C   UNL     1      -7.448   8.822  71.263  1.00  0.00    -0.108 C  
HETATM   32  O   UNL     1      -8.643   9.630  71.191  1.00  0.00    -0.337 OA 
HETATM   33  C   UNL     1      -7.618   7.874  72.462  1.00  0.00    -0.106 C  
HETATM   34  C   UNL     1      -6.890   6.551  72.308  1.00  0.00    -0.068 C  
HETATM   35  N   UNL     1      -7.127   8.538  73.697  1.00  0.00    -0.307 NA 
HETATM   36  H   UNL     1      -8.812  10.003  72.049  1.00  0.00     0.000 HD 
HETATM   37  H1  UNL     1      -7.240   7.909  74.492  1.00  0.00     0.000 HD 
HETATM   38  H2  UNL     1      -7.577   9.439  73.854  1.00  0.00     0.000 HD 
HETATM   39  C   UNL     1      -7.270   5.893  70.983  1.00  0.00    -0.074 C  
HETATM   40  C   UNL     1      -6.714   6.729  69.802  1.00  0.00    -0.050 C  
HETATM   41  N   UNL     1      -6.734   4.514  70.972  1.00  0.00    -0.030 NA 
HETATM   42  H2  UNL     1      -7.037   3.971  71.780  1.00  0.00     0.000 HD 
HETATM   43  H1  UNL     1      -6.988   4.076  70.087  1.00  0.00     0.000 HD 
BRANCH  40  44
HETATM   44  O   UNL     1      -7.147   6.079  68.581  1.00  0.00    -0.076 OA 
BRANCH  44  45
HETATM   45  C   UNL     1      -6.140   5.337  67.888  1.00  0.00    -0.023 C  
HETATM   46  O   UNL     1      -6.575   4.009  67.588  1.00  0.00    -0.041 OA 
HETATM   47  C   UNL     1      -7.679   3.961  66.673  1.00  0.00    -0.089 C  
HETATM   48  C   UNL     1      -7.342   4.649  65.342  1.00  0.00    -0.076 C  
HETATM   49  H1  UNL     1      -4.978   7.984  66.021  1.00  0.00     0.000 HD 
HETATM   50  O   UNL     1      -8.454   4.655  64.436  1.00  0.00    -0.118 OA 
HETATM   51  H2  UNL     1      -4.499   7.487  67.551  1.00  0.00     0.000 HD 
HETATM   52  C   UNL     1      -6.891   6.094  65.602  1.00  0.00    -0.053 C  
HETATM   53  H   UNL     1      -8.246   5.081  63.612  1.00  0.00     0.000 HD 
HETATM   54  O   UNL     1      -6.480   6.703  64.365  1.00  0.00    -0.037 OA 
HETATM   55  C   UNL     1      -5.720   6.101  66.601  1.00  0.00    -0.016 C  
HETATM   56  N   UNL     1      -5.254   7.483  66.865  1.00  0.00    -0.022 NA 
HETATM   57  H   UNL     1      -6.201   7.596  64.526  1.00  0.00     0.000 HD 
BRANCH  47  58
HETATM   58  C   UNL     1      -8.109   2.486  66.508  1.00  0.00    -0.083 C  
HETATM   59  H1  UNL     1      -9.843   1.290  66.425  1.00  0.00     0.000 HD 
HETATM   60  N   UNL     1      -9.559   2.264  66.534  1.00  0.00    -0.350 NA 
HETATM   61  H2  UNL     1     -10.019   2.848  65.835  1.00  0.00     0.000 HD 
ENDBRANCH  47  58
ENDBRANCH  44  45
ENDBRANCH  40  44
ENDBRANCH  29  30
ENDBRANCH  22  29
ENDBRANCH  18  19
ENDBRANCH   7  18
ENDBRANCH   2   5
TORSDOF 9
ENDMDL
MODEL      228
REMARK 921   NORMALIZED FREE ENERGY PREDICTED BY IDOCK:   -2.72 KCAL/MOL
REMARK 922        TOTAL FREE ENERGY PREDICTED BY IDOCK:   -6.96 KCAL/MOL
REMARK 923 INTER-LIGAND FREE ENERGY PREDICTED BY IDOCK:   -8.55 KCAL/MOL
REMARK 924 INTRA-LIGAND FREE ENERGY PREDICTED BY IDOCK:    1.59 KCAL/MOL
REMARK 927      BINDING AFFINITY PREDICTED BY RF-SCORE:    0.00 PKD
ROOT
HETATM    1  N   UNL     1      -5.281  16.542  66.849  1.00  0.00    -0.338 NA 
HETATM    2  C   UNL     1      -5.182  17.998  66.983  1.00  0.00    -0.125 C  
HETATM    3  H1  UNL     1      -4.436  16.074  66.523  1.00  0.00     0.000 HD 
HETATM    4  H2  UNL     1      -6.068  16.300  66.247  1.00  0.00     0.000 HD 
ENDROOT
BRANCH   2   5
HETATM    5  C   UNL     1      -6.468  18.711  67.479  1.00  0.00    -0.197 C  
HETATM    6  O   UNL     1      -7.363  17.847  68.228  1.00  0.00    -0.231 OA 
HETATM    7  C   UNL     1      -8.464  18.605  68.760  1.00  0.00    -0.260 C  
HETATM    8  C   UNL     1      -9.322  19.209  67.600  1.00  0.00    -0.303 C  
HETATM    9  O   UNL     1      -7.527  18.200  65.343  1.00  0.00    -0.499 OA 
HETATM   10  H   UNL     1      -7.976  18.546  64.580  1.00  0.00     0.000 HD 
HETATM   11  N   UNL     1     -10.026  18.118  66.848  1.00  0.00    -0.324 NA 
HETATM   12  C   UNL     1      -8.453  20.050  66.666  1.00  0.00    -0.317 C  
HETATM   13  H2  UNL     1     -10.584  17.529  67.466  1.00  0.00     0.000 HD 
HETATM   14  O   UNL     1      -8.096  21.309  67.251  1.00  0.00    -0.622 OA 
HETATM   15  C   UNL     1      -7.201  19.276  66.236  1.00  0.00    -0.250 C  
HETATM   16  H1  UNL     1     -10.586  18.512  66.092  1.00  0.00     0.000 HD 
HETATM   17  H   UNL     1      -7.556  21.832  66.670  1.00  0.00     0.000 HD 
BRANCH   7  18
HETATM   18  O   UNL     1      -9.419  17.822  69.454  1.00  0.00     0.055 OA 
BRANCH  18  19
HETATM   19  C   UNL     1     -10.046  16.718  68.815  1.00  0.00    -0.286 C  
HETATM   20  O   UNL     1      -7.805  15.659  68.933  1.00  0.00    -0.156 OA 
HETATM   21  C   UNL     1     -11.048  16.265  69.884  1.00  0.00    -0.347 C  
HETATM   22  C   UNL     1      -9.819  14.369  69.449  1.00  0.00     0.154 C  
HETATM   23  H   UNL     1      -7.273  14.887  68.779  1.00  0.00     0.000 HD 
HETATM   24  O   UNL     1     -10.510  15.074  70.481  1.00  0.00    -0.105 OA 
HETATM   25  C   UNL     1      -9.182  15.464  68.564  1.00  0.00    -0.198 C  
BRANCH  21  26
HETATM   26  C   UNL     1     -12.468  16.050  69.354  1.00  0.00     0.382 C  
HETATM   27  H   UNL     1     -14.185  15.264  69.972  1.00  0.00     0.000 HD 
HETATM   28  O   UNL     1     -13.304  15.397  70.300  1.00  0.00    -0.139 OA 
ENDBRANCH  21  26
BRANCH  22  29
HETATM   29  O   UNL     1     -10.729  13.541  68.713  1.00  0.00    -0.247 OA 
BRANCH  29  30
HETATM   30  C   UNL     1     -10.151  12.562  67.784  1.00  0.00    -0.218 C  
HETATM   31  C   UNL     1     -10.324  13.031  66.316  1.00  0.00    -0.285 C  
HETATM   32  O   UNL     1      -9.171  13.816  65.939  1.00  0.00    -0.495 OA 
HETATM   33  C   UNL     1     -10.525  11.973  65.219  1.00  0.00    -0.284 C  
HETATM   34  C   UNL     1     -11.161  10.686  65.715  1.00  0.00     0.228 C  
HETATM   35  N   UNL     1     -11.378  12.529  64.137  1.00  0.00    -0.351 NA 
HETATM   36  H   UNL     1      -9.278  14.103  65.039  1.00  0.00     0.000 HD 
HETATM   37  H1  UNL     1     -11.511  11.826  63.409  1.00  0.00     0.000 HD 
HETATM   38  H2  UNL     1     -11.004  13.401  63.764  1.00  0.00     0.000 HD 
HETATM   39  C   UNL     1     -10.386  10.146  66.916  1.00  0.00    -0.236 C  
HETATM   40  C   UNL     1     -10.557  11.101  68.125  1.00  0.00    -0.193 C  
HETATM   41  N   UNL     1     -10.882   8.787  67.223  1.00  0.00    -0.418 NA 
HETATM   42  H2  UNL     1     -10.840   8.164  66.417  1.00  0.00     0.000 HD 
HETATM   43  H1  UNL     1     -10.364   8.427  68.025  1.00  0.00     0.000 HD 
BRANCH  40  44
HETATM   44  O   UNL     1      -9.764  10.558  69.209  1.00  0.00    -0.214 OA 
BRANCH  44  45
HETATM   45  C   UNL     1      -9.666   9.132  69.246  1.00  0.00    -0.164 C  
HETATM   46  O   UNL     1      -8.315   8.691  69.089  1.00  0.00    -0.116 OA 
HETATM   47  C   UNL     1      -7.455   9.088  70.166  1.00  0.00    -0.072 C  
HETATM   48  C   UNL     1      -7.959   8.561  71.518  1.00  0.00    -0.133 C  
HETATM   49  H1  UNL     1     -12.099   8.675  71.636  1.00  0.00     0.000 HD 
HETATM   50  O   UNL     1      -7.137   8.994  72.612  1.00  0.00    -0.328 OA 
HETATM   51  H2  UNL     1     -12.268   8.767  69.968  1.00  0.00     0.000 HD 
HETATM   52  C   UNL     1      -9.403   9.027  71.753  1.00  0.00    -0.138 C  
HETATM   53  H   UNL     1      -7.449   8.667  73.448  1.00  0.00     0.000 HD 
HETATM   54  O   UNL     1      -9.906   8.449  72.970  1.00  0.00    -0.242 OA 
HETATM   55  C   UNL     1     -10.287   8.598  70.567  1.00  0.00    -0.202 C  
HETATM   56  N   UNL     1     -11.692   9.025  70.769  1.00  0.00    -0.270 NA 
HETATM   57  H   UNL     1     -10.800   8.737  73.114  1.00  0.00     0.000 HD 
BRANCH  47  58
HETATM   58  C   UNL     1      -6.016   8.634  69.831  1.00  0.00    -0.031 C  
HETATM   59  H1  UNL     1      -4.231   9.362  68.978  1.00  0.00     0.000 HD 
HETATM   60  N   UNL     1      -5.181   9.662  69.200  1.00  0.00    -0.036 NA 
HETATM   61  H2  UNL     1      -5.161  10.505  69.774  1.00  0.00     0.000 HD 
ENDBRANCH  47  58
ENDBRANCH  44  45
ENDBRANCH  40  44
ENDBRANCH  29  30
ENDBRANCH  22  29
ENDBRANCH  18  19
ENDBRANCH   7  18
ENDBRANCH   2   5
TORSDOF 9
ENDMDL
MODEL      229
REMARK 921   NORMALIZED FREE ENERGY PREDICTED BY IDOCK:   -2.70 KCAL/MOL
REMARK 922        TOTAL FREE ENERGY PREDICTED BY IDOCK:   -6.93 KCAL/MOL
REMARK 923 INTER-LIGAND FREE ENERGY PREDICTED BY IDOCK:   -6.91 KCAL/MOL
REMARK 924 INTRA-LIGAND FREE ENERGY PREDICTED BY IDOCK:   -0.01 KCAL/MOL
REMARK 927      BINDING AFFINITY PREDICTED BY RF-SCORE:    0.00 PKD
ROOT
HETATM    1  N   UNL     1      -9.719  17.768  67.236  1.00  0.00    -0.277 NA 
HETATM    2  C   UNL     1      -9.494  16.341  67.487  1.00  0.00    -0.227 C  
HETATM    3  H1  UNL     1     -10.693  18.068  67.260  1.00  0.00     0.000 HD 
HETATM    4  H2  UNL     1      -9.292  18.038  66.351  1.00  0.00     0.000 HD 
ENDROOT
BRANCH   2   5
HETATM    5  C   UNL     1      -8.012  15.883  67.449  1.00  0.00    -0.161 C  
HETATM    6  O   UNL     1      -7.737  14.727  68.282  1.00  0.00    -0.109 OA 
HETATM    7  C   UNL     1      -6.380  14.287  68.099  1.00  0.00    -0.132 C  
HETATM    8  C   UNL     1      -5.378  15.396  68.559  1.00  0.00    -0.097 C  
HETATM    9  O   UNL     1      -7.519  17.470  69.233  1.00  0.00    -0.152 OA 
HETATM   10  H   UNL     1      -6.984  18.204  69.513  1.00  0.00     0.000 HD 
HETATM   11  N   UNL     1      -5.449  15.580  70.047  1.00  0.00    -0.124 NA 
HETATM   12  C   UNL     1      -5.653  16.710  67.829  1.00  0.00    -0.133 C  
HETATM   13  H2  UNL     1      -5.300  14.703  70.546  1.00  0.00     0.000 HD 
HETATM   14  O   UNL     1      -5.208  16.672  66.467  1.00  0.00    -0.356 OA 
HETATM   15  C   UNL     1      -7.140  17.080  67.904  1.00  0.00    -0.156 C  
HETATM   16  H1  UNL     1      -4.796  16.303  70.347  1.00  0.00     0.000 HD 
HETATM   17  H   UNL     1      -5.379  17.489  66.013  1.00  0.00     0.000 HD 
BRANCH   7  18
HETATM   18  O   UNL     1      -6.011  13.197  68.925  1.00  0.00    -0.072 OA 
BRANCH  18  19
HETATM   19  C   UNL     1      -6.325  11.865  68.540  1.00  0.00    -0.054 C  
HETATM   20  O   UNL     1      -8.524  12.310  69.601  1.00  0.00     0.595 OA 
HETATM   21  C   UNL     1      -6.298  11.968  67.010  1.00  0.00    -0.124 C  
HETATM   22  C   UNL     1      -8.391  11.128  67.463  1.00  0.00    -0.122 C  
HETATM   23  H   UNL     1      -9.400  11.998  69.792  1.00  0.00     0.000 HD 
HETATM   24  O   UNL     1      -7.665  11.971  66.567  1.00  0.00    -0.006 OA 
HETATM   25  C   UNL     1      -7.749  11.358  68.850  1.00  0.00    -0.108 C  
BRANCH  21  26
HETATM   26  C   UNL     1      -5.476  10.871  66.328  1.00  0.00    -0.120 C  
HETATM   27  H   UNL     1      -5.537   9.779  64.669  1.00  0.00     0.000 HD 
HETATM   28  O   UNL     1      -6.046  10.460  65.092  1.00  0.00    -0.121 OA 
ENDBRANCH  21  26
BRANCH  22  29
HETATM   29  O   UNL     1      -8.302   9.760  67.046  1.00  0.00    -0.117 OA 
BRANCH  29  30
HETATM   30  C   UNL     1      -8.434   8.728  68.082  1.00  0.00    -0.130 C  
HETATM   31  C   UNL     1      -7.283   7.694  67.975  1.00  0.00    -0.097 C  
HETATM   32  O   UNL     1      -6.181   8.137  68.798  1.00  0.00    -0.042 OA 
HETATM   33  C   UNL     1      -7.564   6.231  68.353  1.00  0.00    -0.096 C  
HETATM   34  C   UNL     1      -9.014   5.817  68.173  1.00  0.00    -0.114 C  
HETATM   35  N   UNL     1      -6.715   5.329  67.533  1.00  0.00    -0.054 NA 
HETATM   36  H   UNL     1      -5.476   7.504  68.732  1.00  0.00     0.000 HD 
HETATM   37  H1  UNL     1      -6.902   4.358  67.784  1.00  0.00     0.000 HD 
HETATM   38  H2  UNL     1      -5.725   5.561  67.609  1.00  0.00     0.000 HD 
HETATM   39  C   UNL     1      -9.934   6.797  68.898  1.00  0.00    -0.155 C  
HETATM   40  C   UNL     1      -9.883   8.180  68.200  1.00  0.00    -0.168 C  
HETATM   41  N   UNL     1     -11.305   6.241  68.901  1.00  0.00    -0.525 NA 
HETATM   42  H2  UNL     1     -11.345   5.301  69.295  1.00  0.00     0.000 HD 
HETATM   43  H1  UNL     1     -11.919   6.896  69.385  1.00  0.00     0.000 HD 
BRANCH  40  44
HETATM   44  O   UNL     1     -10.737   9.070  68.961  1.00  0.00    -0.215 OA 
BRANCH  44  45
HETATM   45  C   UNL     1     -10.140   9.652  70.123  1.00  0.00    -0.262 C  
HETATM   46  O   UNL     1     -10.656  10.959  70.384  1.00  0.00     0.155 OA 
HETATM   47  C   UNL     1     -12.051  10.968  70.716  1.00  0.00    -0.366 C  
HETATM   48  C   UNL     1     -12.347  10.100  71.949  1.00  0.00    -0.211 C  
HETATM   49  H1  UNL     1      -9.946   6.723  71.919  1.00  0.00     0.000 HD 
HETATM   50  O   UNL     1     -13.746  10.057  72.262  1.00  0.00    -0.531 OA 
HETATM   51  H2  UNL     1      -8.833   7.372  70.843  1.00  0.00     0.000 HD 
HETATM   52  C   UNL     1     -11.835   8.671  71.714  1.00  0.00    -0.337 C  
HETATM   53  H   UNL     1     -13.928   9.520  73.025  1.00  0.00     0.000 HD 
HETATM   54  O   UNL     1     -12.021   7.889  72.906  1.00  0.00    -0.614 OA 
HETATM   55  C   UNL     1     -10.341   8.709  71.342  1.00  0.00    -0.261 C  
HETATM   56  N   UNL     1      -9.814   7.341  71.119  1.00  0.00    -0.182 NA 
HETATM   57  H   UNL     1     -11.704   7.005  72.761  1.00  0.00     0.000 HD 
BRANCH  47  58
HETATM   58  C   UNL     1     -12.502  12.437  70.881  1.00  0.00    -0.274 C  
HETATM   59  H1  UNL     1     -12.506  14.271  69.840  1.00  0.00     0.000 HD 
HETATM   60  N   UNL     1     -12.209  13.300  69.731  1.00  0.00    -0.264 NA 
HETATM   61  H2  UNL     1     -12.604  12.902  68.879  1.00  0.00     0.000 HD 
ENDBRANCH  47  58
ENDBRANCH  44  45
ENDBRANCH  40  44
ENDBRANCH  29  30
ENDBRANCH  22  29
ENDBRANCH  18  19
ENDBRANCH   7  18
ENDBRANCH   2   5
TORSDOF 9
ENDMDL
MODEL      230
REMARK 921   NORMALIZED FREE ENERGY PREDICTED BY IDOCK:   -2.69 KCAL/MOL
REMARK 922        TOTAL FREE ENERGY PREDICTED BY IDOCK:   -6.92 KCAL/MOL
REMARK 923 INTER-LIGAND FREE ENERGY PREDICTED BY IDOCK:   -4.81 KCAL/MOL
REMARK 924 INTRA-LIGAND FREE ENERGY PREDICTED BY IDOCK:   -2.11 KCAL/MOL
REMARK 927      BINDING AFFINITY PREDICTED BY RF-SCORE:    0.00 PKD
ROOT
HETATM    1  N   UNL     1     -11.701  14.282  66.830  1.00  0.00    -0.391 NA 
HETATM    2  C   UNL     1     -11.328  12.917  67.212  1.00  0.00    -0.310 C  
HETATM    3  H1  UNL     1     -11.876  14.921  67.605  1.00  0.00     0.000 HD 
HETATM    4  H2  UNL     1     -12.507  14.262  66.206  1.00  0.00     0.000 HD 
ENDROOT
BRANCH   2   5
HETATM    5  C   UNL     1     -11.062  11.944  66.033  1.00  0.00    -0.322 C  
HETATM    6  O   UNL     1     -10.424  10.703  66.432  1.00  0.00    -0.242 OA 
HETATM    7  C   UNL     1     -10.326   9.806  65.312  1.00  0.00     0.297 C  
HETATM    8  C   UNL     1      -9.416  10.418  64.198  1.00  0.00    -0.300 C  
HETATM    9  O   UNL     1      -8.942  13.077  65.629  1.00  0.00    -0.210 OA 
HETATM   10  H   UNL     1      -8.397  13.532  64.997  1.00  0.00     0.000 HD 
HETATM   11  N   UNL     1      -7.992  10.490  64.667  1.00  0.00    -0.324 NA 
HETATM   12  C   UNL     1      -9.926  11.796  63.779  1.00  0.00    -0.355 C  
HETATM   13  H2  UNL     1      -7.649   9.582  64.982  1.00  0.00     0.000 HD 
HETATM   14  O   UNL     1     -11.106  11.708  62.968  1.00  0.00    -0.687 OA 
HETATM   15  C   UNL     1     -10.174  12.686  65.003  1.00  0.00    -0.273 C  
HETATM   16  H1  UNL     1      -7.398  10.889  63.941  1.00  0.00     0.000 HD 
HETATM   17  H   UNL     1     -11.423  12.565  62.707  1.00  0.00     0.000 HD 
BRANCH   7  18
HETATM   18  O   UNL     1      -9.657   8.592  65.604  1.00  0.00    -0.097 OA 
BRANCH  18  19
HETATM   19  C   UNL     1      -8.734   8.522  66.682  1.00  0.00    -0.125 C  
HETATM   20  O   UNL     1     -10.737   8.089  68.082  1.00  0.00    -0.396 OA 
HETATM   21  C   UNL     1      -7.910   7.284  66.308  1.00  0.00    -0.106 C  
HETATM   22  C   UNL     1      -8.681   6.807  68.423  1.00  0.00    -0.123 C  
HETATM   23  H   UNL     1     -11.086   7.877  68.940  1.00  0.00     0.000 HD 
HETATM   24  O   UNL     1      -8.347   6.216  67.166  1.00  0.00    -0.106 OA 
HETATM   25  C   UNL     1      -9.300   8.180  68.077  1.00  0.00    -0.135 C  
BRANCH  21  26
HETATM   26  C   UNL     1      -6.396   7.498  66.385  1.00  0.00    -0.045 C  
HETATM   27  H   UNL     1      -4.734   6.408  66.355  1.00  0.00     0.000 HD 
HETATM   28  O   UNL     1      -5.673   6.276  66.308  1.00  0.00    -0.016 OA 
ENDBRANCH  21  26
BRANCH  22  29
HETATM   29  O   UNL     1      -7.512   6.933  69.243  1.00  0.00    -0.090 OA 
BRANCH  29  30
HETATM   30  C   UNL     1      -7.622   6.509  70.644  1.00  0.00    -0.102 C  
HETATM   31  C   UNL     1      -7.926   4.991  70.736  1.00  0.00    -0.087 C  
HETATM   32  O   UNL     1      -6.677   4.268  70.793  1.00  0.00    -0.033 OA 
HETATM   33  C   UNL     1      -8.795   4.479  71.897  1.00  0.00    -0.118 C  
HETATM   34  C   UNL     1      -9.765   5.511  72.441  1.00  0.00    -0.177 C  
HETATM   35  N   UNL     1      -9.572   3.292  71.455  1.00  0.00    -0.155 NA 
HETATM   36  H   UNL     1      -6.864   3.338  70.849  1.00  0.00     0.000 HD 
HETATM   37  H1  UNL     1     -10.148   2.953  72.226  1.00  0.00     0.000 HD 
HETATM   38  H2  UNL     1      -8.972   2.561  71.073  1.00  0.00     0.000 HD 
HETATM   39  C   UNL     1      -9.022   6.800  72.789  1.00  0.00    -0.127 C  
HETATM   40  C   UNL     1      -8.498   7.471  71.494  1.00  0.00    -0.115 C  
HETATM   41  N   UNL     1      -9.945   7.690  73.527  1.00  0.00    -0.319 NA 
HETATM   42  H2  UNL     1     -10.352   7.239  74.346  1.00  0.00     0.000 HD 
HETATM   43  H1  UNL     1      -9.448   8.550  73.759  1.00  0.00     0.000 HD 
BRANCH  40  44
HETATM   44  O   UNL     1      -7.767   8.655  71.896  1.00  0.00    -0.190 OA 
BRANCH  44  45
HETATM   45  C   UNL     1      -6.436   8.760  71.384  1.00  0.00    -0.071 C  
HETATM   46  O   UNL     1      -6.416   9.347  70.081  1.00  0.00    -0.047 OA 
HETATM   47  C   UNL     1      -6.864  10.709  70.059  1.00  0.00    -0.148 C  
HETATM   48  C   UNL     1      -6.016  11.600  70.979  1.00  0.00     0.344 C  
HETATM   49  H1  UNL     1      -4.960   9.514  74.400  1.00  0.00     0.000 HD 
HETATM   50  O   UNL     1      -6.484  12.955  71.008  1.00  0.00    -0.274 OA 
HETATM   51  H2  UNL     1      -5.258   8.007  73.723  1.00  0.00     0.000 HD 
HETATM   52  C   UNL     1      -6.022  11.030  72.406  1.00  0.00     1.796 C  
HETATM   53  H   UNL     1      -5.959  13.506  71.578  1.00  0.00     0.000 HD 
HETATM   54  O   UNL     1      -5.146  11.807  73.241  1.00  0.00    -0.329 OA 
HETATM   55  C   UNL     1      -5.554   9.563  72.381  1.00  0.00     0.043 C  
HETATM   56  N   UNL     1      -5.539   8.987  73.747  1.00  0.00    -0.127 NA 
HETATM   57  H   UNL     1      -5.150  11.454  74.123  1.00  0.00     0.000 HD 
BRANCH  47  58
HETATM   58  C   UNL     1      -6.883  11.191  68.591  1.00  0.00    -0.070 C  
HETATM   59  H1  UNL     1      -8.118  12.218  67.224  1.00  0.00     0.000 HD 
HETATM   60  N   UNL     1      -8.105  11.900  68.194  1.00  0.00    -0.147 NA 
HETATM   61  H2  UNL     1      -8.281  12.682  68.826  1.00  0.00     0.000 HD 
ENDBRANCH  47  58
ENDBRANCH  44  45
ENDBRANCH  40  44
ENDBRANCH  29  30
ENDBRANCH  22  29
ENDBRANCH  18  19
ENDBRANCH   7  18
ENDBRANCH   2   5
TORSDOF 9
ENDMDL
MODEL      231
REMARK 921   NORMALIZED FREE ENERGY PREDICTED BY IDOCK:   -2.66 KCAL/MOL
REMARK 922        TOTAL FREE ENERGY PREDICTED BY IDOCK:   -6.87 KCAL/MOL
REMARK 923 INTER-LIGAND FREE ENERGY PREDICTED BY IDOCK:   -7.44 KCAL/MOL
REMARK 924 INTRA-LIGAND FREE ENERGY PREDICTED BY IDOCK:    0.57 KCAL/MOL
REMARK 927      BINDING AFFINITY PREDICTED BY RF-SCORE:    0.00 PKD
ROOT
HETATM    1  N   UNL     1      -5.129   4.578  67.068  1.00  0.00    -0.007 NA 
HETATM    2  C   UNL     1      -6.481   4.528  66.503  1.00  0.00    -0.041 C  
HETATM    3  H1  UNL     1      -4.535   3.778  66.852  1.00  0.00     0.000 HD 
HETATM    4  H2  UNL     1      -5.178   4.714  68.077  1.00  0.00     0.000 HD 
ENDROOT
BRANCH   2   5
HETATM    5  C   UNL     1      -7.386   5.744  66.832  1.00  0.00    -0.079 C  
HETATM    6  O   UNL     1      -6.668   7.004  66.906  1.00  0.00    -0.052 OA 
HETATM    7  C   UNL     1      -7.587   8.096  67.087  1.00  0.00    -0.096 C  
HETATM    8  C   UNL     1      -8.345   7.953  68.448  1.00  0.00    -0.124 C  
HETATM    9  O   UNL     1      -7.094   5.269  69.205  1.00  0.00    -0.054 OA 
HETATM   10  H   UNL     1      -7.523   5.093  70.035  1.00  0.00     0.000 HD 
HETATM   11  N   UNL     1      -7.399   8.146  69.596  1.00  0.00    -0.072 NA 
HETATM   12  C   UNL     1      -9.047   6.599  68.536  1.00  0.00    -0.128 C  
HETATM   13  H2  UNL     1      -6.898   9.032  69.532  1.00  0.00     0.000 HD 
HETATM   14  O   UNL     1     -10.220   6.547  67.712  1.00  0.00    -0.140 OA 
HETATM   15  C   UNL     1      -8.086   5.456  68.184  1.00  0.00    -0.095 C  
HETATM   16  H1  UNL     1      -7.892   8.052  70.483  1.00  0.00     0.000 HD 
HETATM   17  H   UNL     1     -10.657   5.705  67.767  1.00  0.00     0.000 HD 
BRANCH   7  18
HETATM   18  O   UNL     1      -6.960   9.358  67.232  1.00  0.00    -0.083 OA 
BRANCH  18  19
HETATM   19  C   UNL     1      -7.474  10.315  68.148  1.00  0.00    -0.086 C  
HETATM   20  O   UNL     1      -5.260  11.409  67.908  1.00  0.00    -0.043 OA 
HETATM   21  C   UNL     1      -8.613  10.944  67.337  1.00  0.00    -0.127 C  
HETATM   22  C   UNL     1      -7.310  12.744  67.935  1.00  0.00    -0.120 C  
HETATM   23  H   UNL     1      -4.701  12.147  68.125  1.00  0.00     0.000 HD 
HETATM   24  O   UNL     1      -8.151  12.233  66.900  1.00  0.00    -0.163 OA 
HETATM   25  C   UNL     1      -6.567  11.513  68.501  1.00  0.00    -0.063 C  
BRANCH  21  26
HETATM   26  C   UNL     1      -9.939  11.037  68.096  1.00  0.00    -0.177 C  
HETATM   27  H   UNL     1     -10.620  10.768  69.943  1.00  0.00     0.000 HD 
HETATM   28  O   UNL     1      -9.798  10.711  69.472  1.00  0.00    -0.187 OA 
ENDBRANCH  21  26
BRANCH  22  29
HETATM   29  O   UNL     1      -8.094  13.408  68.935  1.00  0.00    -0.013 OA 
BRANCH  29  30
HETATM   30  C   UNL     1      -9.124  14.346  68.472  1.00  0.00    -0.193 C  
HETATM   31  C   UNL     1      -8.747  14.936  67.088  1.00  0.00    -0.219 C  
HETATM   32  O   UNL     1      -9.296  14.088  66.055  1.00  0.00    -0.489 OA 
HETATM   33  C   UNL     1      -9.169  16.377  66.757  1.00  0.00    -0.237 C  
HETATM   34  C   UNL     1      -9.325  17.267  67.977  1.00  0.00    -0.264 C  
HETATM   35  N   UNL     1      -8.168  16.996  65.850  1.00  0.00    -0.492 NA 
HETATM   36  H   UNL     1      -9.065  14.450  65.207  1.00  0.00     0.000 HD 
HETATM   37  H1  UNL     1      -8.448  17.952  65.631  1.00  0.00     0.000 HD 
HETATM   38  H2  UNL     1      -8.015  16.439  65.010  1.00  0.00     0.000 HD 
HETATM   39  C   UNL     1     -10.250  16.605  68.996  1.00  0.00    -0.301 C  
HETATM   40  C   UNL     1      -9.570  15.340  69.580  1.00  0.00    -0.215 C  
HETATM   41  N   UNL     1     -10.565  17.589  70.054  1.00  0.00     0.019 NA 
HETATM   42  H2  UNL     1     -10.951  18.456  69.680  1.00  0.00     0.000 HD 
HETATM   43  H1  UNL     1     -11.183  17.147  70.735  1.00  0.00     0.000 HD 
BRANCH  40  44
HETATM   44  O   UNL     1     -10.514  14.738  70.499  1.00  0.00     0.081 OA 
BRANCH  44  45
HETATM   45  C   UNL     1     -11.889  14.828  70.116  1.00  0.00    -0.307 C  
HETATM   46  O   UNL     1     -12.347  13.618  69.508  1.00  0.00    -0.294 OA 
HETATM   47  C   UNL     1     -12.347  12.493  70.399  1.00  0.00    -0.232 C  
HETATM   48  C   UNL     1     -13.222  12.749  71.635  1.00  0.00    -0.317 C  
HETATM   49  H1  UNL     1     -12.885  16.705  72.823  1.00  0.00     0.000 HD 
HETATM   50  O   UNL     1     -13.190  11.654  72.561  1.00  0.00    -0.473 OA 
HETATM   51  H2  UNL     1     -12.287  17.227  71.344  1.00  0.00     0.000 HD 
HETATM   52  C   UNL     1     -12.756  14.029  72.347  1.00  0.00    -0.244 C  
HETATM   53  H   UNL     1     -13.731  11.812  73.326  1.00  0.00     0.000 HD 
HETATM   54  O   UNL     1     -13.639  14.320  73.444  1.00  0.00    -0.320 OA 
HETATM   55  C   UNL     1     -12.753  15.204  71.352  1.00  0.00    -0.372 C  
HETATM   56  N   UNL     1     -12.317  16.458  72.012  1.00  0.00    -0.265 NA 
HETATM   57  H   UNL     1     -13.351  15.112  73.883  1.00  0.00     0.000 HD 
BRANCH  47  58
HETATM   58  C   UNL     1     -12.771  11.240  69.599  1.00  0.00     0.174 C  
HETATM   59  H1  UNL     1     -12.863   9.142  69.780  1.00  0.00     0.000 HD 
HETATM   60  N   UNL     1     -12.584   9.969  70.308  1.00  0.00    -0.527 NA 
HETATM   61  H2  UNL     1     -13.062   9.993  71.209  1.00  0.00     0.000 HD 
ENDBRANCH  47  58
ENDBRANCH  44  45
ENDBRANCH  40  44
ENDBRANCH  29  30
ENDBRANCH  22  29
ENDBRANCH  18  19
ENDBRANCH   7  18
ENDBRANCH   2   5
TORSDOF 9
ENDMDL
MODEL      232
REMARK 921   NORMALIZED FREE ENERGY PREDICTED BY IDOCK:   -2.61 KCAL/MOL
REMARK 922        TOTAL FREE ENERGY PREDICTED BY IDOCK:   -6.80 KCAL/MOL
REMARK 923 INTER-LIGAND FREE ENERGY PREDICTED BY IDOCK:   -6.43 KCAL/MOL
REMARK 924 INTRA-LIGAND FREE ENERGY PREDICTED BY IDOCK:   -0.37 KCAL/MOL
REMARK 927      BINDING AFFINITY PREDICTED BY RF-SCORE:    0.00 PKD
ROOT
HETATM    1  N   UNL     1      -8.380   4.132  69.826  1.00  0.00    -0.061 NA 
HETATM    2  C   UNL     1      -8.582   3.056  68.852  1.00  0.00    -0.074 C  
HETATM    3  H1  UNL     1      -8.820   3.989  70.734  1.00  0.00     0.000 HD 
HETATM    4  H2  UNL     1      -8.680   5.022  69.429  1.00  0.00     0.000 HD 
ENDROOT
BRANCH   2   5
HETATM    5  C   UNL     1      -7.913   3.274  67.469  1.00  0.00    -0.077 C  
HETATM    6  O   UNL     1      -8.388   4.453  66.769  1.00  0.00    -0.105 OA 
HETATM    7  C   UNL     1      -7.636   4.657  65.561  1.00  0.00    -0.082 C  
HETATM    8  C   UNL     1      -7.847   3.461  64.576  1.00  0.00    -0.082 C  
HETATM    9  O   UNL     1      -9.598   1.822  66.471  1.00  0.00    -0.341 OA 
HETATM   10  H   UNL     1      -9.763   1.047  65.945  1.00  0.00     0.000 HD 
HETATM   11  N   UNL     1      -9.258   3.444  64.068  1.00  0.00    -0.119 NA 
HETATM   12  C   UNL     1      -7.490   2.137  65.251  1.00  0.00    -0.066 C  
HETATM   13  H2  UNL     1      -9.521   4.335  63.645  1.00  0.00     0.000 HD 
HETATM   14  O   UNL     1      -6.073   1.966  65.383  1.00  0.00    -0.020 OA 
HETATM   15  C   UNL     1      -8.182   2.010  66.614  1.00  0.00    -0.083 C  
HETATM   16  H1  UNL     1      -9.396   2.664  63.426  1.00  0.00     0.000 HD 
HETATM   17  H   UNL     1      -5.850   1.142  65.802  1.00  0.00     0.000 HD 
BRANCH   7  18
HETATM   18  O   UNL     1      -8.080   5.757  64.785  1.00  0.00    -0.121 OA 
BRANCH  18  19
HETATM   19  C   UNL     1      -8.170   7.053  65.362  1.00  0.00    -0.133 C  
HETATM   20  O   UNL     1      -6.342   6.277  66.851  1.00  0.00    -0.038 OA 
HETATM   21  C   UNL     1      -7.736   7.945  64.193  1.00  0.00    -0.132 C  
HETATM   22  C   UNL     1      -6.293   8.527  65.889  1.00  0.00    -0.053 C  
HETATM   23  H   UNL     1      -5.724   6.490  67.540  1.00  0.00     0.000 HD 
HETATM   24  O   UNL     1      -6.393   8.374  64.472  1.00  0.00    -0.064 OA 
HETATM   25  C   UNL     1      -7.167   7.398  66.483  1.00  0.00    -0.079 C  
BRANCH  21  26
HETATM   26  C   UNL     1      -8.673   9.128  63.932  1.00  0.00    -0.128 C  
HETATM   27  H   UNL     1      -9.539  10.029  62.387  1.00  0.00     0.000 HD 
HETATM   28  O   UNL     1      -8.958   9.296  62.550  1.00  0.00    -0.241 OA 
ENDBRANCH  21  26
BRANCH  22  29
HETATM   29  O   UNL     1      -6.748   9.827  66.286  1.00  0.00    -0.082 OA 
BRANCH  29  30
HETATM   30  C   UNL     1      -7.360   9.953  67.614  1.00  0.00    -0.090 C  
HETATM   31  C   UNL     1      -6.618   9.063  68.646  1.00  0.00    -0.054 C  
HETATM   32  O   UNL     1      -5.557   9.835  69.249  1.00  0.00    -0.035 OA 
HETATM   33  C   UNL     1      -7.423   8.433  69.794  1.00  0.00    -0.072 C  
HETATM   34  C   UNL     1      -8.888   8.205  69.466  1.00  0.00    -0.143 C  
HETATM   35  N   UNL     1      -6.820   7.129  70.172  1.00  0.00    -0.058 NA 
HETATM   36  H   UNL     1      -5.103   9.289  69.881  1.00  0.00     0.000 HD 
HETATM   37  H1  UNL     1      -7.354   6.711  70.934  1.00  0.00     0.000 HD 
HETATM   38  H2  UNL     1      -5.830   7.216  70.400  1.00  0.00     0.000 HD 
HETATM   39  C   UNL     1      -9.518   9.497  68.948  1.00  0.00    -0.155 C  
HETATM   40  C   UNL     1      -8.910   9.863  67.570  1.00  0.00    -0.128 C  
HETATM   41  N   UNL     1     -10.982   9.304  68.862  1.00  0.00    -0.431 NA 
HETATM   42  H2  UNL     1     -11.388   8.997  69.746  1.00  0.00     0.000 HD 
HETATM   43  H1  UNL     1     -11.402  10.167  68.517  1.00  0.00     0.000 HD 
BRANCH  40  44
HETATM   44  O   UNL     1      -9.513  11.115  67.160  1.00  0.00    -0.170 OA 
BRANCH  44  45
HETATM   45  C   UNL     1      -9.721  12.068  68.205  1.00  0.00    -0.205 C  
HETATM   46  O   UNL     1      -8.579  12.908  68.389  1.00  0.00    -0.174 OA 
HETATM   47  C   UNL     1      -8.296  13.745  67.258  1.00  0.00    -0.174 C  
HETATM   48  C   UNL     1      -9.486  14.653  66.913  1.00  0.00    -0.246 C  
HETATM   49  H1  UNL     1     -13.047  12.623  67.517  1.00  0.00     0.000 HD 
HETATM   50  O   UNL     1      -9.237  15.458  65.752  1.00  0.00    -0.377 OA 
HETATM   51  H2  UNL     1     -12.359  11.461  68.515  1.00  0.00     0.000 HD 
HETATM   52  C   UNL     1     -10.741  13.799  66.679  1.00  0.00    -0.277 C  
HETATM   53  H   UNL     1      -9.973  16.020  65.538  1.00  0.00     0.000 HD 
HETATM   54  O   UNL     1     -11.874  14.656  66.455  1.00  0.00    -0.373 OA 
HETATM   55  C   UNL     1     -10.997  12.904  67.905  1.00  0.00    -0.241 C  
HETATM   56  N   UNL     1     -12.210  12.074  67.714  1.00  0.00    -0.368 NA 
HETATM   57  H   UNL     1     -12.650  14.128  66.311  1.00  0.00     0.000 HD 
BRANCH  47  58
HETATM   58  C   UNL     1      -6.994  14.527  67.547  1.00  0.00    -0.164 C  
HETATM   59  H1  UNL     1      -4.929  14.212  67.833  1.00  0.00     0.000 HD 
HETATM   60  N   UNL     1      -5.789  13.695  67.642  1.00  0.00    -0.313 NA 
HETATM   61  H2  UNL     1      -5.682  13.128  66.801  1.00  0.00     0.000 HD 
ENDBRANCH  47  58
ENDBRANCH  44  45
ENDBRANCH  40  44
ENDBRANCH  29  30
ENDBRANCH  22  29
ENDBRANCH  18  19
ENDBRANCH   7  18
ENDBRANCH   2   5
TORSDOF 9
ENDMDL
MODEL      233
REMARK 921   NORMALIZED FREE ENERGY PREDICTED BY IDOCK:   -2.52 KCAL/MOL
REMARK 922        TOTAL FREE ENERGY PREDICTED BY IDOCK:   -6.65 KCAL/MOL
REMARK 923 INTER-LIGAND FREE ENERGY PREDICTED BY IDOCK:   -5.29 KCAL/MOL
REMARK 924 INTRA-LIGAND FREE ENERGY PREDICTED BY IDOCK:   -1.36 KCAL/MOL
REMARK 927      BINDING AFFINITY PREDICTED BY RF-SCORE:    0.00 PKD
ROOT
HETATM    1  N   UNL     1      -5.592  20.934  70.697  1.00  0.00    -0.551 NA 
HETATM    2  C   UNL     1      -5.522  19.702  69.906  1.00  0.00    -0.232 C  
HETATM    3  H1  UNL     1      -4.830  21.075  71.358  1.00  0.00     0.000 HD 
HETATM    4  H2  UNL     1      -6.488  20.987  71.180  1.00  0.00     0.000 HD 
ENDROOT
BRANCH   2   5
HETATM    5  C   UNL     1      -6.682  19.489  68.899  1.00  0.00    -0.312 C  
HETATM    6  O   UNL     1      -6.741  18.146  68.351  1.00  0.00    -0.206 OA 
HETATM    7  C   UNL     1      -7.911  17.989  67.528  1.00  0.00    -0.214 C  
HETATM    8  C   UNL     1      -7.847  18.952  66.298  1.00  0.00    -0.279 C  
HETATM    9  O   UNL     1      -5.236  20.311  67.118  1.00  0.00    -0.159 OA 
HETATM   10  H   UNL     1      -5.127  20.942  66.415  1.00  0.00     0.000 HD 
HETATM   11  N   UNL     1      -6.750  18.536  65.364  1.00  0.00    -0.497 NA 
HETATM   12  C   UNL     1      -7.663  20.399  66.753  1.00  0.00    -0.262 C  
HETATM   13  H2  UNL     1      -6.843  17.561  65.078  1.00  0.00     0.000 HD 
HETATM   14  O   UNL     1      -8.868  20.948  67.303  1.00  0.00    -0.522 OA 
HETATM   15  C   UNL     1      -6.506  20.518  67.754  1.00  0.00    -0.288 C  
HETATM   16  H1  UNL     1      -6.708  19.164  64.562  1.00  0.00     0.000 HD 
HETATM   17  H   UNL     1      -8.753  21.848  67.587  1.00  0.00     0.000 HD 
BRANCH   7  18
HETATM   18  O   UNL     1      -8.010  16.722  66.904  1.00  0.00    -0.173 OA 
BRANCH  18  19
HETATM   19  C   UNL     1      -8.649  15.641  67.570  1.00  0.00    -0.172 C  
HETATM   20  O   UNL     1      -7.029  14.215  66.343  1.00  0.00     0.877 OA 
HETATM   21  C   UNL     1      -8.299  15.926  69.035  1.00  0.00    -0.239 C  
HETATM   22  C   UNL     1      -7.531  13.783  68.698  1.00  0.00    -0.116 C  
HETATM   23  H   UNL     1      -6.680  13.345  66.192  1.00  0.00     0.000 HD 
HETATM   24  O   UNL     1      -7.268  14.995  69.407  1.00  0.00    -0.166 OA 
HETATM   25  C   UNL     1      -8.082  14.226  67.324  1.00  0.00    -0.178 C  
BRANCH  21  26
HETATM   26  C   UNL     1      -9.498  15.863  69.985  1.00  0.00     0.294 C  
HETATM   27  H   UNL     1     -11.438  16.295  69.964  1.00  0.00     0.000 HD 
HETATM   28  O   UNL     1     -10.693  16.334  69.376  1.00  0.00    -0.273 OA 
ENDBRANCH  21  26
BRANCH  22  29
HETATM   29  O   UNL     1      -8.467  12.973  69.421  1.00  0.00     0.718 OA 
BRANCH  29  30
HETATM   30  C   UNL     1      -9.597  12.413  68.669  1.00  0.00    -0.028 C  
HETATM   31  C   UNL     1     -10.936  12.700  69.396  1.00  0.00     0.019 C  
HETATM   32  O   UNL     1     -11.464  13.957  68.920  1.00  0.00    -0.260 OA 
HETATM   33  C   UNL     1     -12.071  11.668  69.292  1.00  0.00    -0.259 C  
HETATM   34  C   UNL     1     -11.591  10.247  69.058  1.00  0.00    -0.148 C  
HETATM   35  N   UNL     1     -12.882  11.689  70.536  1.00  0.00    -0.046 NA 
HETATM   36  H   UNL     1     -12.284  14.133  69.366  1.00  0.00     0.000 HD 
HETATM   37  H1  UNL     1     -13.635  11.005  70.467  1.00  0.00     0.000 HD 
HETATM   38  H2  UNL     1     -13.231  12.623  70.752  1.00  0.00     0.000 HD 
HETATM   39  C   UNL     1     -10.647  10.203  67.858  1.00  0.00    -0.249 C  
HETATM   40  C   UNL     1      -9.335  10.957  68.193  1.00  0.00    -0.165 C  
HETATM   41  N   UNL     1     -10.387   8.787  67.516  1.00  0.00    -0.252 NA 
HETATM   42  H2  UNL     1     -11.246   8.259  67.358  1.00  0.00     0.000 HD 
HETATM   43  H1  UNL     1      -9.757   8.758  66.715  1.00  0.00     0.000 HD 
BRANCH  40  44
HETATM   44  O   UNL     1      -8.508  10.917  67.004  1.00  0.00    -0.129 OA 
BRANCH  44  45
HETATM   45  C   UNL     1      -7.496   9.906  66.992  1.00  0.00    -0.091 C  
HETATM   46  O   UNL     1      -7.927   8.735  66.294  1.00  0.00    -0.103 OA 
HETATM   47  C   UNL     1      -8.161   8.956  64.896  1.00  0.00    -0.160 C  
HETATM   48  C   UNL     1      -6.904   9.480  64.186  1.00  0.00    -0.102 C  
HETATM   49  H1  UNL     1      -4.841  12.072  66.675  1.00  0.00     0.000 HD 
HETATM   50  O   UNL     1      -7.137   9.755  62.798  1.00  0.00    -0.109 OA 
HETATM   51  H2  UNL     1      -5.584  11.517  68.074  1.00  0.00     0.000 HD 
HETATM   52  C   UNL     1      -6.408  10.757  64.880  1.00  0.00     0.155 C  
HETATM   53  H   UNL     1      -6.358  10.079  62.359  1.00  0.00     0.000 HD 
HETATM   54  O   UNL     1      -5.175  11.187  64.278  1.00  0.00    -0.486 OA 
HETATM   55  C   UNL     1      -6.188  10.481  66.379  1.00  0.00    -0.095 C  
HETATM   56  N   UNL     1      -5.699  11.694  67.076  1.00  0.00    -0.116 NA 
HETATM   57  H   UNL     1      -4.868  11.977  64.708  1.00  0.00     0.000 HD 
BRANCH  47  58
HETATM   58  C   UNL     1      -8.709   7.647  64.282  1.00  0.00     0.519 C  
HETATM   59  H1  UNL     1      -8.286   6.257  62.755  1.00  0.00     0.000 HD 
HETATM   60  N   UNL     1      -7.924   7.121  63.160  1.00  0.00    -0.235 NA 
HETATM   61  H2  UNL     1      -6.949   7.002  63.435  1.00  0.00     0.000 HD 
ENDBRANCH  47  58
ENDBRANCH  44  45
ENDBRANCH  40  44
ENDBRANCH  29  30
ENDBRANCH  22  29
ENDBRANCH  18  19
ENDBRANCH   7  18
ENDBRANCH   2   5
TORSDOF 9
ENDMDL
MODEL      234
REMARK 921   NORMALIZED FREE ENERGY PREDICTED BY IDOCK:   -2.48 KCAL/MOL
REMARK 922        TOTAL FREE ENERGY PREDICTED BY IDOCK:   -6.60 KCAL/MOL
REMARK 923 INTER-LIGAND FREE ENERGY PREDICTED BY IDOCK:   -6.82 KCAL/MOL
REMARK 924 INTRA-LIGAND FREE ENERGY PREDICTED BY IDOCK:    0.22 KCAL/MOL
REMARK 927      BINDING AFFINITY PREDICTED BY RF-SCORE:    0.00 PKD
ROOT
HETATM    1  N   UNL     1      -6.152  10.462  67.171  1.00  0.00    -0.054 NA 
HETATM    2  C   UNL     1      -6.747   9.142  67.397  1.00  0.00    -0.069 C  
HETATM    3  H1  UNL     1      -5.232  10.605  67.585  1.00  0.00     0.000 HD 
HETATM    4  H2  UNL     1      -6.792  11.192  67.483  1.00  0.00     0.000 HD 
ENDROOT
BRANCH   2   5
HETATM    5  C   UNL     1      -8.148   8.925  66.767  1.00  0.00    -0.111 C  
HETATM    6  O   UNL     1      -8.701  10.115  66.147  1.00  0.00    -0.138 OA 
HETATM    7  C   UNL     1      -9.936   9.806  65.478  1.00  0.00    -0.259 C  
HETATM    8  C   UNL     1     -11.009   9.321  66.507  1.00  0.00     0.495 C  
HETATM    9  O   UNL     1      -9.154   9.408  68.934  1.00  0.00    -0.136 OA 
HETATM   10  H   UNL     1      -9.735   9.103  69.622  1.00  0.00     0.000 HD 
HETATM   11  N   UNL     1     -11.415  10.449  67.410  1.00  0.00    -0.464 NA 
HETATM   12  C   UNL     1     -10.486   8.132  67.313  1.00  0.00    -0.309 C  
HETATM   13  H2  UNL     1     -11.735  11.261  66.882  1.00  0.00     0.000 HD 
HETATM   14  O   UNL     1     -10.471   6.924  66.542  1.00  0.00    -0.474 OA 
HETATM   15  C   UNL     1      -9.095   8.427  67.888  1.00  0.00    -0.133 C  
HETATM   16  H1  UNL     1     -12.114  10.132  68.081  1.00  0.00     0.000 HD 
HETATM   17  H   UNL     1     -10.146   6.185  67.043  1.00  0.00     0.000 HD 
BRANCH   7  18
HETATM   18  O   UNL     1     -10.573  10.930  64.897  1.00  0.00    -0.302 OA 
BRANCH  18  19
HETATM   19  C   UNL     1     -10.831  12.091  65.676  1.00  0.00    -0.282 C  
HETATM   20  O   UNL     1      -8.378  12.450  65.553  1.00  0.00     0.354 OA 
HETATM   21  C   UNL     1     -11.670  12.935  64.709  1.00  0.00    -0.346 C  
HETATM   22  C   UNL     1      -9.925  14.325  65.271  1.00  0.00    -0.279 C  
HETATM   23  H   UNL     1      -7.638  13.009  65.757  1.00  0.00     0.000 HD 
HETATM   24  O   UNL     1     -10.812  13.974  64.208  1.00  0.00    -0.313 OA 
HETATM   25  C   UNL     1      -9.628  12.999  66.009  1.00  0.00    -0.165 C  
BRANCH  21  26
HETATM   26  C   UNL     1     -12.952  13.499  65.328  1.00  0.00    -0.228 C  
HETATM   27  H   UNL     1     -14.066  15.140  65.210  1.00  0.00     0.000 HD 
HETATM   28  O   UNL     1     -13.271  14.790  64.826  1.00  0.00    -0.204 OA 
ENDBRANCH  21  26
BRANCH  22  29
HETATM   29  O   UNL     1     -10.533  15.297  66.131  1.00  0.00    -0.285 OA 
BRANCH  29  30
HETATM   30  C   UNL     1      -9.645  16.253  66.804  1.00  0.00    -0.239 C  
HETATM   31  C   UNL     1     -10.236  17.685  66.746  1.00  0.00    -0.335 C  
HETATM   32  O   UNL     1     -11.064  17.895  67.911  1.00  0.00    -0.194 OA 
HETATM   33  C   UNL     1      -9.273  18.881  66.658  1.00  0.00    -0.330 C  
HETATM   34  C   UNL     1      -7.941  18.552  66.009  1.00  0.00    -0.152 C  
HETATM   35  N   UNL     1      -9.910  19.981  65.889  1.00  0.00    -0.521 NA 
HETATM   36  H   UNL     1     -11.426  18.773  67.875  1.00  0.00     0.000 HD 
HETATM   37  H1  UNL     1      -9.271  20.774  65.832  1.00  0.00     0.000 HD 
HETATM   38  H2  UNL     1     -10.815  20.246  66.276  1.00  0.00     0.000 HD 
HETATM   39  C   UNL     1      -7.310  17.339  66.691  1.00  0.00    -0.247 C  
HETATM   40  C   UNL     1      -8.155  16.073  66.399  1.00  0.00    -0.220 C  
HETATM   41  N   UNL     1      -5.923  17.191  66.197  1.00  0.00    -0.253 NA 
HETATM   42  H2  UNL     1      -5.372  18.040  66.319  1.00  0.00     0.000 HD 
HETATM   43  H1  UNL     1      -5.502  16.382  66.652  1.00  0.00     0.000 HD 
BRANCH  40  44
HETATM   44  O   UNL     1      -7.531  14.974  67.109  1.00  0.00    -0.200 OA 
BRANCH  44  45
HETATM   45  C   UNL     1      -7.465  15.118  68.530  1.00  0.00    -0.121 C  
HETATM   46  O   UNL     1      -8.747  15.411  69.091  1.00  0.00    -0.208 OA 
HETATM   47  C   UNL     1      -9.698  14.348  68.932  1.00  0.00    -0.144 C  
HETATM   48  C   UNL     1      -9.202  13.042  69.570  1.00  0.00     1.566 C  
HETATM   49  H1  UNL     1      -5.112  12.656  69.023  1.00  0.00     0.000 HD 
HETATM   50  O   UNL     1     -10.118  11.957  69.373  1.00  0.00    -0.388 OA 
HETATM   51  H2  UNL     1      -4.876  14.287  68.700  1.00  0.00     0.000 HD 
HETATM   52  C   UNL     1      -7.833  12.664  68.984  1.00  0.00     0.251 C  
HETATM   53  H   UNL     1      -9.811  11.149  69.768  1.00  0.00     0.000 HD 
HETATM   54  O   UNL     1      -7.325  11.498  69.655  1.00  0.00    -0.354 OA 
HETATM   55  C   UNL     1      -6.851  13.837  69.158  1.00  0.00    -0.102 C  
HETATM   56  N   UNL     1      -5.516  13.497  68.611  1.00  0.00    -0.079 NA 
HETATM   57  H   UNL     1      -6.479  11.264  69.293  1.00  0.00     0.000 HD 
BRANCH  47  58
HETATM   58  C   UNL     1     -11.057  14.824  69.492  1.00  0.00    -0.279 C  
HETATM   59  H1  UNL     1     -13.119  14.755  69.056  1.00  0.00     0.000 HD 
HETATM   60  N   UNL     1     -12.221  14.440  68.686  1.00  0.00    -0.575 NA 
HETATM   61  H2  UNL     1     -12.233  13.430  68.539  1.00  0.00     0.000 HD 
ENDBRANCH  47  58
ENDBRANCH  44  45
ENDBRANCH  40  44
ENDBRANCH  29  30
ENDBRANCH  22  29
ENDBRANCH  18  19
ENDBRANCH   7  18
ENDBRANCH   2   5
TORSDOF 9
ENDMDL
MODEL      235
REMARK 921   NORMALIZED FREE ENERGY PREDICTED BY IDOCK:   -2.45 KCAL/MOL
REMARK 922        TOTAL FREE ENERGY PREDICTED BY IDOCK:   -6.55 KCAL/MOL
REMARK 923 INTER-LIGAND FREE ENERGY PREDICTED BY IDOCK:   -7.27 KCAL/MOL
REMARK 924 INTRA-LIGAND FREE ENERGY PREDICTED BY IDOCK:    0.71 KCAL/MOL
REMARK 927      BINDING AFFINITY PREDICTED BY RF-SCORE:    0.00 PKD
ROOT
HETATM    1  N   UNL     1     -13.013  12.266  63.695  1.00  0.00    -0.792 NA 
HETATM    2  C   UNL     1     -12.795  13.227  64.779  1.00  0.00    -0.191 C  
HETATM    3  H1  UNL     1     -13.866  12.402  63.153  1.00  0.00     0.000 HD 
HETATM    4  H2  UNL     1     -12.981  11.314  64.060  1.00  0.00     0.000 HD 
ENDROOT
BRANCH   2   5
HETATM    5  C   UNL     1     -11.498  13.019  65.604  1.00  0.00    -0.333 C  
HETATM    6  O   UNL     1     -11.558  11.891  66.514  1.00  0.00    -0.463 OA 
HETATM    7  C   UNL     1     -10.283  11.686  67.147  1.00  0.00    -0.213 C  
HETATM    8  C   UNL     1      -9.902  12.924  68.023  1.00  0.00    -0.223 C  
HETATM    9  O   UNL     1     -12.347  14.591  67.262  1.00  0.00    -0.602 OA 
HETATM   10  H   UNL     1     -12.185  15.391  67.750  1.00  0.00     0.000 HD 
HETATM   11  N   UNL     1     -10.823  13.033  69.203  1.00  0.00    -0.431 NA 
HETATM   12  C   UNL     1      -9.924  14.204  67.189  1.00  0.00    -0.255 C  
HETATM   13  H2  UNL     1     -10.843  12.172  69.750  1.00  0.00     0.000 HD 
HETATM   14  O   UNL     1      -8.792  14.294  66.314  1.00  0.00    -0.474 OA 
HETATM   15  C   UNL     1     -11.232  14.323  66.398  1.00  0.00    -0.337 C  
HETATM   16  H1  UNL     1     -10.575  13.840  69.774  1.00  0.00     0.000 HD 
HETATM   17  H   UNL     1      -8.805  15.091  65.795  1.00  0.00     0.000 HD 
BRANCH   7  18
HETATM   18  O   UNL     1     -10.275  10.638  68.100  1.00  0.00    -0.159 OA 
BRANCH  18  19
HETATM   19  C   UNL     1      -9.536   9.449  67.853  1.00  0.00    -0.134 C  
HETATM   20  O   UNL     1     -10.295   8.770  70.117  1.00  0.00    -0.196 OA 
HETATM   21  C   UNL     1     -10.316   8.834  66.684  1.00  0.00    -0.228 C  
HETATM   22  C   UNL     1     -10.305   7.166  68.269  1.00  0.00    -0.195 C  
HETATM   23  H   UNL     1     -10.321   8.096  70.786  1.00  0.00     0.000 HD 
HETATM   24  O   UNL     1     -11.085   7.745  67.222  1.00  0.00    -0.118 OA 
HETATM   25  C   UNL     1      -9.578   8.354  68.940  1.00  0.00    -0.153 C  
BRANCH  21  26
HETATM   26  C   UNL     1      -9.434   8.391  65.514  1.00  0.00     0.201 C  
HETATM   27  H   UNL     1      -7.911   9.093  64.448  1.00  0.00     0.000 HD 
HETATM   28  O   UNL     1      -8.458   9.367  65.174  1.00  0.00    -0.136 OA 
ENDBRANCH  21  26
BRANCH  22  29
HETATM   29  O   UNL     1      -9.387   6.202  67.737  1.00  0.00    -0.112 OA 
BRANCH  29  30
HETATM   30  C   UNL     1      -8.441   5.582  68.672  1.00  0.00    -0.104 C  
HETATM   31  C   UNL     1      -8.409   4.043  68.479  1.00  0.00    -0.086 C  
HETATM   32  O   UNL     1      -7.395   3.717  67.503  1.00  0.00    -0.065 OA 
HETATM   33  C   UNL     1      -8.157   3.149  69.704  1.00  0.00    -0.048 C  
HETATM   34  C   UNL     1      -8.594   3.769  71.019  1.00  0.00    -0.108 C  
HETATM   35  N   UNL     1      -8.870   1.857  69.536  1.00  0.00    -0.071 NA 
HETATM   36  H   UNL     1      -7.376   2.774  67.386  1.00  0.00     0.000 HD 
HETATM   37  H1  UNL     1      -8.703   1.264  70.349  1.00  0.00     0.000 HD 
HETATM   38  H2  UNL     1      -8.622   1.391  68.664  1.00  0.00     0.000 HD 
HETATM   39  C   UNL     1      -7.981   5.161  71.173  1.00  0.00    -0.103 C  
HETATM   40  C   UNL     1      -8.590   6.123  70.121  1.00  0.00    -0.133 C  
HETATM   41  N   UNL     1      -8.232   5.635  72.551  1.00  0.00    -0.113 NA 
HETATM   42  H2  UNL     1      -7.897   4.979  73.258  1.00  0.00     0.000 HD 
HETATM   43  H1  UNL     1      -7.823   6.564  72.654  1.00  0.00     0.000 HD 
BRANCH  40  44
HETATM   44  O   UNL     1      -7.936   7.404  70.290  1.00  0.00    -0.104 OA 
BRANCH  44  45
HETATM   45  C   UNL     1      -6.516   7.397  70.124  1.00  0.00    -0.035 C  
HETATM   46  O   UNL     1      -6.124   8.026  68.902  1.00  0.00    -0.037 OA 
HETATM   47  C   UNL     1      -6.434   9.426  68.853  1.00  0.00    -0.047 C  
HETATM   48  C   UNL     1      -5.767  10.195  70.003  1.00  0.00    -0.049 C  
HETATM   49  H1  UNL     1      -5.772   7.892  73.447  1.00  0.00     0.000 HD 
HETATM   50  O   UNL     1      -6.110  11.588  69.998  1.00  0.00    -0.125 OA 
HETATM   51  H2  UNL     1      -6.022   6.447  72.630  1.00  0.00     0.000 HD 
HETATM   52  C   UNL     1      -6.174   9.576  71.349  1.00  0.00    -0.007 C  
HETATM   53  H   UNL     1      -5.696  12.063  70.709  1.00  0.00     0.000 HD 
HETATM   54  O   UNL     1      -5.469  10.233  72.416  1.00  0.00    -0.308 OA 
HETATM   55  C   UNL     1      -5.842   8.073  71.351  1.00  0.00    -0.034 C  
HETATM   56  N   UNL     1      -6.215   7.449  72.643  1.00  0.00    -0.050 NA 
HETATM   57  H   UNL     1      -5.721   9.850  73.248  1.00  0.00     0.000 HD 
BRANCH  47  58
HETATM   58  C   UNL     1      -6.048   9.960  67.455  1.00  0.00    -0.058 C  
HETATM   59  H1  UNL     1      -5.243   9.304  65.620  1.00  0.00     0.000 HD 
HETATM   60  N   UNL     1      -5.498   8.951  66.543  1.00  0.00    -0.038 NA 
HETATM   61  H2  UNL     1      -6.142   8.164  66.457  1.00  0.00     0.000 HD 
ENDBRANCH  47  58
ENDBRANCH  44  45
ENDBRANCH  40  44
ENDBRANCH  29  30
ENDBRANCH  22  29
ENDBRANCH  18  19
ENDBRANCH   7  18
ENDBRANCH   2   5
TORSDOF 9
ENDMDL
MODEL      236
REMARK 921   NORMALIZED FREE ENERGY PREDICTED BY IDOCK:   -2.45 KCAL/MOL
REMARK 922        TOTAL FREE ENERGY PREDICTED BY IDOCK:   -6.54 KCAL/MOL
REMARK 923 INTER-LIGAND FREE ENERGY PREDICTED BY IDOCK:   -5.61 KCAL/MOL
REMARK 924 INTRA-LIGAND FREE ENERGY PREDICTED BY IDOCK:   -0.93 KCAL/MOL
REMARK 927      BINDING AFFINITY PREDICTED BY RF-SCORE:    0.00 PKD
ROOT
HETATM    1  N   UNL     1     -13.369  15.204  65.663  1.00  0.00     0.655 NA 
HETATM    2  C   UNL     1     -12.046  14.673  65.324  1.00  0.00    -0.276 C  
HETATM    3  H1  UNL     1     -13.896  15.599  64.884  1.00  0.00     0.000 HD 
HETATM    4  H2  UNL     1     -13.288  15.890  66.413  1.00  0.00     0.000 HD 
ENDROOT
BRANCH   2   5
HETATM    5  C   UNL     1     -11.246  14.071  66.509  1.00  0.00    -0.322 C  
HETATM    6  O   UNL     1     -12.068  13.355  67.466  1.00  0.00    -0.347 OA 
HETATM    7  C   UNL     1     -11.245  12.722  68.462  1.00  0.00    -0.279 C  
HETATM    8  C   UNL     1     -10.462  13.795  69.287  1.00  0.00     0.067 C  
HETATM    9  O   UNL     1     -11.468  16.195  67.685  1.00  0.00    -0.143 OA 
HETATM   10  H   UNL     1     -11.016  16.910  68.119  1.00  0.00     0.000 HD 
HETATM   11  N   UNL     1     -11.408  14.600  70.128  1.00  0.00    -0.360 NA 
HETATM   12  C   UNL     1      -9.644  14.697  68.363  1.00  0.00    -0.217 C  
HETATM   13  H2  UNL     1     -11.984  14.007  70.726  1.00  0.00     0.000 HD 
HETATM   14  O   UNL     1      -8.481  14.032  67.853  1.00  0.00    -0.149 OA 
HETATM   15  C   UNL     1     -10.508  15.236  67.216  1.00  0.00    -0.275 C  
HETATM   16  H1  UNL     1     -10.898  15.300  70.666  1.00  0.00     0.000 HD 
HETATM   17  H   UNL     1      -7.973  14.593  67.279  1.00  0.00     0.000 HD 
BRANCH   7  18
HETATM   18  O   UNL     1     -11.976  12.051  69.472  1.00  0.00    -0.303 OA 
BRANCH  18  19
HETATM   19  C   UNL     1     -12.171  10.645  69.405  1.00  0.00    -0.102 C  
HETATM   20  O   UNL     1     -10.666  10.753  67.434  1.00  0.00    -0.231 OA 
HETATM   21  C   UNL     1     -11.516  10.176  70.710  1.00  0.00    -0.357 C  
HETATM   22  C   UNL     1     -10.424   8.965  69.087  1.00  0.00    -0.223 C  
HETATM   23  H   UNL     1     -10.191  10.280  66.760  1.00  0.00     0.000 HD 
HETATM   24  O   UNL     1     -10.250   9.594  70.357  1.00  0.00    -0.255 OA 
HETATM   25  C   UNL     1     -11.400   9.877  68.310  1.00  0.00     0.024 C  
BRANCH  21  26
HETATM   26  C   UNL     1     -12.381   9.213  71.528  1.00  0.00    -0.347 C  
HETATM   27  H   UNL     1     -14.274   8.614  71.609  1.00  0.00     0.000 HD 
HETATM   28  O   UNL     1     -13.737   9.211  71.102  1.00  0.00    -0.279 OA 
ENDBRANCH  21  26
BRANCH  22  29
HETATM   29  O   UNL     1     -10.941   7.638  69.253  1.00  0.00    -0.149 OA 
BRANCH  29  30
HETATM   30  C   UNL     1     -10.025   6.616  69.772  1.00  0.00    -0.173 C  
HETATM   31  C   UNL     1     -10.554   6.034  71.109  1.00  0.00    -0.246 C  
HETATM   32  O   UNL     1     -11.391   4.893  70.821  1.00  0.00     0.767 OA 
HETATM   33  C   UNL     1      -9.539   5.589  72.176  1.00  0.00    -0.150 C  
HETATM   34  C   UNL     1      -8.212   6.322  72.106  1.00  0.00    -0.109 C  
HETATM   35  N   UNL     1     -10.116   5.791  73.530  1.00  0.00    -0.180 NA 
HETATM   36  H   UNL     1     -11.715   4.536  71.640  1.00  0.00     0.000 HD 
HETATM   37  H1  UNL     1      -9.443   5.496  74.237  1.00  0.00     0.000 HD 
HETATM   38  H2  UNL     1     -11.016   5.324  73.638  1.00  0.00     0.000 HD 
HETATM   39  C   UNL     1      -7.644   6.248  70.690  1.00  0.00    -0.096 C  
HETATM   40  C   UNL     1      -8.538   7.065  69.722  1.00  0.00    -0.141 C  
HETATM   41  N   UNL     1      -6.257   6.762  70.712  1.00  0.00    -0.035 NA 
HETATM   42  H2  UNL     1      -5.672   6.280  71.395  1.00  0.00     0.000 HD 
HETATM   43  H1  UNL     1      -5.878   6.712  69.767  1.00  0.00     0.000 HD 
BRANCH  40  44
HETATM   44  O   UNL     1      -7.973   6.915  68.396  1.00  0.00    -0.118 OA 
BRANCH  44  45
HETATM   45  C   UNL     1      -7.545   5.593  68.055  1.00  0.00    -0.085 C  
HETATM   46  O   UNL     1      -8.639   4.776  67.632  1.00  0.00    -0.104 OA 
HETATM   47  C   UNL     1      -9.252   5.226  66.416  1.00  0.00    -0.144 C  
HETATM   48  C   UNL     1      -8.243   5.282  65.259  1.00  0.00    -0.130 C  
HETATM   49  H1  UNL     1      -4.551   6.546  66.651  1.00  0.00     0.000 HD 
HETATM   50  O   UNL     1      -8.830   5.780  64.048  1.00  0.00    -0.348 OA 
HETATM   51  H2  UNL     1      -4.891   6.180  68.254  1.00  0.00     0.000 HD 
HETATM   52  C   UNL     1      -7.053   6.171  65.649  1.00  0.00    -0.072 C  
HETATM   53  H   UNL     1      -8.206   5.815  63.333  1.00  0.00     0.000 HD 
HETATM   54  O   UNL     1      -6.064   6.140  64.605  1.00  0.00    -0.028 OA 
HETATM   55  C   UNL     1      -6.437   5.666  66.967  1.00  0.00    -0.044 C  
HETATM   56  N   UNL     1      -5.277   6.498  67.365  1.00  0.00    -0.008 NA 
HETATM   57  H   UNL     1      -5.327   6.689  64.847  1.00  0.00     0.000 HD 
BRANCH  47  58
HETATM   58  C   UNL     1     -10.469   4.320  66.122  1.00  0.00     0.093 C  
HETATM   59  H1  UNL     1     -11.079   2.773  64.826  1.00  0.00     0.000 HD 
HETATM   60  N   UNL     1     -10.275   3.371  65.020  1.00  0.00    -0.398 NA 
HETATM   61  H2  UNL     1      -9.443   2.804  65.184  1.00  0.00     0.000 HD 
ENDBRANCH  47  58
ENDBRANCH  44  45
ENDBRANCH  40  44
ENDBRANCH  29  30
ENDBRANCH  22  29
ENDBRANCH  18  19
ENDBRANCH   7  18
ENDBRANCH   2   5
TORSDOF 9
ENDMDL
MODEL      237
REMARK 921   NORMALIZED FREE ENERGY PREDICTED BY IDOCK:   -2.43 KCAL/MOL
REMARK 922        TOTAL FREE ENERGY PREDICTED BY IDOCK:   -6.52 KCAL/MOL
REMARK 923 INTER-LIGAND FREE ENERGY PREDICTED BY IDOCK:   -5.94 KCAL/MOL
REMARK 924 INTRA-LIGAND FREE ENERGY PREDICTED BY IDOCK:   -0.58 KCAL/MOL
REMARK 927      BINDING AFFINITY PREDICTED BY RF-SCORE:    0.00 PKD
ROOT
HETATM    1  N   UNL     1     -10.808   3.353  74.141  1.00  0.00    -0.185 NA 
HETATM    2  C   UNL     1     -10.288   3.498  72.779  1.00  0.00    -0.160 C  
HETATM    3  H1  UNL     1     -11.784   3.066  74.210  1.00  0.00     0.000 HD 
HETATM    4  H2  UNL     1     -10.659   4.215  74.665  1.00  0.00     0.000 HD 
ENDROOT
BRANCH   2   5
HETATM    5  C   UNL     1      -8.803   3.934  72.674  1.00  0.00    -0.102 C  
HETATM    6  O   UNL     1      -8.570   4.987  71.703  1.00  0.00    -0.124 OA 
HETATM    7  C   UNL     1      -7.200   5.424  71.754  1.00  0.00    -0.085 C  
HETATM    8  C   UNL     1      -6.239   4.255  71.359  1.00  0.00    -0.018 C  
HETATM    9  O   UNL     1      -8.435   2.153  71.052  1.00  0.00    -0.049 OA 
HETATM   10  H   UNL     1      -7.925   1.384  70.824  1.00  0.00     0.000 HD 
HETATM   11  N   UNL     1      -6.404   3.909  69.909  1.00  0.00    -0.027 NA 
HETATM   12  C   UNL     1      -6.479   3.034  72.246  1.00  0.00    -0.014 C  
HETATM   13  H2  UNL     1      -6.278   4.724  69.307  1.00  0.00     0.000 HD 
HETATM   14  O   UNL     1      -5.950   3.216  73.566  1.00  0.00    -0.003 OA 
HETATM   15  C   UNL     1      -7.971   2.681  72.303  1.00  0.00    -0.054 C  
HETATM   16  H1  UNL     1      -5.777   3.147  69.651  1.00  0.00     0.000 HD 
HETATM   17  H   UNL     1      -6.099   2.457  74.118  1.00  0.00     0.000 HD 
BRANCH   7  18
HETATM   18  O   UNL     1      -6.874   6.410  70.790  1.00  0.00    -0.059 OA 
BRANCH  18  19
HETATM   19  C   UNL     1      -7.673   7.578  70.659  1.00  0.00    -0.090 C  
HETATM   20  O   UNL     1      -6.218   8.089  68.715  1.00  0.00    -0.038 OA 
HETATM   21  C   UNL     1      -9.044   6.982  70.319  1.00  0.00    -0.156 C  
HETATM   22  C   UNL     1      -8.636   8.437  68.584  1.00  0.00    -0.132 C  
HETATM   23  H   UNL     1      -6.032   8.662  67.981  1.00  0.00     0.000 HD 
HETATM   24  O   UNL     1      -9.253   7.191  68.912  1.00  0.00    -0.139 OA 
HETATM   25  C   UNL     1      -7.370   8.511  69.467  1.00  0.00    -0.065 C  
BRANCH  21  26
HETATM   26  C   UNL     1     -10.193   7.546  71.159  1.00  0.00    -0.193 C  
HETATM   27  H   UNL     1     -12.082   7.102  71.587  1.00  0.00     0.000 HD 
HETATM   28  O   UNL     1     -11.369   6.753  71.066  1.00  0.00    -0.274 OA 
ENDBRANCH  21  26
BRANCH  22  29
HETATM   29  O   UNL     1      -9.536   9.523  68.838  1.00  0.00    -0.151 OA 
BRANCH  29  30
HETATM   30  C   UNL     1     -10.355   9.999  67.716  1.00  0.00    -0.215 C  
HETATM   31  C   UNL     1      -9.968   9.265  66.405  1.00  0.00    -0.286 C  
HETATM   32  O   UNL     1     -10.785   8.080  66.277  1.00  0.00    -0.100 OA 
HETATM   33  C   UNL     1     -10.069  10.026  65.073  1.00  0.00    -0.157 C  
HETATM   34  C   UNL     1      -9.909  11.529  65.210  1.00  0.00    -0.286 C  
HETATM   35  N   UNL     1      -9.031   9.529  64.133  1.00  0.00    -0.338 NA 
HETATM   36  H   UNL     1     -10.548   7.631  65.474  1.00  0.00     0.000 HD 
HETATM   37  H1  UNL     1      -9.098  10.034  63.249  1.00  0.00     0.000 HD 
HETATM   38  H2  UNL     1      -9.083   8.519  64.003  1.00  0.00     0.000 HD 
HETATM   39  C   UNL     1     -10.875  12.066  66.266  1.00  0.00    -0.279 C  
HETATM   40  C   UNL     1     -10.461  11.548  67.667  1.00  0.00    -0.189 C  
HETATM   41  N   UNL     1     -10.861  13.544  66.207  1.00  0.00    -0.288 NA 
HETATM   42  H2  UNL     1     -11.065  13.900  65.273  1.00  0.00     0.000 HD 
HETATM   43  H1  UNL     1     -11.506  13.902  66.912  1.00  0.00     0.000 HD 
BRANCH  40  44
HETATM   44  O   UNL     1     -11.439  12.053  68.610  1.00  0.00    -0.246 OA 
BRANCH  44  45
HETATM   45  C   UNL     1     -10.916  12.469  69.875  1.00  0.00     0.490 C  
HETATM   46  O   UNL     1     -10.265  13.738  69.786  1.00  0.00     0.464 OA 
HETATM   47  C   UNL     1     -11.153  14.814  69.449  1.00  0.00    -0.281 C  
HETATM   48  C   UNL     1     -12.292  14.950  70.469  1.00  0.00    -0.342 C  
HETATM   49  H1  UNL     1     -13.505  11.203  71.756  1.00  0.00     0.000 HD 
HETATM   50  O   UNL     1     -13.217  15.989  70.117  1.00  0.00    -0.610 OA 
HETATM   51  H2  UNL     1     -12.095  10.439  71.260  1.00  0.00     0.000 HD 
HETATM   52  C   UNL     1     -13.047  13.618  70.588  1.00  0.00     0.029 C  
HETATM   53  H   UNL     1     -13.923  16.073  70.749  1.00  0.00     0.000 HD 
HETATM   54  O   UNL     1     -14.047  13.718  71.617  1.00  0.00    -0.287 OA 
HETATM   55  C   UNL     1     -12.056  12.489  70.931  1.00  0.00    -0.041 C  
HETATM   56  N   UNL     1     -12.757  11.190  71.063  1.00  0.00    -0.381 NA 
HETATM   57  H   UNL     1     -14.513  12.894  71.690  1.00  0.00     0.000 HD 
BRANCH  47  58
HETATM   58  C   UNL     1     -10.315  16.104  69.292  1.00  0.00    -0.265 C  
HETATM   59  H1  UNL     1     -10.465  18.190  69.552  1.00  0.00     0.000 HD 
HETATM   60  N   UNL     1     -11.018  17.339  69.656  1.00  0.00    -0.210 NA 
HETATM   61  H2  UNL     1     -11.389  17.270  70.604  1.00  0.00     0.000 HD 
ENDBRANCH  47  58
ENDBRANCH  44  45
ENDBRANCH  40  44
ENDBRANCH  29  30
ENDBRANCH  22  29
ENDBRANCH  18  19
ENDBRANCH   7  18
ENDBRANCH   2   5
TORSDOF 9
ENDMDL
MODEL      238
REMARK 921   NORMALIZED FREE ENERGY PREDICTED BY IDOCK:   -2.40 KCAL/MOL
REMARK 922        TOTAL FREE ENERGY PREDICTED BY IDOCK:   -6.48 KCAL/MOL
REMARK 923 INTER-LIGAND FREE ENERGY PREDICTED BY IDOCK:   -5.85 KCAL/MOL
REMARK 924 INTRA-LIGAND FREE ENERGY PREDICTED BY IDOCK:   -0.63 KCAL/MOL
REMARK 927      BINDING AFFINITY PREDICTED BY RF-SCORE:    0.00 PKD
ROOT
HETATM    1  N   UNL     1      -5.156  16.532  66.867  1.00  0.00    -0.336 NA 
HETATM    2  C   UNL     1      -5.633  17.886  67.164  1.00  0.00    -0.135 C  
HETATM    3  H1  UNL     1      -4.151  16.445  66.719  1.00  0.00     0.000 HD 
HETATM    4  H2  UNL     1      -5.661  16.152  66.068  1.00  0.00     0.000 HD 
ENDROOT
BRANCH   2   5
HETATM    5  C   UNL     1      -7.162  18.020  67.389  1.00  0.00    -0.193 C  
HETATM    6  O   UNL     1      -7.810  16.775  67.759  1.00  0.00    -0.171 OA 
HETATM    7  C   UNL     1      -9.195  17.002  68.073  1.00  0.00    -0.241 C  
HETATM    8  C   UNL     1      -9.961  17.527  66.815  1.00  0.00    -0.313 C  
HETATM    9  O   UNL     1      -7.504  17.659  65.002  1.00  0.00     0.854 OA 
HETATM   10  H   UNL     1      -7.886  17.995  64.199  1.00  0.00     0.000 HD 
HETATM   11  N   UNL     1     -10.049  16.453  65.770  1.00  0.00    -0.460 NA 
HETATM   12  C   UNL     1      -9.291  18.782  66.258  1.00  0.00    -0.262 C  
HETATM   13  H2  UNL     1     -10.465  15.597  66.139  1.00  0.00     0.000 HD 
HETATM   14  O   UNL     1      -9.547  19.934  67.073  1.00  0.00    -0.340 OA 
HETATM   15  C   UNL     1      -7.783  18.567  66.079  1.00  0.00    -0.171 C  
HETATM   16  H1  UNL     1     -10.549  16.795  64.950  1.00  0.00     0.000 HD 
HETATM   17  H   UNL     1      -9.130  20.715  66.726  1.00  0.00     0.000 HD 
BRANCH   7  18
HETATM   18  O   UNL     1      -9.915  15.823  68.385  1.00  0.00    -0.213 OA 
BRANCH  18  19
HETATM   19  C   UNL     1      -9.713  14.636  67.630  1.00  0.00    -0.214 C  
HETATM   20  O   UNL     1      -7.769  14.275  69.129  1.00  0.00    -0.251 OA 
HETATM   21  C   UNL     1     -10.971  13.829  67.974  1.00  0.00    -0.250 C  
HETATM   22  C   UNL     1      -9.245  12.416  68.537  1.00  0.00    -0.076 C  
HETATM   23  H   UNL     1      -7.055  13.707  69.395  1.00  0.00     0.000 HD 
HETATM   24  O   UNL     1     -10.570  12.806  68.900  1.00  0.00    -0.212 OA 
HETATM   25  C   UNL     1      -8.554  13.713  68.061  1.00  0.00    -0.175 C  
BRANCH  21  26
HETATM   26  C   UNL     1     -11.690  13.248  66.754  1.00  0.00    -0.385 C  
HETATM   27  H   UNL     1     -13.077  11.882  66.353  1.00  0.00     0.000 HD 
HETATM   28  O   UNL     1     -12.630  12.243  67.110  1.00  0.00     0.181 OA 
ENDBRANCH  21  26
BRANCH  22  29
HETATM   29  O   UNL     1      -9.281  11.416  67.510  1.00  0.00    -0.157 OA 
BRANCH  29  30
HETATM   30  C   UNL     1      -8.090  10.573  67.345  1.00  0.00    -0.111 C  
HETATM   31  C   UNL     1      -6.916  11.395  66.753  1.00  0.00    -0.128 C  
HETATM   32  O   UNL     1      -6.152  11.965  67.839  1.00  0.00    -0.048 OA 
HETATM   33  C   UNL     1      -5.915  10.691  65.822  1.00  0.00    -0.137 C  
HETATM   34  C   UNL     1      -6.497   9.502  65.079  1.00  0.00    -0.084 C  
HETATM   35  N   UNL     1      -5.396  11.659  64.821  1.00  0.00     0.335 NA 
HETATM   36  H   UNL     1      -5.433  12.469  67.476  1.00  0.00     0.000 HD 
HETATM   37  H1  UNL     1      -4.732  11.192  64.204  1.00  0.00     0.000 HD 
HETATM   38  H2  UNL     1      -4.994  12.487  65.261  1.00  0.00     0.000 HD 
HETATM   39  C   UNL     1      -7.158   8.539  66.065  1.00  0.00    -0.076 C  
HETATM   40  C   UNL     1      -8.413   9.203  66.687  1.00  0.00    -0.123 C  
HETATM   41  N   UNL     1      -7.503   7.294  65.346  1.00  0.00    -0.082 NA 
HETATM   42  H2  UNL     1      -6.699   6.879  64.873  1.00  0.00     0.000 HD 
HETATM   43  H1  UNL     1      -7.944   6.651  66.004  1.00  0.00     0.000 HD 
BRANCH  40  44
HETATM   44  O   UNL     1      -8.962   8.261  67.641  1.00  0.00    -0.135 OA 
BRANCH  44  45
HETATM   45  C   UNL     1     -10.267   7.764  67.333  1.00  0.00    -0.251 C  
HETATM   46  O   UNL     1     -10.207   6.591  66.518  1.00  0.00    -0.152 OA 
HETATM   47  C   UNL     1      -9.595   5.470  67.172  1.00  0.00    -0.134 C  
HETATM   48  C   UNL     1     -10.334   5.096  68.465  1.00  0.00    -0.070 C  
HETATM   49  H1  UNL     1     -11.659   8.519  70.388  1.00  0.00     0.000 HD 
HETATM   50  O   UNL     1      -9.703   4.010  69.158  1.00  0.00    -0.181 OA 
HETATM   51  H2  UNL     1     -11.544   9.483  69.018  1.00  0.00     0.000 HD 
HETATM   52  C   UNL     1     -10.407   6.316  69.395  1.00  0.00    -0.216 C  
HETATM   53  H   UNL     1     -10.160   3.778  69.958  1.00  0.00     0.000 HD 
HETATM   54  O   UNL     1     -11.185   5.992  70.559  1.00  0.00    -0.323 OA 
HETATM   55  C   UNL     1     -11.051   7.500  68.649  1.00  0.00     0.221 C  
HETATM   56  N   UNL     1     -11.145   8.692  69.525  1.00  0.00    -0.053 NA 
HETATM   57  H   UNL     1     -11.231   6.747  71.134  1.00  0.00     0.000 HD 
BRANCH  47  58
HETATM   58  C   UNL     1      -9.507   4.305  66.159  1.00  0.00    -0.178 C  
HETATM   59  H1  UNL     1      -9.541   2.199  66.086  1.00  0.00     0.000 HD 
HETATM   60  N   UNL     1      -9.599   2.967  66.755  1.00  0.00    -0.409 NA 
HETATM   61  H2  UNL     1     -10.448   2.887  67.315  1.00  0.00     0.000 HD 
ENDBRANCH  47  58
ENDBRANCH  44  45
ENDBRANCH  40  44
ENDBRANCH  29  30
ENDBRANCH  22  29
ENDBRANCH  18  19
ENDBRANCH   7  18
ENDBRANCH   2   5
TORSDOF 9
ENDMDL
MODEL      239
REMARK 921   NORMALIZED FREE ENERGY PREDICTED BY IDOCK:   -2.31 KCAL/MOL
REMARK 922        TOTAL FREE ENERGY PREDICTED BY IDOCK:   -6.34 KCAL/MOL
REMARK 923 INTER-LIGAND FREE ENERGY PREDICTED BY IDOCK:   -6.38 KCAL/MOL
REMARK 924 INTRA-LIGAND FREE ENERGY PREDICTED BY IDOCK:    0.05 KCAL/MOL
REMARK 927      BINDING AFFINITY PREDICTED BY RF-SCORE:    0.00 PKD
ROOT
HETATM    1  N   UNL     1     -10.956   7.874  71.289  1.00  0.00    -0.235 NA 
HETATM    2  C   UNL     1     -10.054   6.720  71.347  1.00  0.00    -0.182 C  
HETATM    3  H1  UNL     1     -11.385   8.140  72.175  1.00  0.00     0.000 HD 
HETATM    4  H2  UNL     1     -11.677   7.719  70.585  1.00  0.00     0.000 HD 
ENDROOT
BRANCH   2   5
HETATM    5  C   UNL     1      -9.402   6.316  69.999  1.00  0.00    -0.155 C  
HETATM    6  O   UNL     1      -9.311   7.405  69.043  1.00  0.00    -0.146 OA 
HETATM    7  C   UNL     1      -8.585   6.988  67.874  1.00  0.00    -0.126 C  
HETATM    8  C   UNL     1      -9.345   5.836  67.139  1.00  0.00    -0.115 C  
HETATM    9  O   UNL     1     -11.591   5.603  69.199  1.00  0.00     0.444 OA 
HETATM   10  H   UNL     1     -12.106   4.893  68.831  1.00  0.00     0.000 HD 
HETATM   11  N   UNL     1     -10.625   6.349  66.547  1.00  0.00    -0.493 NA 
HETATM   12  C   UNL     1      -9.608   4.670  68.090  1.00  0.00    -0.148 C  
HETATM   13  H2  UNL     1     -10.467   7.150  65.936  1.00  0.00     0.000 HD 
HETATM   14  O   UNL     1      -8.420   3.912  68.353  1.00  0.00    -0.089 OA 
HETATM   15  C   UNL     1     -10.241   5.159  69.400  1.00  0.00    -0.223 C  
HETATM   16  H1  UNL     1     -11.122   5.598  66.069  1.00  0.00     0.000 HD 
HETATM   17  H   UNL     1      -8.583   3.186  68.945  1.00  0.00     0.000 HD 
BRANCH   7  18
HETATM   18  O   UNL     1      -8.504   7.978  66.863  1.00  0.00    -0.120 OA 
BRANCH  18  19
HETATM   19  C   UNL     1      -7.901   9.236  67.136  1.00  0.00    -0.099 C  
HETATM   20  O   UNL     1      -9.919  10.191  66.053  1.00  0.00    -0.229 OA 
HETATM   21  C   UNL     1      -7.902   9.257  68.669  1.00  0.00    -0.089 C  
HETATM   22  C   UNL     1      -9.014  11.187  68.096  1.00  0.00    -0.159 C  
HETATM   23  H   UNL     1     -10.410  10.969  65.816  1.00  0.00     0.000 HD 
HETATM   24  O   UNL     1      -8.955  10.148  69.074  1.00  0.00    -0.146 OA 
HETATM   25  C   UNL     1      -8.697  10.500  66.749  1.00  0.00    -0.132 C  
BRANCH  21  26
HETATM   26  C   UNL     1      -6.555   9.643  69.287  1.00  0.00    -0.048 C  
HETATM   27  H   UNL     1      -5.869  10.544  70.919  1.00  0.00     0.000 HD 
HETATM   28  O   UNL     1      -6.704  10.304  70.536  1.00  0.00    -0.225 OA 
ENDBRANCH  21  26
BRANCH  22  29
HETATM   29  O   UNL     1      -8.073  12.223  68.409  1.00  0.00    -0.157 OA 
BRANCH  29  30
HETATM   30  C   UNL     1      -8.095  13.430  67.574  1.00  0.00    -0.181 C  
HETATM   31  C   UNL     1      -7.020  14.443  68.047  1.00  0.00    -0.143 C  
HETATM   32  O   UNL     1      -5.789  14.181  67.338  1.00  0.00    -0.350 OA 
HETATM   33  C   UNL     1      -7.308  15.947  67.906  1.00  0.00    -0.134 C  
HETATM   34  C   UNL     1      -8.785  16.296  67.933  1.00  0.00    -0.175 C  
HETATM   35  N   UNL     1      -6.631  16.690  69.001  1.00  0.00    -0.185 NA 
HETATM   36  H   UNL     1      -5.131  14.802  67.628  1.00  0.00     0.000 HD 
HETATM   37  H1  UNL     1      -6.822  17.688  68.907  1.00  0.00     0.000 HD 
HETATM   38  H2  UNL     1      -5.632  16.493  69.038  1.00  0.00     0.000 HD 
HETATM   39  C   UNL     1      -9.542  15.456  66.906  1.00  0.00    -0.226 C  
HETATM   40  C   UNL     1      -9.534  13.967  67.335  1.00  0.00    -0.226 C  
HETATM   41  N   UNL     1     -10.920  15.981  66.793  1.00  0.00    -0.188 NA 
HETATM   42  H2  UNL     1     -10.943  16.978  66.577  1.00  0.00     0.000 HD 
HETATM   43  H1  UNL     1     -11.425  15.420  66.107  1.00  0.00     0.000 HD 
BRANCH  40  44
HETATM   44  O   UNL     1     -10.223  13.223  66.300  1.00  0.00    -0.282 OA 
BRANCH  44  45
HETATM   45  C   UNL     1     -10.422  13.923  65.069  1.00  0.00    -0.410 C  
HETATM   46  O   UNL     1      -9.468  13.530  64.079  1.00  0.00     0.732 OA 
HETATM   47  C   UNL     1      -9.591  12.158  63.678  1.00  0.00     0.007 C  
HETATM   48  C   UNL     1     -10.989  11.853  63.120  1.00  0.00    -0.202 C  
HETATM   49  H1  UNL     1     -13.858  13.963  65.238  1.00  0.00     0.000 HD 
HETATM   50  O   UNL     1     -11.144  10.472  62.764  1.00  0.00     0.045 OA 
HETATM   51  H2  UNL     1     -12.762  15.071  65.861  1.00  0.00     0.000 HD 
HETATM   52  C   UNL     1     -12.058  12.233  64.156  1.00  0.00    -0.436 C  
HETATM   53  H   UNL     1     -12.009  10.284  62.418  1.00  0.00     0.000 HD 
HETATM   54  O   UNL     1     -13.367  12.042  63.592  1.00  0.00    -0.676 OA 
HETATM   55  C   UNL     1     -11.878  13.705  64.571  1.00  0.00    -0.412 C  
HETATM   56  N   UNL     1     -12.903  14.106  65.564  1.00  0.00    -0.631 NA 
HETATM   57  H   UNL     1     -14.028  12.277  64.233  1.00  0.00     0.000 HD 
BRANCH  47  58
HETATM   58  C   UNL     1      -8.452  11.838  62.683  1.00  0.00     0.828 C  
HETATM   59  H1  UNL     1      -6.987  10.374  62.294  1.00  0.00     0.000 HD 
HETATM   60  N   UNL     1      -7.739  10.584  62.951  1.00  0.00    -0.267 NA 
HETATM   61  H2  UNL     1      -8.397   9.806  62.998  1.00  0.00     0.000 HD 
ENDBRANCH  47  58
ENDBRANCH  44  45
ENDBRANCH  40  44
ENDBRANCH  29  30
ENDBRANCH  22  29
ENDBRANCH  18  19
ENDBRANCH   7  18
ENDBRANCH   2   5
TORSDOF 9
ENDMDL
MODEL      240
REMARK 921   NORMALIZED FREE ENERGY PREDICTED BY IDOCK:   -2.21 KCAL/MOL
REMARK 922        TOTAL FREE ENERGY PREDICTED BY IDOCK:   -6.19 KCAL/MOL
REMARK 923 INTER-LIGAND FREE ENERGY PREDICTED BY IDOCK:   -7.02 KCAL/MOL
REMARK 924 INTRA-LIGAND FREE ENERGY PREDICTED BY IDOCK:    0.83 KCAL/MOL
REMARK 927      BINDING AFFINITY PREDICTED BY RF-SCORE:    0.00 PKD
ROOT
HETATM    1  N   UNL     1      -7.983  21.050  67.336  1.00  0.00    -0.469 NA 
HETATM    2  C   UNL     1      -8.695  20.414  66.224  1.00  0.00    -0.009 C  
HETATM    3  H1  UNL     1      -8.119  22.056  67.424  1.00  0.00     0.000 HD 
HETATM    4  H2  UNL     1      -6.988  20.836  67.281  1.00  0.00     0.000 HD 
ENDROOT
BRANCH   2   5
HETATM    5  C   UNL     1      -8.488  18.882  66.088  1.00  0.00    -0.183 C  
HETATM    6  O   UNL     1      -9.722  18.139  65.910  1.00  0.00    -0.521 OA 
HETATM    7  C   UNL     1      -9.441  16.749  65.666  1.00  0.00     0.124 C  
HETATM    8  C   UNL     1      -8.731  16.110  66.903  1.00  0.00    -0.223 C  
HETATM    9  O   UNL     1      -8.557  18.699  68.518  1.00  0.00    -0.330 OA 
HETATM   10  H   UNL     1      -8.110  18.398  69.302  1.00  0.00     0.000 HD 
HETATM   11  N   UNL     1      -9.673  16.039  68.069  1.00  0.00    -0.216 NA 
HETATM   12  C   UNL     1      -7.467  16.890  67.265  1.00  0.00    -0.166 C  
HETATM   13  H2  UNL     1     -10.536  15.549  67.831  1.00  0.00     0.000 HD 
HETATM   14  O   UNL     1      -6.399  16.641  66.341  1.00  0.00    -0.252 OA 
HETATM   15  C   UNL     1      -7.759  18.393  67.365  1.00  0.00    -0.223 C  
HETATM   16  H1  UNL     1      -9.210  15.623  68.876  1.00  0.00     0.000 HD 
HETATM   17  H   UNL     1      -5.613  17.126  66.566  1.00  0.00     0.000 HD 
BRANCH   7  18
HETATM   18  O   UNL     1     -10.598  15.942  65.542  1.00  0.00    -0.363 OA 
BRANCH  18  19
HETATM   19  C   UNL     1     -10.531  14.546  65.801  1.00  0.00    -0.323 C  
HETATM   20  O   UNL     1     -12.227  15.012  67.552  1.00  0.00    -0.429 OA 
HETATM   21  C   UNL     1     -11.076  13.958  64.494  1.00  0.00    -0.366 C  
HETATM   22  C   UNL     1     -12.436  13.047  66.111  1.00  0.00    -0.120 C  
HETATM   23  H   UNL     1     -12.810  14.666  68.217  1.00  0.00     0.000 HD 
HETATM   24  O   UNL     1     -12.418  13.517  64.762  1.00  0.00    -0.511 OA 
HETATM   25  C   UNL     1     -11.477  13.982  66.882  1.00  0.00    -0.356 C  
BRANCH  21  26
HETATM   26  C   UNL     1     -10.211  12.840  63.906  1.00  0.00    -0.240 C  
HETATM   27  H   UNL     1     -10.288  10.869  63.664  1.00  0.00     0.000 HD 
HETATM   28  O   UNL     1     -10.824  11.563  64.029  1.00  0.00    -0.340 OA 
ENDBRANCH  21  26
BRANCH  22  29
HETATM   29  O   UNL     1     -12.017  11.677  66.169  1.00  0.00    -0.370 OA 
BRANCH  29  30
HETATM   30  C   UNL     1     -11.346  11.227  67.395  1.00  0.00    -0.276 C  
HETATM   31  C   UNL     1     -12.165  11.633  68.648  1.00  0.00     0.069 C  
HETATM   32  O   UNL     1     -13.089  10.569  68.966  1.00  0.00     0.047 OA 
HETATM   33  C   UNL     1     -11.413  11.977  69.944  1.00  0.00    -0.162 C  
HETATM   34  C   UNL     1     -10.006  12.501  69.719  1.00  0.00     1.703 C  
HETATM   35  N   UNL     1     -12.175  12.996  70.710  1.00  0.00    -0.463 NA 
HETATM   36  H   UNL     1     -13.590  10.818  69.734  1.00  0.00     0.000 HD 
HETATM   37  H1  UNL     1     -11.676  13.224  71.570  1.00  0.00     0.000 HD 
HETATM   38  H2  UNL     1     -13.135  12.703  70.890  1.00  0.00     0.000 HD 
HETATM   39  C   UNL     1      -9.224  11.539  68.825  1.00  0.00    -0.067 C  
HETATM   40  C   UNL     1      -9.825  11.544  67.396  1.00  0.00    -0.186 C  
HETATM   41  N   UNL     1      -7.804  11.953  68.818  1.00  0.00    -0.276 NA 
HETATM   42  H2  UNL     1      -7.412  12.021  69.757  1.00  0.00     0.000 HD 
HETATM   43  H1  UNL     1      -7.283  11.311  68.221  1.00  0.00     0.000 HD 
BRANCH  40  44
HETATM   44  O   UNL     1      -9.072  10.583  66.616  1.00  0.00    -0.152 OA 
BRANCH  44  45
HETATM   45  C   UNL     1      -9.736   9.343  66.360  1.00  0.00    -0.250 C  
HETATM   46  O   UNL     1      -9.713   9.009  64.970  1.00  0.00     0.094 OA 
HETATM   47  C   UNL     1      -8.394   8.764  64.461  1.00  0.00    -0.162 C  
HETATM   48  C   UNL     1      -7.696   7.627  65.221  1.00  0.00    -0.110 C  
HETATM   49  H1  UNL     1      -8.687   7.781  69.241  1.00  0.00     0.000 HD 
HETATM   50  O   UNL     1      -6.356   7.405  64.758  1.00  0.00    -0.037 OA 
HETATM   51  H2  UNL     1     -10.050   8.730  68.996  1.00  0.00     0.000 HD 
HETATM   52  C   UNL     1      -7.668   7.944  66.724  1.00  0.00    -0.099 C  
HETATM   53  H   UNL     1      -5.924   6.702  65.228  1.00  0.00     0.000 HD 
HETATM   54  O   UNL     1      -7.104   6.833  67.442  1.00  0.00    -0.079 OA 
HETATM   55  C   UNL     1      -9.098   8.219  67.223  1.00  0.00    -0.137 C  
HETATM   56  N   UNL     1      -9.105   8.519  68.675  1.00  0.00    -0.139 NA 
HETATM   57  H   UNL     1      -7.088   7.030  68.371  1.00  0.00     0.000 HD 
BRANCH  47  58
HETATM   58  C   UNL     1      -8.500   8.510  62.941  1.00  0.00    -0.091 C  
HETATM   59  H1  UNL     1      -8.559   6.926  61.550  1.00  0.00     0.000 HD 
HETATM   60  N   UNL     1      -8.490   7.094  62.555  1.00  0.00    -0.363 NA 
HETATM   61  H2  UNL     1      -9.223   6.587  63.050  1.00  0.00     0.000 HD 
ENDBRANCH  47  58
ENDBRANCH  44  45
ENDBRANCH  40  44
ENDBRANCH  29  30
ENDBRANCH  22  29
ENDBRANCH  18  19
ENDBRANCH   7  18
ENDBRANCH   2   5
TORSDOF 9
ENDMDL
MODEL      241
REMARK 921   NORMALIZED FREE ENERGY PREDICTED BY IDOCK:   -2.18 KCAL/MOL
REMARK 922        TOTAL FREE ENERGY PREDICTED BY IDOCK:   -6.14 KCAL/MOL
REMARK 923 INTER-LIGAND FREE ENERGY PREDICTED BY IDOCK:   -6.66 KCAL/MOL
REMARK 924 INTRA-LIGAND FREE ENERGY PREDICTED BY IDOCK:    0.51 KCAL/MOL
REMARK 927      BINDING AFFINITY PREDICTED BY RF-SCORE:    0.00 PKD
ROOT
HETATM    1  N   UNL     1     -12.011  16.939  69.296  1.00  0.00     0.292 NA 
HETATM    2  C   UNL     1     -11.251  15.722  69.591  1.00  0.00    -0.319 C  
HETATM    3  H1  UNL     1     -12.807  17.118  69.908  1.00  0.00     0.000 HD 
HETATM    4  H2  UNL     1     -12.314  16.935  68.323  1.00  0.00     0.000 HD 
ENDROOT
BRANCH   2   5
HETATM    5  C   UNL     1     -10.040  15.450  68.660  1.00  0.00    -0.212 C  
HETATM    6  O   UNL     1      -8.974  14.694  69.292  1.00  0.00    -0.086 OA 
HETATM    7  C   UNL     1      -7.949  14.375  68.335  1.00  0.00    -0.141 C  
HETATM    8  C   UNL     1      -7.283  15.680  67.790  1.00  0.00    -0.155 C  
HETATM    9  O   UNL     1      -9.103  17.603  69.318  1.00  0.00     0.013 OA 
HETATM   10  H   UNL     1      -8.771  18.444  69.024  1.00  0.00     0.000 HD 
HETATM   11  N   UNL     1      -6.499  16.360  68.874  1.00  0.00    -0.143 NA 
HETATM   12  C   UNL     1      -8.336  16.619  67.202  1.00  0.00    -0.177 C  
HETATM   13  H2  UNL     1      -5.815  15.733  69.298  1.00  0.00     0.000 HD 
HETATM   14  O   UNL     1      -8.815  16.161  65.931  1.00  0.00    -0.343 OA 
HETATM   15  C   UNL     1      -9.500  16.821  68.180  1.00  0.00    -0.234 C  
HETATM   16  H1  UNL     1      -6.065  17.211  68.519  1.00  0.00     0.000 HD 
HETATM   17  H   UNL     1      -9.470  16.745  65.565  1.00  0.00     0.000 HD 
BRANCH   7  18
HETATM   18  O   UNL     1      -6.840  13.688  68.888  1.00  0.00    -0.102 OA 
BRANCH  18  19
HETATM   19  C   UNL     1      -7.015  12.422  69.508  1.00  0.00     0.161 C  
HETATM   20  O   UNL     1      -8.353  11.866  67.493  1.00  0.00    -0.143 OA 
HETATM   21  C   UNL     1      -5.581  11.878  69.519  1.00  0.00    -0.073 C  
HETATM   22  C   UNL     1      -6.775  10.244  68.425  1.00  0.00    -0.057 C  
HETATM   23  H   UNL     1      -8.840  11.209  67.010  1.00  0.00     0.000 HD 
HETATM   24  O   UNL     1      -5.502  10.888  68.480  1.00  0.00    -0.041 OA 
HETATM   25  C   UNL     1      -7.807  11.355  68.724  1.00  0.00    -0.128 C  
BRANCH  21  26
HETATM   26  C   UNL     1      -5.137  11.323  70.875  1.00  0.00    -0.114 C  
HETATM   27  H   UNL     1      -5.327  11.770  72.802  1.00  0.00     0.000 HD 
HETATM   28  O   UNL     1      -5.602  12.114  71.961  1.00  0.00    -0.199 OA 
ENDBRANCH  21  26
BRANCH  22  29
HETATM   29  O   UNL     1      -6.838   9.177  69.381  1.00  0.00    -0.047 OA 
BRANCH  29  30
HETATM   30  C   UNL     1      -8.140   8.903  70.002  1.00  0.00    -0.116 C  
HETATM   31  C   UNL     1      -7.965   8.050  71.286  1.00  0.00    -0.093 C  
HETATM   32  O   UNL     1      -7.805   8.937  72.415  1.00  0.00    -0.368 OA 
HETATM   33  C   UNL     1      -9.063   7.041  71.660  1.00  0.00    -0.138 C  
HETATM   34  C   UNL     1      -9.852   6.522  70.471  1.00  0.00    -0.197 C  
HETATM   35  N   UNL     1      -8.459   5.881  72.363  1.00  0.00    -0.117 NA 
HETATM   36  H   UNL     1      -7.698   8.415  73.202  1.00  0.00     0.000 HD 
HETATM   37  H1  UNL     1      -9.188   5.212  72.611  1.00  0.00     0.000 HD 
HETATM   38  H2  UNL     1      -7.909   6.166  73.173  1.00  0.00     0.000 HD 
HETATM   39  C   UNL     1     -10.387   7.691  69.645  1.00  0.00    -0.213 C  
HETATM   40  C   UNL     1      -9.208   8.441  68.972  1.00  0.00    -0.147 C  
HETATM   41  N   UNL     1     -11.336   7.161  68.641  1.00  0.00    -0.417 NA 
HETATM   42  H2  UNL     1     -12.081   6.607  69.062  1.00  0.00     0.000 HD 
HETATM   43  H1  UNL     1     -11.692   7.942  68.090  1.00  0.00     0.000 HD 
BRANCH  40  44
HETATM   44  O   UNL     1      -9.777   9.559  68.246  1.00  0.00    -0.143 OA 
BRANCH  44  45
HETATM   45  C   UNL     1     -10.735   9.216  67.241  1.00  0.00    -0.154 C  
HETATM   46  O   UNL     1     -11.615  10.305  66.957  1.00  0.00     0.021 OA 
HETATM   47  C   UNL     1     -10.954  11.440  66.379  1.00  0.00    -0.260 C  
HETATM   48  C   UNL     1     -10.236  11.073  65.072  1.00  0.00    -0.299 C  
HETATM   49  H1  UNL     1      -8.596   7.279  65.366  1.00  0.00     0.000 HD 
HETATM   50  O   UNL     1      -9.526  12.186  64.510  1.00  0.00    -0.457 OA 
HETATM   51  H2  UNL     1      -9.569   6.823  66.656  1.00  0.00     0.000 HD 
HETATM   52  C   UNL     1      -9.254   9.919  65.324  1.00  0.00    -0.226 C  
HETATM   53  H   UNL     1      -9.082  11.959  63.702  1.00  0.00     0.000 HD 
HETATM   54  O   UNL     1      -8.658   9.512  64.080  1.00  0.00    -0.176 OA 
HETATM   55  C   UNL     1      -9.999   8.732  65.960  1.00  0.00    -0.082 C  
HETATM   56  N   UNL     1      -9.079   7.597  66.206  1.00  0.00    -0.169 NA 
HETATM   57  H   UNL     1      -8.051   8.798  64.236  1.00  0.00     0.000 HD 
BRANCH  47  58
HETATM   58  C   UNL     1     -11.992  12.573  66.210  1.00  0.00    -0.343 C  
HETATM   59  H1  UNL     1     -12.109  14.623  65.734  1.00  0.00     0.000 HD 
HETATM   60  N   UNL     1     -11.423  13.876  65.846  1.00  0.00    -0.318 NA 
HETATM   61  H2  UNL     1     -10.851  13.790  65.005  1.00  0.00     0.000 HD 
ENDBRANCH  47  58
ENDBRANCH  44  45
ENDBRANCH  40  44
ENDBRANCH  29  30
ENDBRANCH  22  29
ENDBRANCH  18  19
ENDBRANCH   7  18
ENDBRANCH   2   5
TORSDOF 9
ENDMDL
MODEL      242
REMARK 921   NORMALIZED FREE ENERGY PREDICTED BY IDOCK:   -2.16 KCAL/MOL
REMARK 922        TOTAL FREE ENERGY PREDICTED BY IDOCK:   -6.10 KCAL/MOL
REMARK 923 INTER-LIGAND FREE ENERGY PREDICTED BY IDOCK:   -7.49 KCAL/MOL
REMARK 924 INTRA-LIGAND FREE ENERGY PREDICTED BY IDOCK:    1.39 KCAL/MOL
REMARK 927      BINDING AFFINITY PREDICTED BY RF-SCORE:    0.00 PKD
ROOT
HETATM    1  N   UNL     1      -8.801   2.645  67.238  1.00  0.00    -0.127 NA 
HETATM    2  C   UNL     1      -9.597   3.393  68.216  1.00  0.00    -0.083 C  
HETATM    3  H1  UNL     1      -9.212   2.564  66.309  1.00  0.00     0.000 HD 
HETATM    4  H2  UNL     1      -8.580   1.719  67.604  1.00  0.00     0.000 HD 
ENDROOT
BRANCH   2   5
HETATM    5  C   UNL     1      -8.972   3.516  69.630  1.00  0.00    -0.110 C  
HETATM    6  O   UNL     1      -9.190   4.807  70.256  1.00  0.00    -0.117 OA 
HETATM    7  C   UNL     1      -8.695   4.802  71.606  1.00  0.00    -0.122 C  
HETATM    8  C   UNL     1      -7.148   4.574  71.621  1.00  0.00    -0.051 C  
HETATM    9  O   UNL     1      -6.873   4.204  68.600  1.00  0.00    -0.046 OA 
HETATM   10  H   UNL     1      -5.940   4.039  68.518  1.00  0.00     0.000 HD 
HETATM   11  N   UNL     1      -6.439   5.758  71.032  1.00  0.00    -0.039 NA 
HETATM   12  C   UNL     1      -6.783   3.290  70.877  1.00  0.00    -0.032 C  
HETATM   13  H2  UNL     1      -6.699   6.627  71.499  1.00  0.00     0.000 HD 
HETATM   14  O   UNL     1      -7.108   2.118  71.636  1.00  0.00    -0.030 OA 
HETATM   15  C   UNL     1      -7.452   3.245  69.497  1.00  0.00    -0.045 C  
HETATM   16  H1  UNL     1      -5.430   5.610  71.041  1.00  0.00     0.000 HD 
HETATM   17  H   UNL     1      -6.882   1.319  71.174  1.00  0.00     0.000 HD 
BRANCH   7  18
HETATM   18  O   UNL     1      -8.814   6.049  72.268  1.00  0.00    -0.138 OA 
BRANCH  18  19
HETATM   19  C   UNL     1      -9.414   7.157  71.611  1.00  0.00    -0.152 C  
HETATM   20  O   UNL     1      -7.326   8.360  72.207  1.00  0.00    -0.104 OA 
HETATM   21  C   UNL     1      -9.495   6.654  70.164  1.00  0.00    -0.158 C  
HETATM   22  C   UNL     1      -8.327   8.629  69.991  1.00  0.00    -0.124 C  
HETATM   23  H   UNL     1      -6.813   9.156  72.142  1.00  0.00     0.000 HD 
HETATM   24  O   UNL     1      -8.454   7.321  69.431  1.00  0.00    -0.131 OA 
HETATM   25  C   UNL     1      -8.580   8.451  71.505  1.00  0.00    -0.167 C  
BRANCH  21  26
HETATM   26  C   UNL     1     -10.868   6.849  69.515  1.00  0.00    -0.252 C  
HETATM   27  H   UNL     1     -11.680   6.791  67.702  1.00  0.00     0.000 HD 
HETATM   28  O   UNL     1     -10.829   6.670  68.105  1.00  0.00    -0.244 OA 
ENDBRANCH  21  26
BRANCH  22  29
HETATM   29  O   UNL     1      -9.269   9.525  69.387  1.00  0.00    -0.156 OA 
BRANCH  29  30
HETATM   30  C   UNL     1      -8.926  10.080  68.072  1.00  0.00    -0.128 C  
HETATM   31  C   UNL     1      -8.324   8.984  67.154  1.00  0.00    -0.110 C  
HETATM   32  O   UNL     1      -9.395   8.353  66.418  1.00  0.00    -0.184 OA 
HETATM   33  C   UNL     1      -7.250   9.385  66.129  1.00  0.00    -0.092 C  
HETATM   34  C   UNL     1      -6.445  10.608  66.528  1.00  0.00    -0.106 C  
HETATM   35  N   UNL     1      -6.311   8.254  65.920  1.00  0.00    -0.052 NA 
HETATM   36  H   UNL     1      -9.026   7.682  65.856  1.00  0.00     0.000 HD 
HETATM   37  H1  UNL     1      -5.599   8.520  65.239  1.00  0.00     0.000 HD 
HETATM   38  H2  UNL     1      -6.795   7.397  65.653  1.00  0.00     0.000 HD 
HETATM   39  C   UNL     1      -7.381  11.763  66.877  1.00  0.00    -0.104 C  
HETATM   40  C   UNL     1      -8.165  11.431  68.173  1.00  0.00    -0.143 C  
HETATM   41  N   UNL     1      -6.574  12.993  67.031  1.00  0.00    -0.453 NA 
HETATM   42  H2  UNL     1      -6.000  13.189  66.212  1.00  0.00     0.000 HD 
HETATM   43  H1  UNL     1      -7.200  13.764  67.265  1.00  0.00     0.000 HD 
BRANCH  40  44
HETATM   44  O   UNL     1      -9.063  12.541  68.421  1.00  0.00    -0.194 OA 
BRANCH  44  45
HETATM   45  C   UNL     1     -10.450  12.270  68.202  1.00  0.00    -0.217 C  
HETATM   46  O   UNL     1     -11.258  12.745  69.282  1.00  0.00    -0.242 OA 
HETATM   47  C   UNL     1     -11.240  14.172  69.426  1.00  0.00    -0.255 C  
HETATM   48  C   UNL     1     -11.718  14.876  68.147  1.00  0.00    -0.318 C  
HETATM   49  H1  UNL     1     -10.384  12.820  64.806  1.00  0.00     0.000 HD 
HETATM   50  O   UNL     1     -11.657  16.305  68.257  1.00  0.00    -0.301 OA 
HETATM   51  H2  UNL     1     -10.088  11.397  65.647  1.00  0.00     0.000 HD 
HETATM   52  C   UNL     1     -10.866  14.422  66.952  1.00  0.00    -0.301 C  
HETATM   53  H   UNL     1     -11.952  16.741  67.466  1.00  0.00     0.000 HD 
HETATM   54  O   UNL     1     -11.380  15.004  65.742  1.00  0.00    -0.337 OA 
HETATM   55  C   UNL     1     -10.897  12.886  66.847  1.00  0.00    -0.257 C  
HETATM   56  N   UNL     1     -10.091  12.416  65.695  1.00  0.00    -0.256 NA 
HETATM   57  H   UNL     1     -10.853  14.723  65.004  1.00  0.00     0.000 HD 
BRANCH  47  58
HETATM   58  C   UNL     1     -12.070  14.545  70.675  1.00  0.00    -0.322 C  
HETATM   59  H1  UNL     1     -13.853  15.530  71.218  1.00  0.00     0.000 HD 
HETATM   60  N   UNL     1     -13.305  15.284  70.392  1.00  0.00    -0.695 NA 
HETATM   61  H2  UNL     1     -13.881  14.769  69.726  1.00  0.00     0.000 HD 
ENDBRANCH  47  58
ENDBRANCH  44  45
ENDBRANCH  40  44
ENDBRANCH  29  30
ENDBRANCH  22  29
ENDBRANCH  18  19
ENDBRANCH   7  18
ENDBRANCH   2   5
TORSDOF 9
ENDMDL
MODEL      243
REMARK 921   NORMALIZED FREE ENERGY PREDICTED BY IDOCK:   -2.13 KCAL/MOL
REMARK 922        TOTAL FREE ENERGY PREDICTED BY IDOCK:   -6.06 KCAL/MOL
REMARK 923 INTER-LIGAND FREE ENERGY PREDICTED BY IDOCK:   -5.47 KCAL/MOL
REMARK 924 INTRA-LIGAND FREE ENERGY PREDICTED BY IDOCK:   -0.60 KCAL/MOL
REMARK 927      BINDING AFFINITY PREDICTED BY RF-SCORE:    0.00 PKD
ROOT
HETATM    1  N   UNL     1      -9.702  17.803  67.225  1.00  0.00    -0.277 NA 
HETATM    2  C   UNL     1      -9.419  16.388  67.480  1.00  0.00    -0.224 C  
HETATM    3  H1  UNL     1     -10.682  18.075  67.305  1.00  0.00     0.000 HD 
HETATM    4  H2  UNL     1      -9.339  18.073  66.312  1.00  0.00     0.000 HD 
ENDROOT
BRANCH   2   5
HETATM    5  C   UNL     1      -7.929  15.974  67.358  1.00  0.00    -0.159 C  
HETATM    6  O   UNL     1      -7.548  14.894  68.250  1.00  0.00    -0.104 OA 
HETATM    7  C   UNL     1      -6.194  14.483  67.991  1.00  0.00    -0.154 C  
HETATM    8  C   UNL     1      -5.201  15.654  68.286  1.00  0.00    -0.108 C  
HETATM    9  O   UNL     1      -7.357  17.708  68.973  1.00  0.00    -0.254 OA 
HETATM   10  H   UNL     1      -6.828  18.478  69.152  1.00  0.00     0.000 HD 
HETATM   11  N   UNL     1      -5.162  15.950  69.756  1.00  0.00    -0.112 NA 
HETATM   12  C   UNL     1      -5.579  16.899  67.484  1.00  0.00    -0.147 C  
HETATM   13  H2  UNL     1      -4.943  15.119  70.306  1.00  0.00     0.000 HD 
HETATM   14  O   UNL     1      -5.240  16.768  66.097  1.00  0.00    -0.287 OA 
HETATM   15  C   UNL     1      -7.068  17.228  67.650  1.00  0.00    -0.164 C  
HETATM   16  H1  UNL     1      -4.515  16.714  69.948  1.00  0.00     0.000 HD 
HETATM   17  H   UNL     1      -5.476  17.542  65.598  1.00  0.00     0.000 HD 
BRANCH   7  18
HETATM   18  O   UNL     1      -5.723  13.472  68.865  1.00  0.00    -0.071 OA 
BRANCH  18  19
HETATM   19  C   UNL     1      -6.066  12.111  68.639  1.00  0.00    -0.057 C  
HETATM   20  O   UNL     1      -8.267  12.735  69.600  1.00  0.00     0.539 OA 
HETATM   21  C   UNL     1      -6.014  12.025  67.109  1.00  0.00    -0.153 C  
HETATM   22  C   UNL     1      -8.135  11.298  67.625  1.00  0.00    -0.119 C  
HETATM   23  H   UNL     1      -9.155  12.470  69.812  1.00  0.00     0.000 HD 
HETATM   24  O   UNL     1      -7.374  12.007  66.646  1.00  0.00    -0.028 OA 
HETATM   25  C   UNL     1      -7.507  11.679  68.984  1.00  0.00    -0.051 C  
BRANCH  21  26
HETATM   26  C   UNL     1      -5.212  10.833  66.580  1.00  0.00    -0.064 C  
HETATM   27  H   UNL     1      -5.308   9.514  65.097  1.00  0.00     0.000 HD 
HETATM   28  O   UNL     1      -5.805  10.254  65.425  1.00  0.00    -0.087 OA 
ENDBRANCH  21  26
BRANCH  22  29
HETATM   29  O   UNL     1      -8.075   9.887  67.379  1.00  0.00    -0.112 OA 
BRANCH  29  30
HETATM   30  C   UNL     1      -8.336   8.992  68.514  1.00  0.00    -0.124 C  
HETATM   31  C   UNL     1      -7.414   7.747  68.453  1.00  0.00    -0.104 C  
HETATM   32  O   UNL     1      -6.197   8.032  69.178  1.00  0.00    -0.037 OA 
HETATM   33  C   UNL     1      -7.946   6.404  68.981  1.00  0.00    -0.111 C  
HETATM   34  C   UNL     1      -9.456   6.270  68.908  1.00  0.00    -0.130 C  
HETATM   35  N   UNL     1      -7.339   5.287  68.212  1.00  0.00    -0.071 NA 
HETATM   36  H   UNL     1      -5.632   7.269  69.140  1.00  0.00     0.000 HD 
HETATM   37  H1  UNL     1      -7.692   4.397  68.563  1.00  0.00     0.000 HD 
HETATM   38  H2  UNL     1      -6.320   5.325  68.219  1.00  0.00     0.000 HD 
HETATM   39  C   UNL     1     -10.124   7.470  69.578  1.00  0.00    -0.189 C  
HETATM   40  C   UNL     1      -9.853   8.752  68.750  1.00  0.00    -0.171 C  
HETATM   41  N   UNL     1     -11.572   7.196  69.697  1.00  0.00    -0.531 NA 
HETATM   42  H2  UNL     1     -11.766   6.320  70.181  1.00  0.00     0.000 HD 
HETATM   43  H1  UNL     1     -12.017   7.998  70.145  1.00  0.00     0.000 HD 
BRANCH  40  44
HETATM   44  O   UNL     1     -10.470   9.854  69.461  1.00  0.00    -0.210 OA 
BRANCH  44  45
HETATM   45  C   UNL     1     -11.777  10.222  69.011  1.00  0.00    -0.012 C  
HETATM   46  O   UNL     1     -12.456  11.035  69.970  1.00  0.00    -0.305 OA 
HETATM   47  C   UNL     1     -11.833  12.309  70.185  1.00  0.00    -0.272 C  
HETATM   48  C   UNL     1     -11.731  13.118  68.883  1.00  0.00    -0.326 C  
HETATM   49  H1  UNL     1     -10.914  10.593  65.701  1.00  0.00     0.000 HD 
HETATM   50  O   UNL     1     -11.063  14.373  69.072  1.00  0.00    -0.241 OA 
HETATM   51  H2  UNL     1     -11.422   9.211  66.506  1.00  0.00     0.000 HD 
HETATM   52  C   UNL     1     -10.985  12.300  67.819  1.00  0.00    -0.232 C  
HETATM   53  H   UNL     1     -11.000  14.873  68.267  1.00  0.00     0.000 HD 
HETATM   54  O   UNL     1     -10.980  13.017  66.573  1.00  0.00    -0.279 OA 
HETATM   55  C   UNL     1     -11.674  10.935  67.634  1.00  0.00     0.081 C  
HETATM   56  N   UNL     1     -10.981  10.125  66.604  1.00  0.00    -0.013 NA 
HETATM   57  H   UNL     1     -10.519  12.511  65.915  1.00  0.00     0.000 HD 
BRANCH  47  58
HETATM   58  C   UNL     1     -12.604  13.045  71.304  1.00  0.00    -0.279 C  
HETATM   59  H1  UNL     1     -13.237  12.782  73.297  1.00  0.00     0.000 HD 
HETATM   60  N   UNL     1     -12.727  12.296  72.559  1.00  0.00     0.282 NA 
HETATM   61  H2  UNL     1     -11.806  12.011  72.893  1.00  0.00     0.000 HD 
ENDBRANCH  47  58
ENDBRANCH  44  45
ENDBRANCH  40  44
ENDBRANCH  29  30
ENDBRANCH  22  29
ENDBRANCH  18  19
ENDBRANCH   7  18
ENDBRANCH   2   5
TORSDOF 9
ENDMDL
MODEL      244
REMARK 921   NORMALIZED FREE ENERGY PREDICTED BY IDOCK:   -2.10 KCAL/MOL
REMARK 922        TOTAL FREE ENERGY PREDICTED BY IDOCK:   -6.02 KCAL/MOL
REMARK 923 INTER-LIGAND FREE ENERGY PREDICTED BY IDOCK:   -6.02 KCAL/MOL
REMARK 924 INTRA-LIGAND FREE ENERGY PREDICTED BY IDOCK:    0.01 KCAL/MOL
REMARK 927      BINDING AFFINITY PREDICTED BY RF-SCORE:    0.00 PKD
ROOT
HETATM    1  N   UNL     1      -8.892   4.377  70.241  1.00  0.00    -0.077 NA 
HETATM    2  C   UNL     1      -7.784   4.531  69.294  1.00  0.00    -0.055 C  
HETATM    3  H1  UNL     1      -8.792   3.617  70.913  1.00  0.00     0.000 HD 
HETATM    4  H2  UNL     1      -9.773   4.282  69.735  1.00  0.00     0.000 HD 
ENDROOT
BRANCH   2   5
HETATM    5  C   UNL     1      -7.937   5.687  68.271  1.00  0.00    -0.100 C  
HETATM    6  O   UNL     1      -7.768   7.007  68.851  1.00  0.00    -0.105 OA 
HETATM    7  C   UNL     1      -7.797   8.014  67.825  1.00  0.00    -0.126 C  
HETATM    8  C   UNL     1      -9.191   8.033  67.116  1.00  0.00    -0.142 C  
HETATM    9  O   UNL     1     -10.343   5.662  68.662  1.00  0.00    -0.184 OA 
HETATM   10  H   UNL     1     -11.207   5.589  68.271  1.00  0.00     0.000 HD 
HETATM   11  N   UNL     1     -10.252   8.517  68.060  1.00  0.00    -0.204 NA 
HETATM   12  C   UNL     1      -9.535   6.650  66.564  1.00  0.00    -0.152 C  
HETATM   13  H2  UNL     1     -10.018   9.425  68.461  1.00  0.00     0.000 HD 
HETATM   14  O   UNL     1      -8.778   6.337  65.387  1.00  0.00    -0.265 OA 
HETATM   15  C   UNL     1      -9.344   5.568  67.634  1.00  0.00    -0.112 C  
HETATM   16  H1  UNL     1     -11.160   8.528  67.597  1.00  0.00     0.000 HD 
HETATM   17  H   UNL     1      -8.992   5.477  65.043  1.00  0.00     0.000 HD 
BRANCH   7  18
HETATM   18  O   UNL     1      -7.701   9.339  68.317  1.00  0.00    -0.086 OA 
BRANCH  18  19
HETATM   19  C   UNL     1      -8.009  10.442  67.475  1.00  0.00    -0.106 C  
HETATM   20  O   UNL     1      -9.039  11.424  69.508  1.00  0.00    -0.202 OA 
HETATM   21  C   UNL     1      -6.611  10.967  67.124  1.00  0.00    -0.089 C  
HETATM   22  C   UNL     1      -7.676  12.802  68.015  1.00  0.00    -0.137 C  
HETATM   23  H   UNL     1      -9.468  12.171  69.909  1.00  0.00     0.000 HD 
HETATM   24  O   UNL     1      -6.406  12.159  67.901  1.00  0.00    -0.063 OA 
HETATM   25  C   UNL     1      -8.706  11.655  68.127  1.00  0.00    -0.159 C  
BRANCH  21  26
HETATM   26  C   UNL     1      -6.398  11.215  65.628  1.00  0.00     0.201 C  
HETATM   27  H   UNL     1      -5.092  10.731  64.210  1.00  0.00     0.000 HD 
HETATM   28  O   UNL     1      -5.225  10.578  65.138  1.00  0.00    -0.101 OA 
ENDBRANCH  21  26
BRANCH  22  29
HETATM   29  O   UNL     1      -7.918  13.637  66.875  1.00  0.00    -0.013 OA 
BRANCH  29  30
HETATM   30  C   UNL     1      -8.845  14.763  67.047  1.00  0.00    -0.237 C  
HETATM   31  C   UNL     1      -8.559  15.872  66.001  1.00  0.00    -0.095 C  
HETATM   32  O   UNL     1      -9.355  15.618  64.823  1.00  0.00     0.299 OA 
HETATM   33  C   UNL     1      -8.796  17.339  66.395  1.00  0.00    -0.246 C  
HETATM   34  C   UNL     1      -8.661  17.606  67.883  1.00  0.00    -0.245 C  
HETATM   35  N   UNL     1      -7.835  18.213  65.674  1.00  0.00    -0.472 NA 
HETATM   36  H   UNL     1      -9.180  16.297  64.183  1.00  0.00     0.000 HD 
HETATM   37  H1  UNL     1      -7.993  19.186  65.935  1.00  0.00     0.000 HD 
HETATM   38  H2  UNL     1      -7.874  18.076  64.664  1.00  0.00     0.000 HD 
HETATM   39  C   UNL     1      -9.541  16.638  68.673  1.00  0.00    -0.248 C  
HETATM   40  C   UNL     1      -8.992  15.195  68.532  1.00  0.00    -0.186 C  
HETATM   41  N   UNL     1      -9.568  17.073  70.086  1.00  0.00     1.185 NA 
HETATM   42  H2  UNL     1      -9.862  18.044  70.191  1.00  0.00     0.000 HD 
HETATM   43  H1  UNL     1     -10.155  16.426  70.613  1.00  0.00     0.000 HD 
BRANCH  40  44
HETATM   44  O   UNL     1      -9.893  14.326  69.262  1.00  0.00    -0.057 OA 
BRANCH  44  45
HETATM   45  C   UNL     1     -11.280  14.471  68.943  1.00  0.00    -0.262 C  
HETATM   46  O   UNL     1     -11.574  13.986  67.631  1.00  0.00    -0.313 OA 
HETATM   47  C   UNL     1     -11.369  12.573  67.484  1.00  0.00    -0.312 C  
HETATM   48  C   UNL     1     -12.223  11.770  68.477  1.00  0.00     0.153 C  
HETATM   49  H1  UNL     1     -12.441  13.761  72.104  1.00  0.00     0.000 HD 
HETATM   50  O   UNL     1     -11.990  10.358  68.377  1.00  0.00    -0.759 OA 
HETATM   51  H2  UNL     1     -11.987  15.243  71.459  1.00  0.00     0.000 HD 
HETATM   52  C   UNL     1     -11.929  12.233  69.911  1.00  0.00    -0.306 C  
HETATM   53  H   UNL     1     -12.518   9.861  68.991  1.00  0.00     0.000 HD 
HETATM   54  O   UNL     1     -12.801  11.552  70.828  1.00  0.00    -0.245 OA 
HETATM   55  C   UNL     1     -12.142  13.754  70.020  1.00  0.00    -0.349 C  
HETATM   56  N   UNL     1     -11.875  14.231  71.398  1.00  0.00    -0.210 NA 
HETATM   57  H   UNL     1     -12.619  11.838  71.715  1.00  0.00     0.000 HD 
BRANCH  47  58
HETATM   58  C   UNL     1     -11.630  12.196  66.008  1.00  0.00    -0.358 C  
HETATM   59  H1  UNL     1     -12.670  12.879  64.307  1.00  0.00     0.000 HD 
HETATM   60  N   UNL     1     -12.498  13.129  65.282  1.00  0.00    -0.481 NA 
HETATM   61  H2  UNL     1     -12.130  14.078  65.345  1.00  0.00     0.000 HD 
ENDBRANCH  47  58
ENDBRANCH  44  45
ENDBRANCH  40  44
ENDBRANCH  29  30
ENDBRANCH  22  29
ENDBRANCH  18  19
ENDBRANCH   7  18
ENDBRANCH   2   5
TORSDOF 9
ENDMDL
MODEL      245
REMARK 921   NORMALIZED FREE ENERGY PREDICTED BY IDOCK:   -1.97 KCAL/MOL
REMARK 922        TOTAL FREE ENERGY PREDICTED BY IDOCK:   -5.82 KCAL/MOL
REMARK 923 INTER-LIGAND FREE ENERGY PREDICTED BY IDOCK:   -6.45 KCAL/MOL
REMARK 924 INTRA-LIGAND FREE ENERGY PREDICTED BY IDOCK:    0.63 KCAL/MOL
REMARK 927      BINDING AFFINITY PREDICTED BY RF-SCORE:    0.00 PKD
ROOT
HETATM    1  N   UNL     1     -10.814   5.482  71.110  1.00  0.00    -0.214 NA 
HETATM    2  C   UNL     1     -11.297   6.649  70.366  1.00  0.00    -0.365 C  
HETATM    3  H1  UNL     1     -11.507   5.019  71.697  1.00  0.00     0.000 HD 
HETATM    4  H2  UNL     1      -9.999   5.737  71.668  1.00  0.00     0.000 HD 
ENDROOT
BRANCH   2   5
HETATM    5  C   UNL     1     -10.242   7.354  69.474  1.00  0.00    -0.204 C  
HETATM    6  O   UNL     1     -10.819   8.165  68.417  1.00  0.00    -0.070 OA 
HETATM    7  C   UNL     1      -9.789   8.884  67.717  1.00  0.00    -0.166 C  
HETATM    8  C   UNL     1      -8.812   7.889  67.009  1.00  0.00    -0.130 C  
HETATM    9  O   UNL     1     -10.139   5.354  68.084  1.00  0.00    -0.156 OA 
HETATM   10  H   UNL     1      -9.584   4.681  67.707  1.00  0.00     0.000 HD 
HETATM   11  N   UNL     1      -9.513   7.175  65.890  1.00  0.00    -0.393 NA 
HETATM   12  C   UNL     1      -8.229   6.896  68.014  1.00  0.00    -0.115 C  
HETATM   13  H2  UNL     1      -9.935   7.827  65.229  1.00  0.00     0.000 HD 
HETATM   14  O   UNL     1      -7.235   7.501  68.852  1.00  0.00    -0.077 OA 
HETATM   15  C   UNL     1      -9.337   6.257  68.861  1.00  0.00    -0.128 C  
HETATM   16  H1  UNL     1      -8.876   6.526  65.428  1.00  0.00     0.000 HD 
HETATM   17  H   UNL     1      -6.872   6.884  69.477  1.00  0.00     0.000 HD 
BRANCH   7  18
HETATM   18  O   UNL     1     -10.263   9.654  66.627  1.00  0.00    -0.234 OA 
BRANCH  18  19
HETATM   19  C   UNL     1     -10.551  11.036  66.795  1.00  0.00    -0.266 C  
HETATM   20  O   UNL     1      -9.565  10.742  69.053  1.00  0.00    -0.197 OA 
HETATM   21  C   UNL     1      -9.629  11.676  65.750  1.00  0.00    -0.232 C  
HETATM   22  C   UNL     1      -9.036  12.719  67.713  1.00  0.00    -0.197 C  
HETATM   23  H   UNL     1      -9.296  11.145  69.870  1.00  0.00     0.000 HD 
HETATM   24  O   UNL     1      -8.523  12.251  66.466  1.00  0.00    -0.115 OA 
HETATM   25  C   UNL     1     -10.115  11.692  68.122  1.00  0.00    -0.196 C  
BRANCH  21  26
HETATM   26  C   UNL     1     -10.325  12.702  64.851  1.00  0.00    -0.308 C  
HETATM   27  H   UNL     1     -11.293  12.748  63.117  1.00  0.00     0.000 HD 
HETATM   28  O   UNL     1     -10.861  12.112  63.674  1.00  0.00    -0.386 OA 
ENDBRANCH  21  26
BRANCH  22  29
HETATM   29  O   UNL     1      -9.575  14.040  67.568  1.00  0.00    -0.218 OA 
BRANCH  29  30
HETATM   30  C   UNL     1      -9.905  14.774  68.796  1.00  0.00    -0.227 C  
HETATM   31  C   UNL     1     -11.292  14.340  69.338  1.00  0.00    -0.282 C  
HETATM   32  O   UNL     1     -11.112  13.235  70.250  1.00  0.00    -0.283 OA 
HETATM   33  C   UNL     1     -12.163  15.381  70.060  1.00  0.00    -0.361 C  
HETATM   34  C   UNL     1     -11.898  16.812  69.628  1.00  0.00     0.967 C  
HETATM   35  N   UNL     1     -13.599  15.081  69.829  1.00  0.00     0.494 NA 
HETATM   36  H   UNL     1     -11.962  12.970  70.581  1.00  0.00     0.000 HD 
HETATM   37  H1  UNL     1     -14.177  15.771  70.309  1.00  0.00     0.000 HD 
HETATM   38  H2  UNL     1     -13.840  14.127  70.097  1.00  0.00     0.000 HD 
HETATM   39  C   UNL     1     -10.406  17.124  69.729  1.00  0.00     0.099 C  
HETATM   40  C   UNL     1      -9.624  16.297  68.676  1.00  0.00    -0.237 C  
HETATM   41  N   UNL     1     -10.215  18.577  69.529  1.00  0.00    -0.221 NA 
HETATM   42  H2  UNL     1     -10.776  19.138  70.170  1.00  0.00     0.000 HD 
HETATM   43  H1  UNL     1      -9.219  18.785  69.596  1.00  0.00     0.000 HD 
BRANCH  40  44
HETATM   44  O   UNL     1      -8.219  16.603  68.856  1.00  0.00    -0.235 OA 
BRANCH  44  45
HETATM   45  C   UNL     1      -7.452  16.706  67.653  1.00  0.00    -0.150 C  
HETATM   46  O   UNL     1      -8.275  16.581  66.491  1.00  0.00    -0.239 OA 
HETATM   47  C   UNL     1      -9.225  17.646  66.344  1.00  0.00    -0.244 C  
HETATM   48  C   UNL     1      -8.534  19.016  66.276  1.00  0.00    -0.280 C  
HETATM   49  H1  UNL     1      -5.271  19.094  68.829  1.00  0.00     0.000 HD 
HETATM   50  O   UNL     1      -9.474  20.095  66.182  1.00  0.00    -0.533 OA 
HETATM   51  H2  UNL     1      -5.156  17.422  68.934  1.00  0.00     0.000 HD 
HETATM   52  C   UNL     1      -7.652  19.217  67.518  1.00  0.00    -0.237 C  
HETATM   53  H   UNL     1      -9.046  20.943  66.140  1.00  0.00     0.000 HD 
HETATM   54  O   UNL     1      -6.930  20.455  67.402  1.00  0.00    -0.255 OA 
HETATM   55  C   UNL     1      -6.663  18.044  67.648  1.00  0.00    -0.186 C  
HETATM   56  N   UNL     1      -5.789  18.215  68.833  1.00  0.00    -0.200 NA 
HETATM   57  H   UNL     1      -6.384  20.579  68.170  1.00  0.00     0.000 HD 
BRANCH  47  58
HETATM   58  C   UNL     1     -10.107  17.344  65.112  1.00  0.00     0.838 C  
HETATM   59  H1  UNL     1     -11.520  15.941  64.419  1.00  0.00     0.000 HD 
HETATM   60  N   UNL     1     -10.938  16.140  65.233  1.00  0.00    -0.313 NA 
HETATM   61  H2  UNL     1     -11.511  16.189  66.076  1.00  0.00     0.000 HD 
ENDBRANCH  47  58
ENDBRANCH  44  45
ENDBRANCH  40  44
ENDBRANCH  29  30
ENDBRANCH  22  29
ENDBRANCH  18  19
ENDBRANCH   7  18
ENDBRANCH   2   5
TORSDOF 9
ENDMDL
MODEL      246
REMARK 921   NORMALIZED FREE ENERGY PREDICTED BY IDOCK:   -1.91 KCAL/MOL
REMARK 922        TOTAL FREE ENERGY PREDICTED BY IDOCK:   -5.73 KCAL/MOL
REMARK 923 INTER-LIGAND FREE ENERGY PREDICTED BY IDOCK:   -6.44 KCAL/MOL
REMARK 924 INTRA-LIGAND FREE ENERGY PREDICTED BY IDOCK:    0.71 KCAL/MOL
REMARK 927      BINDING AFFINITY PREDICTED BY RF-SCORE:    0.00 PKD
ROOT
HETATM    1  N   UNL     1     -13.366   6.142  70.884  1.00  0.00     1.586 NA 
HETATM    2  C   UNL     1     -12.136   6.690  71.462  1.00  0.00    -0.355 C  
HETATM    3  H1  UNL     1     -14.233   6.459  71.317  1.00  0.00     0.000 HD 
HETATM    4  H2  UNL     1     -13.328   5.123  70.883  1.00  0.00     0.000 HD 
ENDROOT
BRANCH   2   5
HETATM    5  C   UNL     1     -10.817   6.207  70.802  1.00  0.00    -0.288 C  
HETATM    6  O   UNL     1      -9.859   7.272  70.564  1.00  0.00    -0.183 OA 
HETATM    7  C   UNL     1      -8.621   6.732  70.071  1.00  0.00    -0.141 C  
HETATM    8  C   UNL     1      -8.840   6.035  68.688  1.00  0.00    -0.109 C  
HETATM    9  O   UNL     1     -11.865   6.461  68.616  1.00  0.00    -0.327 OA 
HETATM   10  H   UNL     1     -12.091   6.041  67.794  1.00  0.00     0.000 HD 
HETATM   11  N   UNL     1      -9.179   7.051  67.638  1.00  0.00    -0.121 NA 
HETATM   12  C   UNL     1      -9.926   4.965  68.788  1.00  0.00    -0.136 C  
HETATM   13  H2  UNL     1      -8.478   7.791  67.584  1.00  0.00     0.000 HD 
HETATM   14  O   UNL     1      -9.463   3.791  69.469  1.00  0.00    -0.166 OA 
HETATM   15  C   UNL     1     -11.186   5.522  69.463  1.00  0.00     0.398 C  
HETATM   16  H1  UNL     1      -9.322   6.597  66.736  1.00  0.00     0.000 HD 
HETATM   17  H   UNL     1     -10.138   3.125  69.531  1.00  0.00     0.000 HD 
BRANCH   7  18
HETATM   18  O   UNL     1      -7.651   7.715  69.754  1.00  0.00    -0.088 OA 
BRANCH  18  19
HETATM   19  C   UNL     1      -7.910   8.680  68.743  1.00  0.00    -0.106 C  
HETATM   20  O   UNL     1      -8.436  10.197  70.636  1.00  0.00    -0.325 OA 
HETATM   21  C   UNL     1      -6.520   8.860  68.120  1.00  0.00    -0.060 C  
HETATM   22  C   UNL     1      -7.125  10.995  68.730  1.00  0.00    -0.086 C  
HETATM   23  H   UNL     1      -8.672  11.072  70.921  1.00  0.00     0.000 HD 
HETATM   24  O   UNL     1      -6.008  10.115  68.598  1.00  0.00    -0.041 OA 
HETATM   25  C   UNL     1      -8.293  10.102  69.207  1.00  0.00    -0.158 C  
BRANCH  21  26
HETATM   26  C   UNL     1      -6.509   8.782  66.591  1.00  0.00    -0.063 C  
HETATM   27  H   UNL     1      -6.687   7.405  65.169  1.00  0.00     0.000 HD 
HETATM   28  O   UNL     1      -6.694   7.454  66.118  1.00  0.00    -0.051 OA 
ENDBRANCH  21  26
BRANCH  22  29
HETATM   29  O   UNL     1      -7.409  11.634  67.479  1.00  0.00    -0.103 OA 
BRANCH  29  30
HETATM   30  C   UNL     1      -7.472  13.101  67.469  1.00  0.00    -0.160 C  
HETATM   31  C   UNL     1      -6.208  13.708  68.132  1.00  0.00    -0.117 C  
HETATM   32  O   UNL     1      -5.202  13.914  67.116  1.00  0.00    -0.152 OA 
HETATM   33  C   UNL     1      -6.341  15.030  68.907  1.00  0.00    -0.090 C  
HETATM   34  C   UNL     1      -7.725  15.269  69.483  1.00  0.00    -0.212 C  
HETATM   35  N   UNL     1      -5.359  15.058  70.021  1.00  0.00    -0.106 NA 
HETATM   36  H   UNL     1      -4.428  14.286  67.522  1.00  0.00     0.000 HD 
HETATM   37  H1  UNL     1      -5.447  15.935  70.534  1.00  0.00     0.000 HD 
HETATM   38  H2  UNL     1      -4.405  14.898  69.696  1.00  0.00     0.000 HD 
HETATM   39  C   UNL     1      -8.782  15.121  68.390  1.00  0.00    -0.169 C  
HETATM   40  C   UNL     1      -8.855  13.644  67.925  1.00  0.00    -0.188 C  
HETATM   41  N   UNL     1     -10.080  15.586  68.926  1.00  0.00    -0.205 NA 
HETATM   42  H2  UNL     1     -10.032  16.534  69.299  1.00  0.00     0.000 HD 
HETATM   43  H1  UNL     1     -10.786  15.487  68.196  1.00  0.00     0.000 HD 
BRANCH  40  44
HETATM   44  O   UNL     1      -9.837  13.582  66.862  1.00  0.00    -0.243 OA 
BRANCH  44  45
HETATM   45  C   UNL     1     -11.078  14.241  67.132  1.00  0.00    -0.311 C  
HETATM   46  O   UNL     1     -11.188  15.473  66.417  1.00  0.00    -0.240 OA 
HETATM   47  C   UNL     1     -11.230  15.307  64.992  1.00  0.00    -0.403 C  
HETATM   48  C   UNL     1     -12.403  14.415  64.559  1.00  0.00    -0.418 C  
HETATM   49  H1  UNL     1     -12.966  11.369  67.312  1.00  0.00     0.000 HD 
HETATM   50  O   UNL     1     -12.427  14.197  63.142  1.00  0.00    -1.126 OA 
HETATM   51  H2  UNL     1     -12.119  12.148  68.533  1.00  0.00     0.000 HD 
HETATM   52  C   UNL     1     -12.322  13.061  65.280  1.00  0.00    -0.486 C  
HETATM   53  H   UNL     1     -13.153  13.645  62.874  1.00  0.00     0.000 HD 
HETATM   54  O   UNL     1     -13.475  12.268  64.951  1.00  0.00    -0.361 OA 
HETATM   55  C   UNL     1     -12.259  13.286  66.802  1.00  0.00    -0.280 C  
HETATM   56  N   UNL     1     -12.191  11.995  67.528  1.00  0.00    -0.378 NA 
HETATM   57  H   UNL     1     -13.424  11.431  65.397  1.00  0.00     0.000 HD 
BRANCH  47  58
HETATM   58  C   UNL     1     -11.254  16.708  64.340  1.00  0.00     0.227 C  
HETATM   59  H1  UNL     1     -11.282  18.751  64.860  1.00  0.00     0.000 HD 
HETATM   60  N   UNL     1     -11.266  17.826  65.291  1.00  0.00    -0.103 NA 
HETATM   61  H2  UNL     1     -10.480  17.750  65.937  1.00  0.00     0.000 HD 
ENDBRANCH  47  58
ENDBRANCH  44  45
ENDBRANCH  40  44
ENDBRANCH  29  30
ENDBRANCH  22  29
ENDBRANCH  18  19
ENDBRANCH   7  18
ENDBRANCH   2   5
TORSDOF 9
ENDMDL
MODEL      247
REMARK 921   NORMALIZED FREE ENERGY PREDICTED BY IDOCK:   -1.84 KCAL/MOL
REMARK 922        TOTAL FREE ENERGY PREDICTED BY IDOCK:   -5.61 KCAL/MOL
REMARK 923 INTER-LIGAND FREE ENERGY PREDICTED BY IDOCK:   -6.43 KCAL/MOL
REMARK 924 INTRA-LIGAND FREE ENERGY PREDICTED BY IDOCK:    0.82 KCAL/MOL
REMARK 927      BINDING AFFINITY PREDICTED BY RF-SCORE:    0.00 PKD
ROOT
HETATM    1  N   UNL     1      -8.233   4.093  69.882  1.00  0.00    -0.057 NA 
HETATM    2  C   UNL     1      -8.463   3.203  68.741  1.00  0.00    -0.068 C  
HETATM    3  H1  UNL     1      -8.557   3.742  70.783  1.00  0.00     0.000 HD 
HETATM    4  H2  UNL     1      -8.640   5.010  69.698  1.00  0.00     0.000 HD 
ENDROOT
BRANCH   2   5
HETATM    5  C   UNL     1      -7.971   3.737  67.370  1.00  0.00    -0.090 C  
HETATM    6  O   UNL     1      -8.520   5.033  67.016  1.00  0.00    -0.107 OA 
HETATM    7  C   UNL     1      -7.923   5.517  65.800  1.00  0.00    -0.108 C  
HETATM    8  C   UNL     1      -8.265   4.565  64.607  1.00  0.00    -0.109 C  
HETATM    9  O   UNL     1      -9.779   2.511  66.288  1.00  0.00    -0.365 OA 
HETATM   10  H   UNL     1     -10.015   1.869  65.628  1.00  0.00     0.000 HD 
HETATM   11  N   UNL     1      -9.729   4.635  64.286  1.00  0.00    -0.359 NA 
HETATM   12  C   UNL     1      -7.838   3.132  64.918  1.00  0.00    -0.082 C  
HETATM   13  H2  UNL     1     -10.035   5.592  64.108  1.00  0.00     0.000 HD 
HETATM   14  O   UNL     1      -6.416   2.964  64.833  1.00  0.00    -0.032 OA 
HETATM   15  C   UNL     1      -8.354   2.691  66.294  1.00  0.00    -0.092 C  
HETATM   16  H1  UNL     1      -9.953   4.014  63.508  1.00  0.00     0.000 HD 
HETATM   17  H   UNL     1      -6.150   2.072  65.026  1.00  0.00     0.000 HD 
BRANCH   7  18
HETATM   18  O   UNL     1      -8.451   6.752  65.351  1.00  0.00    -0.145 OA 
BRANCH  18  19
HETATM   19  C   UNL     1      -8.335   7.918  66.155  1.00  0.00    -0.127 C  
HETATM   20  O   UNL     1      -6.221   6.890  66.952  1.00  0.00    -0.037 OA 
HETATM   21  C   UNL     1      -8.177   9.015  65.095  1.00  0.00    -0.145 C  
HETATM   22  C   UNL     1      -6.324   9.279  66.433  1.00  0.00    -0.066 C  
HETATM   23  H   UNL     1      -5.438   6.975  67.483  1.00  0.00     0.000 HD 
HETATM   24  O   UNL     1      -6.790   9.392  65.088  1.00  0.00    -0.080 OA 
HETATM   25  C   UNL     1      -7.064   8.055  67.020  1.00  0.00    -0.082 C  
BRANCH  21  26
HETATM   26  C   UNL     1      -9.098  10.219  65.305  1.00  0.00    -0.191 C  
HETATM   27  H   UNL     1     -11.041  10.595  65.489  1.00  0.00     0.000 HD 
HETATM   28  O   UNL     1     -10.469   9.848  65.358  1.00  0.00    -0.110 OA 
ENDBRANCH  21  26
BRANCH  22  29
HETATM   29  O   UNL     1      -6.605  10.481  67.163  1.00  0.00    -0.070 OA 
BRANCH  29  30
HETATM   30  C   UNL     1      -7.138  10.336  68.523  1.00  0.00    -0.074 C  
HETATM   31  C   UNL     1      -6.541   9.084  69.216  1.00  0.00    -0.049 C  
HETATM   32  O   UNL     1      -5.335   9.467  69.912  1.00  0.00    -0.032 OA 
HETATM   33  C   UNL     1      -7.411   8.307  70.218  1.00  0.00    -0.055 C  
HETATM   34  C   UNL     1      -8.902   8.430  69.963  1.00  0.00    -0.137 C  
HETATM   35  N   UNL     1      -7.048   6.867  70.184  1.00  0.00    -0.069 NA 
HETATM   36  H   UNL     1      -4.970   8.700  70.336  1.00  0.00     0.000 HD 
HETATM   37  H1  UNL     1      -7.625   6.351  70.849  1.00  0.00     0.000 HD 
HETATM   38  H2  UNL     1      -6.052   6.718  70.344  1.00  0.00     0.000 HD 
HETATM   39  C   UNL     1      -9.298   9.902  69.862  1.00  0.00    -0.216 C  
HETATM   40  C   UNL     1      -8.680  10.526  68.585  1.00  0.00    -0.143 C  
HETATM   41  N   UNL     1     -10.774   9.992  69.850  1.00  0.00    -0.265 NA 
HETATM   42  H2  UNL     1     -11.201   9.526  70.650  1.00  0.00     0.000 HD 
HETATM   43  H1  UNL     1     -11.038  10.975  69.782  1.00  0.00     0.000 HD 
BRANCH  40  44
HETATM   44  O   UNL     1      -9.053  11.926  68.574  1.00  0.00    -0.184 OA 
BRANCH  44  45
HETATM   45  C   UNL     1      -8.434  12.720  67.558  1.00  0.00    -0.181 C  
HETATM   46  O   UNL     1      -9.283  12.875  66.418  1.00  0.00    -0.221 OA 
HETATM   47  C   UNL     1     -10.485  13.609  66.695  1.00  0.00    -0.272 C  
HETATM   48  C   UNL     1     -10.179  15.013  67.239  1.00  0.00    -0.242 C  
HETATM   49  H1  UNL     1      -6.862  14.889  69.718  1.00  0.00     0.000 HD 
HETATM   50  O   UNL     1     -11.371  15.740  67.570  1.00  0.00    -0.271 OA 
HETATM   51  H2  UNL     1      -6.310  13.423  69.113  1.00  0.00     0.000 HD 
HETATM   52  C   UNL     1      -9.287  14.907  68.484  1.00  0.00    -0.196 C  
HETATM   53  H   UNL     1     -11.182  16.608  67.906  1.00  0.00     0.000 HD 
HETATM   54  O   UNL     1      -8.920  16.224  68.930  1.00  0.00    -0.227 OA 
HETATM   55  C   UNL     1      -8.021  14.097  68.149  1.00  0.00    -0.143 C  
HETATM   56  N   UNL     1      -7.133  13.986  69.330  1.00  0.00    -0.059 NA 
HETATM   57  H   UNL     1      -8.368  16.158  69.700  1.00  0.00     0.000 HD 
BRANCH  47  58
HETATM   58  C   UNL     1     -11.351  13.623  65.416  1.00  0.00    -0.301 C  
HETATM   59  H1  UNL     1     -13.366  13.741  64.808  1.00  0.00     0.000 HD 
HETATM   60  N   UNL     1     -12.795  13.731  65.654  1.00  0.00    -0.576 NA 
HETATM   61  H2  UNL     1     -12.998  14.549  66.229  1.00  0.00     0.000 HD 
ENDBRANCH  47  58
ENDBRANCH  44  45
ENDBRANCH  40  44
ENDBRANCH  29  30
ENDBRANCH  22  29
ENDBRANCH  18  19
ENDBRANCH   7  18
ENDBRANCH   2   5
TORSDOF 9
ENDMDL
MODEL      248
REMARK 921   NORMALIZED FREE ENERGY PREDICTED BY IDOCK:   -1.82 KCAL/MOL
REMARK 922        TOTAL FREE ENERGY PREDICTED BY IDOCK:   -5.59 KCAL/MOL
REMARK 923 INTER-LIGAND FREE ENERGY PREDICTED BY IDOCK:   -7.92 KCAL/MOL
REMARK 924 INTRA-LIGAND FREE ENERGY PREDICTED BY IDOCK:    2.33 KCAL/MOL
REMARK 927      BINDING AFFINITY PREDICTED BY RF-SCORE:    0.00 PKD
ROOT
HETATM    1  N   UNL     1      -9.378   2.128  66.522  1.00  0.00    -0.358 NA 
HETATM    2  C   UNL     1      -9.525   3.422  67.196  1.00  0.00    -0.162 C  
HETATM    3  H1  UNL     1      -9.639   2.116  65.536  1.00  0.00     0.000 HD 
HETATM    4  H2  UNL     1      -9.895   1.410  67.028  1.00  0.00     0.000 HD 
ENDROOT
BRANCH   2   5
HETATM    5  C   UNL     1      -9.128   3.440  68.696  1.00  0.00    -0.150 C  
HETATM    6  O   UNL     1      -8.410   4.637  69.096  1.00  0.00    -0.079 OA 
HETATM    7  C   UNL     1      -8.190   4.639  70.517  1.00  0.00    -0.085 C  
HETATM    8  C   UNL     1      -7.282   3.435  70.932  1.00  0.00    -0.033 C  
HETATM    9  O   UNL     1      -7.090   2.228  68.131  1.00  0.00    -0.046 OA 
HETATM   10  H   UNL     1      -6.555   1.460  68.297  1.00  0.00     0.000 HD 
HETATM   11  N   UNL     1      -5.892   3.621  70.399  1.00  0.00    -0.017 NA 
HETATM   12  C   UNL     1      -7.883   2.115  70.452  1.00  0.00    -0.042 C  
HETATM   13  H2  UNL     1      -5.491   4.514  70.685  1.00  0.00     0.000 HD 
HETATM   14  O   UNL     1      -9.014   1.720  71.241  1.00  0.00    -0.059 OA 
HETATM   15  C   UNL     1      -8.257   2.188  68.967  1.00  0.00    -0.051 C  
HETATM   16  H1  UNL     1      -5.300   2.836  70.670  1.00  0.00     0.000 HD 
HETATM   17  H   UNL     1      -9.388   0.899  70.943  1.00  0.00     0.000 HD 
BRANCH   7  18
HETATM   18  O   UNL     1      -7.439   5.747  70.981  1.00  0.00    -0.085 OA 
BRANCH  18  19
HETATM   19  C   UNL     1      -7.478   6.985  70.284  1.00  0.00    -0.086 C  
HETATM   20  O   UNL     1      -9.941   6.789  70.522  1.00  0.00    -0.183 OA 
HETATM   21  C   UNL     1      -6.792   7.927  71.280  1.00  0.00    -0.046 C  
HETATM   22  C   UNL     1      -8.823   8.934  70.888  1.00  0.00    -0.219 C  
HETATM   23  H   UNL     1     -10.794   7.184  70.387  1.00  0.00     0.000 HD 
HETATM   24  O   UNL     1      -7.827   8.717  71.888  1.00  0.00    -0.271 OA 
HETATM   25  C   UNL     1      -8.864   7.627  70.064  1.00  0.00    -0.143 C  
BRANCH  21  26
HETATM   26  C   UNL     1      -5.695   8.796  70.660  1.00  0.00    -0.028 C  
HETATM   27  H   UNL     1      -4.769   9.004  68.915  1.00  0.00     0.000 HD 
HETATM   28  O   UNL     1      -5.448   8.465  69.300  1.00  0.00    -0.030 OA 
ENDBRANCH  21  26
BRANCH  22  29
HETATM   29  O   UNL     1      -8.484  10.070  70.082  1.00  0.00    -0.169 OA 
BRANCH  29  30
HETATM   30  C   UNL     1      -9.344  10.360  68.928  1.00  0.00    -0.186 C  
HETATM   31  C   UNL     1     -10.224   9.133  68.577  1.00  0.00    -0.198 C  
HETATM   32  O   UNL     1     -11.465   9.225  69.309  1.00  0.00    -0.427 OA 
HETATM   33  C   UNL     1     -10.588   8.879  67.105  1.00  0.00    -0.231 C  
HETATM   34  C   UNL     1      -9.576   9.431  66.117  1.00  0.00    -0.311 C  
HETATM   35  N   UNL     1     -10.726   7.419  66.868  1.00  0.00    -0.489 NA 
HETATM   36  H   UNL     1     -12.004   8.473  69.094  1.00  0.00     0.000 HD 
HETATM   37  H1  UNL     1     -10.968   7.251  65.891  1.00  0.00     0.000 HD 
HETATM   38  H2  UNL     1     -11.392   6.987  67.508  1.00  0.00     0.000 HD 
HETATM   39  C   UNL     1      -9.307  10.906  66.409  1.00  0.00    -0.176 C  
HETATM   40  C   UNL     1      -8.573  11.048  67.767  1.00  0.00    -0.130 C  
HETATM   41  N   UNL     1      -8.507  11.467  65.298  1.00  0.00    -0.371 NA 
HETATM   42  H2  UNL     1      -8.945  11.321  64.388  1.00  0.00     0.000 HD 
HETATM   43  H1  UNL     1      -8.328  12.452  65.493  1.00  0.00     0.000 HD 
BRANCH  40  44
HETATM   44  O   UNL     1      -8.392  12.466  68.003  1.00  0.00    -0.152 OA 
BRANCH  44  45
HETATM   45  C   UNL     1      -8.458  13.297  66.841  1.00  0.00    -0.060 C  
HETATM   46  O   UNL     1      -9.798  13.426  66.360  1.00  0.00    -0.283 OA 
HETATM   47  C   UNL     1     -10.673  14.102  67.275  1.00  0.00    -0.279 C  
HETATM   48  C   UNL     1     -10.164  15.513  67.608  1.00  0.00    -0.255 C  
HETATM   49  H1  UNL     1      -6.028  15.512  67.856  1.00  0.00     0.000 HD 
HETATM   50  O   UNL     1     -11.000  16.182  68.562  1.00  0.00    -0.302 OA 
HETATM   51  H2  UNL     1      -5.852  14.079  67.000  1.00  0.00     0.000 HD 
HETATM   52  C   UNL     1      -8.731  15.434  68.156  1.00  0.00    -0.161 C  
HETATM   53  H   UNL     1     -10.685  17.055  68.768  1.00  0.00     0.000 HD 
HETATM   54  O   UNL     1      -8.222  16.761  68.371  1.00  0.00    -0.205 OA 
HETATM   55  C   UNL     1      -7.832  14.685  67.154  1.00  0.00    -0.124 C  
HETATM   56  N   UNL     1      -6.438  14.602  67.651  1.00  0.00    -0.249 NA 
HETATM   57  H   UNL     1      -7.335  16.712  68.709  1.00  0.00     0.000 HD 
BRANCH  47  58
HETATM   58  C   UNL     1     -12.099  14.091  66.681  1.00  0.00    -0.456 C  
HETATM   59  H1  UNL     1     -13.366  12.892  65.497  1.00  0.00     0.000 HD 
HETATM   60  N   UNL     1     -12.424  12.899  65.889  1.00  0.00    -0.529 NA 
HETATM   61  H2  UNL     1     -12.263  12.055  66.439  1.00  0.00     0.000 HD 
ENDBRANCH  47  58
ENDBRANCH  44  45
ENDBRANCH  40  44
ENDBRANCH  29  30
ENDBRANCH  22  29
ENDBRANCH  18  19
ENDBRANCH   7  18
ENDBRANCH   2   5
TORSDOF 9
ENDMDL
MODEL      249
REMARK 921   NORMALIZED FREE ENERGY PREDICTED BY IDOCK:   -1.67 KCAL/MOL
REMARK 922        TOTAL FREE ENERGY PREDICTED BY IDOCK:   -5.36 KCAL/MOL
REMARK 923 INTER-LIGAND FREE ENERGY PREDICTED BY IDOCK:   -5.98 KCAL/MOL
REMARK 924 INTRA-LIGAND FREE ENERGY PREDICTED BY IDOCK:    0.63 KCAL/MOL
REMARK 927      BINDING AFFINITY PREDICTED BY RF-SCORE:    0.00 PKD
ROOT
HETATM    1  N   UNL     1     -12.396  15.300  71.988  1.00  0.00    -0.336 NA 
HETATM    2  C   UNL     1     -12.071  14.112  71.194  1.00  0.00    -0.314 C  
HETATM    3  H1  UNL     1     -12.530  15.137  72.985  1.00  0.00     0.000 HD 
HETATM    4  H2  UNL     1     -13.214  15.768  71.598  1.00  0.00     0.000 HD 
ENDROOT
BRANCH   2   5
HETATM    5  C   UNL     1     -11.867  14.360  69.676  1.00  0.00    -0.321 C  
HETATM    6  O   UNL     1     -11.365  13.204  68.957  1.00  0.00    -0.254 OA 
HETATM    7  C   UNL     1     -11.323  13.470  67.544  1.00  0.00    -0.308 C  
HETATM    8  C   UNL     1     -10.324  14.634  67.236  1.00  0.00    -0.256 C  
HETATM    9  O   UNL     1      -9.635  15.216  70.156  1.00  0.00    -0.466 OA 
HETATM   10  H   UNL     1      -9.030  15.942  70.061  1.00  0.00     0.000 HD 
HETATM   11  N   UNL     1      -8.915  14.201  67.515  1.00  0.00    -0.188 NA 
HETATM   12  C   UNL     1     -10.686  15.883  68.039  1.00  0.00    -0.301 C  
HETATM   13  H2  UNL     1      -8.672  13.348  67.011  1.00  0.00     0.000 HD 
HETATM   14  O   UNL     1     -11.843  16.544  67.512  1.00  0.00     0.438 OA 
HETATM   15  C   UNL     1     -10.881  15.545  69.522  1.00  0.00    -0.267 C  
HETATM   16  H1  UNL     1      -8.264  14.960  67.315  1.00  0.00     0.000 HD 
HETATM   17  H   UNL     1     -12.068  17.321  68.011  1.00  0.00     0.000 HD 
BRANCH   7  18
HETATM   18  O   UNL     1     -10.784  12.410  66.774  1.00  0.00    -0.228 OA 
BRANCH  18  19
HETATM   19  C   UNL     1      -9.697  11.640  67.272  1.00  0.00    -0.180 C  
HETATM   20  O   UNL     1     -11.458  10.174  68.224  1.00  0.00    -0.521 OA 
HETATM   21  C   UNL     1      -9.050  11.138  65.976  1.00  0.00    -0.203 C  
HETATM   22  C   UNL     1      -9.482   9.209  67.153  1.00  0.00    -0.154 C  
HETATM   23  H   UNL     1     -11.671   9.376  68.695  1.00  0.00     0.000 HD 
HETATM   24  O   UNL     1      -9.416   9.756  65.835  1.00  0.00    -0.188 OA 
HETATM   25  C   UNL     1     -10.041  10.345  68.038  1.00  0.00    -0.163 C  
BRANCH  21  26
HETATM   26  C   UNL     1      -7.533  11.339  65.920  1.00  0.00     0.193 C  
HETATM   27  H   UNL     1      -5.955  10.524  65.029  1.00  0.00     0.000 HD 
HETATM   28  O   UNL     1      -6.896  10.400  65.064  1.00  0.00    -0.126 OA 
ENDBRANCH  21  26
BRANCH  22  29
HETATM   29  O   UNL     1      -8.183   8.779  67.581  1.00  0.00    -0.109 OA 
BRANCH  29  30
HETATM   30  C   UNL     1      -7.977   7.338  67.770  1.00  0.00    -0.115 C  
HETATM   31  C   UNL     1      -7.887   6.990  69.279  1.00  0.00    -0.114 C  
HETATM   32  O   UNL     1      -9.213   6.691  69.768  1.00  0.00    -0.146 OA 
HETATM   33  C   UNL     1      -6.975   5.833  69.719  1.00  0.00    -0.066 C  
HETATM   34  C   UNL     1      -5.809   5.579  68.781  1.00  0.00    -0.019 C  
HETATM   35  N   UNL     1      -6.433   6.110  71.075  1.00  0.00    -0.047 NA 
HETATM   36  H   UNL     1      -9.157   6.478  70.692  1.00  0.00     0.000 HD 
HETATM   37  H1  UNL     1      -5.828   5.342  71.366  1.00  0.00     0.000 HD 
HETATM   38  H2  UNL     1      -7.172   6.295  71.753  1.00  0.00     0.000 HD 
HETATM   39  C   UNL     1      -6.313   5.415  67.348  1.00  0.00    -0.039 C  
HETATM   40  C   UNL     1      -6.879   6.763  66.833  1.00  0.00    -0.065 C  
HETATM   41  N   UNL     1      -5.193   4.940  66.507  1.00  0.00    -0.008 NA 
HETATM   42  H2  UNL     1      -4.764   4.089  66.871  1.00  0.00     0.000 HD 
HETATM   43  H1  UNL     1      -5.530   4.831  65.551  1.00  0.00     0.000 HD 
BRANCH  40  44
HETATM   44  O   UNL     1      -7.379   6.528  65.494  1.00  0.00    -0.071 OA 
BRANCH  44  45
HETATM   45  C   UNL     1      -7.357   5.166  65.059  1.00  0.00    -0.068 C  
HETATM   46  O   UNL     1      -7.977   4.298  66.010  1.00  0.00    -0.097 OA 
HETATM   47  C   UNL     1      -9.380   4.545  66.181  1.00  0.00    -0.156 C  
HETATM   48  C   UNL     1     -10.147   4.403  64.858  1.00  0.00    -0.118 C  
HETATM   49  H1  UNL     1      -7.857   5.855  61.725  1.00  0.00     0.000 HD 
HETATM   50  O   UNL     1     -11.543   4.699  65.003  1.00  0.00    -1.080 OA 
HETATM   51  H2  UNL     1      -6.411   5.761  62.573  1.00  0.00     0.000 HD 
HETATM   52  C   UNL     1      -9.537   5.336  63.801  1.00  0.00     0.798 C  
HETATM   53  H   UNL     1     -12.017   4.611  64.184  1.00  0.00     0.000 HD 
HETATM   54  O   UNL     1     -10.191   5.128  62.537  1.00  0.00    -0.102 OA 
HETATM   55  C   UNL     1      -8.031   5.051  63.663  1.00  0.00    -0.098 C  
HETATM   56  N   UNL     1      -7.415   5.931  62.640  1.00  0.00    -0.055 NA 
HETATM   57  H   UNL     1      -9.814   5.704  61.883  1.00  0.00     0.000 HD 
BRANCH  47  58
HETATM   58  C   UNL     1      -9.905   3.611  67.295  1.00  0.00     0.089 C  
HETATM   59  H1  UNL     1      -9.702   3.261  69.364  1.00  0.00     0.000 HD 
HETATM   60  N   UNL     1      -9.355   3.878  68.629  1.00  0.00    -0.156 NA 
HETATM   61  H2  UNL     1      -9.505   4.855  68.885  1.00  0.00     0.000 HD 
ENDBRANCH  47  58
ENDBRANCH  44  45
ENDBRANCH  40  44
ENDBRANCH  29  30
ENDBRANCH  22  29
ENDBRANCH  18  19
ENDBRANCH   7  18
ENDBRANCH   2   5
TORSDOF 9
ENDMDL
MODEL      250
REMARK 921   NORMALIZED FREE ENERGY PREDICTED BY IDOCK:   -1.61 KCAL/MOL
REMARK 922        TOTAL FREE ENERGY PREDICTED BY IDOCK:   -5.27 KCAL/MOL
REMARK 923 INTER-LIGAND FREE ENERGY PREDICTED BY IDOCK:   -4.50 KCAL/MOL
REMARK 924 INTRA-LIGAND FREE ENERGY PREDICTED BY IDOCK:   -0.77 KCAL/MOL
REMARK 927      BINDING AFFINITY PREDICTED BY RF-SCORE:    0.00 PKD
ROOT
HETATM    1  N   UNL     1     -12.597  14.362  70.755  1.00  0.00    -0.338 NA 
HETATM    2  C   UNL     1     -11.355  13.880  70.144  1.00  0.00    -0.000 C  
HETATM    3  H1  UNL     1     -12.500  14.763  71.687  1.00  0.00     0.000 HD 
HETATM    4  H2  UNL     1     -13.293  13.616  70.766  1.00  0.00     0.000 HD 
ENDROOT
BRANCH   2   5
HETATM    5  C   UNL     1     -11.503  13.269  68.726  1.00  0.00    -0.306 C  
HETATM    6  O   UNL     1     -10.273  12.702  68.203  1.00  0.00    -0.226 OA 
HETATM    7  C   UNL     1     -10.517  12.045  66.946  1.00  0.00    -0.223 C  
HETATM    8  C   UNL     1     -11.003  13.077  65.876  1.00  0.00    -0.271 C  
HETATM    9  O   UNL     1     -11.065  15.470  67.775  1.00  0.00    -0.306 OA 
HETATM   10  H   UNL     1     -11.376  16.157  67.196  1.00  0.00     0.000 HD 
HETATM   11  N   UNL     1      -9.896  14.026  65.524  1.00  0.00    -0.513 NA 
HETATM   12  C   UNL     1     -12.237  13.830  66.372  1.00  0.00    -0.436 C  
HETATM   13  H2  UNL     1      -9.054  13.534  65.223  1.00  0.00     0.000 HD 
HETATM   14  O   UNL     1     -13.416  13.016  66.333  1.00  0.00     1.277 OA 
HETATM   15  C   UNL     1     -12.009  14.388  67.783  1.00  0.00    -0.333 C  
HETATM   16  H1  UNL     1     -10.213  14.699  64.826  1.00  0.00     0.000 HD 
HETATM   17  H   UNL     1     -14.183  13.484  66.641  1.00  0.00     0.000 HD 
BRANCH   7  18
HETATM   18  O   UNL     1      -9.352  11.517  66.337  1.00  0.00    -0.197 OA 
BRANCH  18  19
HETATM   19  C   UNL     1      -8.556  10.559  67.021  1.00  0.00    -0.127 C  
HETATM   20  O   UNL     1     -10.286   8.932  66.301  1.00  0.00    -0.319 OA 
HETATM   21  C   UNL     1      -7.270  10.568  66.185  1.00  0.00    -0.136 C  
HETATM   22  C   UNL     1      -7.911   8.358  66.175  1.00  0.00    -0.101 C  
HETATM   23  H   UNL     1     -10.571   8.026  66.267  1.00  0.00     0.000 HD 
HETATM   24  O   UNL     1      -7.280   9.371  65.389  1.00  0.00    -0.088 OA 
HETATM   25  C   UNL     1      -9.019   9.088  66.967  1.00  0.00    -0.126 C  
BRANCH  21  26
HETATM   26  C   UNL     1      -5.990  10.694  67.015  1.00  0.00    -0.059 C  
HETATM   27  H   UNL     1      -5.131  12.003  68.239  1.00  0.00     0.000 HD 
HETATM   28  O   UNL     1      -5.925  11.924  67.724  1.00  0.00    -0.049 OA 
ENDBRANCH  21  26
BRANCH  22  29
HETATM   29  O   UNL     1      -6.956   7.728  67.039  1.00  0.00    -0.073 OA 
BRANCH  29  30
HETATM   30  C   UNL     1      -7.297   6.403  67.571  1.00  0.00    -0.091 C  
HETATM   31  C   UNL     1      -6.241   5.351  67.143  1.00  0.00    -0.031 C  
HETATM   32  O   UNL     1      -5.203   5.298  68.146  1.00  0.00    -0.003 OA 
HETATM   33  C   UNL     1      -6.697   3.904  66.892  1.00  0.00    -0.047 C  
HETATM   34  C   UNL     1      -8.149   3.782  66.465  1.00  0.00    -0.096 C  
HETATM   35  N   UNL     1      -5.847   3.286  65.842  1.00  0.00    -0.018 NA 
HETATM   36  H   UNL     1      -4.557   4.654  67.884  1.00  0.00     0.000 HD 
HETATM   37  H1  UNL     1      -6.149   2.327  65.676  1.00  0.00     0.000 HD 
HETATM   38  H2  UNL     1      -4.854   3.342  66.070  1.00  0.00     0.000 HD 
HETATM   39  C   UNL     1      -9.051   4.518  67.454  1.00  0.00    -0.128 C  
HETATM   40  C   UNL     1      -8.795   6.044  67.365  1.00  0.00    -0.106 C  
HETATM   41  N   UNL     1     -10.459   4.184  67.144  1.00  0.00     0.104 NA 
HETATM   42  H2  UNL     1     -10.629   3.179  67.132  1.00  0.00     0.000 HD 
HETATM   43  H1  UNL     1     -11.061   4.676  67.804  1.00  0.00     0.000 HD 
BRANCH  40  44
HETATM   44  O   UNL     1      -9.644   6.675  68.355  1.00  0.00    -0.125 OA 
BRANCH  44  45
HETATM   45  C   UNL     1      -9.321   6.383  69.717  1.00  0.00    -0.146 C  
HETATM   46  O   UNL     1      -8.094   7.001  70.113  1.00  0.00    -0.125 OA 
HETATM   47  C   UNL     1      -8.147   8.435  70.107  1.00  0.00    -0.108 C  
HETATM   48  C   UNL     1      -9.251   8.965  71.034  1.00  0.00    -0.245 C  
HETATM   49  H1  UNL     1     -12.561   6.477  70.874  1.00  0.00     0.000 HD 
HETATM   50  O   UNL     1      -9.351  10.396  70.999  1.00  0.00     0.495 OA 
HETATM   51  H2  UNL     1     -11.708   5.177  70.240  1.00  0.00     0.000 HD 
HETATM   52  C   UNL     1     -10.602   8.352  70.638  1.00  0.00    -0.208 C  
HETATM   53  H   UNL     1     -10.034  10.724  71.573  1.00  0.00     0.000 HD 
HETATM   54  O   UNL     1     -11.615   8.771  71.569  1.00  0.00    -0.264 OA 
HETATM   55  C   UNL     1     -10.496   6.816  70.638  1.00  0.00    -0.215 C  
HETATM   56  N   UNL     1     -11.790   6.194  70.270  1.00  0.00    -0.103 NA 
HETATM   57  H   UNL     1     -12.451   8.391  71.325  1.00  0.00     0.000 HD 
BRANCH  47  58
HETATM   58  C   UNL     1      -6.742   8.974  70.459  1.00  0.00    -0.058 C  
HETATM   59  H1  UNL     1      -4.830   9.229  69.608  1.00  0.00     0.000 HD 
HETATM   60  N   UNL     1      -5.758   8.873  69.375  1.00  0.00    -0.034 NA 
HETATM   61  H2  UNL     1      -6.111   9.327  68.532  1.00  0.00     0.000 HD 
ENDBRANCH  47  58
ENDBRANCH  44  45
ENDBRANCH  40  44
ENDBRANCH  29  30
ENDBRANCH  22  29
ENDBRANCH  18  19
ENDBRANCH   7  18
ENDBRANCH   2   5
TORSDOF 9
ENDMDL
MODEL      251
REMARK 921   NORMALIZED FREE ENERGY PREDICTED BY IDOCK:   -1.60 KCAL/MOL
REMARK 922        TOTAL FREE ENERGY PREDICTED BY IDOCK:   -5.25 KCAL/MOL
REMARK 923 INTER-LIGAND FREE ENERGY PREDICTED BY IDOCK:   -5.02 KCAL/MOL
REMARK 924 INTRA-LIGAND FREE ENERGY PREDICTED BY IDOCK:   -0.24 KCAL/MOL
REMARK 927      BINDING AFFINITY PREDICTED BY RF-SCORE:    0.00 PKD
ROOT
HETATM    1  N   UNL     1     -11.905  12.849  65.740  1.00  0.00    -0.396 NA 
HETATM    2  C   UNL     1     -11.333  11.697  66.444  1.00  0.00    -0.245 C  
HETATM    3  H1  UNL     1     -12.447  13.490  66.317  1.00  0.00     0.000 HD 
HETATM    4  H2  UNL     1     -12.466  12.531  64.950  1.00  0.00     0.000 HD 
ENDROOT
BRANCH   2   5
HETATM    5  C   UNL     1     -10.509  10.720  65.566  1.00  0.00    -0.194 C  
HETATM    6  O   UNL     1     -10.531   9.348  66.038  1.00  0.00    -0.132 OA 
HETATM    7  C   UNL     1      -9.854   8.485  65.108  1.00  0.00     1.177 C  
HETATM    8  C   UNL     1      -8.344   8.876  64.999  1.00  0.00    -0.165 C  
HETATM    9  O   UNL     1      -8.526  11.290  66.865  1.00  0.00    -0.141 OA 
HETATM   10  H   UNL     1      -7.630  11.609  66.842  1.00  0.00     0.000 HD 
HETATM   11  N   UNL     1      -7.631   8.573  66.284  1.00  0.00    -0.089 NA 
HETATM   12  C   UNL     1      -8.193  10.349  64.621  1.00  0.00    -0.137 C  
HETATM   13  H2  UNL     1      -7.752   7.600  66.565  1.00  0.00     0.000 HD 
HETATM   14  O   UNL     1      -8.502  10.584  63.241  1.00  0.00    -0.168 OA 
HETATM   15  C   UNL     1      -9.050  11.240  65.529  1.00  0.00    -0.170 C  
HETATM   16  H1  UNL     1      -6.646   8.828  66.213  1.00  0.00     0.000 HD 
HETATM   17  H   UNL     1      -8.408  11.500  63.005  1.00  0.00     0.000 HD 
BRANCH   7  18
HETATM   18  O   UNL     1      -9.777   7.134  65.527  1.00  0.00     0.565 OA 
BRANCH  18  19
HETATM   19  C   UNL     1      -9.128   6.795  66.745  1.00  0.00    -0.140 C  
HETATM   20  O   UNL     1     -11.358   7.148  67.776  1.00  0.00    -0.514 OA 
HETATM   21  C   UNL     1      -8.740   5.333  66.496  1.00  0.00    -0.115 C  
HETATM   22  C   UNL     1      -9.967   5.248  68.440  1.00  0.00    -0.159 C  
HETATM   23  H   UNL     1     -11.895   7.109  68.559  1.00  0.00     0.000 HD 
HETATM   24  O   UNL     1      -9.658   4.523  67.249  1.00  0.00    -0.160 OA 
HETATM   25  C   UNL     1     -10.001   6.733  68.017  1.00  0.00    -0.144 C  
BRANCH  21  26
HETATM   26  C   UNL     1      -7.282   5.010  66.833  1.00  0.00    -0.077 C  
HETATM   27  H   UNL     1      -5.799   5.773  67.914  1.00  0.00     0.000 HD 
HETATM   28  O   UNL     1      -6.704   5.973  67.704  1.00  0.00    -0.054 OA 
ENDBRANCH  21  26
BRANCH  22  29
HETATM   29  O   UNL     1      -8.981   4.995  69.449  1.00  0.00    -0.090 OA 
BRANCH  29  30
HETATM   30  C   UNL     1      -9.371   5.221  70.847  1.00  0.00    -0.153 C  
HETATM   31  C   UNL     1      -8.904   4.045  71.743  1.00  0.00    -0.112 C  
HETATM   32  O   UNL     1      -7.580   4.337  72.243  1.00  0.00    -0.075 OA 
HETATM   33  C   UNL     1      -9.764   3.649  72.954  1.00  0.00    -0.135 C  
HETATM   34  C   UNL     1     -11.237   3.984  72.798  1.00  0.00     0.063 C  
HETATM   35  N   UNL     1      -9.640   2.190  73.202  1.00  0.00    -0.080 NA 
HETATM   36  H   UNL     1      -7.295   3.616  72.792  1.00  0.00     0.000 HD 
HETATM   37  H1  UNL     1     -10.211   1.928  74.006  1.00  0.00     0.000 HD 
HETATM   38  H2  UNL     1      -8.668   1.901  73.311  1.00  0.00     0.000 HD 
HETATM   39  C   UNL     1     -11.404   5.453  72.414  1.00  0.00    -0.179 C  
HETATM   40  C   UNL     1     -10.845   5.691  70.988  1.00  0.00    -0.219 C  
HETATM   41  N   UNL     1     -12.839   5.801  72.499  1.00  0.00    -0.241 NA 
HETATM   42  H2  UNL     1     -13.240   5.587  73.413  1.00  0.00     0.000 HD 
HETATM   43  H1  UNL     1     -12.950   6.782  72.243  1.00  0.00     0.000 HD 
BRANCH  40  44
HETATM   44  O   UNL     1     -10.991   7.105  70.706  1.00  0.00    -0.239 OA 
BRANCH  44  45
HETATM   45  C   UNL     1     -10.382   7.987  71.653  1.00  0.00    -0.214 C  
HETATM   46  O   UNL     1      -8.996   7.688  71.838  1.00  0.00    -0.116 OA 
HETATM   47  C   UNL     1      -8.203   7.900  70.662  1.00  0.00    -0.114 C  
HETATM   48  C   UNL     1      -8.300   9.351  70.166  1.00  0.00    -0.182 C  
HETATM   49  H1  UNL     1     -12.149  10.786  70.711  1.00  0.00     0.000 HD 
HETATM   50  O   UNL     1      -7.553   9.566  68.961  1.00  0.00    -0.072 OA 
HETATM   51  H2  UNL     1     -12.558   9.616  71.843  1.00  0.00     0.000 HD 
HETATM   52  C   UNL     1      -9.771   9.721  69.925  1.00  0.00    -0.238 C  
HETATM   53  H   UNL     1      -7.613  10.463  68.654  1.00  0.00     0.000 HD 
HETATM   54  O   UNL     1      -9.866  11.109  69.559  1.00  0.00    -0.424 OA 
HETATM   55  C   UNL     1     -10.589   9.460  71.203  1.00  0.00    -0.333 C  
HETATM   56  N   UNL     1     -12.013   9.819  71.005  1.00  0.00    -0.327 NA 
HETATM   57  H   UNL     1     -10.776  11.338  69.410  1.00  0.00     0.000 HD 
BRANCH  47  58
HETATM   58  C   UNL     1      -6.755   7.453  70.966  1.00  0.00    -0.043 C  
HETATM   59  H1  UNL     1      -4.813   8.245  71.185  1.00  0.00     0.000 HD 
HETATM   60  N   UNL     1      -5.770   8.541  70.984  1.00  0.00    -0.032 NA 
HETATM   61  H2  UNL     1      -6.060   9.270  71.636  1.00  0.00     0.000 HD 
ENDBRANCH  47  58
ENDBRANCH  44  45
ENDBRANCH  40  44
ENDBRANCH  29  30
ENDBRANCH  22  29
ENDBRANCH  18  19
ENDBRANCH   7  18
ENDBRANCH   2   5
TORSDOF 9
ENDMDL
MODEL      252
REMARK 921   NORMALIZED FREE ENERGY PREDICTED BY IDOCK:   -1.58 KCAL/MOL
REMARK 922        TOTAL FREE ENERGY PREDICTED BY IDOCK:   -5.22 KCAL/MOL
REMARK 923 INTER-LIGAND FREE ENERGY PREDICTED BY IDOCK:   -8.26 KCAL/MOL
REMARK 924 INTRA-LIGAND FREE ENERGY PREDICTED BY IDOCK:    3.04 KCAL/MOL
REMARK 927      BINDING AFFINITY PREDICTED BY RF-SCORE:    0.00 PKD
ROOT
HETATM    1  N   UNL     1      -8.023   2.457  70.075  1.00  0.00    -0.042 NA 
HETATM    2  C   UNL     1      -7.563   3.410  69.061  1.00  0.00    -0.052 C  
HETATM    3  H1  UNL     1      -7.485   1.594  70.142  1.00  0.00     0.000 HD 
HETATM    4  H2  UNL     1      -9.010   2.243  69.930  1.00  0.00     0.000 HD 
ENDROOT
BRANCH   2   5
HETATM    5  C   UNL     1      -8.382   4.723  68.960  1.00  0.00    -0.081 C  
HETATM    6  O   UNL     1      -7.854   5.806  69.770  1.00  0.00    -0.091 OA 
HETATM    7  C   UNL     1      -8.587   7.019  69.527  1.00  0.00    -0.134 C  
HETATM    8  C   UNL     1     -10.081   6.851  69.956  1.00  0.00    -0.182 C  
HETATM    9  O   UNL     1      -9.837   3.906  70.736  1.00  0.00    -0.194 OA 
HETATM   10  H   UNL     1     -10.729   3.711  71.000  1.00  0.00     0.000 HD 
HETATM   11  N   UNL     1     -10.185   6.716  71.447  1.00  0.00    -0.198 NA 
HETATM   12  C   UNL     1     -10.715   5.653  69.250  1.00  0.00    -0.280 C  
HETATM   13  H2  UNL     1      -9.735   7.493  71.932  1.00  0.00     0.000 HD 
HETATM   14  O   UNL     1     -10.992   5.928  67.870  1.00  0.00    -0.276 OA 
HETATM   15  C   UNL     1      -9.836   4.404  69.389  1.00  0.00    -0.168 C  
HETATM   16  H1  UNL     1     -11.159   6.606  71.727  1.00  0.00     0.000 HD 
HETATM   17  H   UNL     1     -11.387   5.183  67.431  1.00  0.00     0.000 HD 
BRANCH   7  18
HETATM   18  O   UNL     1      -8.173   8.112  70.328  1.00  0.00    -0.116 OA 
BRANCH  18  19
HETATM   19  C   UNL     1      -8.276   9.442  69.837  1.00  0.00    -0.149 C  
HETATM   20  O   UNL     1      -5.909   9.142  69.156  1.00  0.00    -0.036 OA 
HETATM   21  C   UNL     1      -9.311   9.282  68.716  1.00  0.00    -0.139 C  
HETATM   22  C   UNL     1      -7.504  10.236  67.658  1.00  0.00    -0.089 C  
HETATM   23  H   UNL     1      -5.149   9.502  68.714  1.00  0.00     0.000 HD 
HETATM   24  O   UNL     1      -8.590   9.327  67.473  1.00  0.00    -0.116 OA 
HETATM   25  C   UNL     1      -7.042  10.028  69.119  1.00  0.00    -0.069 C  
BRANCH  21  26
HETATM   26  C   UNL     1     -10.441  10.313  68.762  1.00  0.00    -0.203 C  
HETATM   27  H   UNL     1     -12.312  10.501  68.118  1.00  0.00     0.000 HD 
HETATM   28  O   UNL     1     -11.610   9.862  68.090  1.00  0.00    -0.051 OA 
ENDBRANCH  21  26
BRANCH  22  29
HETATM   29  O   UNL     1      -7.931  11.582  67.414  1.00  0.00    -0.129 OA 
BRANCH  29  30
HETATM   30  C   UNL     1      -9.238  11.771  66.772  1.00  0.00    -0.194 C  
HETATM   31  C   UNL     1      -9.258  11.115  65.367  1.00  0.00    -0.205 C  
HETATM   32  O   UNL     1      -9.710   9.749  65.497  1.00  0.00    -0.276 OA 
HETATM   33  C   UNL     1     -10.105  11.764  64.259  1.00  0.00    -0.290 C  
HETATM   34  C   UNL     1     -10.305  13.259  64.434  1.00  0.00    -0.372 C  
HETATM   35  N   UNL     1      -9.467  11.529  62.939  1.00  0.00    -0.541 NA 
HETATM   36  H   UNL     1      -9.722   9.348  64.635  1.00  0.00     0.000 HD 
HETATM   37  H1  UNL     1     -10.029  11.960  62.204  1.00  0.00     0.000 HD 
HETATM   38  H2  UNL     1      -9.301  10.538  62.763  1.00  0.00     0.000 HD 
HETATM   39  C   UNL     1     -10.842  13.557  65.833  1.00  0.00    -0.275 C  
HETATM   40  C   UNL     1      -9.759  13.230  66.893  1.00  0.00    -0.248 C  
HETATM   41  N   UNL     1     -11.244  14.979  65.889  1.00  0.00    -0.336 NA 
HETATM   42  H2  UNL     1     -11.907  15.228  65.155  1.00  0.00     0.000 HD 
HETATM   43  H1  UNL     1     -11.603  15.178  66.823  1.00  0.00     0.000 HD 
BRANCH  40  44
HETATM   44  O   UNL     1     -10.345  13.489  68.192  1.00  0.00    -0.233 OA 
BRANCH  44  45
HETATM   45  C   UNL     1     -11.731  13.841  68.182  1.00  0.00    -0.357 C  
HETATM   46  O   UNL     1     -12.535  12.843  68.816  1.00  0.00     0.085 OA 
HETATM   47  C   UNL     1     -12.263  12.694  70.217  1.00  0.00    -0.271 C  
HETATM   48  C   UNL     1     -12.476  14.010  70.979  1.00  0.00    -0.371 C  
HETATM   49  H1  UNL     1     -11.240  17.213  68.659  1.00  0.00     0.000 HD 
HETATM   50  O   UNL     1     -12.158  13.891  72.373  1.00  0.00     0.125 OA 
HETATM   51  H2  UNL     1     -11.297  16.353  67.219  1.00  0.00     0.000 HD 
HETATM   52  C   UNL     1     -11.615  15.119  70.355  1.00  0.00    -0.292 C  
HETATM   53  H   UNL     1     -12.290  14.705  72.844  1.00  0.00     0.000 HD 
HETATM   54  O   UNL     1     -11.893  16.371  71.005  1.00  0.00    -0.589 OA 
HETATM   55  C   UNL     1     -11.923  15.231  68.851  1.00  0.00    -0.264 C  
HETATM   56  N   UNL     1     -11.114  16.301  68.221  1.00  0.00    -0.352 NA 
HETATM   57  H   UNL     1     -11.360  17.056  70.619  1.00  0.00     0.000 HD 
BRANCH  47  58
HETATM   58  C   UNL     1     -13.123  11.529  70.757  1.00  0.00     0.152 C  
HETATM   59  H1  UNL     1     -12.946   9.750  71.875  1.00  0.00     0.000 HD 
HETATM   60  N   UNL     1     -12.378  10.519  71.519  1.00  0.00    -0.365 NA 
HETATM   61  H2  UNL     1     -11.860  10.960  72.280  1.00  0.00     0.000 HD 
ENDBRANCH  47  58
ENDBRANCH  44  45
ENDBRANCH  40  44
ENDBRANCH  29  30
ENDBRANCH  22  29
ENDBRANCH  18  19
ENDBRANCH   7  18
ENDBRANCH   2   5
TORSDOF 9
ENDMDL
MODEL      253
REMARK 921   NORMALIZED FREE ENERGY PREDICTED BY IDOCK:   -1.55 KCAL/MOL
REMARK 922        TOTAL FREE ENERGY PREDICTED BY IDOCK:   -5.18 KCAL/MOL
REMARK 923 INTER-LIGAND FREE ENERGY PREDICTED BY IDOCK:   -8.04 KCAL/MOL
REMARK 924 INTRA-LIGAND FREE ENERGY PREDICTED BY IDOCK:    2.86 KCAL/MOL
REMARK 927      BINDING AFFINITY PREDICTED BY RF-SCORE:    0.00 PKD
ROOT
HETATM    1  N   UNL     1     -10.146  12.047  64.717  1.00  0.00    -0.274 NA 
HETATM    2  C   UNL     1      -9.226  11.017  64.227  1.00  0.00    -0.152 C  
HETATM    3  H1  UNL     1     -10.378  12.781  64.048  1.00  0.00     0.000 HD 
HETATM    4  H2  UNL     1      -9.781  12.461  65.575  1.00  0.00     0.000 HD 
ENDROOT
BRANCH   2   5
HETATM    5  C   UNL     1      -8.872   9.901  65.245  1.00  0.00    -0.181 C  
HETATM    6  O   UNL     1      -9.097  10.278  66.628  1.00  0.00    -0.142 OA 
HETATM    7  C   UNL     1      -8.868   9.157  67.499  1.00  0.00    -0.119 C  
HETATM    8  C   UNL     1      -7.376   8.697  67.417  1.00  0.00    -0.089 C  
HETATM    9  O   UNL     1      -6.566  10.693  65.250  1.00  0.00    -0.282 OA 
HETATM   10  H   UNL     1      -5.652  10.467  65.122  1.00  0.00     0.000 HD 
HETATM   11  N   UNL     1      -6.474   9.740  68.007  1.00  0.00    -0.056 NA 
HETATM   12  C   UNL     1      -6.984   8.384  65.974  1.00  0.00    -0.065 C  
HETATM   13  H2  UNL     1      -6.745   9.983  68.961  1.00  0.00     0.000 HD 
HETATM   14  O   UNL     1      -7.542   7.143  65.522  1.00  0.00    -0.087 OA 
HETATM   15  C   UNL     1      -7.382   9.531  65.036  1.00  0.00    -0.110 C  
HETATM   16  H1  UNL     1      -5.500   9.441  67.954  1.00  0.00     0.000 HD 
HETATM   17  H   UNL     1      -7.298   6.948  64.624  1.00  0.00     0.000 HD 
BRANCH   7  18
HETATM   18  O   UNL     1      -9.007   9.459  68.876  1.00  0.00    -0.132 OA 
BRANCH  18  19
HETATM   19  C   UNL     1      -9.936  10.446  69.304  1.00  0.00    -0.228 C  
HETATM   20  O   UNL     1      -8.768  11.929  67.692  1.00  0.00    -0.150 OA 
HETATM   21  C   UNL     1     -11.265   9.857  68.816  1.00  0.00    -0.072 C  
HETATM   22  C   UNL     1     -11.209  11.948  67.857  1.00  0.00    -0.263 C  
HETATM   23  H   UNL     1      -8.727  12.777  67.267  1.00  0.00     0.000 HD 
HETATM   24  O   UNL     1     -11.650  10.605  67.650  1.00  0.00    -0.492 OA 
HETATM   25  C   UNL     1      -9.868  11.825  68.615  1.00  0.00    -0.144 C  
BRANCH  21  26
HETATM   26  C   UNL     1     -12.367   9.845  69.879  1.00  0.00     0.274 C  
HETATM   27  H   UNL     1     -14.202  10.564  70.129  1.00  0.00     0.000 HD 
HETATM   28  O   UNL     1     -13.518  10.571  69.471  1.00  0.00     0.440 OA 
ENDBRANCH  21  26
BRANCH  22  29
HETATM   29  O   UNL     1     -12.186  12.686  68.602  1.00  0.00    -0.176 OA 
BRANCH  29  30
HETATM   30  C   UNL     1     -11.724  13.404  69.797  1.00  0.00    -0.286 C  
HETATM   31  C   UNL     1     -12.620  13.071  71.018  1.00  0.00    -0.299 C  
HETATM   32  O   UNL     1     -12.069  11.925  71.702  1.00  0.00     0.112 OA 
HETATM   33  C   UNL     1     -12.857  14.157  72.080  1.00  0.00    -0.338 C  
HETATM   34  C   UNL     1     -12.747  15.574  71.547  1.00  0.00    -0.501 C  
HETATM   35  N   UNL     1     -14.206  13.986  72.679  1.00  0.00    -0.598 NA 
HETATM   36  H   UNL     1     -12.619  11.721  72.450  1.00  0.00     0.000 HD 
HETATM   37  H1  UNL     1     -14.363  14.707  73.384  1.00  0.00     0.000 HD 
HETATM   38  H2  UNL     1     -14.344  13.047  73.052  1.00  0.00     0.000 HD 
HETATM   39  C   UNL     1     -11.422  15.755  70.808  1.00  0.00    -0.393 C  
HETATM   40  C   UNL     1     -11.420  14.901  69.514  1.00  0.00    -0.297 C  
HETATM   41  N   UNL     1     -11.244  17.193  70.509  1.00  0.00     0.026 NA 
HETATM   42  H2  UNL     1     -11.310  17.777  71.343  1.00  0.00     0.000 HD 
HETATM   43  H1  UNL     1     -10.359  17.314  70.016  1.00  0.00     0.000 HD 
BRANCH  40  44
HETATM   44  O   UNL     1     -10.125  15.082  68.889  1.00  0.00    -0.220 OA 
BRANCH  44  45
HETATM   45  C   UNL     1     -10.144  15.717  67.608  1.00  0.00    -0.248 C  
HETATM   46  O   UNL     1     -10.360  17.126  67.720  1.00  0.00    -0.319 OA 
HETATM   47  C   UNL     1      -9.297  17.816  68.392  1.00  0.00    -0.294 C  
HETATM   48  C   UNL     1      -7.950  17.610  67.684  1.00  0.00    -0.208 C  
HETATM   49  H1  UNL     1      -7.694  13.748  66.206  1.00  0.00     0.000 HD 
HETATM   50  O   UNL     1      -6.869  18.252  68.374  1.00  0.00    -0.219 OA 
HETATM   51  H2  UNL     1      -9.351  13.484  66.262  1.00  0.00     0.000 HD 
HETATM   52  C   UNL     1      -7.652  16.109  67.558  1.00  0.00    -0.148 C  
HETATM   53  H   UNL     1      -6.035  18.125  67.936  1.00  0.00     0.000 HD 
HETATM   54  O   UNL     1      -6.441  15.918  66.807  1.00  0.00    -0.255 OA 
HETATM   55  C   UNL     1      -8.823  15.404  66.850  1.00  0.00    -0.253 C  
HETATM   56  N   UNL     1      -8.560  13.953  66.704  1.00  0.00    -0.033 NA 
HETATM   57  H   UNL     1      -6.257  14.989  66.729  1.00  0.00     0.000 HD 
BRANCH  47  58
HETATM   58  C   UNL     1      -9.695  19.303  68.529  1.00  0.00    -0.414 C  
HETATM   59  H1  UNL     1      -9.310  21.184  67.658  1.00  0.00     0.000 HD 
HETATM   60  N   UNL     1      -9.047  20.202  67.567  1.00  0.00    -0.351 NA 
HETATM   61  H2  UNL     1      -9.212  19.878  66.613  1.00  0.00     0.000 HD 
ENDBRANCH  47  58
ENDBRANCH  44  45
ENDBRANCH  40  44
ENDBRANCH  29  30
ENDBRANCH  22  29
ENDBRANCH  18  19
ENDBRANCH   7  18
ENDBRANCH   2   5
TORSDOF 9
ENDMDL
MODEL      254
REMARK 921   NORMALIZED FREE ENERGY PREDICTED BY IDOCK:   -1.50 KCAL/MOL
REMARK 922        TOTAL FREE ENERGY PREDICTED BY IDOCK:   -5.11 KCAL/MOL
REMARK 923 INTER-LIGAND FREE ENERGY PREDICTED BY IDOCK:   -3.36 KCAL/MOL
REMARK 924 INTRA-LIGAND FREE ENERGY PREDICTED BY IDOCK:   -1.75 KCAL/MOL
REMARK 927      BINDING AFFINITY PREDICTED BY RF-SCORE:    0.00 PKD
ROOT
HETATM    1  N   UNL     1     -10.362   7.264  70.469  1.00  0.00    -0.204 NA 
HETATM    2  C   UNL     1     -10.678   7.145  69.043  1.00  0.00    -0.184 C  
HETATM    3  H1  UNL     1     -11.165   7.266  71.097  1.00  0.00     0.000 HD 
HETATM    4  H2  UNL     1      -9.790   8.093  70.632  1.00  0.00     0.000 HD 
ENDROOT
BRANCH   2   5
HETATM    5  C   UNL     1      -9.456   7.143  68.087  1.00  0.00    -0.132 C  
HETATM    6  O   UNL     1      -9.666   7.904  66.869  1.00  0.00    -0.183 OA 
HETATM    7  C   UNL     1      -8.453   7.961  66.097  1.00  0.00    -0.133 C  
HETATM    8  C   UNL     1      -8.028   6.528  65.640  1.00  0.00    -0.114 C  
HETATM    9  O   UNL     1     -10.276   5.068  67.107  1.00  0.00    -0.197 OA 
HETATM   10  H   UNL     1     -10.080   4.163  66.892  1.00  0.00     0.000 HD 
HETATM   11  N   UNL     1      -9.009   5.985  64.643  1.00  0.00    -0.307 NA 
HETATM   12  C   UNL     1      -7.893   5.594  66.842  1.00  0.00    -0.101 C  
HETATM   13  H2  UNL     1      -9.134   6.615  63.850  1.00  0.00     0.000 HD 
HETATM   14  O   UNL     1      -6.705   5.862  67.599  1.00  0.00    -0.054 OA 
HETATM   15  C   UNL     1      -9.135   5.668  67.738  1.00  0.00    -0.106 C  
HETATM   16  H1  UNL     1      -8.732   5.050  64.344  1.00  0.00     0.000 HD 
HETATM   17  H   UNL     1      -6.620   5.281  68.347  1.00  0.00     0.000 HD 
BRANCH   7  18
HETATM   18  O   UNL     1      -8.591   8.636  64.859  1.00  0.00    -0.179 OA 
BRANCH  18  19
HETATM   19  C   UNL     1      -8.310  10.026  64.763  1.00  0.00    -0.163 C  
HETATM   20  O   UNL     1     -10.094  10.043  63.038  1.00  0.00    -0.445 OA 
HETATM   21  C   UNL     1      -8.730  10.525  66.151  1.00  0.00    -0.158 C  
HETATM   22  C   UNL     1      -9.963  11.826  64.708  1.00  0.00    -0.243 C  
HETATM   23  H   UNL     1     -10.629  10.554  62.442  1.00  0.00     0.000 HD 
HETATM   24  O   UNL     1      -9.991  11.197  65.990  1.00  0.00    -0.218 OA 
HETATM   25  C   UNL     1      -9.179  10.856  63.795  1.00  0.00    -0.215 C  
BRANCH  21  26
HETATM   26  C   UNL     1      -7.689  11.417  66.832  1.00  0.00    -0.155 C  
HETATM   27  H   UNL     1      -6.645  11.464  68.523  1.00  0.00     0.000 HD 
HETATM   28  O   UNL     1      -7.291  10.911  68.100  1.00  0.00    -0.084 OA 
ENDBRANCH  21  26
BRANCH  22  29
HETATM   29  O   UNL     1      -9.335  13.112  64.795  1.00  0.00     0.423 OA 
BRANCH  29  30
HETATM   30  C   UNL     1     -10.113  14.204  65.393  1.00  0.00    -0.333 C  
HETATM   31  C   UNL     1     -11.555  14.226  64.823  1.00  0.00    -0.401 C  
HETATM   32  O   UNL     1     -12.398  13.398  65.655  1.00  0.00    -0.430 OA 
HETATM   33  C   UNL     1     -12.269  15.578  64.666  1.00  0.00     0.020 C  
HETATM   34  C   UNL     1     -11.327  16.752  64.469  1.00  0.00     0.259 C  
HETATM   35  N   UNL     1     -13.197  15.524  63.507  1.00  0.00     0.677 NA 
HETATM   36  H   UNL     1     -13.281  13.412  65.306  1.00  0.00     0.000 HD 
HETATM   37  H1  UNL     1     -13.670  16.421  63.403  1.00  0.00     0.000 HD 
HETATM   38  H2  UNL     1     -13.855  14.748  63.578  1.00  0.00     0.000 HD 
HETATM   39  C   UNL     1     -10.273  16.770  65.575  1.00  0.00    -0.164 C  
HETATM   40  C   UNL     1      -9.332  15.547  65.425  1.00  0.00     0.159 C  
HETATM   41  N   UNL     1      -9.524  18.044  65.489  1.00  0.00     0.033 NA 
HETATM   42  H2  UNL     1     -10.136  18.860  65.518  1.00  0.00     0.000 HD 
HETATM   43  H1  UNL     1      -8.821  18.056  66.228  1.00  0.00     0.000 HD 
BRANCH  40  44
HETATM   44  O   UNL     1      -8.391  15.599  66.525  1.00  0.00    -0.269 OA 
BRANCH  44  45
HETATM   45  C   UNL     1      -8.878  16.210  67.723  1.00  0.00    -0.183 C  
HETATM   46  O   UNL     1      -9.633  15.291  68.515  1.00  0.00    -0.199 OA 
HETATM   47  C   UNL     1      -8.855  14.196  69.020  1.00  0.00     0.118 C  
HETATM   48  C   UNL     1      -7.678  14.685  69.877  1.00  0.00     0.248 C  
HETATM   49  H1  UNL     1      -6.100  18.165  68.274  1.00  0.00     0.000 HD 
HETATM   50  O   UNL     1      -6.860  13.604  70.346  1.00  0.00    -0.315 OA 
HETATM   51  H2  UNL     1      -7.468  18.514  67.365  1.00  0.00     0.000 HD 
HETATM   52  C   UNL     1      -6.813  15.661  69.065  1.00  0.00    -0.140 C  
HETATM   53  H   UNL     1      -6.131  13.907  70.876  1.00  0.00     0.000 HD 
HETATM   54  O   UNL     1      -5.771  16.194  69.901  1.00  0.00    -0.154 OA 
HETATM   55  C   UNL     1      -7.689  16.807  68.527  1.00  0.00    -0.223 C  
HETATM   56  N   UNL     1      -6.880  17.773  67.746  1.00  0.00    -0.180 NA 
HETATM   57  H   UNL     1      -5.237  16.798  69.398  1.00  0.00     0.000 HD 
BRANCH  47  58
HETATM   58  C   UNL     1      -9.801  13.234  69.774  1.00  0.00     1.693 C  
HETATM   59  H1  UNL     1     -10.967  11.507  69.455  1.00  0.00     0.000 HD 
HETATM   60  N   UNL     1     -10.342  12.142  68.957  1.00  0.00    -0.421 NA 
HETATM   61  H2  UNL     1      -9.583  11.620  68.517  1.00  0.00     0.000 HD 
ENDBRANCH  47  58
ENDBRANCH  44  45
ENDBRANCH  40  44
ENDBRANCH  29  30
ENDBRANCH  22  29
ENDBRANCH  18  19
ENDBRANCH   7  18
ENDBRANCH   2   5
TORSDOF 9
ENDMDL
MODEL      255
REMARK 921   NORMALIZED FREE ENERGY PREDICTED BY IDOCK:   -1.37 KCAL/MOL
REMARK 922        TOTAL FREE ENERGY PREDICTED BY IDOCK:   -4.90 KCAL/MOL
REMARK 923 INTER-LIGAND FREE ENERGY PREDICTED BY IDOCK:   -4.80 KCAL/MOL
REMARK 924 INTRA-LIGAND FREE ENERGY PREDICTED BY IDOCK:   -0.10 KCAL/MOL
REMARK 927      BINDING AFFINITY PREDICTED BY RF-SCORE:    0.00 PKD
ROOT
HETATM    1  N   UNL     1      -7.453  20.461  67.416  1.00  0.00    -0.306 NA 
HETATM    2  C   UNL     1      -8.306  19.745  66.464  1.00  0.00    -0.342 C  
HETATM    3  H1  UNL     1      -7.537  21.477  67.402  1.00  0.00     0.000 HD 
HETATM    4  H2  UNL     1      -6.479  20.190  67.284  1.00  0.00     0.000 HD 
ENDROOT
BRANCH   2   5
HETATM    5  C   UNL     1      -8.178  18.199  66.485  1.00  0.00    -0.267 C  
HETATM    6  O   UNL     1      -9.309  17.526  67.097  1.00  0.00    -0.242 OA 
HETATM    7  C   UNL     1      -9.178  16.100  66.966  1.00  0.00    -0.211 C  
HETATM    8  C   UNL     1      -7.912  15.595  67.734  1.00  0.00    -0.144 C  
HETATM    9  O   UNL     1      -6.955  18.369  68.587  1.00  0.00    -0.250 OA 
HETATM   10  H   UNL     1      -6.158  18.153  69.058  1.00  0.00     0.000 HD 
HETATM   11  N   UNL     1      -8.099  15.758  69.214  1.00  0.00    -0.235 NA 
HETATM   12  C   UNL     1      -6.660  16.328  67.254  1.00  0.00    -0.193 C  
HETATM   13  H2  UNL     1      -8.950  15.301  69.542  1.00  0.00     0.000 HD 
HETATM   14  O   UNL     1      -6.234  15.875  65.962  1.00  0.00     1.253 OA 
HETATM   15  C   UNL     1      -6.879  17.846  67.252  1.00  0.00    -0.177 C  
HETATM   16  H1  UNL     1      -7.274  15.429  69.714  1.00  0.00     0.000 HD 
HETATM   17  H   UNL     1      -5.456  16.331  65.663  1.00  0.00     0.000 HD 
BRANCH   7  18
HETATM   18  O   UNL     1     -10.214  15.366  67.594  1.00  0.00    -0.241 OA 
BRANCH  18  19
HETATM   19  C   UNL     1     -10.260  13.950  67.483  1.00  0.00    -0.245 C  
HETATM   20  O   UNL     1     -10.692  13.992  69.926  1.00  0.00    -0.444 OA 
HETATM   21  C   UNL     1     -11.496  13.746  66.598  1.00  0.00    -0.345 C  
HETATM   22  C   UNL     1     -11.950  12.484  68.467  1.00  0.00    -0.219 C  
HETATM   23  H   UNL     1     -10.894  13.501  70.714  1.00  0.00     0.000 HD 
HETATM   24  O   UNL     1     -12.555  13.293  67.457  1.00  0.00     0.047 OA 
HETATM   25  C   UNL     1     -10.588  13.152  68.762  1.00  0.00    -0.201 C  
BRANCH  21  26
HETATM   26  C   UNL     1     -11.267  12.796  65.420  1.00  0.00    -0.292 C  
HETATM   27  H   UNL     1     -10.026  12.604  63.880  1.00  0.00     0.000 HD 
HETATM   28  O   UNL     1     -10.168  13.194  64.611  1.00  0.00    -0.349 OA 
ENDBRANCH  21  26
BRANCH  22  29
HETATM   29  O   UNL     1     -11.802  11.135  68.006  1.00  0.00    -0.582 OA 
BRANCH  29  30
HETATM   30  C   UNL     1     -11.785  10.073  69.019  1.00  0.00     0.167 C  
HETATM   31  C   UNL     1     -12.918  10.286  70.056  1.00  0.00     0.220 C  
HETATM   32  O   UNL     1     -14.103   9.596  69.599  1.00  0.00     1.057 OA 
HETATM   33  C   UNL     1     -12.680   9.853  71.512  1.00  0.00    -0.415 C  
HETATM   34  C   UNL     1     -11.220   9.867  71.927  1.00  0.00     0.501 C  
HETATM   35  N   UNL     1     -13.436  10.745  72.429  1.00  0.00    -0.484 NA 
HETATM   36  H   UNL     1     -14.797   9.727  70.235  1.00  0.00     0.000 HD 
HETATM   37  H1  UNL     1     -13.278  10.458  73.395  1.00  0.00     0.000 HD 
HETATM   38  H2  UNL     1     -14.428  10.782  72.197  1.00  0.00     0.000 HD 
HETATM   39  C   UNL     1     -10.383   9.064  70.933  1.00  0.00    -0.256 C  
HETATM   40  C   UNL     1     -10.357   9.788  69.563  1.00  0.00    -0.230 C  
HETATM   41  N   UNL     1      -9.022   8.902  71.488  1.00  0.00    -0.282 NA 
HETATM   42  H2  UNL     1      -9.026   8.488  72.420  1.00  0.00     0.000 HD 
HETATM   43  H1  UNL     1      -8.464   8.365  70.824  1.00  0.00     0.000 HD 
BRANCH  40  44
HETATM   44  O   UNL     1      -9.590   8.955  68.658  1.00  0.00    -0.150 OA 
BRANCH  44  45
HETATM   45  C   UNL     1      -8.387   8.403  69.201  1.00  0.00    -0.122 C  
HETATM   46  O   UNL     1      -8.120   7.100  68.677  1.00  0.00    -0.121 OA 
HETATM   47  C   UNL     1      -7.856   7.093  67.266  1.00  0.00    -0.111 C  
HETATM   48  C   UNL     1      -6.660   7.988  66.909  1.00  0.00    -0.057 C  
HETATM   49  H1  UNL     1      -6.653  11.374  69.298  1.00  0.00     0.000 HD 
HETATM   50  O   UNL     1      -6.416   8.032  65.496  1.00  0.00    -0.045 OA 
HETATM   51  H2  UNL     1      -7.659  10.705  70.464  1.00  0.00     0.000 HD 
HETATM   52  C   UNL     1      -6.904   9.414  67.427  1.00  0.00    -0.080 C  
HETATM   53  H   UNL     1      -5.676   8.586  65.275  1.00  0.00     0.000 HD 
HETATM   54  O   UNL     1      -5.741  10.223  67.181  1.00  0.00    -0.045 OA 
HETATM   55  C   UNL     1      -7.202   9.373  68.937  1.00  0.00    -0.072 C  
HETATM   56  N   UNL     1      -7.431  10.738  69.470  1.00  0.00    -0.136 NA 
HETATM   57  H   UNL     1      -5.891  11.104  67.502  1.00  0.00     0.000 HD 
BRANCH  47  58
HETATM   58  C   UNL     1      -7.679   5.626  66.813  1.00  0.00    -0.100 C  
HETATM   59  H1  UNL     1      -6.650   4.473  65.379  1.00  0.00     0.000 HD 
HETATM   60  N   UNL     1      -6.767   5.442  65.678  1.00  0.00    -0.051 NA 
HETATM   61  H2  UNL     1      -5.859   5.862  65.882  1.00  0.00     0.000 HD 
ENDBRANCH  47  58
ENDBRANCH  44  45
ENDBRANCH  40  44
ENDBRANCH  29  30
ENDBRANCH  22  29
ENDBRANCH  18  19
ENDBRANCH   7  18
ENDBRANCH   2   5
TORSDOF 9
ENDMDL
MODEL      256
REMARK 921   NORMALIZED FREE ENERGY PREDICTED BY IDOCK:   -1.23 KCAL/MOL
REMARK 922        TOTAL FREE ENERGY PREDICTED BY IDOCK:   -4.69 KCAL/MOL
REMARK 923 INTER-LIGAND FREE ENERGY PREDICTED BY IDOCK:   -4.64 KCAL/MOL
REMARK 924 INTRA-LIGAND FREE ENERGY PREDICTED BY IDOCK:   -0.05 KCAL/MOL
REMARK 927      BINDING AFFINITY PREDICTED BY RF-SCORE:    0.00 PKD
ROOT
HETATM    1  N   UNL     1      -7.505   3.845  68.011  1.00  0.00    -0.066 NA 
HETATM    2  C   UNL     1      -6.638   5.022  67.919  1.00  0.00    -0.050 C  
HETATM    3  H1  UNL     1      -7.239   3.057  67.421  1.00  0.00     0.000 HD 
HETATM    4  H2  UNL     1      -8.473   4.108  67.825  1.00  0.00     0.000 HD 
ENDROOT
BRANCH   2   5
HETATM    5  C   UNL     1      -7.044   6.221  68.817  1.00  0.00    -0.082 C  
HETATM    6  O   UNL     1      -6.287   7.431  68.554  1.00  0.00    -0.034 OA 
HETATM    7  C   UNL     1      -6.803   8.526  69.332  1.00  0.00    -0.046 C  
HETATM    8  C   UNL     1      -6.635   8.238  70.860  1.00  0.00    -0.039 C  
HETATM    9  O   UNL     1      -5.476   5.432  70.509  1.00  0.00    -0.004 OA 
HETATM   10  H   UNL     1      -5.357   5.167  71.415  1.00  0.00     0.000 HD 
HETATM   11  N   UNL     1      -5.183   8.244  71.236  1.00  0.00    -0.029 NA 
HETATM   12  C   UNL     1      -7.296   6.913  71.236  1.00  0.00    -0.081 C  
HETATM   13  H2  UNL     1      -4.721   9.111  70.960  1.00  0.00     0.000 HD 
HETATM   14  O   UNL     1      -8.725   7.014  71.266  1.00  0.00    -0.129 OA 
HETATM   15  C   UNL     1      -6.850   5.789  70.292  1.00  0.00    -0.049 C  
HETATM   16  H1  UNL     1      -5.073   8.056  72.233  1.00  0.00     0.000 HD 
HETATM   17  H   UNL     1      -9.137   6.190  71.500  1.00  0.00     0.000 HD 
BRANCH   7  18
HETATM   18  O   UNL     1      -6.077   9.733  69.179  1.00  0.00    -0.037 OA 
BRANCH  18  19
HETATM   19  C   UNL     1      -6.623  10.809  68.428  1.00  0.00    -0.055 C  
HETATM   20  O   UNL     1      -8.492  10.709  70.058  1.00  0.00    -0.296 OA 
HETATM   21  C   UNL     1      -5.591  11.916  68.673  1.00  0.00    -0.049 C  
HETATM   22  C   UNL     1      -7.578  12.864  69.344  1.00  0.00     0.539 C  
HETATM   23  H   UNL     1      -9.307  11.086  70.369  1.00  0.00     0.000 HD 
HETATM   24  O   UNL     1      -6.176  12.830  69.615  1.00  0.00    -0.119 OA 
HETATM   25  C   UNL     1      -7.948  11.421  68.931  1.00  0.00    -0.085 C  
BRANCH  21  26
HETATM   26  C   UNL     1      -5.126  12.626  67.399  1.00  0.00    -0.034 C  
HETATM   27  H   UNL     1      -5.602  12.689  65.471  1.00  0.00     0.000 HD 
HETATM   28  O   UNL     1      -5.891  12.249  66.261  1.00  0.00     0.147 OA 
ENDBRANCH  21  26
BRANCH  22  29
HETATM   29  O   UNL     1      -7.864  13.812  68.307  1.00  0.00    -0.126 OA 
BRANCH  29  30
HETATM   30  C   UNL     1      -9.276  14.119  68.044  1.00  0.00    -0.195 C  
HETATM   31  C   UNL     1     -10.113  12.816  67.957  1.00  0.00    -0.230 C  
HETATM   32  O   UNL     1     -10.607  12.491  69.276  1.00  0.00    -0.438 OA 
HETATM   33  C   UNL     1     -11.318  12.773  67.004  1.00  0.00    -0.314 C  
HETATM   34  C   UNL     1     -11.198  13.712  65.817  1.00  0.00    -0.302 C  
HETATM   35  N   UNL     1     -11.501  11.391  66.490  1.00  0.00    -0.377 NA 
HETATM   36  H   UNL     1     -11.120  11.693  69.222  1.00  0.00     0.000 HD 
HETATM   37  H1  UNL     1     -12.301  11.362  65.857  1.00  0.00     0.000 HD 
HETATM   38  H2  UNL     1     -11.584  10.709  67.244  1.00  0.00     0.000 HD 
HETATM   39  C   UNL     1     -10.881  15.127  66.297  1.00  0.00    -0.333 C  
HETATM   40  C   UNL     1      -9.459  15.168  66.912  1.00  0.00    -0.238 C  
HETATM   41  N   UNL     1     -11.002  16.051  65.149  1.00  0.00    -0.380 NA 
HETATM   42  H2  UNL     1     -11.911  15.988  64.690  1.00  0.00     0.000 HD 
HETATM   43  H1  UNL     1     -10.791  16.996  65.470  1.00  0.00     0.000 HD 
BRANCH  40  44
HETATM   44  O   UNL     1      -9.241  16.519  67.387  1.00  0.00    -0.213 OA 
BRANCH  44  45
HETATM   45  C   UNL     1      -8.476  17.360  66.519  1.00  0.00    -0.264 C  
HETATM   46  O   UNL     1      -9.314  18.227  65.750  1.00  0.00    -0.460 OA 
HETATM   47  C   UNL     1     -10.037  19.177  66.544  1.00  0.00    -0.406 C  
HETATM   48  C   UNL     1      -9.091  20.063  67.370  1.00  0.00    -0.357 C  
HETATM   49  H1  UNL     1      -5.862  17.836  68.706  1.00  0.00     0.000 HD 
HETATM   50  O   UNL     1      -9.802  20.984  68.209  1.00  0.00     0.185 OA 
HETATM   51  H2  UNL     1      -6.077  16.615  67.574  1.00  0.00     0.000 HD 
HETATM   52  C   UNL     1      -8.180  19.183  68.239  1.00  0.00    -0.334 C  
HETATM   53  H   UNL     1      -9.216  21.532  68.719  1.00  0.00     0.000 HD 
HETATM   54  O   UNL     1      -7.229  20.009  68.933  1.00  0.00    -0.285 OA 
HETATM   55  C   UNL     1      -7.439  18.166  67.351  1.00  0.00    -0.212 C  
HETATM   56  N   UNL     1      -6.542  17.308  68.161  1.00  0.00    -0.160 NA 
HETATM   57  H   UNL     1      -6.666  19.464  69.470  1.00  0.00     0.000 HD 
BRANCH  47  58
HETATM   58  C   UNL     1     -10.968  19.983  65.610  1.00  0.00    -0.010 C  
HETATM   59  H1  UNL     1     -10.977  21.718  64.413  1.00  0.00     0.000 HD 
HETATM   60  N   UNL     1     -10.362  21.187  65.030  1.00  0.00     1.405 NA 
HETATM   61  H2  UNL     1      -9.495  20.949  64.548  1.00  0.00     0.000 HD 
ENDBRANCH  47  58
ENDBRANCH  44  45
ENDBRANCH  40  44
ENDBRANCH  29  30
ENDBRANCH  22  29
ENDBRANCH  18  19
ENDBRANCH   7  18
ENDBRANCH   2   5
TORSDOF 9
ENDMDL
MODEL      257
REMARK 921   NORMALIZED FREE ENERGY PREDICTED BY IDOCK:   -1.22 KCAL/MOL
REMARK 922        TOTAL FREE ENERGY PREDICTED BY IDOCK:   -4.68 KCAL/MOL
REMARK 923 INTER-LIGAND FREE ENERGY PREDICTED BY IDOCK:   -4.02 KCAL/MOL
REMARK 924 INTRA-LIGAND FREE ENERGY PREDICTED BY IDOCK:   -0.67 KCAL/MOL
REMARK 927      BINDING AFFINITY PREDICTED BY RF-SCORE:    0.00 PKD
ROOT
HETATM    1  N   UNL     1     -10.341   4.636  72.995  1.00  0.00    -0.171 NA 
HETATM    2  C   UNL     1      -9.912   4.617  71.593  1.00  0.00    -0.193 C  
HETATM    3  H1  UNL     1     -11.328   4.441  73.153  1.00  0.00     0.000 HD 
HETATM    4  H2  UNL     1     -10.088   5.526  73.425  1.00  0.00     0.000 HD 
ENDROOT
BRANCH   2   5
HETATM    5  C   UNL     1      -8.409   4.916  71.352  1.00  0.00    -0.116 C  
HETATM    6  O   UNL     1      -8.163   5.827  70.249  1.00  0.00    -0.106 OA 
HETATM    7  C   UNL     1      -6.765   6.153  70.167  1.00  0.00    -0.049 C  
HETATM    8  C   UNL     1      -5.922   4.872  69.861  1.00  0.00    -0.021 C  
HETATM    9  O   UNL     1      -8.284   2.935  69.936  1.00  0.00    -0.044 OA 
HETATM   10  H   UNL     1      -7.849   2.106  69.772  1.00  0.00     0.000 HD 
HETATM   11  N   UNL     1      -6.209   4.376  68.475  1.00  0.00    -0.031 NA 
HETATM   12  C   UNL     1      -6.192   3.785  70.901  1.00  0.00    -0.018 C  
HETATM   13  H2  UNL     1      -6.064   5.103  67.773  1.00  0.00     0.000 HD 
HETATM   14  O   UNL     1      -5.564   4.074  72.157  1.00  0.00    -0.007 OA 
HETATM   15  C   UNL     1      -7.699   3.565  71.086  1.00  0.00    -0.051 C  
HETATM   16  H1  UNL     1      -5.659   3.541  68.275  1.00  0.00     0.000 HD 
HETATM   17  H   UNL     1      -5.732   3.398  72.803  1.00  0.00     0.000 HD 
BRANCH   7  18
HETATM   18  O   UNL     1      -6.432   6.992  69.076  1.00  0.00    -0.034 OA 
BRANCH  18  19
HETATM   19  C   UNL     1      -7.100   8.233  68.893  1.00  0.00    -0.066 C  
HETATM   20  O   UNL     1      -5.774   8.389  66.801  1.00  0.00    -0.042 OA 
HETATM   21  C   UNL     1      -8.555   7.782  68.720  1.00  0.00    -0.129 C  
HETATM   22  C   UNL     1      -8.138   9.018  66.824  1.00  0.00    -0.111 C  
HETATM   23  H   UNL     1      -5.589   8.868  66.002  1.00  0.00     0.000 HD 
HETATM   24  O   UNL     1      -8.862   7.891  67.320  1.00  0.00    -0.126 OA 
HETATM   25  C   UNL     1      -6.799   9.013  67.596  1.00  0.00    -0.070 C  
BRANCH  21  26
HETATM   26  C   UNL     1      -9.553   8.554  69.588  1.00  0.00    -0.170 C  
HETATM   27  H   UNL     1     -11.434   8.383  70.203  1.00  0.00     0.000 HD 
HETATM   28  O   UNL     1     -10.815   7.905  69.665  1.00  0.00    -0.242 OA 
ENDBRANCH  21  26
BRANCH  22  29
HETATM   29  O   UNL     1      -8.882  10.224  67.040  1.00  0.00    -0.135 OA 
BRANCH  29  30
HETATM   30  C   UNL     1      -9.817  10.639  65.987  1.00  0.00    -0.228 C  
HETATM   31  C   UNL     1      -9.769   9.651  64.791  1.00  0.00    -0.038 C  
HETATM   32  O   UNL     1     -10.744   8.608  65.010  1.00  0.00     2.566 OA 
HETATM   33  C   UNL     1     -10.003  10.195  63.372  1.00  0.00     0.270 C  
HETATM   34  C   UNL     1      -9.626  11.655  63.203  1.00  0.00    -0.348 C  
HETATM   35  N   UNL     1      -9.224   9.393  62.394  1.00  0.00    -0.532 NA 
HETATM   36  H   UNL     1     -10.714   8.003  64.278  1.00  0.00     0.000 HD 
HETATM   37  H1  UNL     1      -9.380   9.754  61.453  1.00  0.00     0.000 HD 
HETATM   38  H2  UNL     1      -9.430   8.397  62.462  1.00  0.00     0.000 HD 
HETATM   39  C   UNL     1     -10.309  12.502  64.275  1.00  0.00    -0.370 C  
HETATM   40  C   UNL     1      -9.725  12.157  65.669  1.00  0.00    -0.207 C  
HETATM   41  N   UNL     1     -10.112  13.930  63.943  1.00  0.00    -0.169 NA 
HETATM   42  H2  UNL     1     -10.430  14.160  63.001  1.00  0.00     0.000 HD 
HETATM   43  H1  UNL     1     -10.569  14.495  64.659  1.00  0.00     0.000 HD 
BRANCH  40  44
HETATM   44  O   UNL     1     -10.445  12.957  66.640  1.00  0.00    -0.258 OA 
BRANCH  44  45
HETATM   45  C   UNL     1      -9.659  13.468  67.720  1.00  0.00    -0.219 C  
HETATM   46  O   UNL     1      -8.857  14.578  67.310  1.00  0.00    -0.186 OA 
HETATM   47  C   UNL     1      -9.625  15.725  66.916  1.00  0.00    -0.230 C  
HETATM   48  C   UNL     1     -10.541  16.210  68.049  1.00  0.00    -0.304 C  
HETATM   49  H1  UNL     1     -12.041  12.970  70.153  1.00  0.00     0.000 HD 
HETATM   50  O   UNL     1     -11.354  17.324  67.653  1.00  0.00     0.012 OA 
HETATM   51  H2  UNL     1     -10.862  11.909  69.604  1.00  0.00     0.000 HD 
HETATM   52  C   UNL     1     -11.448  15.060  68.515  1.00  0.00    -0.317 C  
HETATM   53  H   UNL     1     -11.921  17.624  68.354  1.00  0.00     0.000 HD 
HETATM   54  O   UNL     1     -12.232  15.489  69.641  1.00  0.00    -0.464 OA 
HETATM   55  C   UNL     1     -10.586  13.846  68.908  1.00  0.00    -0.212 C  
HETATM   56  N   UNL     1     -11.433  12.722  69.373  1.00  0.00    -0.272 NA 
HETATM   57  H   UNL     1     -12.792  14.777  69.929  1.00  0.00     0.000 HD 
BRANCH  47  58
HETATM   58  C   UNL     1      -8.650  16.812  66.410  1.00  0.00    -0.303 C  
HETATM   59  H1  UNL     1      -8.451  18.908  66.308  1.00  0.00     0.000 HD 
HETATM   60  N   UNL     1      -9.095  18.190  66.643  1.00  0.00    -0.276 NA 
HETATM   61  H2  UNL     1      -9.303  18.333  67.631  1.00  0.00     0.000 HD 
ENDBRANCH  47  58
ENDBRANCH  44  45
ENDBRANCH  40  44
ENDBRANCH  29  30
ENDBRANCH  22  29
ENDBRANCH  18  19
ENDBRANCH   7  18
ENDBRANCH   2   5
TORSDOF 9
ENDMDL
MODEL      258
REMARK 921   NORMALIZED FREE ENERGY PREDICTED BY IDOCK:   -1.18 KCAL/MOL
REMARK 922        TOTAL FREE ENERGY PREDICTED BY IDOCK:   -4.62 KCAL/MOL
REMARK 923 INTER-LIGAND FREE ENERGY PREDICTED BY IDOCK:   -4.49 KCAL/MOL
REMARK 924 INTRA-LIGAND FREE ENERGY PREDICTED BY IDOCK:   -0.12 KCAL/MOL
REMARK 927      BINDING AFFINITY PREDICTED BY RF-SCORE:    0.00 PKD
ROOT
HETATM    1  N   UNL     1     -12.861  15.680  65.602  1.00  0.00     1.493 NA 
HETATM    2  C   UNL     1     -11.937  15.181  66.625  1.00  0.00     0.152 C  
HETATM    3  H1  UNL     1     -13.159  16.648  65.715  1.00  0.00     0.000 HD 
HETATM    4  H2  UNL     1     -13.675  15.069  65.540  1.00  0.00     0.000 HD 
ENDROOT
BRANCH   2   5
HETATM    5  C   UNL     1     -11.484  13.708  66.453  1.00  0.00    -0.338 C  
HETATM    6  O   UNL     1     -10.733  13.192  67.583  1.00  0.00    -0.234 OA 
HETATM    7  C   UNL     1     -10.459  11.791  67.407  1.00  0.00    -0.211 C  
HETATM    8  C   UNL     1      -9.556  11.563  66.151  1.00  0.00    -0.225 C  
HETATM    9  O   UNL     1      -9.488  14.497  65.297  1.00  0.00    -0.474 OA 
HETATM   10  H   UNL     1      -8.960  14.448  64.509  1.00  0.00     0.000 HD 
HETATM   11  N   UNL     1      -8.184  12.123  66.385  1.00  0.00    -0.395 NA 
HETATM   12  C   UNL     1     -10.195  12.178  64.906  1.00  0.00    -0.280 C  
HETATM   13  H2  UNL     1      -7.758  11.746  67.232  1.00  0.00     0.000 HD 
HETATM   14  O   UNL     1     -11.302  11.400  64.430  1.00  0.00    -0.266 OA 
HETATM   15  C   UNL     1     -10.624  13.627  65.167  1.00  0.00    -0.361 C  
HETATM   16  H1  UNL     1      -7.595  11.975  65.566  1.00  0.00     0.000 HD 
HETATM   17  H   UNL     1     -11.699  11.782  63.656  1.00  0.00     0.000 HD 
BRANCH   7  18
HETATM   18  O   UNL     1      -9.673  11.223  68.440  1.00  0.00    -0.181 OA 
BRANCH  18  19
HETATM   19  C   UNL     1      -9.175   9.898  68.318  1.00  0.00    -0.129 C  
HETATM   20  O   UNL     1      -8.346  10.231  70.633  1.00  0.00    -0.274 OA 
HETATM   21  C   UNL     1     -10.471   9.088  68.192  1.00  0.00    -0.207 C  
HETATM   22  C   UNL     1      -9.395   8.120  69.981  1.00  0.00    -0.159 C  
HETATM   23  H   UNL     1      -7.917   9.857  71.394  1.00  0.00     0.000 HD 
HETATM   24  O   UNL     1     -10.685   8.442  69.458  1.00  0.00    -0.227 OA 
HETATM   25  C   UNL     1      -8.479   9.289  69.554  1.00  0.00    -0.144 C  
BRANCH  21  26
HETATM   26  C   UNL     1     -10.470   8.089  67.032  1.00  0.00    -0.340 C  
HETATM   27  H   UNL     1     -11.126   6.253  66.646  1.00  0.00     0.000 HD 
HETATM   28  O   UNL     1     -11.127   6.873  67.366  1.00  0.00    -0.304 OA 
ENDBRANCH  21  26
BRANCH  22  29
HETATM   29  O   UNL     1      -8.945   6.862  69.462  1.00  0.00    -0.142 OA 
BRANCH  29  30
HETATM   30  C   UNL     1      -7.499   6.687  69.275  1.00  0.00    -0.095 C  
HETATM   31  C   UNL     1      -6.706   7.604  70.243  1.00  0.00    -0.046 C  
HETATM   32  O   UNL     1      -6.463   6.885  71.472  1.00  0.00    -0.041 OA 
HETATM   33  C   UNL     1      -5.356   8.176  69.782  1.00  0.00    -0.023 C  
HETATM   34  C   UNL     1      -5.233   8.327  68.277  1.00  0.00    -0.033 C  
HETATM   35  N   UNL     1      -5.136   9.506  70.406  1.00  0.00    -0.027 NA 
HETATM   36  H   UNL     1      -5.977   7.447  72.065  1.00  0.00     0.000 HD 
HETATM   37  H1  UNL     1      -4.239   9.885  70.100  1.00  0.00     0.000 HD 
HETATM   38  H2  UNL     1      -5.211   9.471  71.422  1.00  0.00     0.000 HD 
HETATM   39  C   UNL     1      -5.578   7.008  67.587  1.00  0.00    -0.020 C  
HETATM   40  C   UNL     1      -7.084   6.693  67.778  1.00  0.00    -0.085 C  
HETATM   41  N   UNL     1      -5.225   7.121  66.154  1.00  0.00    -0.023 NA 
HETATM   42  H2  UNL     1      -4.253   7.395  66.012  1.00  0.00     0.000 HD 
HETATM   43  H1  UNL     1      -5.455   6.240  65.694  1.00  0.00     0.000 HD 
BRANCH  40  44
HETATM   44  O   UNL     1      -7.333   5.414  67.143  1.00  0.00    -0.080 OA 
BRANCH  44  45
HETATM   45  C   UNL     1      -6.738   4.283  67.785  1.00  0.00    -0.051 C  
HETATM   46  O   UNL     1      -7.516   3.838  68.898  1.00  0.00    -0.053 OA 
HETATM   47  C   UNL     1      -8.810   3.340  68.531  1.00  0.00    -0.117 C  
HETATM   48  C   UNL     1      -8.707   2.169  67.542  1.00  0.00    -0.119 C  
HETATM   49  H1  UNL     1      -5.583   2.810  64.897  1.00  0.00     0.000 HD 
HETATM   50  O   UNL     1      -9.995   1.695  67.124  1.00  0.00    -0.100 OA 
HETATM   51  H2  UNL     1      -4.825   3.946  65.873  1.00  0.00     0.000 HD 
HETATM   52  C   UNL     1      -7.900   2.599  66.308  1.00  0.00    -0.080 C  
HETATM   53  H   UNL     1      -9.931   0.970  66.512  1.00  0.00     0.000 HD 
HETATM   54  O   UNL     1      -7.719   1.473  65.432  1.00  0.00    -0.064 OA 
HETATM   55  C   UNL     1      -6.529   3.144  66.748  1.00  0.00    -0.036 C  
HETATM   56  N   UNL     1      -5.720   3.558  65.577  1.00  0.00    -0.017 NA 
HETATM   57  H   UNL     1      -7.220   1.739  64.669  1.00  0.00     0.000 HD 
BRANCH  47  58
HETATM   58  C   UNL     1      -9.579   2.983  69.823  1.00  0.00    -0.038 C  
HETATM   59  H1  UNL     1      -9.814   1.404  71.200  1.00  0.00     0.000 HD 
HETATM   60  N   UNL     1      -9.306   1.640  70.347  1.00  0.00    -0.099 NA 
HETATM   61  H2  UNL     1      -8.303   1.510  70.483  1.00  0.00     0.000 HD 
ENDBRANCH  47  58
ENDBRANCH  44  45
ENDBRANCH  40  44
ENDBRANCH  29  30
ENDBRANCH  22  29
ENDBRANCH  18  19
ENDBRANCH   7  18
ENDBRANCH   2   5
TORSDOF 9
ENDMDL
MODEL      259
REMARK 921   NORMALIZED FREE ENERGY PREDICTED BY IDOCK:   -1.17 KCAL/MOL
REMARK 922        TOTAL FREE ENERGY PREDICTED BY IDOCK:   -4.60 KCAL/MOL
REMARK 923 INTER-LIGAND FREE ENERGY PREDICTED BY IDOCK:   -5.32 KCAL/MOL
REMARK 924 INTRA-LIGAND FREE ENERGY PREDICTED BY IDOCK:    0.72 KCAL/MOL
REMARK 927      BINDING AFFINITY PREDICTED BY RF-SCORE:    0.00 PKD
ROOT
HETATM    1  N   UNL     1     -13.009  16.141  69.375  1.00  0.00     0.011 NA 
HETATM    2  C   UNL     1     -12.245  14.890  69.365  1.00  0.00    -0.205 C  
HETATM    3  H1  UNL     1     -13.770  16.184  70.052  1.00  0.00     0.000 HD 
HETATM    4  H2  UNL     1     -13.363  16.341  68.440  1.00  0.00     0.000 HD 
ENDROOT
BRANCH   2   5
HETATM    5  C   UNL     1     -11.088  14.824  68.334  1.00  0.00    -0.263 C  
HETATM    6  O   UNL     1      -9.928  14.089  68.803  1.00  0.00    -0.224 OA 
HETATM    7  C   UNL     1      -8.954  13.963  67.753  1.00  0.00    -0.188 C  
HETATM    8  C   UNL     1      -8.425  15.371  67.324  1.00  0.00    -0.192 C  
HETATM    9  O   UNL     1     -10.264  16.956  69.181  1.00  0.00    -0.283 OA 
HETATM   10  H   UNL     1     -10.016  17.849  68.968  1.00  0.00     0.000 HD 
HETATM   11  N   UNL     1      -7.616  15.984  68.429  1.00  0.00    -0.140 NA 
HETATM   12  C   UNL     1      -9.583  16.283  66.919  1.00  0.00    -0.232 C  
HETATM   13  H2  UNL     1      -6.860  15.371  68.732  1.00  0.00     0.000 HD 
HETATM   14  O   UNL     1     -10.118  15.934  65.636  1.00  0.00    -0.327 OA 
HETATM   15  C   UNL     1     -10.685  16.279  67.987  1.00  0.00    -0.331 C  
HETATM   16  H1  UNL     1      -7.272  16.903  68.150  1.00  0.00     0.000 HD 
HETATM   17  H   UNL     1     -10.838  16.501  65.384  1.00  0.00     0.000 HD 
BRANCH   7  18
HETATM   18  O   UNL     1      -7.761  13.310  68.149  1.00  0.00    -0.120 OA 
BRANCH  18  19
HETATM   19  C   UNL     1      -7.815  12.055  68.814  1.00  0.00    -0.033 C  
HETATM   20  O   UNL     1      -8.588  11.176  66.626  1.00  0.00    -0.154 OA 
HETATM   21  C   UNL     1      -6.337  11.809  69.139  1.00  0.00    -0.086 C  
HETATM   22  C   UNL     1      -6.955   9.934  67.958  1.00  0.00    -0.077 C  
HETATM   23  H   UNL     1      -8.835  10.420  66.107  1.00  0.00     0.000 HD 
HETATM   24  O   UNL     1      -5.864  10.821  68.209  1.00  0.00    -0.044 OA 
HETATM   25  C   UNL     1      -8.217  10.826  67.972  1.00  0.00    -0.115 C  
BRANCH  21  26
HETATM   26  C   UNL     1      -6.080  11.399  70.592  1.00  0.00     0.044 C  
HETATM   27  H   UNL     1      -5.256   9.892  71.590  1.00  0.00     0.000 HD 
HETATM   28  O   UNL     1      -5.415  10.147  70.690  1.00  0.00    -0.056 OA 
ENDBRANCH  21  26
BRANCH  22  29
HETATM   29  O   UNL     1      -7.007   8.909  68.958  1.00  0.00    -0.061 OA 
BRANCH  29  30
HETATM   30  C   UNL     1      -8.321   8.329  69.264  1.00  0.00    -0.122 C  
HETATM   31  C   UNL     1      -8.454   8.040  70.782  1.00  0.00    -0.124 C  
HETATM   32  O   UNL     1      -9.007   9.206  71.431  1.00  0.00    -0.283 OA 
HETATM   33  C   UNL     1      -9.292   6.833  71.235  1.00  0.00    -0.165 C  
HETATM   34  C   UNL     1      -9.364   5.715  70.212  1.00  0.00    -0.186 C  
HETATM   35  N   UNL     1      -8.731   6.280  72.495  1.00  0.00    -0.121 NA 
HETATM   36  H   UNL     1      -9.088   9.029  72.361  1.00  0.00     0.000 HD 
HETATM   37  H1  UNL     1      -9.287   5.479  72.796  1.00  0.00     0.000 HD 
HETATM   38  H2  UNL     1      -8.653   6.988  73.224  1.00  0.00     0.000 HD 
HETATM   39  C   UNL     1      -9.815   6.267  68.861  1.00  0.00    -0.134 C  
HETATM   40  C   UNL     1      -8.718   7.194  68.278  1.00  0.00    -0.128 C  
HETATM   41  N   UNL     1     -10.099   5.130  67.959  1.00  0.00    -0.148 NA 
HETATM   42  H2  UNL     1     -10.770   4.473  68.357  1.00  0.00     0.000 HD 
HETATM   43  H1  UNL     1     -10.401   5.499  67.057  1.00  0.00     0.000 HD 
BRANCH  40  44
HETATM   44  O   UNL     1      -9.226   7.718  67.027  1.00  0.00    -0.134 OA 
BRANCH  44  45
HETATM   45  C   UNL     1      -8.926   6.939  65.866  1.00  0.00    -0.064 C  
HETATM   46  O   UNL     1      -8.984   7.724  64.673  1.00  0.00     0.343 OA 
HETATM   47  C   UNL     1      -7.989   8.756  64.618  1.00  0.00    -0.135 C  
HETATM   48  C   UNL     1      -6.569   8.182  64.724  1.00  0.00    -0.059 C  
HETATM   49  H1  UNL     1      -6.518   4.991  67.367  1.00  0.00     0.000 HD 
HETATM   50  O   UNL     1      -5.565   9.207  64.723  1.00  0.00    -0.059 OA 
HETATM   51  H2  UNL     1      -8.176   4.738  67.287  1.00  0.00     0.000 HD 
HETATM   52  C   UNL     1      -6.440   7.346  66.006  1.00  0.00    -0.045 C  
HETATM   53  H   UNL     1      -4.686   8.851  64.789  1.00  0.00     0.000 HD 
HETATM   54  O   UNL     1      -5.142   6.727  66.052  1.00  0.00    -0.016 OA 
HETATM   55  C   UNL     1      -7.535   6.265  66.034  1.00  0.00    -0.082 C  
HETATM   56  N   UNL     1      -7.430   5.433  67.257  1.00  0.00    -0.083 NA 
HETATM   57  H   UNL     1      -5.063   6.210  66.845  1.00  0.00     0.000 HD 
BRANCH  47  58
HETATM   58  C   UNL     1      -8.219   9.584  63.333  1.00  0.00    -0.163 C  
HETATM   59  H1  UNL     1      -8.949  11.461  62.709  1.00  0.00     0.000 HD 
HETATM   60  N   UNL     1      -8.797  10.914  63.557  1.00  0.00    -0.336 NA 
HETATM   61  H2  UNL     1      -8.228  11.441  64.221  1.00  0.00     0.000 HD 
ENDBRANCH  47  58
ENDBRANCH  44  45
ENDBRANCH  40  44
ENDBRANCH  29  30
ENDBRANCH  22  29
ENDBRANCH  18  19
ENDBRANCH   7  18
ENDBRANCH   2   5
TORSDOF 9
ENDMDL
MODEL      260
REMARK 921   NORMALIZED FREE ENERGY PREDICTED BY IDOCK:   -1.11 KCAL/MOL
REMARK 922        TOTAL FREE ENERGY PREDICTED BY IDOCK:   -4.51 KCAL/MOL
REMARK 923 INTER-LIGAND FREE ENERGY PREDICTED BY IDOCK:   -5.23 KCAL/MOL
REMARK 924 INTRA-LIGAND FREE ENERGY PREDICTED BY IDOCK:    0.72 KCAL/MOL
REMARK 927      BINDING AFFINITY PREDICTED BY RF-SCORE:    0.00 PKD
ROOT
HETATM    1  N   UNL     1      -7.745   6.128  62.369  1.00  0.00    -0.073 NA 
HETATM    2  C   UNL     1      -7.795   4.685  62.621  1.00  0.00    -0.067 C  
HETATM    3  H1  UNL     1      -7.634   6.399  61.392  1.00  0.00     0.000 HD 
HETATM    4  H2  UNL     1      -7.013   6.556  62.935  1.00  0.00     0.000 HD 
ENDROOT
BRANCH   2   5
HETATM    5  C   UNL     1      -7.964   4.273  64.107  1.00  0.00    -0.090 C  
HETATM    6  O   UNL     1      -7.391   5.220  65.045  1.00  0.00    -0.065 OA 
HETATM    7  C   UNL     1      -7.697   4.837  66.397  1.00  0.00    -0.091 C  
HETATM    8  C   UNL     1      -7.047   3.455  66.733  1.00  0.00    -0.055 C  
HETATM    9  O   UNL     1      -5.909   2.973  63.938  1.00  0.00    -0.010 OA 
HETATM   10  H   UNL     1      -5.500   2.122  64.050  1.00  0.00     0.000 HD 
HETATM   11  N   UNL     1      -5.552   3.575  66.772  1.00  0.00    -0.021 NA 
HETATM   12  C   UNL     1      -7.487   2.391  65.728  1.00  0.00    -0.068 C  
HETATM   13  H2  UNL     1      -5.246   4.305  67.416  1.00  0.00     0.000 HD 
HETATM   14  O   UNL     1      -8.840   1.971  65.947  1.00  0.00    -0.117 OA 
HETATM   15  C   UNL     1      -7.299   2.885  64.288  1.00  0.00    -0.066 C  
HETATM   16  H1  UNL     1      -5.128   2.674  66.991  1.00  0.00     0.000 HD 
HETATM   17  H   UNL     1      -9.114   1.310  65.322  1.00  0.00     0.000 HD 
BRANCH   7  18
HETATM   18  O   UNL     1      -7.120   5.679  67.379  1.00  0.00    -0.071 OA 
BRANCH  18  19
HETATM   19  C   UNL     1      -7.559   7.023  67.520  1.00  0.00    -0.109 C  
HETATM   20  O   UNL     1      -7.214   6.649  69.950  1.00  0.00    -0.075 OA 
HETATM   21  C   UNL     1      -6.441   7.793  66.806  1.00  0.00    -0.054 C  
HETATM   22  C   UNL     1      -6.505   8.743  68.901  1.00  0.00    -0.049 C  
HETATM   23  H   UNL     1      -7.217   7.015  70.826  1.00  0.00     0.000 HD 
HETATM   24  O   UNL     1      -5.629   8.394  67.829  1.00  0.00    -0.034 OA 
HETATM   25  C   UNL     1      -7.564   7.618  68.944  1.00  0.00    -0.101 C  
BRANCH  21  26
HETATM   26  C   UNL     1      -6.945   8.825  65.794  1.00  0.00    -0.076 C  
HETATM   27  H   UNL     1      -7.105   9.025  63.824  1.00  0.00     0.000 HD 
HETATM   28  O   UNL     1      -6.792   8.385  64.452  1.00  0.00    -0.068 OA 
ENDBRANCH  21  26
BRANCH  22  29
HETATM   29  O   UNL     1      -7.093  10.030  68.669  1.00  0.00    -0.075 OA 
BRANCH  29  30
HETATM   30  C   UNL     1      -8.416  10.283  69.251  1.00  0.00    -0.166 C  
HETATM   31  C   UNL     1      -8.796   9.166  70.257  1.00  0.00    -0.213 C  
HETATM   32  O   UNL     1      -8.333   9.546  71.571  1.00  0.00    -0.222 OA 
HETATM   33  C   UNL     1     -10.274   8.768  70.399  1.00  0.00    -0.197 C  
HETATM   34  C   UNL     1     -11.101   9.018  69.150  1.00  0.00     0.072 C  
HETATM   35  N   UNL     1     -10.374   7.327  70.746  1.00  0.00    -0.202 NA 
HETATM   36  H   UNL     1      -8.566   8.861  72.188  1.00  0.00     0.000 HD 
HETATM   37  H1  UNL     1     -11.355   7.064  70.840  1.00  0.00     0.000 HD 
HETATM   38  H2  UNL     1      -9.833   7.094  71.578  1.00  0.00     0.000 HD 
HETATM   39  C   UNL     1     -10.925  10.462  68.683  1.00  0.00    -0.243 C  
HETATM   40  C   UNL     1      -9.474  10.679  68.183  1.00  0.00    -0.154 C  
HETATM   41  N   UNL     1     -11.913  10.735  67.618  1.00  0.00    -0.440 NA 
HETATM   42  H2  UNL     1     -12.869  10.532  67.909  1.00  0.00     0.000 HD 
HETATM   43  H1  UNL     1     -11.795  11.699  67.306  1.00  0.00     0.000 HD 
BRANCH  40  44
HETATM   44  O   UNL     1      -9.361  12.072  67.801  1.00  0.00    -0.178 OA 
BRANCH  44  45
HETATM   45  C   UNL     1      -9.151  12.990  68.877  1.00  0.00     0.322 C  
HETATM   46  O   UNL     1      -8.038  13.851  68.626  1.00  0.00    -0.141 OA 
HETATM   47  C   UNL     1      -8.232  14.727  67.506  1.00  0.00    -0.185 C  
HETATM   48  C   UNL     1      -9.472  15.615  67.689  1.00  0.00    -0.211 C  
HETATM   49  H1  UNL     1     -12.484  13.483  69.573  1.00  0.00     0.000 HD 
HETATM   50  O   UNL     1      -9.709  16.459  66.554  1.00  0.00    -0.241 OA 
HETATM   51  H2  UNL     1     -11.447  12.310  70.177  1.00  0.00     0.000 HD 
HETATM   52  C   UNL     1     -10.709  14.739  67.938  1.00  0.00    -0.259 C  
HETATM   53  H   UNL     1     -10.476  17.009  66.668  1.00  0.00     0.000 HD 
HETATM   54  O   UNL     1     -11.847  15.574  68.209  1.00  0.00    -0.438 OA 
HETATM   55  C   UNL     1     -10.450  13.803  69.133  1.00  0.00    -0.021 C  
HETATM   56  N   UNL     1     -11.632  12.950  69.405  1.00  0.00    -0.300 NA 
HETATM   57  H   UNL     1     -12.612  15.032  68.363  1.00  0.00     0.000 HD 
BRANCH  47  58
HETATM   58  C   UNL     1      -6.931  15.531  67.287  1.00  0.00    -0.171 C  
HETATM   59  H1  UNL     1      -4.867  15.444  67.706  1.00  0.00     0.000 HD 
HETATM   60  N   UNL     1      -5.726  14.912  67.851  1.00  0.00    -0.205 NA 
HETATM   61  H2  UNL     1      -5.618  13.961  67.499  1.00  0.00     0.000 HD 
ENDBRANCH  47  58
ENDBRANCH  44  45
ENDBRANCH  40  44
ENDBRANCH  29  30
ENDBRANCH  22  29
ENDBRANCH  18  19
ENDBRANCH   7  18
ENDBRANCH   2   5
TORSDOF 9
ENDMDL
MODEL      261
REMARK 921   NORMALIZED FREE ENERGY PREDICTED BY IDOCK:   -0.93 KCAL/MOL
REMARK 922        TOTAL FREE ENERGY PREDICTED BY IDOCK:   -4.24 KCAL/MOL
REMARK 923 INTER-LIGAND FREE ENERGY PREDICTED BY IDOCK:   -3.97 KCAL/MOL
REMARK 924 INTRA-LIGAND FREE ENERGY PREDICTED BY IDOCK:   -0.27 KCAL/MOL
REMARK 927      BINDING AFFINITY PREDICTED BY RF-SCORE:    0.00 PKD
ROOT
HETATM    1  N   UNL     1     -12.179  13.069  70.615  1.00  0.00    -0.448 NA 
HETATM    2  C   UNL     1     -12.046  13.895  69.412  1.00  0.00    -0.337 C  
HETATM    3  H1  UNL     1     -11.962  13.537  71.494  1.00  0.00     0.000 HD 
HETATM    4  H2  UNL     1     -11.615  12.224  70.522  1.00  0.00     0.000 HD 
ENDROOT
BRANCH   2   5
HETATM    5  C   UNL     1     -12.375  13.183  68.074  1.00  0.00     0.162 C  
HETATM    6  O   UNL     1     -11.539  12.028  67.806  1.00  0.00    -0.310 OA 
HETATM    7  C   UNL     1     -11.984  11.349  66.618  1.00  0.00     0.787 C  
HETATM    8  C   UNL     1     -11.842  12.281  65.370  1.00  0.00    -0.360 C  
HETATM    9  O   UNL     1     -10.871  14.723  66.930  1.00  0.00    -0.302 OA 
HETATM   10  H   UNL     1     -10.773  15.361  66.233  1.00  0.00     0.000 HD 
HETATM   11  N   UNL     1     -10.394  12.529  65.065  1.00  0.00    -0.294 NA 
HETATM   12  C   UNL     1     -12.591  13.595  65.588  1.00  0.00    -0.484 C  
HETATM   13  H2  UNL     1      -9.875  11.658  64.950  1.00  0.00     0.000 HD 
HETATM   14  O   UNL     1     -14.011  13.429  65.482  1.00  0.00     0.549 OA 
HETATM   15  C   UNL     1     -12.217  14.223  66.937  1.00  0.00    -0.331 C  
HETATM   16  H1  UNL     1     -10.301  13.136  64.251  1.00  0.00     0.000 HD 
HETATM   17  H   UNL     1     -14.477  14.246  65.618  1.00  0.00     0.000 HD 
BRANCH   7  18
HETATM   18  O   UNL     1     -11.179  10.242  66.251  1.00  0.00     0.224 OA 
BRANCH  18  19
HETATM   19  C   UNL     1     -10.995   9.158  67.152  1.00  0.00     0.144 C  
HETATM   20  O   UNL     1      -9.605   8.179  65.344  1.00  0.00    -0.300 OA 
HETATM   21  C   UNL     1     -10.219   9.828  68.292  1.00  0.00    -0.183 C  
HETATM   22  C   UNL     1      -8.872   8.067  67.675  1.00  0.00    -0.125 C  
HETATM   23  H   UNL     1      -9.034   7.474  65.064  1.00  0.00     0.000 HD 
HETATM   24  O   UNL     1      -8.850   9.407  68.168  1.00  0.00    -0.124 OA 
HETATM   25  C   UNL     1     -10.067   8.012  66.697  1.00  0.00    -0.259 C  
BRANCH  21  26
HETATM   26  C   UNL     1     -10.784   9.536  69.685  1.00  0.00    -0.238 C  
HETATM   27  H   UNL     1     -12.400   9.970  70.757  1.00  0.00     0.000 HD 
HETATM   28  O   UNL     1     -12.049  10.151  69.893  1.00  0.00    -0.160 OA 
ENDBRANCH  21  26
BRANCH  22  29
HETATM   29  O   UNL     1      -9.017   7.138  68.757  1.00  0.00    -0.130 OA 
BRANCH  29  30
HETATM   30  C   UNL     1      -7.796   6.502  69.269  1.00  0.00    -0.110 C  
HETATM   31  C   UNL     1      -7.577   5.120  68.600  1.00  0.00    -0.078 C  
HETATM   32  O   UNL     1      -6.780   5.300  67.409  1.00  0.00    -0.052 OA 
HETATM   33  C   UNL     1      -6.916   3.998  69.417  1.00  0.00    -0.046 C  
HETATM   34  C   UNL     1      -7.126   4.123  70.915  1.00  0.00    -0.033 C  
HETATM   35  N   UNL     1      -7.446   2.680  68.979  1.00  0.00    -0.044 NA 
HETATM   36  H   UNL     1      -6.646   4.453  66.999  1.00  0.00     0.000 HD 
HETATM   37  H1  UNL     1      -7.007   1.936  69.521  1.00  0.00     0.000 HD 
HETATM   38  H2  UNL     1      -7.338   2.538  67.975  1.00  0.00     0.000 HD 
HETATM   39  C   UNL     1      -6.712   5.515  71.389  1.00  0.00    -0.056 C  
HETATM   40  C   UNL     1      -7.686   6.576  70.817  1.00  0.00    -0.101 C  
HETATM   41  N   UNL     1      -6.705   5.526  72.868  1.00  0.00    -0.071 NA 
HETATM   42  H2  UNL     1      -6.121   4.788  73.262  1.00  0.00     0.000 HD 
HETATM   43  H1  UNL     1      -6.429   6.455  73.184  1.00  0.00     0.000 HD 
BRANCH  40  44
HETATM   44  O   UNL     1      -7.213   7.871  71.263  1.00  0.00    -0.056 OA 
BRANCH  44  45
HETATM   45  C   UNL     1      -5.795   8.054  71.225  1.00  0.00    -0.034 C  
HETATM   46  O   UNL     1      -5.262   7.781  69.927  1.00  0.00    -0.023 OA 
HETATM   47  C   UNL     1      -5.719   8.692  68.917  1.00  0.00    -0.040 C  
HETATM   48  C   UNL     1      -5.367  10.146  69.264  1.00  0.00    -0.038 C  
HETATM   49  H1  UNL     1      -5.734  10.763  73.345  1.00  0.00     0.000 HD 
HETATM   50  O   UNL     1      -5.864  11.074  68.290  1.00  0.00    -0.046 OA 
HETATM   51  H2  UNL     1      -5.660   9.130  73.725  1.00  0.00     0.000 HD 
HETATM   52  C   UNL     1      -5.939  10.505  70.644  1.00  0.00    -0.104 C  
HETATM   53  H   UNL     1      -5.646  11.974  68.505  1.00  0.00     0.000 HD 
HETATM   54  O   UNL     1      -5.522  11.832  71.010  1.00  0.00    -0.247 OA 
HETATM   55  C   UNL     1      -5.440   9.493  71.692  1.00  0.00    -0.073 C  
HETATM   56  N   UNL     1      -5.967   9.819  73.039  1.00  0.00    -0.116 NA 
HETATM   57  H   UNL     1      -5.875  12.053  71.864  1.00  0.00     0.000 HD 
BRANCH  47  58
HETATM   58  C   UNL     1      -5.150   8.234  67.556  1.00  0.00    -0.033 C  
HETATM   59  H1  UNL     1      -5.686   8.105  65.521  1.00  0.00     0.000 HD 
HETATM   60  N   UNL     1      -6.062   8.408  66.420  1.00  0.00    -0.051 NA 
HETATM   61  H2  UNL     1      -6.377   9.377  66.364  1.00  0.00     0.000 HD 
ENDBRANCH  47  58
ENDBRANCH  44  45
ENDBRANCH  40  44
ENDBRANCH  29  30
ENDBRANCH  22  29
ENDBRANCH  18  19
ENDBRANCH   7  18
ENDBRANCH   2   5
TORSDOF 9
ENDMDL
MODEL      262
REMARK 921   NORMALIZED FREE ENERGY PREDICTED BY IDOCK:   -0.88 KCAL/MOL
REMARK 922        TOTAL FREE ENERGY PREDICTED BY IDOCK:   -4.16 KCAL/MOL
REMARK 923 INTER-LIGAND FREE ENERGY PREDICTED BY IDOCK:   -3.60 KCAL/MOL
REMARK 924 INTRA-LIGAND FREE ENERGY PREDICTED BY IDOCK:   -0.56 KCAL/MOL
REMARK 927      BINDING AFFINITY PREDICTED BY RF-SCORE:    0.00 PKD
ROOT
HETATM    1  N   UNL     1      -5.183   3.588  67.774  1.00  0.00    -0.011 NA 
HETATM    2  C   UNL     1      -6.500   3.349  67.179  1.00  0.00    -0.037 C  
HETATM    3  H1  UNL     1      -4.495   2.850  67.627  1.00  0.00     0.000 HD 
HETATM    4  H2  UNL     1      -5.280   3.780  68.771  1.00  0.00     0.000 HD 
ENDROOT
BRANCH   2   5
HETATM    5  C   UNL     1      -7.547   4.472  67.404  1.00  0.00    -0.082 C  
HETATM    6  O   UNL     1      -7.005   5.812  67.273  1.00  0.00    -0.062 OA 
HETATM    7  C   UNL     1      -8.054   6.791  67.368  1.00  0.00    -0.118 C  
HETATM    8  C   UNL     1      -8.726   6.736  68.779  1.00  0.00    -0.125 C  
HETATM    9  O   UNL     1      -7.091   4.363  69.796  1.00  0.00    -0.047 OA 
HETATM   10  H   UNL     1      -7.456   4.246  70.666  1.00  0.00     0.000 HD 
HETATM   11  N   UNL     1      -7.765   7.202  69.834  1.00  0.00    -0.105 NA 
HETATM   12  C   UNL     1      -9.234   5.327  69.082  1.00  0.00    -0.118 C  
HETATM   13  H2  UNL     1      -7.393   8.129  69.626  1.00  0.00     0.000 HD 
HETATM   14  O   UNL     1     -10.423   5.015  68.345  1.00  0.00    -0.076 OA 
HETATM   15  C   UNL     1      -8.142   4.281  68.821  1.00  0.00    -0.072 C  
HETATM   16  H1  UNL     1      -8.203   7.167  70.754  1.00  0.00     0.000 HD 
HETATM   17  H   UNL     1     -10.739   4.138  68.533  1.00  0.00     0.000 HD 
BRANCH   7  18
HETATM   18  O   UNL     1      -7.598   8.131  67.312  1.00  0.00    -0.094 OA 
BRANCH  18  19
HETATM   19  C   UNL     1      -8.278   9.152  68.030  1.00  0.00    -0.112 C  
HETATM   20  O   UNL     1      -6.617  10.680  66.997  1.00  0.00    -0.072 OA 
HETATM   21  C   UNL     1      -9.660   9.133  67.366  1.00  0.00    -0.151 C  
HETATM   22  C   UNL     1      -8.975  11.318  67.138  1.00  0.00    -0.155 C  
HETATM   23  H   UNL     1      -6.317  11.572  66.871  1.00  0.00     0.000 HD 
HETATM   24  O   UNL     1      -9.724  10.281  66.503  1.00  0.00    -0.177 OA 
HETATM   25  C   UNL     1      -7.791  10.602  67.827  1.00  0.00    -0.108 C  
BRANCH  21  26
HETATM   26  C   UNL     1     -10.826   9.096  68.358  1.00  0.00    -0.048 C  
HETATM   27  H   UNL     1     -11.114   9.194  70.321  1.00  0.00     0.000 HD 
HETATM   28  O   UNL     1     -10.391   9.217  69.706  1.00  0.00    -0.198 OA 
ENDBRANCH  21  26
BRANCH  22  29
HETATM   29  O   UNL     1      -9.796  12.027  68.075  1.00  0.00    -0.187 OA 
BRANCH  29  30
HETATM   30  C   UNL     1     -10.802  12.947  67.530  1.00  0.00    -0.235 C  
HETATM   31  C   UNL     1     -10.511  13.257  66.039  1.00  0.00    -0.286 C  
HETATM   32  O   UNL     1     -11.200  12.289  65.218  1.00  0.00    -0.309 OA 
HETATM   33  C   UNL     1     -10.868  14.648  65.488  1.00  0.00    -0.345 C  
HETATM   34  C   UNL     1     -10.861  15.745  66.537  1.00  0.00    -0.230 C  
HETATM   35  N   UNL     1      -9.913  15.021  64.413  1.00  0.00    -0.218 NA 
HETATM   36  H   UNL     1     -11.021  12.479  64.304  1.00  0.00     0.000 HD 
HETATM   37  H1  UNL     1     -10.151  15.944  64.048  1.00  0.00     0.000 HD 
HETATM   38  H2  UNL     1      -9.869  14.317  63.677  1.00  0.00     0.000 HD 
HETATM   39  C   UNL     1     -11.734  15.343  67.724  1.00  0.00    -0.146 C  
HETATM   40  C   UNL     1     -11.086  14.150  68.473  1.00  0.00    -0.255 C  
HETATM   41  N   UNL     1     -11.893  16.517  68.610  1.00  0.00     0.065 NA 
HETATM   42  H2  UNL     1     -12.255  17.333  68.117  1.00  0.00     0.000 HD 
HETATM   43  H1  UNL     1     -12.475  16.248  69.403  1.00  0.00     0.000 HD 
BRANCH  40  44
HETATM   44  O   UNL     1     -11.982  13.790  69.553  1.00  0.00    -0.307 OA 
BRANCH  44  45
HETATM   45  C   UNL     1     -11.348  13.369  70.764  1.00  0.00     0.992 C  
HETATM   46  O   UNL     1     -10.925  14.482  71.554  1.00  0.00     0.416 OA 
HETATM   47  C   UNL     1     -12.010  15.287  72.037  1.00  0.00    -0.411 C  
HETATM   48  C   UNL     1     -12.992  14.465  72.885  1.00  0.00    -0.481 C  
HETATM   49  H1  UNL     1     -13.394  10.656  71.305  1.00  0.00     0.000 HD 
HETATM   50  O   UNL     1     -14.110  15.244  73.332  1.00  0.00    -0.334 OA 
HETATM   51  H2  UNL     1     -11.972  10.739  70.417  1.00  0.00     0.000 HD 
HETATM   52  C   UNL     1     -13.501  13.263  72.075  1.00  0.00    -0.507 C  
HETATM   53  H   UNL     1     -14.718  14.735  73.857  1.00  0.00     0.000 HD 
HETATM   54  O   UNL     1     -14.340  12.441  72.904  1.00  0.00    -0.247 OA 
HETATM   55  C   UNL     1     -12.306  12.440  71.560  1.00  0.00     0.172 C  
HETATM   56  N   UNL     1     -12.766  11.265  70.782  1.00  0.00    -0.300 NA 
HETATM   57  H   UNL     1     -14.654  11.698  72.403  1.00  0.00     0.000 HD 
BRANCH  47  58
HETATM   58  C   UNL     1     -11.419  16.500  72.790  1.00  0.00     0.305 C  
HETATM   59  H1  UNL     1     -11.992  18.364  73.589  1.00  0.00     0.000 HD 
HETATM   60  N   UNL     1     -12.383  17.564  73.092  1.00  0.00     1.219 NA 
HETATM   61  H2  UNL     1     -13.181  17.184  73.603  1.00  0.00     0.000 HD 
ENDBRANCH  47  58
ENDBRANCH  44  45
ENDBRANCH  40  44
ENDBRANCH  29  30
ENDBRANCH  22  29
ENDBRANCH  18  19
ENDBRANCH   7  18
ENDBRANCH   2   5
TORSDOF 9
ENDMDL
MODEL      263
REMARK 921   NORMALIZED FREE ENERGY PREDICTED BY IDOCK:   -0.75 KCAL/MOL
REMARK 922        TOTAL FREE ENERGY PREDICTED BY IDOCK:   -3.96 KCAL/MOL
REMARK 923 INTER-LIGAND FREE ENERGY PREDICTED BY IDOCK:   -5.64 KCAL/MOL
REMARK 924 INTRA-LIGAND FREE ENERGY PREDICTED BY IDOCK:    1.68 KCAL/MOL
REMARK 927      BINDING AFFINITY PREDICTED BY RF-SCORE:    0.00 PKD
ROOT
HETATM    1  N   UNL     1      -8.654  16.563  67.017  1.00  0.00    -0.182 NA 
HETATM    2  C   UNL     1      -9.663  15.867  67.820  1.00  0.00    -0.220 C  
HETATM    3  H1  UNL     1      -7.982  17.119  67.544  1.00  0.00     0.000 HD 
HETATM    4  H2  UNL     1      -9.109  17.143  66.312  1.00  0.00     0.000 HD 
ENDROOT
BRANCH   2   5
HETATM    5  C   UNL     1     -10.687  15.022  67.017  1.00  0.00    -0.304 C  
HETATM    6  O   UNL     1     -10.202  13.701  66.658  1.00  0.00    -0.266 OA 
HETATM    7  C   UNL     1     -11.246  12.936  66.031  1.00  0.00    -0.293 C  
HETATM    8  C   UNL     1     -11.688  13.609  64.691  1.00  0.00    -0.388 C  
HETATM    9  O   UNL     1      -9.862  16.044  64.964  1.00  0.00    -0.338 OA 
HETATM   10  H   UNL     1     -10.084  16.531  64.178  1.00  0.00     0.000 HD 
HETATM   11  N   UNL     1     -10.586  13.527  63.676  1.00  0.00    -0.332 NA 
HETATM   12  C   UNL     1     -12.111  15.058  64.928  1.00  0.00    -0.201 C  
HETATM   13  H2  UNL     1     -10.271  12.567  63.533  1.00  0.00     0.000 HD 
HETATM   14  O   UNL     1     -13.393  15.148  65.563  1.00  0.00     0.391 OA 
HETATM   15  C   UNL     1     -11.050  15.815  65.737  1.00  0.00    -0.124 C  
HETATM   16  H1  UNL     1     -10.874  13.966  62.802  1.00  0.00     0.000 HD 
HETATM   17  H   UNL     1     -13.656  16.049  65.710  1.00  0.00     0.000 HD 
BRANCH   7  18
HETATM   18  O   UNL     1     -10.835  11.653  65.593  1.00  0.00    -0.276 OA 
BRANCH  18  19
HETATM   19  C   UNL     1     -10.181  10.763  66.489  1.00  0.00    -0.235 C  
HETATM   20  O   UNL     1      -8.341  10.788  64.823  1.00  0.00    -0.325 OA 
HETATM   21  C   UNL     1      -9.970  11.656  67.718  1.00  0.00    -0.181 C  
HETATM   22  C   UNL     1      -7.853  10.909  67.217  1.00  0.00    -0.116 C  
HETATM   23  H   UNL     1      -7.463  10.508  64.593  1.00  0.00     0.000 HD 
HETATM   24  O   UNL     1      -8.581  12.024  67.734  1.00  0.00    -0.143 OA 
HETATM   25  C   UNL     1      -8.754  10.308  66.116  1.00  0.00    -0.152 C  
BRANCH  21  26
HETATM   26  C   UNL     1     -10.409  11.013  69.036  1.00  0.00    -0.209 C  
HETATM   27  H   UNL     1     -12.090  10.659  70.034  1.00  0.00     0.000 HD 
HETATM   28  O   UNL     1     -11.818  11.058  69.216  1.00  0.00    -0.298 OA 
ENDBRANCH  21  26
BRANCH  22  29
HETATM   29  O   UNL     1      -7.573   9.967  68.261  1.00  0.00    -0.082 OA 
BRANCH  29  30
HETATM   30  C   UNL     1      -6.317   9.213  68.172  1.00  0.00    -0.055 C  
HETATM   31  C   UNL     1      -5.999   8.848  66.699  1.00  0.00    -0.053 C  
HETATM   32  O   UNL     1      -5.207   9.907  66.117  1.00  0.00    -0.037 OA 
HETATM   33  C   UNL     1      -5.270   7.527  66.404  1.00  0.00    -0.024 C  
HETATM   34  C   UNL     1      -5.498   6.451  67.450  1.00  0.00    -0.005 C  
HETATM   35  N   UNL     1      -5.705   6.998  65.086  1.00  0.00    -0.032 NA 
HETATM   36  H   UNL     1      -5.013   9.683  65.214  1.00  0.00     0.000 HD 
HETATM   37  H1  UNL     1      -5.221   6.122  64.891  1.00  0.00     0.000 HD 
HETATM   38  H2  UNL     1      -5.581   7.680  64.338  1.00  0.00     0.000 HD 
HETATM   39  C   UNL     1      -5.184   6.997  68.842  1.00  0.00    -0.014 C  
HETATM   40  C   UNL     1      -6.224   8.079  69.231  1.00  0.00    -0.035 C  
HETATM   41  N   UNL     1      -5.189   5.870  69.801  1.00  0.00    -0.004 NA 
HETATM   42  H2  UNL     1      -4.559   5.118  69.524  1.00  0.00     0.000 HD 
HETATM   43  H1  UNL     1      -4.979   6.235  70.730  1.00  0.00     0.000 HD 
BRANCH  40  44
HETATM   44  O   UNL     1      -5.842   8.585  70.534  1.00  0.00    -0.028 OA 
BRANCH  44  45
HETATM   45  C   UNL     1      -6.909   8.725  71.475  1.00  0.00    -0.084 C  
HETATM   46  O   UNL     1      -7.991   7.837  71.184  1.00  0.00    -0.087 OA 
HETATM   47  C   UNL     1      -7.645   6.451  71.312  1.00  0.00    -0.094 C  
HETATM   48  C   UNL     1      -7.145   6.120  72.726  1.00  0.00    -0.076 C  
HETATM   49  H1  UNL     1      -4.893   9.266  74.211  1.00  0.00     0.000 HD 
HETATM   50  O   UNL     1      -6.745   4.749  72.856  1.00  0.00    -0.062 OA 
HETATM   51  H2  UNL     1      -5.511  10.385  73.123  1.00  0.00     0.000 HD 
HETATM   52  C   UNL     1      -5.961   7.030  73.086  1.00  0.00    -0.056 C  
HETATM   53  H   UNL     1      -6.436   4.544  73.731  1.00  0.00     0.000 HD 
HETATM   54  O   UNL     1      -5.560   6.788  74.446  1.00  0.00    -0.054 OA 
HETATM   55  C   UNL     1      -6.368   8.505  72.916  1.00  0.00    -0.084 C  
HETATM   56  N   UNL     1      -5.248   9.410  73.266  1.00  0.00    -0.141 NA 
HETATM   57  H   UNL     1      -4.828   7.351  74.668  1.00  0.00     0.000 HD 
BRANCH  47  58
HETATM   58  C   UNL     1      -8.864   5.604  70.882  1.00  0.00    -0.140 C  
HETATM   59  H1  UNL     1     -10.969   5.594  70.998  1.00  0.00     0.000 HD 
HETATM   60  N   UNL     1     -10.164   6.154  71.282  1.00  0.00    -0.202 NA 
HETATM   61  H2  UNL     1     -10.262   7.112  70.946  1.00  0.00     0.000 HD 
ENDBRANCH  47  58
ENDBRANCH  44  45
ENDBRANCH  40  44
ENDBRANCH  29  30
ENDBRANCH  22  29
ENDBRANCH  18  19
ENDBRANCH   7  18
ENDBRANCH   2   5
TORSDOF 9
ENDMDL
MODEL      264
REMARK 921   NORMALIZED FREE ENERGY PREDICTED BY IDOCK:   -0.57 KCAL/MOL
REMARK 922        TOTAL FREE ENERGY PREDICTED BY IDOCK:   -3.68 KCAL/MOL
REMARK 923 INTER-LIGAND FREE ENERGY PREDICTED BY IDOCK:   -4.76 KCAL/MOL
REMARK 924 INTRA-LIGAND FREE ENERGY PREDICTED BY IDOCK:    1.08 KCAL/MOL
REMARK 927      BINDING AFFINITY PREDICTED BY RF-SCORE:    0.00 PKD
ROOT
HETATM    1  N   UNL     1     -12.428   6.702  70.783  1.00  0.00    -0.368 NA 
HETATM    2  C   UNL     1     -11.196   6.261  70.125  1.00  0.00    -0.403 C  
HETATM    3  H1  UNL     1     -13.083   7.212  70.192  1.00  0.00     0.000 HD 
HETATM    4  H2  UNL     1     -12.204   7.253  71.611  1.00  0.00     0.000 HD 
ENDROOT
BRANCH   2   5
HETATM    5  C   UNL     1     -10.199   5.486  71.025  1.00  0.00    -0.223 C  
HETATM    6  O   UNL     1      -8.833   5.970  70.938  1.00  0.00    -0.134 OA 
HETATM    7  C   UNL     1      -7.996   5.290  71.890  1.00  0.00    -0.113 C  
HETATM    8  C   UNL     1      -7.931   3.761  71.566  1.00  0.00    -0.065 C  
HETATM    9  O   UNL     1      -9.895   3.868  69.227  1.00  0.00    -0.145 OA 
HETATM   10  H   UNL     1      -9.929   2.953  68.973  1.00  0.00     0.000 HD 
HETATM   11  N   UNL     1      -7.193   3.531  70.280  1.00  0.00    -0.041 NA 
HETATM   12  C   UNL     1      -9.334   3.159  71.510  1.00  0.00    -0.132 C  
HETATM   13  H2  UNL     1      -6.266   3.957  70.291  1.00  0.00     0.000 HD 
HETATM   14  O   UNL     1      -9.905   3.005  72.817  1.00  0.00    -0.118 OA 
HETATM   15  C   UNL     1     -10.255   3.994  70.611  1.00  0.00     0.220 C  
HETATM   16  H1  UNL     1      -7.151   2.534  70.068  1.00  0.00     0.000 HD 
HETATM   17  H   UNL     1     -10.777   2.630  72.782  1.00  0.00     0.000 HD 
BRANCH   7  18
HETATM   18  O   UNL     1      -6.631   5.662  71.826  1.00  0.00    -0.050 OA 
BRANCH  18  19
HETATM   19  C   UNL     1      -6.265   6.998  71.506  1.00  0.00    -0.037 C  
HETATM   20  O   UNL     1      -5.550   6.046  69.328  1.00  0.00    -0.013 OA 
HETATM   21  C   UNL     1      -7.627   7.703  71.502  1.00  0.00    -0.081 C  
HETATM   22  C   UNL     1      -6.768   8.166  69.418  1.00  0.00    -0.042 C  
HETATM   23  H   UNL     1      -5.210   6.205  68.455  1.00  0.00     0.000 HD 
HETATM   24  O   UNL     1      -7.984   7.916  70.126  1.00  0.00    -0.102 OA 
HETATM   25  C   UNL     1      -5.712   7.257  70.088  1.00  0.00    -0.024 C  
BRANCH  21  26
HETATM   26  C   UNL     1      -7.656   9.003  72.310  1.00  0.00     0.382 C  
HETATM   27  H   UNL     1      -6.529   9.955  73.640  1.00  0.00     0.000 HD 
HETATM   28  O   UNL     1      -6.511   9.149  73.139  1.00  0.00    -0.316 OA 
ENDBRANCH  21  26
BRANCH  22  29
HETATM   29  O   UNL     1      -6.418   9.553  69.500  1.00  0.00    -0.042 OA 
BRANCH  29  30
HETATM   30  C   UNL     1      -6.915  10.439  68.441  1.00  0.00    -0.069 C  
HETATM   31  C   UNL     1      -6.557  11.917  68.748  1.00  0.00    -0.080 C  
HETATM   32  O   UNL     1      -5.272  12.216  68.161  1.00  0.00    -0.051 OA 
HETATM   33  C   UNL     1      -7.526  13.022  68.298  1.00  0.00    -0.128 C  
HETATM   34  C   UNL     1      -8.970  12.568  68.189  1.00  0.00    -0.199 C  
HETATM   35  N   UNL     1      -7.464  14.161  69.250  1.00  0.00    -0.309 NA 
HETATM   36  H   UNL     1      -5.053  13.122  68.349  1.00  0.00     0.000 HD 
HETATM   37  H1  UNL     1      -8.106  14.894  68.951  1.00  0.00     0.000 HD 
HETATM   38  H2  UNL     1      -6.513  14.509  69.370  1.00  0.00     0.000 HD 
HETATM   39  C   UNL     1      -9.063  11.316  67.318  1.00  0.00    -0.156 C  
HETATM   40  C   UNL     1      -8.382  10.124  68.037  1.00  0.00    -0.117 C  
HETATM   41  N   UNL     1     -10.490  11.041  67.042  1.00  0.00    -0.228 NA 
HETATM   42  H2  UNL     1     -10.971  11.841  66.631  1.00  0.00     0.000 HD 
HETATM   43  H1  UNL     1     -10.552  10.205  66.460  1.00  0.00     0.000 HD 
BRANCH  40  44
HETATM   44  O   UNL     1      -8.464   8.987  67.142  1.00  0.00    -0.113 OA 
BRANCH  44  45
HETATM   45  C   UNL     1      -7.250   8.647  66.467  1.00  0.00    -0.080 C  
HETATM   46  O   UNL     1      -6.885   7.283  66.693  1.00  0.00    -0.061 OA 
HETATM   47  C   UNL     1      -7.818   6.342  66.145  1.00  0.00    -0.105 C  
HETATM   48  C   UNL     1      -7.989   6.529  64.630  1.00  0.00    -0.116 C  
HETATM   49  H1  UNL     1      -7.857  10.557  63.670  1.00  0.00     0.000 HD 
HETATM   50  O   UNL     1      -8.958   5.628  64.076  1.00  0.00    -0.341 OA 
HETATM   51  H2  UNL     1      -7.107  11.002  65.104  1.00  0.00     0.000 HD 
HETATM   52  C   UNL     1      -8.408   7.975  64.328  1.00  0.00     0.003 C  
HETATM   53  H   UNL     1      -9.064   5.744  63.139  1.00  0.00     0.000 HD 
HETATM   54  O   UNL     1      -8.469   8.174  62.905  1.00  0.00    -0.375 OA 
HETATM   55  C   UNL     1      -7.392   8.951  64.949  1.00  0.00    -0.093 C  
HETATM   56  N   UNL     1      -7.765  10.358  64.665  1.00  0.00    -0.110 NA 
HETATM   57  H   UNL     1      -8.728   9.069  62.718  1.00  0.00     0.000 HD 
BRANCH  47  58
HETATM   58  C   UNL     1      -7.359   4.919  66.537  1.00  0.00    -0.082 C  
HETATM   59  H1  UNL     1      -8.140   2.996  66.911  1.00  0.00     0.000 HD 
HETATM   60  N   UNL     1      -8.443   3.936  66.652  1.00  0.00    -0.104 NA 
HETATM   61  H2  UNL     1      -8.988   3.907  65.790  1.00  0.00     0.000 HD 
ENDBRANCH  47  58
ENDBRANCH  44  45
ENDBRANCH  40  44
ENDBRANCH  29  30
ENDBRANCH  22  29
ENDBRANCH  18  19
ENDBRANCH   7  18
ENDBRANCH   2   5
TORSDOF 9
ENDMDL
MODEL      265
REMARK 921   NORMALIZED FREE ENERGY PREDICTED BY IDOCK:   -0.52 KCAL/MOL
REMARK 922        TOTAL FREE ENERGY PREDICTED BY IDOCK:   -3.60 KCAL/MOL
REMARK 923 INTER-LIGAND FREE ENERGY PREDICTED BY IDOCK:   -5.92 KCAL/MOL
REMARK 924 INTRA-LIGAND FREE ENERGY PREDICTED BY IDOCK:    2.32 KCAL/MOL
REMARK 927      BINDING AFFINITY PREDICTED BY RF-SCORE:    0.00 PKD
ROOT
HETATM    1  N   UNL     1     -10.717  10.434  63.108  1.00  0.00    -0.077 NA 
HETATM    2  C   UNL     1      -9.391  10.861  63.564  1.00  0.00    -0.272 C  
HETATM    3  H1  UNL     1     -11.450  11.140  63.172  1.00  0.00     0.000 HD 
HETATM    4  H2  UNL     1     -11.001   9.590  63.605  1.00  0.00     0.000 HD 
ENDROOT
BRANCH   2   5
HETATM    5  C   UNL     1      -8.275   9.787  63.467  1.00  0.00    -0.156 C  
HETATM    6  O   UNL     1      -8.511   8.623  64.301  1.00  0.00    -0.158 OA 
HETATM    7  C   UNL     1      -7.505   7.622  64.064  1.00  0.00    -0.107 C  
HETATM    8  C   UNL     1      -6.093   8.160  64.466  1.00  0.00    -0.056 C  
HETATM    9  O   UNL     1      -7.043  10.968  65.208  1.00  0.00    -0.357 OA 
HETATM   10  H   UNL     1      -6.224  11.381  65.455  1.00  0.00     0.000 HD 
HETATM   11  N   UNL     1      -6.008   8.343  65.953  1.00  0.00    -0.047 NA 
HETATM   12  C   UNL     1      -5.781   9.464  63.733  1.00  0.00    -0.080 C  
HETATM   13  H2  UNL     1      -6.246   7.488  66.456  1.00  0.00     0.000 HD 
HETATM   14  O   UNL     1      -5.462   9.242  62.353  1.00  0.00    -0.085 OA 
HETATM   15  C   UNL     1      -6.939  10.461  63.869  1.00  0.00     0.022 C  
HETATM   16  H1  UNL     1      -5.087   8.693  66.216  1.00  0.00     0.000 HD 
HETATM   17  H   UNL     1      -5.268  10.053  61.897  1.00  0.00     0.000 HD 
BRANCH   7  18
HETATM   18  O   UNL     1      -7.628   6.476  64.886  1.00  0.00    -0.083 OA 
BRANCH  18  19
HETATM   19  C   UNL     1      -8.196   6.581  66.185  1.00  0.00    -0.123 C  
HETATM   20  O   UNL     1      -9.844   4.919  65.359  1.00  0.00    -0.297 OA 
HETATM   21  C   UNL     1      -7.073   6.016  67.063  1.00  0.00    -0.070 C  
HETATM   22  C   UNL     1      -8.893   4.718  67.605  1.00  0.00    -0.104 C  
HETATM   23  H   UNL     1     -10.587   4.360  65.555  1.00  0.00     0.000 HD 
HETATM   24  O   UNL     1      -7.473   4.692  67.453  1.00  0.00    -0.076 OA 
HETATM   25  C   UNL     1      -9.404   5.674  66.503  1.00  0.00    -0.150 C  
BRANCH  21  26
HETATM   26  C   UNL     1      -6.729   6.891  68.271  1.00  0.00    -0.068 C  
HETATM   27  H   UNL     1      -5.314   7.023  69.660  1.00  0.00     0.000 HD 
HETATM   28  O   UNL     1      -5.528   6.481  68.911  1.00  0.00    -0.014 OA 
ENDBRANCH  21  26
BRANCH  22  29
HETATM   29  O   UNL     1      -9.249   5.169  68.918  1.00  0.00    -0.110 OA 
BRANCH  29  30
HETATM   30  C   UNL     1      -8.582   4.525  70.057  1.00  0.00    -0.076 C  
HETATM   31  C   UNL     1      -9.076   3.065  70.228  1.00  0.00    -0.120 C  
HETATM   32  O   UNL     1      -8.225   2.191  69.455  1.00  0.00    -0.044 OA 
HETATM   33  C   UNL     1      -9.159   2.473  71.645  1.00  0.00    -0.091 C  
HETATM   34  C   UNL     1      -9.371   3.509  72.733  1.00  0.00    -0.146 C  
HETATM   35  N   UNL     1     -10.270   1.489  71.712  1.00  0.00    -0.142 NA 
HETATM   36  H   UNL     1      -8.528   1.297  69.560  1.00  0.00     0.000 HD 
HETATM   37  H1  UNL     1     -10.324   1.096  72.652  1.00  0.00     0.000 HD 
HETATM   38  H2  UNL     1     -10.186   0.766  70.998  1.00  0.00     0.000 HD 
HETATM   39  C   UNL     1      -8.321   4.613  72.620  1.00  0.00    -0.114 C  
HETATM   40  C   UNL     1      -8.553   5.428  71.322  1.00  0.00    -0.126 C  
HETATM   41  N   UNL     1      -8.409   5.471  73.822  1.00  0.00    -0.111 NA 
HETATM   42  H2  UNL     1      -8.327   4.940  74.689  1.00  0.00     0.000 HD 
HETATM   43  H1  UNL     1      -7.708   6.208  73.746  1.00  0.00     0.000 HD 
BRANCH  40  44
HETATM   44  O   UNL     1      -7.501   6.422  71.252  1.00  0.00    -0.086 OA 
BRANCH  44  45
HETATM   45  C   UNL     1      -7.935   7.757  70.977  1.00  0.00    -0.090 C  
HETATM   46  O   UNL     1      -9.289   7.789  70.519  1.00  0.00    -0.162 OA 
HETATM   47  C   UNL     1     -10.237   7.353  71.504  1.00  0.00    -0.192 C  
HETATM   48  C   UNL     1     -10.160   8.204  72.780  1.00  0.00    -0.297 C  
HETATM   49  H1  UNL     1      -6.224   9.224  73.578  1.00  0.00     0.000 HD 
HETATM   50  O   UNL     1     -11.066   7.747  73.794  1.00  0.00    -0.404 OA 
HETATM   51  H2  UNL     1      -5.697   8.916  72.014  1.00  0.00     0.000 HD 
HETATM   52  C   UNL     1      -8.728   8.186  73.334  1.00  0.00    -0.251 C  
HETATM   53  H   UNL     1     -11.019   8.274  74.584  1.00  0.00     0.000 HD 
HETATM   54  O   UNL     1      -8.636   9.064  74.469  1.00  0.00     0.088 OA 
HETATM   55  C   UNL     1      -7.743   8.641  72.241  1.00  0.00     0.003 C  
HETATM   56  N   UNL     1      -6.350   8.644  72.749  1.00  0.00    -0.164 NA 
HETATM   57  H   UNL     1      -7.750   9.052  74.811  1.00  0.00     0.000 HD 
BRANCH  47  58
HETATM   58  C   UNL     1     -11.640   7.346  70.857  1.00  0.00    -0.291 C  
HETATM   59  H1  UNL     1     -12.616   6.768  69.080  1.00  0.00     0.000 HD 
HETATM   60  N   UNL     1     -11.689   6.772  69.507  1.00  0.00    -0.637 NA 
HETATM   61  H2  UNL     1     -11.294   5.832  69.507  1.00  0.00     0.000 HD 
ENDBRANCH  47  58
ENDBRANCH  44  45
ENDBRANCH  40  44
ENDBRANCH  29  30
ENDBRANCH  22  29
ENDBRANCH  18  19
ENDBRANCH   7  18
ENDBRANCH   2   5
TORSDOF 9
ENDMDL
MODEL      266
REMARK 921   NORMALIZED FREE ENERGY PREDICTED BY IDOCK:   -0.36 KCAL/MOL
REMARK 922        TOTAL FREE ENERGY PREDICTED BY IDOCK:   -3.36 KCAL/MOL
REMARK 923 INTER-LIGAND FREE ENERGY PREDICTED BY IDOCK:   -4.23 KCAL/MOL
REMARK 924 INTRA-LIGAND FREE ENERGY PREDICTED BY IDOCK:    0.87 KCAL/MOL
REMARK 927      BINDING AFFINITY PREDICTED BY RF-SCORE:    0.00 PKD
ROOT
HETATM    1  N   UNL     1      -5.666  10.409  73.103  1.00  0.00     0.179 NA 
HETATM    2  C   UNL     1      -6.767   9.479  73.366  1.00  0.00     1.062 C  
HETATM    3  H1  UNL     1      -5.886  11.396  73.230  1.00  0.00     0.000 HD 
HETATM    4  H2  UNL     1      -5.293  10.252  72.167  1.00  0.00     0.000 HD 
ENDROOT
BRANCH   2   5
HETATM    5  C   UNL     1      -6.432   7.977  73.172  1.00  0.00    -0.080 C  
HETATM    6  O   UNL     1      -6.991   7.404  71.961  1.00  0.00    -0.061 OA 
HETATM    7  C   UNL     1      -6.534   6.051  71.788  1.00  0.00    -0.053 C  
HETATM    8  C   UNL     1      -7.039   5.149  72.961  1.00  0.00    -0.088 C  
HETATM    9  O   UNL     1      -8.384   7.409  74.517  1.00  0.00    -0.183 OA 
HETATM   10  H   UNL     1      -8.712   6.940  75.277  1.00  0.00     0.000 HD 
HETATM   11  N   UNL     1      -8.529   4.988  72.893  1.00  0.00    -0.115 NA 
HETATM   12  C   UNL     1      -6.609   5.725  74.309  1.00  0.00    -0.076 C  
HETATM   13  H2  UNL     1      -8.833   4.635  71.985  1.00  0.00     0.000 HD 
HETATM   14  O   UNL     1      -5.213   5.520  74.561  1.00  0.00    -0.025 OA 
HETATM   15  C   UNL     1      -6.966   7.213  74.410  1.00  0.00    -0.092 C  
HETATM   16  H1  UNL     1      -8.859   4.400  73.658  1.00  0.00     0.000 HD 
HETATM   17  H   UNL     1      -4.945   5.878  75.400  1.00  0.00     0.000 HD 
BRANCH   7  18
HETATM   18  O   UNL     1      -7.085   5.398  70.657  1.00  0.00    -0.057 OA 
BRANCH  18  19
HETATM   19  C   UNL     1      -7.812   6.137  69.685  1.00  0.00    -0.103 C  
HETATM   20  O   UNL     1      -7.895   3.993  68.438  1.00  0.00    -0.069 OA 
HETATM   21  C   UNL     1      -9.086   6.501  70.457  1.00  0.00    -0.152 C  
HETATM   22  C   UNL     1      -9.874   5.424  68.583  1.00  0.00    -0.148 C  
HETATM   23  H   UNL     1      -8.217   3.516  67.682  1.00  0.00     0.000 HD 
HETATM   24  O   UNL     1     -10.130   5.640  69.971  1.00  0.00    -0.192 OA 
HETATM   25  C   UNL     1      -8.335   5.363  68.456  1.00  0.00    -0.097 C  
BRANCH  21  26
HETATM   26  C   UNL     1      -9.471   7.980  70.360  1.00  0.00    -0.166 C  
HETATM   27  H   UNL     1     -11.095   9.111  70.539  1.00  0.00     0.000 HD 
HETATM   28  O   UNL     1     -10.856   8.194  70.599  1.00  0.00    -0.225 OA 
ENDBRANCH  21  26
BRANCH  22  29
HETATM   29  O   UNL     1     -10.439   6.484  67.799  1.00  0.00    -0.174 OA 
BRANCH  29  30
HETATM   30  C   UNL     1     -10.260   6.417  66.344  1.00  0.00     0.009 C  
HETATM   31  C   UNL     1     -10.361   4.952  65.845  1.00  0.00    -0.236 C  
HETATM   32  O   UNL     1     -11.738   4.666  65.517  1.00  0.00    -0.683 OA 
HETATM   33  C   UNL     1      -9.513   4.520  64.638  1.00  0.00    -0.103 C  
HETATM   34  C   UNL     1      -8.238   5.325  64.462  1.00  0.00    -0.135 C  
HETATM   35  N   UNL     1      -9.146   3.087  64.770  1.00  0.00    -0.136 NA 
HETATM   36  H   UNL     1     -11.800   3.768  65.212  1.00  0.00     0.000 HD 
HETATM   37  H1  UNL     1      -8.584   2.801  63.968  1.00  0.00     0.000 HD 
HETATM   38  H2  UNL     1      -9.964   2.491  64.896  1.00  0.00     0.000 HD 
HETATM   39  C   UNL     1      -8.558   6.819  64.450  1.00  0.00     0.357 C  
HETATM   40  C   UNL     1      -9.053   7.263  65.850  1.00  0.00    -0.021 C  
HETATM   41  N   UNL     1      -7.341   7.557  64.045  1.00  0.00    -0.088 NA 
HETATM   42  H2  UNL     1      -6.963   7.231  63.156  1.00  0.00     0.000 HD 
HETATM   43  H1  UNL     1      -7.555   8.555  64.037  1.00  0.00     0.000 HD 
BRANCH  40  44
HETATM   44  O   UNL     1      -9.381   8.671  65.758  1.00  0.00    -0.214 OA 
BRANCH  44  45
HETATM   45  C   UNL     1      -8.266   9.553  65.597  1.00  0.00    -0.120 C  
HETATM   46  O   UNL     1      -8.678  10.849  65.155  1.00  0.00    -0.187 OA 
HETATM   47  C   UNL     1      -9.491  11.548  66.108  1.00  0.00    -0.220 C  
HETATM   48  C   UNL     1      -8.765  11.727  67.449  1.00  0.00    -0.162 C  
HETATM   49  H1  UNL     1      -6.491   8.369  68.296  1.00  0.00     0.000 HD 
HETATM   50  O   UNL     1      -9.586  12.378  68.430  1.00  0.00    -0.226 OA 
HETATM   51  H2  UNL     1      -6.476   7.825  66.708  1.00  0.00     0.000 HD 
HETATM   52  C   UNL     1      -8.321  10.359  67.988  1.00  0.00    -0.118 C  
HETATM   53  H   UNL     1      -9.136  12.489  69.260  1.00  0.00     0.000 HD 
HETATM   54  O   UNL     1      -7.554  10.538  69.191  1.00  0.00    -0.100 OA 
HETATM   55  C   UNL     1      -7.469   9.636  66.928  1.00  0.00    -0.091 C  
HETATM   56  N   UNL     1      -7.014   8.314  67.423  1.00  0.00    -0.074 NA 
HETATM   57  H   UNL     1      -7.279   9.692  69.524  1.00  0.00     0.000 HD 
BRANCH  47  58
HETATM   58  C   UNL     1      -9.943  12.883  65.474  1.00  0.00    -0.213 C  
HETATM   59  H1  UNL     1     -10.566  13.686  63.627  1.00  0.00     0.000 HD 
HETATM   60  N   UNL     1     -10.268  12.804  64.045  1.00  0.00    -0.557 NA 
HETATM   61  H2  UNL     1     -10.967  12.079  63.880  1.00  0.00     0.000 HD 
ENDBRANCH  47  58
ENDBRANCH  44  45
ENDBRANCH  40  44
ENDBRANCH  29  30
ENDBRANCH  22  29
ENDBRANCH  18  19
ENDBRANCH   7  18
ENDBRANCH   2   5
TORSDOF 9
ENDMDL
MODEL      267
REMARK 921   NORMALIZED FREE ENERGY PREDICTED BY IDOCK:    0.44 KCAL/MOL
REMARK 922        TOTAL FREE ENERGY PREDICTED BY IDOCK:   -2.15 KCAL/MOL
REMARK 923 INTER-LIGAND FREE ENERGY PREDICTED BY IDOCK:   -3.29 KCAL/MOL
REMARK 924 INTRA-LIGAND FREE ENERGY PREDICTED BY IDOCK:    1.15 KCAL/MOL
REMARK 927      BINDING AFFINITY PREDICTED BY RF-SCORE:    0.00 PKD
ROOT
HETATM    1  N   UNL     1      -7.276   2.936  68.773  1.00  0.00    -0.048 NA 
HETATM    2  C   UNL     1      -6.543   4.202  68.687  1.00  0.00    -0.045 C  
HETATM    3  H1  UNL     1      -6.967   2.206  68.132  1.00  0.00     0.000 HD 
HETATM    4  H2  UNL     1      -8.275   3.102  68.656  1.00  0.00     0.000 HD 
ENDROOT
BRANCH   2   5
HETATM    5  C   UNL     1      -7.014   5.312  69.662  1.00  0.00    -0.058 C  
HETATM    6  O   UNL     1      -6.508   6.632  69.334  1.00  0.00    -0.040 OA 
HETATM    7  C   UNL     1      -7.086   7.623  70.202  1.00  0.00    -0.059 C  
HETATM    8  C   UNL     1      -6.669   7.360  71.686  1.00  0.00    -0.050 C  
HETATM    9  O   UNL     1      -5.126   4.786  71.111  1.00  0.00    -0.003 OA 
HETATM   10  H   UNL     1      -4.844   4.541  71.985  1.00  0.00     0.000 HD 
HETATM   11  N   UNL     1      -5.200   7.604  71.867  1.00  0.00    -0.035 NA 
HETATM   12  C   UNL     1      -7.047   5.942  72.111  1.00  0.00    -0.087 C  
HETATM   13  H2  UNL     1      -4.928   8.537  71.556  1.00  0.00     0.000 HD 
HETATM   14  O   UNL     1      -8.457   5.805  72.332  1.00  0.00    -0.118 OA 
HETATM   15  C   UNL     1      -6.556   4.912  71.087  1.00  0.00    -0.031 C  
HETATM   16  H1  UNL     1      -4.928   7.433  72.835  1.00  0.00     0.000 HD 
HETATM   17  H   UNL     1      -8.693   4.923  72.596  1.00  0.00     0.000 HD 
BRANCH   7  18
HETATM   18  O   UNL     1      -6.595   8.934  69.987  1.00  0.00    -0.040 OA 
BRANCH  18  19
HETATM   19  C   UNL     1      -7.301   9.837  69.147  1.00  0.00    -0.079 C  
HETATM   20  O   UNL     1      -8.866  10.049  71.062  1.00  0.00    -0.178 OA 
HETATM   21  C   UNL     1      -6.288  10.978  68.993  1.00  0.00    -0.048 C  
HETATM   22  C   UNL     1      -8.172  12.026  69.798  1.00  0.00     1.779 C  
HETATM   23  H   UNL     1      -9.632  10.475  71.429  1.00  0.00     0.000 HD 
HETATM   24  O   UNL     1      -6.744  12.057  69.827  1.00  0.00    -0.057 OA 
HETATM   25  C   UNL     1      -8.547  10.528  69.742  1.00  0.00     0.150 C  
BRANCH  21  26
HETATM   26  C   UNL     1      -6.071  11.425  67.545  1.00  0.00    -0.065 C  
HETATM   27  H   UNL     1      -5.535  10.630  65.805  1.00  0.00     0.000 HD 
HETATM   28  O   UNL     1      -5.670  10.353  66.703  1.00  0.00    -0.052 OA 
ENDBRANCH  21  26
BRANCH  22  29
HETATM   29  O   UNL     1      -8.665  12.749  68.663  1.00  0.00    -0.083 OA 
BRANCH  29  30
HETATM   30  C   UNL     1      -9.989  12.378  68.149  1.00  0.00    -0.215 C  
HETATM   31  C   UNL     1     -10.496  11.079  68.828  1.00  0.00    -0.198 C  
HETATM   32  O   UNL     1     -11.244  11.433  70.012  1.00  0.00    -0.450 OA 
HETATM   33  C   UNL     1     -11.374  10.113  68.015  1.00  0.00    -0.078 C  
HETATM   34  C   UNL     1     -11.136  10.178  66.517  1.00  0.00     0.211 C  
HETATM   35  N   UNL     1     -11.135   8.718  68.466  1.00  0.00    -0.412 NA 
HETATM   36  H   UNL     1     -11.554  10.637  70.427  1.00  0.00     0.000 HD 
HETATM   37  H1  UNL     1     -11.717   8.078  67.927  1.00  0.00     0.000 HD 
HETATM   38  H2  UNL     1     -11.275   8.610  69.471  1.00  0.00     0.000 HD 
HETATM   39  C   UNL     1     -11.246  11.622  66.030  1.00  0.00    -0.240 C  
HETATM   40  C   UNL     1     -10.074  12.460  66.600  1.00  0.00    -0.221 C  
HETATM   41  N   UNL     1     -11.244  11.620  64.550  1.00  0.00    -0.299 NA 
HETATM   42  H2  UNL     1     -11.968  11.018  64.158  1.00  0.00     0.000 HD 
HETATM   43  H1  UNL     1     -11.318  12.584  64.226  1.00  0.00     0.000 HD 
BRANCH  40  44
HETATM   44  O   UNL     1     -10.264  13.821  66.140  1.00  0.00    -0.286 OA 
BRANCH  44  45
HETATM   45  C   UNL     1     -11.597  14.326  66.246  1.00  0.00    -0.372 C  
HETATM   46  O   UNL     1     -11.824  14.957  67.509  1.00  0.00    -0.350 OA 
HETATM   47  C   UNL     1     -11.030  16.135  67.712  1.00  0.00    -0.293 C  
HETATM   48  C   UNL     1     -11.283  17.184  66.619  1.00  0.00     0.590 C  
HETATM   49  H1  UNL     1     -11.858  15.321  62.963  1.00  0.00     0.000 HD 
HETATM   50  O   UNL     1     -10.458  18.347  66.778  1.00  0.00    -0.380 OA 
HETATM   51  H2  UNL     1     -12.214  13.827  63.640  1.00  0.00     0.000 HD 
HETATM   52  C   UNL     1     -11.030  16.567  65.235  1.00  0.00    -0.162 C  
HETATM   53  H   UNL     1     -10.615  18.996  66.102  1.00  0.00     0.000 HD 
HETATM   54  O   UNL     1     -11.365  17.520  64.212  1.00  0.00    -0.594 OA 
HETATM   55  C   UNL     1     -11.885  15.298  65.068  1.00  0.00    -0.100 C  
HETATM   56  N   UNL     1     -11.669  14.684  63.736  1.00  0.00    -0.008 NA 
HETATM   57  H   UNL     1     -11.208  17.138  63.356  1.00  0.00     0.000 HD 
BRANCH  47  58
HETATM   58  C   UNL     1     -11.299  16.662  69.139  1.00  0.00    -0.051 C  
HETATM   59  H1  UNL     1     -10.939  18.349  70.352  1.00  0.00     0.000 HD 
HETATM   60  N   UNL     1     -10.762  18.001  69.409  1.00  0.00    -0.137 NA 
HETATM   61  H2  UNL     1     -11.105  18.666  68.715  1.00  0.00     0.000 HD 
ENDBRANCH  47  58
ENDBRANCH  44  45
ENDBRANCH  40  44
ENDBRANCH  29  30
ENDBRANCH  22  29
ENDBRANCH  18  19
ENDBRANCH   7  18
ENDBRANCH   2   5
TORSDOF 9
ENDMDL
MODEL      268
REMARK 921   NORMALIZED FREE ENERGY PREDICTED BY IDOCK:    0.50 KCAL/MOL
REMARK 922        TOTAL FREE ENERGY PREDICTED BY IDOCK:   -2.05 KCAL/MOL
REMARK 923 INTER-LIGAND FREE ENERGY PREDICTED BY IDOCK:   -5.70 KCAL/MOL
REMARK 924 INTRA-LIGAND FREE ENERGY PREDICTED BY IDOCK:    3.66 KCAL/MOL
REMARK 927      BINDING AFFINITY PREDICTED BY RF-SCORE:    0.00 PKD
ROOT
HETATM    1  N   UNL     1      -9.983  14.784  65.528  1.00  0.00    -0.379 NA 
HETATM    2  C   UNL     1      -9.869  15.349  66.875  1.00  0.00    -0.244 C  
HETATM    3  H1  UNL     1     -10.935  14.633  65.195  1.00  0.00     0.000 HD 
HETATM    4  H2  UNL     1      -9.451  13.916  65.467  1.00  0.00     0.000 HD 
ENDROOT
BRANCH   2   5
HETATM    5  C   UNL     1      -8.420  15.577  67.382  1.00  0.00    -0.180 C  
HETATM    6  O   UNL     1      -7.670  14.351  67.581  1.00  0.00    -0.152 OA 
HETATM    7  C   UNL     1      -6.306  14.646  67.927  1.00  0.00    -0.159 C  
HETATM    8  C   UNL     1      -6.240  15.415  69.287  1.00  0.00    -0.124 C  
HETATM    9  O   UNL     1      -9.267  15.605  69.668  1.00  0.00    -0.277 OA 
HETATM   10  H   UNL     1      -9.320  16.087  70.485  1.00  0.00     0.000 HD 
HETATM   11  N   UNL     1      -6.662  14.519  70.414  1.00  0.00    -0.361 NA 
HETATM   12  C   UNL     1      -7.100  16.677  69.237  1.00  0.00    -0.212 C  
HETATM   13  H2  UNL     1      -6.118  13.657  70.439  1.00  0.00     0.000 HD 
HETATM   14  O   UNL     1      -6.489  17.714  68.457  1.00  0.00    -0.183 OA 
HETATM   15  C   UNL     1      -8.508  16.363  68.714  1.00  0.00    -0.249 C  
HETATM   16  H1  UNL     1      -6.620  15.020  71.302  1.00  0.00     0.000 HD 
HETATM   17  H   UNL     1      -7.023  18.499  68.426  1.00  0.00     0.000 HD 
BRANCH   7  18
HETATM   18  O   UNL     1      -5.519  13.500  68.199  1.00  0.00    -0.091 OA 
BRANCH  18  19
HETATM   19  C   UNL     1      -6.019  12.201  67.911  1.00  0.00    -0.072 C  
HETATM   20  O   UNL     1      -6.478  12.077  70.347  1.00  0.00    -0.488 OA 
HETATM   21  C   UNL     1      -7.231  12.522  67.027  1.00  0.00     0.027 C  
HETATM   22  C   UNL     1      -8.118  11.253  68.729  1.00  0.00    -0.130 C  
HETATM   23  H   UNL     1      -6.849  11.584  71.070  1.00  0.00     0.000 HD 
HETATM   24  O   UNL     1      -8.402  12.333  67.839  1.00  0.00    -0.143 OA 
HETATM   25  C   UNL     1      -6.621  11.400  69.085  1.00  0.00    -0.095 C  
BRANCH  21  26
HETATM   26  C   UNL     1      -7.292  11.703  65.735  1.00  0.00     0.788 C  
HETATM   27  H   UNL     1      -6.037  10.926  64.403  1.00  0.00     0.000 HD 
HETATM   28  O   UNL     1      -6.000  11.434  65.205  1.00  0.00     0.279 OA 
ENDBRANCH  21  26
BRANCH  22  29
HETATM   29  O   UNL     1      -8.403   9.998  68.099  1.00  0.00    -0.112 OA 
BRANCH  29  30
HETATM   30  C   UNL     1      -8.132   8.778  68.870  1.00  0.00    -0.114 C  
HETATM   31  C   UNL     1      -8.123   9.081  70.391  1.00  0.00    -0.143 C  
HETATM   32  O   UNL     1      -9.460   8.905  70.908  1.00  0.00    -0.194 OA 
HETATM   33  C   UNL     1      -7.180   8.276  71.301  1.00  0.00    -0.073 C  
HETATM   34  C   UNL     1      -5.943   7.752  70.595  1.00  0.00    -0.034 C  
HETATM   35  N   UNL     1      -6.745   9.120  72.443  1.00  0.00    -0.303 NA 
HETATM   36  H   UNL     1      -9.454   9.091  71.840  1.00  0.00     0.000 HD 
HETATM   37  H1  UNL     1      -6.120   8.586  73.047  1.00  0.00     0.000 HD 
HETATM   38  H2  UNL     1      -7.536   9.507  72.957  1.00  0.00     0.000 HD 
HETATM   39  C   UNL     1      -6.341   6.983  69.336  1.00  0.00    -0.035 C  
HETATM   40  C   UNL     1      -6.944   7.958  68.293  1.00  0.00    -0.073 C  
HETATM   41  N   UNL     1      -5.144   6.294  68.807  1.00  0.00    -0.004 NA 
HETATM   42  H2  UNL     1      -4.695   5.700  69.504  1.00  0.00     0.000 HD 
HETATM   43  H1  UNL     1      -5.410   5.781  67.967  1.00  0.00     0.000 HD 
BRANCH  40  44
HETATM   44  O   UNL     1      -7.342   7.162  67.149  1.00  0.00    -0.086 OA 
BRANCH  44  45
HETATM   45  C   UNL     1      -7.459   5.757  67.389  1.00  0.00    -0.081 C  
HETATM   46  O   UNL     1      -8.476   5.468  68.351  1.00  0.00    -0.101 OA 
HETATM   47  C   UNL     1      -9.796   5.817  67.911  1.00  0.00    -0.127 C  
HETATM   48  C   UNL     1     -10.171   5.092  66.610  1.00  0.00    -0.261 C  
HETATM   49  H1  UNL     1      -6.857   4.796  64.140  1.00  0.00     0.000 HD 
HETATM   50  O   UNL     1     -11.468   5.471  66.129  1.00  0.00    -0.599 OA 
HETATM   51  H2  UNL     1      -5.756   5.064  65.378  1.00  0.00     0.000 HD 
HETATM   52  C   UNL     1      -9.122   5.388  65.528  1.00  0.00    -0.118 C  
HETATM   53  H   UNL     1     -11.700   5.022  65.324  1.00  0.00     0.000 HD 
HETATM   54  O   UNL     1      -9.420   4.628  64.344  1.00  0.00    -0.295 OA 
HETATM   55  C   UNL     1      -7.721   5.017  66.047  1.00  0.00    -0.091 C  
HETATM   56  N   UNL     1      -6.685   5.282  65.020  1.00  0.00    -0.047 NA 
HETATM   57  H   UNL     1      -8.771   4.811  63.675  1.00  0.00     0.000 HD 
BRANCH  47  58
HETATM   58  C   UNL     1     -10.783   5.545  69.069  1.00  0.00    -0.161 C  
HETATM   59  H1  UNL     1     -10.894   4.534  70.916  1.00  0.00     0.000 HD 
HETATM   60  N   UNL     1     -10.242   4.715  70.151  1.00  0.00    -0.209 NA 
HETATM   61  H2  UNL     1      -9.377   5.120  70.510  1.00  0.00     0.000 HD 
ENDBRANCH  47  58
ENDBRANCH  44  45
ENDBRANCH  40  44
ENDBRANCH  29  30
ENDBRANCH  22  29
ENDBRANCH  18  19
ENDBRANCH   7  18
ENDBRANCH   2   5
TORSDOF 9
ENDMDL
MODEL      269
REMARK 921   NORMALIZED FREE ENERGY PREDICTED BY IDOCK:    0.53 KCAL/MOL
REMARK 922        TOTAL FREE ENERGY PREDICTED BY IDOCK:   -2.01 KCAL/MOL
REMARK 923 INTER-LIGAND FREE ENERGY PREDICTED BY IDOCK:   -2.92 KCAL/MOL
REMARK 924 INTRA-LIGAND FREE ENERGY PREDICTED BY IDOCK:    0.91 KCAL/MOL
REMARK 927      BINDING AFFINITY PREDICTED BY RF-SCORE:    0.00 PKD
ROOT
HETATM    1  N   UNL     1     -12.795  16.149  65.700  1.00  0.00     2.898 NA 
HETATM    2  C   UNL     1     -11.751  15.677  66.614  1.00  0.00     0.400 C  
HETATM    3  H1  UNL     1     -12.959  17.155  65.705  1.00  0.00     0.000 HD 
HETATM    4  H2  UNL     1     -13.667  15.652  65.881  1.00  0.00     0.000 HD 
ENDROOT
BRANCH   2   5
HETATM    5  C   UNL     1     -11.501  14.146  66.608  1.00  0.00    -0.366 C  
HETATM    6  O   UNL     1     -10.726  13.676  67.741  1.00  0.00    -0.241 OA 
HETATM    7  C   UNL     1     -10.644  12.240  67.733  1.00  0.00    -0.219 C  
HETATM    8  C   UNL     1      -9.887  11.742  66.459  1.00  0.00    -0.206 C  
HETATM    9  O   UNL     1      -9.528  14.514  65.224  1.00  0.00    -0.474 OA 
HETATM   10  H   UNL     1      -9.079  14.298  64.414  1.00  0.00     0.000 HD 
HETATM   11  N   UNL     1      -8.441  12.137  66.523  1.00  0.00    -0.380 NA 
HETATM   12  C   UNL     1     -10.549  12.280  65.192  1.00  0.00    -0.285 C  
HETATM   13  H2  UNL     1      -7.995  11.812  67.381  1.00  0.00     0.000 HD 
HETATM   14  O   UNL     1     -11.779  11.605  64.899  1.00  0.00    -0.170 OA 
HETATM   15  C   UNL     1     -10.770  13.795  65.288  1.00  0.00    -0.339 C  
HETATM   16  H1  UNL     1      -7.946  11.813  65.692  1.00  0.00     0.000 HD 
HETATM   17  H   UNL     1     -12.191  11.940  64.111  1.00  0.00     0.000 HD 
BRANCH   7  18
HETATM   18  O   UNL     1      -9.850  11.702  68.776  1.00  0.00    -0.193 OA 
BRANCH  18  19
HETATM   19  C   UNL     1      -9.402  10.355  68.716  1.00  0.00    -0.175 C  
HETATM   20  O   UNL     1      -7.130  11.346  68.603  1.00  0.00    -0.081 OA 
HETATM   21  C   UNL     1      -9.823   9.824  70.092  1.00  0.00    -0.255 C  
HETATM   22  C   UNL     1      -7.565   9.391  70.008  1.00  0.00    -0.113 C  
HETATM   23  H   UNL     1      -6.191  11.201  68.582  1.00  0.00     0.000 HD 
HETATM   24  O   UNL     1      -8.631   9.743  70.891  1.00  0.00    -0.161 OA 
HETATM   25  C   UNL     1      -7.877  10.118  68.681  1.00  0.00    -0.097 C  
BRANCH  21  26
HETATM   26  C   UNL     1     -10.572   8.490  70.042  1.00  0.00    -0.227 C  
HETATM   27  H   UNL     1     -10.930   6.938  71.229  1.00  0.00     0.000 HD 
HETATM   28  O   UNL     1     -10.466   7.766  71.260  1.00  0.00    -0.205 OA 
ENDBRANCH  21  26
BRANCH  22  29
HETATM   29  O   UNL     1      -7.502   7.968  69.843  1.00  0.00    -0.075 OA 
BRANCH  29  30
HETATM   30  C   UNL     1      -7.406   7.451  68.472  1.00  0.00    -0.100 C  
HETATM   31  C   UNL     1      -6.542   8.390  67.591  1.00  0.00    -0.058 C  
HETATM   32  O   UNL     1      -5.164   7.963  67.667  1.00  0.00    -0.030 OA 
HETATM   33  C   UNL     1      -6.887   8.531  66.099  1.00  0.00    -0.072 C  
HETATM   34  C   UNL     1      -8.348   8.275  65.779  1.00  0.00    -0.142 C  
HETATM   35  N   UNL     1      -6.537   9.897  65.631  1.00  0.00    -0.087 NA 
HETATM   36  H   UNL     1      -4.635   8.538  67.127  1.00  0.00     0.000 HD 
HETATM   37  H1  UNL     1      -6.766   9.990  64.641  1.00  0.00     0.000 HD 
HETATM   38  H2  UNL     1      -5.564  10.131  65.824  1.00  0.00     0.000 HD 
HETATM   39  C   UNL     1      -8.785   6.930  66.357  1.00  0.00    -0.142 C  
HETATM   40  C   UNL     1      -8.781   6.998  67.906  1.00  0.00    -0.125 C  
HETATM   41  N   UNL     1     -10.130   6.608  65.832  1.00  0.00    -0.128 NA 
HETATM   42  H2  UNL     1     -10.167   6.626  64.813  1.00  0.00     0.000 HD 
HETATM   43  H1  UNL     1     -10.421   5.710  66.218  1.00  0.00     0.000 HD 
BRANCH  40  44
HETATM   44  O   UNL     1      -9.157   5.684  68.388  1.00  0.00    -0.117 OA 
BRANCH  44  45
HETATM   45  C   UNL     1      -8.071   4.797  68.670  1.00  0.00    -0.083 C  
HETATM   46  O   UNL     1      -7.586   4.963  70.004  1.00  0.00    -0.054 OA 
HETATM   47  C   UNL     1      -8.545   4.607  71.010  1.00  0.00    -0.110 C  
HETATM   48  C   UNL     1      -9.006   3.149  70.864  1.00  0.00    -0.096 C  
HETATM   49  H1  UNL     1      -9.303   2.146  66.854  1.00  0.00     0.000 HD 
HETATM   50  O   UNL     1     -10.004   2.794  71.831  1.00  0.00    -0.164 OA 
HETATM   51  H2  UNL     1      -8.328   3.412  66.338  1.00  0.00     0.000 HD 
HETATM   52  C   UNL     1      -9.562   2.918  69.451  1.00  0.00     0.009 C  
HETATM   53  H   UNL     1     -10.288   1.891  71.740  1.00  0.00     0.000 HD 
HETATM   54  O   UNL     1      -9.898   1.530  69.284  1.00  0.00    -0.001 OA 
HETATM   55  C   UNL     1      -8.510   3.331  68.405  1.00  0.00    -0.084 C  
HETATM   56  N   UNL     1      -9.015   3.109  67.028  1.00  0.00    -0.149 NA 
HETATM   57  H   UNL     1     -10.242   1.387  68.411  1.00  0.00     0.000 HD 
BRANCH  47  58
HETATM   58  C   UNL     1      -7.935   4.919  72.395  1.00  0.00    -0.103 C  
HETATM   59  H1  UNL     1      -8.515   5.339  74.379  1.00  0.00     0.000 HD 
HETATM   60  N   UNL     1      -8.918   5.132  73.464  1.00  0.00    -0.118 NA 
HETATM   61  H2  UNL     1      -9.551   4.334  73.527  1.00  0.00     0.000 HD 
ENDBRANCH  47  58
ENDBRANCH  44  45
ENDBRANCH  40  44
ENDBRANCH  29  30
ENDBRANCH  22  29
ENDBRANCH  18  19
ENDBRANCH   7  18
ENDBRANCH   2   5
TORSDOF 9
ENDMDL
MODEL      270
REMARK 921   NORMALIZED FREE ENERGY PREDICTED BY IDOCK:    0.58 KCAL/MOL
REMARK 922        TOTAL FREE ENERGY PREDICTED BY IDOCK:   -1.92 KCAL/MOL
REMARK 923 INTER-LIGAND FREE ENERGY PREDICTED BY IDOCK:   -3.62 KCAL/MOL
REMARK 924 INTRA-LIGAND FREE ENERGY PREDICTED BY IDOCK:    1.69 KCAL/MOL
REMARK 927      BINDING AFFINITY PREDICTED BY RF-SCORE:    0.00 PKD
ROOT
HETATM    1  N   UNL     1      -9.761  16.376  70.052  1.00  0.00     0.340 NA 
HETATM    2  C   UNL     1      -8.448  15.735  70.160  1.00  0.00     0.843 C  
HETATM    3  H1  UNL     1      -9.932  17.138  70.707  1.00  0.00     0.000 HD 
HETATM    4  H2  UNL     1     -10.499  15.677  70.130  1.00  0.00     0.000 HD 
ENDROOT
BRANCH   2   5
HETATM    5  C   UNL     1      -8.188  14.575  69.163  1.00  0.00    -0.017 C  
HETATM    6  O   UNL     1      -7.259  13.576  69.658  1.00  0.00     0.164 OA 
HETATM    7  C   UNL     1      -7.167  12.475  68.738  1.00  0.00    -0.089 C  
HETATM    8  C   UNL     1      -6.589  12.955  67.366  1.00  0.00    -0.126 C  
HETATM    9  O   UNL     1      -6.430  15.910  68.129  1.00  0.00    -0.113 OA 
HETATM   10  H   UNL     1      -6.096  16.291  67.325  1.00  0.00     0.000 HD 
HETATM   11  N   UNL     1      -5.152  13.359  67.517  1.00  0.00    -0.324 NA 
HETATM   12  C   UNL     1      -7.426  14.102  66.799  1.00  0.00     0.887 C  
HETATM   13  H2  UNL     1      -4.589  12.613  67.926  1.00  0.00     0.000 HD 
HETATM   14  O   UNL     1      -8.679  13.644  66.275  1.00  0.00    -0.427 OA 
HETATM   15  C   UNL     1      -7.644  15.196  67.852  1.00  0.00    -0.139 C  
HETATM   16  H1  UNL     1      -4.775  13.672  66.622  1.00  0.00     0.000 HD 
HETATM   17  H   UNL     1      -9.199  14.357  65.922  1.00  0.00     0.000 HD 
BRANCH   7  18
HETATM   18  O   UNL     1      -6.231  11.482  69.119  1.00  0.00    -0.058 OA 
BRANCH  18  19
HETATM   19  C   UNL     1      -6.670  10.277  69.731  1.00  0.00    -0.103 C  
HETATM   20  O   UNL     1      -7.571   9.722  67.487  1.00  0.00    -0.091 OA 
HETATM   21  C   UNL     1      -5.339   9.607  70.092  1.00  0.00    -0.032 C  
HETATM   22  C   UNL     1      -6.419   8.024  68.819  1.00  0.00    -0.049 C  
HETATM   23  H   UNL     1      -8.003   9.085  66.930  1.00  0.00     0.000 HD 
HETATM   24  O   UNL     1      -5.131   8.552  69.139  1.00  0.00    -0.030 OA 
HETATM   25  C   UNL     1      -7.372   9.241  68.828  1.00  0.00    -0.075 C  
BRANCH  21  26
HETATM   26  C   UNL     1      -5.270   9.098  71.535  1.00  0.00    -0.046 C  
HETATM   27  H   UNL     1      -5.701   9.744  73.364  1.00  0.00     0.000 HD 
HETATM   28  O   UNL     1      -5.743  10.060  72.469  1.00  0.00    -0.294 OA 
ENDBRANCH  21  26
BRANCH  22  29
HETATM   29  O   UNL     1      -6.804   7.029  69.776  1.00  0.00    -0.048 OA 
BRANCH  29  30
HETATM   30  C   UNL     1      -7.828   7.399  70.761  1.00  0.00    -0.096 C  
HETATM   31  C   UNL     1      -7.581   6.671  72.108  1.00  0.00    -0.095 C  
HETATM   32  O   UNL     1      -6.731   7.497  72.934  1.00  0.00    -0.062 OA 
HETATM   33  C   UNL     1      -8.792   6.273  72.967  1.00  0.00    -0.123 C  
HETATM   34  C   UNL     1     -10.063   6.043  72.170  1.00  0.00    -0.208 C  
HETATM   35  N   UNL     1      -8.483   5.032  73.723  1.00  0.00    -0.105 NA 
HETATM   36  H   UNL     1      -6.580   7.051  73.759  1.00  0.00     0.000 HD 
HETATM   37  H1  UNL     1      -9.287   4.767  74.293  1.00  0.00     0.000 HD 
HETATM   38  H2  UNL     1      -7.632   5.121  74.277  1.00  0.00     0.000 HD 
HETATM   39  C   UNL     1     -10.349   7.250  71.278  1.00  0.00    -0.193 C  
HETATM   40  C   UNL     1      -9.266   7.356  70.173  1.00  0.00    -0.151 C  
HETATM   41  N   UNL     1     -11.702   7.097  70.699  1.00  0.00    -0.398 NA 
HETATM   42  H2  UNL     1     -12.419   6.958  71.411  1.00  0.00     0.000 HD 
HETATM   43  H1  UNL     1     -11.892   7.903  70.103  1.00  0.00     0.000 HD 
BRANCH  40  44
HETATM   44  O   UNL     1      -9.568   8.541  69.396  1.00  0.00    -0.167 OA 
BRANCH  44  45
HETATM   45  C   UNL     1     -10.880   8.586  68.828  1.00  0.00     0.043 C  
HETATM   46  O   UNL     1     -11.693   9.581  69.453  1.00  0.00     0.154 OA 
HETATM   47  C   UNL     1     -11.220  10.920  69.247  1.00  0.00    -0.265 C  
HETATM   48  C   UNL     1     -11.134  11.267  67.753  1.00  0.00    -0.271 C  
HETATM   49  H1  UNL     1      -9.882   7.958  65.595  1.00  0.00     0.000 HD 
HETATM   50  O   UNL     1     -10.613  12.584  67.529  1.00  0.00    -0.216 OA 
HETATM   51  H2  UNL     1     -10.284   6.863  66.802  1.00  0.00     0.000 HD 
HETATM   52  C   UNL     1     -10.248  10.241  67.031  1.00  0.00    -0.228 C  
HETATM   53  H   UNL     1     -10.559  12.798  66.604  1.00  0.00     0.000 HD 
HETATM   54  O   UNL     1     -10.251  10.508  65.618  1.00  0.00    -0.262 OA 
HETATM   55  C   UNL     1     -10.778   8.819  67.294  1.00  0.00    -0.147 C  
HETATM   56  N   UNL     1      -9.948   7.805  66.601  1.00  0.00    -0.243 NA 
HETATM   57  H   UNL     1      -9.703   9.873  65.171  1.00  0.00     0.000 HD 
BRANCH  47  58
HETATM   58  C   UNL     1     -12.125  11.884  70.047  1.00  0.00    -0.291 C  
HETATM   59  H1  UNL     1     -12.076  13.772  70.983  1.00  0.00     0.000 HD 
HETATM   60  N   UNL     1     -11.478  13.136  70.454  1.00  0.00    -0.465 NA 
HETATM   61  H2  UNL     1     -11.084  13.612  69.642  1.00  0.00     0.000 HD 
ENDBRANCH  47  58
ENDBRANCH  44  45
ENDBRANCH  40  44
ENDBRANCH  29  30
ENDBRANCH  22  29
ENDBRANCH  18  19
ENDBRANCH   7  18
ENDBRANCH   2   5
TORSDOF 9
ENDMDL
MODEL      271
REMARK 921   NORMALIZED FREE ENERGY PREDICTED BY IDOCK:    1.18 KCAL/MOL
REMARK 922        TOTAL FREE ENERGY PREDICTED BY IDOCK:   -1.01 KCAL/MOL
REMARK 923 INTER-LIGAND FREE ENERGY PREDICTED BY IDOCK:   -2.72 KCAL/MOL
REMARK 924 INTRA-LIGAND FREE ENERGY PREDICTED BY IDOCK:    1.71 KCAL/MOL
REMARK 927      BINDING AFFINITY PREDICTED BY RF-SCORE:    0.00 PKD
ROOT
HETATM    1  N   UNL     1      -7.010  14.912  71.350  1.00  0.00     0.721 NA 
HETATM    2  C   UNL     1      -7.947  14.807  70.228  1.00  0.00     0.828 C  
HETATM    3  H1  UNL     1      -7.291  15.543  72.099  1.00  0.00     0.000 HD 
HETATM    4  H2  UNL     1      -6.083  15.167  71.008  1.00  0.00     0.000 HD 
ENDROOT
BRANCH   2   5
HETATM    5  C   UNL     1      -7.518  13.847  69.088  1.00  0.00     0.027 C  
HETATM    6  O   UNL     1      -8.499  12.820  68.788  1.00  0.00    -0.005 OA 
HETATM    7  C   UNL     1      -8.089  12.052  67.643  1.00  0.00    -0.155 C  
HETATM    8  C   UNL     1      -6.754  11.295  67.941  1.00  0.00    -0.063 C  
HETATM    9  O   UNL     1      -6.363  12.471  70.735  1.00  0.00    -0.503 OA 
HETATM   10  H   UNL     1      -5.542  12.067  70.992  1.00  0.00     0.000 HD 
HETATM   11  N   UNL     1      -6.976  10.227  68.971  1.00  0.00    -0.060 NA 
HETATM   12  C   UNL     1      -5.667  12.272  68.389  1.00  0.00    -0.055 C  
HETATM   13  H2  UNL     1      -7.723   9.587  68.700  1.00  0.00     0.000 HD 
HETATM   14  O   UNL     1      -5.154  13.043  67.294  1.00  0.00    -0.325 OA 
HETATM   15  C   UNL     1      -6.179  13.190  69.506  1.00  0.00    -0.116 C  
HETATM   16  H1  UNL     1      -6.105   9.734  69.166  1.00  0.00     0.000 HD 
HETATM   17  H   UNL     1      -4.478  13.651  67.572  1.00  0.00     0.000 HD 
BRANCH   7  18
HETATM   18  O   UNL     1      -8.965  10.986  67.322  1.00  0.00    -0.138 OA 
BRANCH  18  19
HETATM   19  C   UNL     1      -8.446   9.740  66.876  1.00  0.00    -0.120 C  
HETATM   20  O   UNL     1     -10.312   8.747  68.177  1.00  0.00    -0.208 OA 
HETATM   21  C   UNL     1      -8.673   9.831  65.362  1.00  0.00    -0.154 C  
HETATM   22  C   UNL     1      -9.747   7.886  65.958  1.00  0.00     0.101 C  
HETATM   23  H   UNL     1     -10.786   7.964  68.430  1.00  0.00     0.000 HD 
HETATM   24  O   UNL     1      -9.800   8.993  65.057  1.00  0.00     0.223 OA 
HETATM   25  C   UNL     1      -9.216   8.467  67.287  1.00  0.00    -0.138 C  
BRANCH  21  26
HETATM   26  C   UNL     1      -7.443   9.465  64.526  1.00  0.00    -0.105 C  
HETATM   27  H   UNL     1      -5.610  10.155  64.192  1.00  0.00     0.000 HD 
HETATM   28  O   UNL     1      -6.373  10.382  64.711  1.00  0.00    -0.127 OA 
ENDBRANCH  21  26
BRANCH  22  29
HETATM   29  O   UNL     1      -8.894   6.858  65.438  1.00  0.00    -0.043 OA 
BRANCH  29  30
HETATM   30  C   UNL     1      -7.977   6.202  66.377  1.00  0.00    -0.106 C  
HETATM   31  C   UNL     1      -6.774   5.578  65.624  1.00  0.00    -0.045 C  
HETATM   32  O   UNL     1      -5.716   6.559  65.541  1.00  0.00    -0.024 OA 
HETATM   33  C   UNL     1      -6.146   4.286  66.172  1.00  0.00    -0.031 C  
HETATM   34  C   UNL     1      -7.109   3.424  66.969  1.00  0.00    -0.058 C  
HETATM   35  N   UNL     1      -5.610   3.474  65.049  1.00  0.00    -0.010 NA 
HETATM   36  H   UNL     1      -4.979   6.176  65.080  1.00  0.00     0.000 HD 
HETATM   37  H1  UNL     1      -5.194   2.617  65.413  1.00  0.00     0.000 HD 
HETATM   38  H2  UNL     1      -4.957   4.002  64.470  1.00  0.00     0.000 HD 
HETATM   39  C   UNL     1      -7.781   4.257  68.058  1.00  0.00    -0.075 C  
HETATM   40  C   UNL     1      -8.718   5.310  67.413  1.00  0.00    -0.106 C  
HETATM   41  N   UNL     1      -8.525   3.346  68.955  1.00  0.00    -0.064 NA 
HETATM   42  H2  UNL     1      -7.937   2.605  69.336  1.00  0.00     0.000 HD 
HETATM   43  H1  UNL     1      -8.974   3.903  69.682  1.00  0.00     0.000 HD 
BRANCH  40  44
HETATM   44  O   UNL     1      -9.284   6.092  68.493  1.00  0.00    -0.117 OA 
BRANCH  44  45
HETATM   45  C   UNL     1      -9.282   5.461  69.776  1.00  0.00    -0.132 C  
HETATM   46  O   UNL     1      -7.976   5.450  70.357  1.00  0.00    -0.095 OA 
HETATM   47  C   UNL     1      -7.471   6.759  70.655  1.00  0.00    -0.083 C  
HETATM   48  C   UNL     1      -8.397   7.519  71.616  1.00  0.00    -0.107 C  
HETATM   49  H1  UNL     1     -12.357   6.654  70.758  1.00  0.00     0.000 HD 
HETATM   50  O   UNL     1      -7.931   8.850  71.883  1.00  0.00    -0.328 OA 
HETATM   51  H2  UNL     1     -11.996   5.254  69.906  1.00  0.00     0.000 HD 
HETATM   52  C   UNL     1      -9.815   7.585  71.029  1.00  0.00    -0.179 C  
HETATM   53  H   UNL     1      -8.505   9.320  72.477  1.00  0.00     0.000 HD 
HETATM   54  O   UNL     1     -10.701   8.208  71.975  1.00  0.00    -0.239 OA 
HETATM   55  C   UNL     1     -10.310   6.164  70.706  1.00  0.00    -0.213 C  
HETATM   56  N   UNL     1     -11.683   6.194  70.147  1.00  0.00    -0.220 NA 
HETATM   57  H   UNL     1     -11.578   8.248  71.612  1.00  0.00     0.000 HD 
BRANCH  47  58
HETATM   58  C   UNL     1      -6.026   6.613  71.186  1.00  0.00    -0.035 C  
HETATM   59  H1  UNL     1      -4.968   5.905  72.866  1.00  0.00     0.000 HD 
HETATM   60  N   UNL     1      -5.921   6.001  72.516  1.00  0.00    -0.037 NA 
HETATM   61  H2  UNL     1      -6.397   5.098  72.529  1.00  0.00     0.000 HD 
ENDBRANCH  47  58
ENDBRANCH  44  45
ENDBRANCH  40  44
ENDBRANCH  29  30
ENDBRANCH  22  29
ENDBRANCH  18  19
ENDBRANCH   7  18
ENDBRANCH   2   5
TORSDOF 9
ENDMDL
MODEL      272
REMARK 921   NORMALIZED FREE ENERGY PREDICTED BY IDOCK:    1.19 KCAL/MOL
REMARK 922        TOTAL FREE ENERGY PREDICTED BY IDOCK:   -0.99 KCAL/MOL
REMARK 923 INTER-LIGAND FREE ENERGY PREDICTED BY IDOCK:   -2.81 KCAL/MOL
REMARK 924 INTRA-LIGAND FREE ENERGY PREDICTED BY IDOCK:    1.82 KCAL/MOL
REMARK 927      BINDING AFFINITY PREDICTED BY RF-SCORE:    0.00 PKD
ROOT
HETATM    1  N   UNL     1     -12.813  12.180  69.942  1.00  0.00     0.435 NA 
HETATM    2  C   UNL     1     -11.600  11.360  70.008  1.00  0.00    -0.299 C  
HETATM    3  H1  UNL     1     -12.719  13.062  69.440  1.00  0.00     0.000 HD 
HETATM    4  H2  UNL     1     -13.171  12.350  70.882  1.00  0.00     0.000 HD 
ENDROOT
BRANCH   2   5
HETATM    5  C   UNL     1     -11.743  10.018  70.773  1.00  0.00    -0.350 C  
HETATM    6  O   UNL     1     -11.894   8.864  69.905  1.00  0.00     0.196 OA 
HETATM    7  C   UNL     1     -11.893   7.651  70.677  1.00  0.00    -0.147 C  
HETATM    8  C   UNL     1     -13.118   7.620  71.648  1.00  0.00    -0.353 C  
HETATM    9  O   UNL     1     -14.146  10.404  70.921  1.00  0.00     0.610 OA 
HETATM   10  H   UNL     1     -14.901  10.478  71.494  1.00  0.00     0.000 HD 
HETATM   11  N   UNL     1     -14.397   7.497  70.873  1.00  0.00    -0.524 NA 
HETATM   12  C   UNL     1     -13.133   8.861  72.540  1.00  0.00    -0.364 C  
HETATM   13  H2  UNL     1     -14.387   6.690  70.248  1.00  0.00     0.000 HD 
HETATM   14  O   UNL     1     -12.134   8.797  73.567  1.00  0.00     0.631 OA 
HETATM   15  C   UNL     1     -12.973  10.138  71.707  1.00  0.00    -0.462 C  
HETATM   16  H1  UNL     1     -15.196   7.477  71.506  1.00  0.00     0.000 HD 
HETATM   17  H   UNL     1     -12.143   9.568  74.122  1.00  0.00     0.000 HD 
BRANCH   7  18
HETATM   18  O   UNL     1     -12.098   6.479  69.908  1.00  0.00    -0.229 OA 
BRANCH  18  19
HETATM   19  C   UNL     1     -11.058   5.968  69.085  1.00  0.00    -0.335 C  
HETATM   20  O   UNL     1     -10.890   8.293  68.234  1.00  0.00    -0.436 OA 
HETATM   21  C   UNL     1     -10.005   5.569  70.125  1.00  0.00    -0.221 C  
HETATM   22  C   UNL     1      -8.872   6.999  68.724  1.00  0.00    -0.129 C  
HETATM   23  H   UNL     1     -10.434   8.912  67.676  1.00  0.00     0.000 HD 
HETATM   24  O   UNL     1      -8.974   6.570  70.083  1.00  0.00    -0.152 OA 
HETATM   25  C   UNL     1     -10.317   6.974  68.178  1.00  0.00    -0.191 C  
BRANCH  21  26
HETATM   26  C   UNL     1      -9.442   4.158  69.930  1.00  0.00    -0.195 C  
HETATM   27  H   UNL     1      -9.412   2.747  68.531  1.00  0.00     0.000 HD 
HETATM   28  O   UNL     1      -9.761   3.622  68.653  1.00  0.00    -0.132 OA 
ENDBRANCH  21  26
BRANCH  22  29
HETATM   29  O   UNL     1      -8.001   6.130  67.989  1.00  0.00    -0.108 OA 
BRANCH  29  30
HETATM   30  C   UNL     1      -7.585   6.565  66.650  1.00  0.00    -0.094 C  
HETATM   31  C   UNL     1      -6.372   7.527  66.737  1.00  0.00    -0.049 C  
HETATM   32  O   UNL     1      -5.156   6.749  66.676  1.00  0.00    -0.015 OA 
HETATM   33  C   UNL     1      -6.240   8.649  65.695  1.00  0.00    -0.052 C  
HETATM   34  C   UNL     1      -7.565   9.105  65.111  1.00  0.00    -0.098 C  
HETATM   35  N   UNL     1      -5.570   9.825  66.308  1.00  0.00    -0.051 NA 
HETATM   36  H   UNL     1      -4.413   7.338  66.729  1.00  0.00     0.000 HD 
HETATM   37  H1  UNL     1      -5.482  10.570  65.616  1.00  0.00     0.000 HD 
HETATM   38  H2  UNL     1      -4.672   9.581  66.725  1.00  0.00     0.000 HD 
HETATM   39  C   UNL     1      -8.346   7.903  64.582  1.00  0.00    -0.038 C  
HETATM   40  C   UNL     1      -8.785   7.001  65.763  1.00  0.00    -0.100 C  
HETATM   41  N   UNL     1      -9.511   8.400  63.816  1.00  0.00     0.937 NA 
HETATM   42  H2  UNL     1      -9.244   9.050  63.077  1.00  0.00     0.000 HD 
HETATM   43  H1  UNL     1     -10.032   7.597  63.464  1.00  0.00     0.000 HD 
BRANCH  40  44
HETATM   44  O   UNL     1      -9.477   5.862  65.193  1.00  0.00     0.265 OA 
BRANCH  44  45
HETATM   45  C   UNL     1      -8.739   5.120  64.218  1.00  0.00    -0.071 C  
HETATM   46  O   UNL     1      -7.500   4.640  64.747  1.00  0.00    -0.070 OA 
HETATM   47  C   UNL     1      -7.660   3.687  65.807  1.00  0.00    -0.078 C  
HETATM   48  C   UNL     1      -8.472   2.465  65.353  1.00  0.00    -0.102 C  
HETATM   49  H1  UNL     1     -11.481   3.639  62.757  1.00  0.00     0.000 HD 
HETATM   50  O   UNL     1      -8.685   1.527  66.417  1.00  0.00    -0.106 OA 
HETATM   51  H2  UNL     1     -10.762   5.112  62.392  1.00  0.00     0.000 HD 
HETATM   52  C   UNL     1      -9.830   2.919  64.797  1.00  0.00     0.013 C  
HETATM   53  H   UNL     1      -9.187   0.771  66.136  1.00  0.00     0.000 HD 
HETATM   54  O   UNL     1     -10.545   1.784  64.280  1.00  0.00    -0.338 OA 
HETATM   55  C   UNL     1      -9.613   3.954  63.677  1.00  0.00    -0.155 C  
HETATM   56  N   UNL     1     -10.908   4.404  63.112  1.00  0.00     0.208 NA 
HETATM   57  H   UNL     1     -11.385   2.065  63.936  1.00  0.00     0.000 HD 
BRANCH  47  58
HETATM   58  C   UNL     1      -6.259   3.324  66.348  1.00  0.00    -0.028 C  
HETATM   59  H1  UNL     1      -5.254   2.960  68.166  1.00  0.00     0.000 HD 
HETATM   60  N   UNL     1      -6.180   3.200  67.808  1.00  0.00    -0.031 NA 
HETATM   61  H2  UNL     1      -6.874   2.533  68.146  1.00  0.00     0.000 HD 
ENDBRANCH  47  58
ENDBRANCH  44  45
ENDBRANCH  40  44
ENDBRANCH  29  30
ENDBRANCH  22  29
ENDBRANCH  18  19
ENDBRANCH   7  18
ENDBRANCH   2   5
TORSDOF 9
ENDMDL
MODEL      273
REMARK 921   NORMALIZED FREE ENERGY PREDICTED BY IDOCK:    1.59 KCAL/MOL
REMARK 922        TOTAL FREE ENERGY PREDICTED BY IDOCK:   -0.39 KCAL/MOL
REMARK 923 INTER-LIGAND FREE ENERGY PREDICTED BY IDOCK:   -3.39 KCAL/MOL
REMARK 924 INTRA-LIGAND FREE ENERGY PREDICTED BY IDOCK:    3.00 KCAL/MOL
REMARK 927      BINDING AFFINITY PREDICTED BY RF-SCORE:    0.00 PKD
ROOT
HETATM    1  N   UNL     1     -10.250   3.508  72.932  1.00  0.00    -0.157 NA 
HETATM    2  C   UNL     1      -9.358   4.657  72.752  1.00  0.00    -0.128 C  
HETATM    3  H1  UNL     1     -10.931   3.597  73.686  1.00  0.00     0.000 HD 
HETATM    4  H2  UNL     1      -9.702   2.657  73.055  1.00  0.00     0.000 HD 
ENDROOT
BRANCH   2   5
HETATM    5  C   UNL     1      -8.321   4.523  71.606  1.00  0.00    -0.103 C  
HETATM    6  O   UNL     1      -8.608   5.362  70.457  1.00  0.00    -0.118 OA 
HETATM    7  C   UNL     1      -7.542   5.278  69.495  1.00  0.00    -0.069 C  
HETATM    8  C   UNL     1      -7.417   3.821  68.941  1.00  0.00    -0.054 C  
HETATM    9  O   UNL     1      -9.593   2.636  70.731  1.00  0.00    -0.149 OA 
HETATM   10  H   UNL     1      -9.572   1.723  70.467  1.00  0.00     0.000 HD 
HETATM   11  N   UNL     1      -8.617   3.473  68.110  1.00  0.00    -0.093 NA 
HETATM   12  C   UNL     1      -7.231   2.823  70.083  1.00  0.00    -0.037 C  
HETATM   13  H2  UNL     1      -8.772   4.151  67.364  1.00  0.00     0.000 HD 
HETATM   14  O   UNL     1      -5.910   2.880  70.637  1.00  0.00    -0.016 OA 
HETATM   15  C   UNL     1      -8.287   3.035  71.176  1.00  0.00    -0.062 C  
HETATM   16  H1  UNL     1      -8.536   2.522  67.750  1.00  0.00     0.000 HD 
HETATM   17  H   UNL     1      -5.794   2.259  71.347  1.00  0.00     0.000 HD 
BRANCH   7  18
HETATM   18  O   UNL     1      -7.774   6.022  68.312  1.00  0.00    -0.098 OA 
BRANCH  18  19
HETATM   19  C   UNL     1      -8.306   7.338  68.384  1.00  0.00    -0.125 C  
HETATM   20  O   UNL     1      -7.549   7.279  70.747  1.00  0.00    -0.082 OA 
HETATM   21  C   UNL     1      -7.391   8.099  67.417  1.00  0.00    -0.089 C  
HETATM   22  C   UNL     1      -7.209   9.281  69.382  1.00  0.00    -0.068 C  
HETATM   23  H   UNL     1      -7.446   7.744  71.569  1.00  0.00     0.000 HD 
HETATM   24  O   UNL     1      -6.485   8.873  68.220  1.00  0.00    -0.058 OA 
HETATM   25  C   UNL     1      -8.141   8.095  69.719  1.00  0.00    -0.116 C  
BRANCH  21  26
HETATM   26  C   UNL     1      -8.142   8.965  66.402  1.00  0.00    -0.110 C  
HETATM   27  H   UNL     1      -9.437   8.731  64.913  1.00  0.00     0.000 HD 
HETATM   28  O   UNL     1      -8.971   8.194  65.542  1.00  0.00    -0.137 OA 
ENDBRANCH  21  26
BRANCH  22  29
HETATM   29  O   UNL     1      -7.941  10.485  69.119  1.00  0.00    -0.124 OA 
BRANCH  29  30
HETATM   30  C   UNL     1      -9.128  10.748  69.943  1.00  0.00     0.655 C  
HETATM   31  C   UNL     1      -9.295   9.654  71.029  1.00  0.00     0.187 C  
HETATM   32  O   UNL     1      -8.587  10.067  72.219  1.00  0.00     2.301 OA 
HETATM   33  C   UNL     1     -10.713   9.255  71.466  1.00  0.00    -0.355 C  
HETATM   34  C   UNL     1     -11.770   9.472  70.399  1.00  0.00    -0.227 C  
HETATM   35  N   UNL     1     -10.732   7.822  71.859  1.00  0.00    -0.218 NA 
HETATM   36  H   UNL     1      -8.689   9.396  72.884  1.00  0.00     0.000 HD 
HETATM   37  H1  UNL     1     -11.674   7.558  72.150  1.00  0.00     0.000 HD 
HETATM   38  H2  UNL     1     -10.037   7.611  72.574  1.00  0.00     0.000 HD 
HETATM   39  C   UNL     1     -11.700  10.905  69.873  1.00  0.00    -0.339 C  
HETATM   40  C   UNL     1     -10.376  11.115  69.094  1.00  0.00    -0.161 C  
HETATM   41  N   UNL     1     -12.880  11.150  69.015  1.00  0.00    -0.096 NA 
HETATM   42  H2  UNL     1     -13.759  10.951  69.493  1.00  0.00     0.000 HD 
HETATM   43  H1  UNL     1     -12.832  12.106  68.665  1.00  0.00     0.000 HD 
BRANCH  40  44
HETATM   44  O   UNL     1     -10.352  12.499  68.665  1.00  0.00    -0.225 OA 
BRANCH  44  45
HETATM   45  C   UNL     1      -9.268  12.857  67.804  1.00  0.00    -0.200 C  
HETATM   46  O   UNL     1      -9.502  12.438  66.457  1.00  0.00    -0.233 OA 
HETATM   47  C   UNL     1     -10.618  13.094  65.840  1.00  0.00    -0.280 C  
HETATM   48  C   UNL     1     -10.441  14.620  65.824  1.00  0.00    -0.325 C  
HETATM   49  H1  UNL     1      -8.600  15.874  69.318  1.00  0.00     0.000 HD 
HETATM   50  O   UNL     1     -11.573  15.294  65.257  1.00  0.00    -0.263 OA 
HETATM   51  H2  UNL     1      -7.994  14.354  69.691  1.00  0.00     0.000 HD 
HETATM   52  C   UNL     1     -10.210  15.132  67.254  1.00  0.00    -0.243 C  
HETATM   53  H   UNL     1     -11.464  16.238  65.247  1.00  0.00     0.000 HD 
HETATM   54  O   UNL     1      -9.945  16.545  67.225  1.00  0.00    -0.253 OA 
HETATM   55  C   UNL     1      -9.019  14.389  67.886  1.00  0.00    -0.186 C  
HETATM   56  N   UNL     1      -8.764  14.869  69.265  1.00  0.00    -0.143 NA 
HETATM   57  H   UNL     1      -9.801  16.861  68.109  1.00  0.00     0.000 HD 
BRANCH  47  58
HETATM   58  C   UNL     1     -10.820  12.488  64.432  1.00  0.00    -0.342 C  
HETATM   59  H1  UNL     1     -12.264  12.359  62.901  1.00  0.00     0.000 HD 
HETATM   60  N   UNL     1     -12.131  12.760  63.831  1.00  0.00    -0.449 NA 
HETATM   61  H2  UNL     1     -12.312  13.764  63.813  1.00  0.00     0.000 HD 
ENDBRANCH  47  58
ENDBRANCH  44  45
ENDBRANCH  40  44
ENDBRANCH  29  30
ENDBRANCH  22  29
ENDBRANCH  18  19
ENDBRANCH   7  18
ENDBRANCH   2   5
TORSDOF 9
ENDMDL
MODEL      274
REMARK 921   NORMALIZED FREE ENERGY PREDICTED BY IDOCK:    1.60 KCAL/MOL
REMARK 922        TOTAL FREE ENERGY PREDICTED BY IDOCK:   -0.37 KCAL/MOL
REMARK 923 INTER-LIGAND FREE ENERGY PREDICTED BY IDOCK:   -3.44 KCAL/MOL
REMARK 924 INTRA-LIGAND FREE ENERGY PREDICTED BY IDOCK:    3.07 KCAL/MOL
REMARK 927      BINDING AFFINITY PREDICTED BY RF-SCORE:    0.00 PKD
ROOT
HETATM    1  N   UNL     1      -7.001  14.251  67.884  1.00  0.00    -0.146 NA 
HETATM    2  C   UNL     1      -7.180  12.861  68.313  1.00  0.00    -0.112 C  
HETATM    3  H1  UNL     1      -6.888  14.930  68.635  1.00  0.00     0.000 HD 
HETATM    4  H2  UNL     1      -7.770  14.530  67.275  1.00  0.00     0.000 HD 
ENDROOT
BRANCH   2   5
HETATM    5  C   UNL     1      -7.353  11.827  67.169  1.00  0.00    -0.146 C  
HETATM    6  O   UNL     1      -8.451  10.901  67.379  1.00  0.00    -0.119 OA 
HETATM    7  C   UNL     1      -8.628  10.061  66.225  1.00  0.00    -0.129 C  
HETATM    8  C   UNL     1      -7.359   9.176  65.994  1.00  0.00    -0.094 C  
HETATM    9  O   UNL     1      -5.731  10.386  68.280  1.00  0.00    -0.041 OA 
HETATM   10  H   UNL     1      -4.915   9.905  68.200  1.00  0.00     0.000 HD 
HETATM   11  N   UNL     1      -7.216   8.169  67.097  1.00  0.00    -0.082 NA 
HETATM   12  C   UNL     1      -6.107  10.046  65.878  1.00  0.00    -0.080 C  
HETATM   13  H2  UNL     1      -8.058   7.604  67.207  1.00  0.00     0.000 HD 
HETATM   14  O   UNL     1      -6.040  10.725  64.617  1.00  0.00    -0.369 OA 
HETATM   15  C   UNL     1      -6.022  11.045  67.038  1.00  0.00    -0.077 C  
HETATM   16  H1  UNL     1      -6.388   7.592  66.946  1.00  0.00     0.000 HD 
HETATM   17  H   UNL     1      -5.262  11.266  64.544  1.00  0.00     0.000 HD 
BRANCH   7  18
HETATM   18  O   UNL     1      -9.643   9.085  66.374  1.00  0.00    -0.201 OA 
BRANCH  18  19
HETATM   19  C   UNL     1      -9.371   7.862  67.047  1.00  0.00    -0.160 C  
HETATM   20  O   UNL     1      -8.850   9.305  68.997  1.00  0.00    -0.131 OA 
HETATM   21  C   UNL     1     -10.755   7.202  67.065  1.00  0.00    -0.350 C  
HETATM   22  C   UNL     1     -10.142   7.248  69.283  1.00  0.00    -0.183 C  
HETATM   23  H   UNL     1      -8.611   9.358  69.915  1.00  0.00     0.000 HD 
HETATM   24  O   UNL     1     -11.264   7.337  68.403  1.00  0.00     0.063 OA 
HETATM   25  C   UNL     1      -8.983   7.948  68.538  1.00  0.00    -0.133 C  
BRANCH  21  26
HETATM   26  C   UNL     1     -10.755   5.744  66.597  1.00  0.00    -0.262 C  
HETATM   27  H   UNL     1     -11.083   4.717  64.928  1.00  0.00     0.000 HD 
HETATM   28  O   UNL     1     -11.083   5.621  65.219  1.00  0.00     1.184 OA 
ENDBRANCH  21  26
BRANCH  22  29
HETATM   29  O   UNL     1      -9.845   5.877  69.578  1.00  0.00    -0.155 OA 
BRANCH  29  30
HETATM   30  C   UNL     1      -8.905   5.610  70.673  1.00  0.00    -0.138 C  
HETATM   31  C   UNL     1      -9.461   6.151  72.017  1.00  0.00    -0.152 C  
HETATM   32  O   UNL     1     -10.234   5.110  72.654  1.00  0.00    -0.174 OA 
HETATM   33  C   UNL     1      -8.472   6.682  73.067  1.00  0.00    -0.117 C  
HETATM   34  C   UNL     1      -7.177   7.214  72.479  1.00  0.00    -0.072 C  
HETATM   35  N   UNL     1      -9.110   7.770  73.852  1.00  0.00    -0.339 NA 
HETATM   36  H   UNL     1     -10.574   5.442  73.477  1.00  0.00     0.000 HD 
HETATM   37  H1  UNL     1      -8.454   8.122  74.548  1.00  0.00     0.000 HD 
HETATM   38  H2  UNL     1      -9.992   7.474  74.270  1.00  0.00     0.000 HD 
HETATM   39  C   UNL     1      -6.550   6.168  71.558  1.00  0.00    -0.054 C  
HETATM   40  C   UNL     1      -7.439   5.970  70.305  1.00  0.00    -0.090 C  
HETATM   41  N   UNL     1      -5.189   6.620  71.193  1.00  0.00    -0.022 NA 
HETATM   42  H2  UNL     1      -4.611   6.820  72.009  1.00  0.00     0.000 HD 
HETATM   43  H1  UNL     1      -4.771   5.921  70.578  1.00  0.00     0.000 HD 
BRANCH  40  44
HETATM   44  O   UNL     1      -6.815   4.938  69.501  1.00  0.00    -0.049 OA 
BRANCH  44  45
HETATM   45  C   UNL     1      -7.715   4.035  68.853  1.00  0.00    -0.054 C  
HETATM   46  O   UNL     1      -8.169   4.551  67.599  1.00  0.00    -0.099 OA 
HETATM   47  C   UNL     1      -7.123   4.697  66.628  1.00  0.00    -0.071 C  
HETATM   48  C   UNL     1      -6.417   3.362  66.349  1.00  0.00    -0.036 C  
HETATM   49  H1  UNL     1      -6.102   1.161  69.846  1.00  0.00     0.000 HD 
HETATM   50  O   UNL     1      -5.335   3.502  65.418  1.00  0.00    -0.009 OA 
HETATM   51  H2  UNL     1      -7.306   2.020  70.641  1.00  0.00     0.000 HD 
HETATM   52  C   UNL     1      -5.884   2.771  67.663  1.00  0.00    -0.019 C  
HETATM   53  H   UNL     1      -4.898   2.676  65.246  1.00  0.00     0.000 HD 
HETATM   54  O   UNL     1      -5.313   1.474  67.413  1.00  0.00    -0.011 OA 
HETATM   55  C   UNL     1      -7.032   2.649  68.681  1.00  0.00    -0.044 C  
HETATM   56  N   UNL     1      -6.550   2.071  69.958  1.00  0.00    -0.028 NA 
HETATM   57  H   UNL     1      -4.984   1.109  68.226  1.00  0.00     0.000 HD 
BRANCH  47  58
HETATM   58  C   UNL     1      -7.725   5.347  65.361  1.00  0.00    -0.092 C  
HETATM   59  H1  UNL     1      -7.139   6.151  63.502  1.00  0.00     0.000 HD 
HETATM   60  N   UNL     1      -6.741   5.722  64.339  1.00  0.00    -0.044 NA 
HETATM   61  H2  UNL     1      -6.168   4.916  64.086  1.00  0.00     0.000 HD 
ENDBRANCH  47  58
ENDBRANCH  44  45
ENDBRANCH  40  44
ENDBRANCH  29  30
ENDBRANCH  22  29
ENDBRANCH  18  19
ENDBRANCH   7  18
ENDBRANCH   2   5
TORSDOF 9
ENDMDL
MODEL      275
REMARK 921   NORMALIZED FREE ENERGY PREDICTED BY IDOCK:    2.09 KCAL/MOL
REMARK 922        TOTAL FREE ENERGY PREDICTED BY IDOCK:    0.38 KCAL/MOL
REMARK 923 INTER-LIGAND FREE ENERGY PREDICTED BY IDOCK:   -0.50 KCAL/MOL
REMARK 924 INTRA-LIGAND FREE ENERGY PREDICTED BY IDOCK:    0.88 KCAL/MOL
REMARK 927      BINDING AFFINITY PREDICTED BY RF-SCORE:    0.00 PKD
ROOT
HETATM    1  N   UNL     1     -12.146  18.009  68.212  1.00  0.00     1.945 NA 
HETATM    2  C   UNL     1     -11.427  16.747  68.408  1.00  0.00     0.072 C  
HETATM    3  H1  UNL     1     -12.782  18.272  68.963  1.00  0.00     0.000 HD 
HETATM    4  H2  UNL     1     -12.644  17.992  67.322  1.00  0.00     0.000 HD 
ENDROOT
BRANCH   2   5
HETATM    5  C   UNL     1     -10.459  16.346  67.263  1.00  0.00    -0.303 C  
HETATM    6  O   UNL     1     -10.280  14.913  67.124  1.00  0.00    -0.243 OA 
HETATM    7  C   UNL     1      -9.475  14.617  65.970  1.00  0.00    -0.238 C  
HETATM    8  C   UNL     1      -8.039  15.214  66.137  1.00  0.00     0.963 C  
HETATM    9  O   UNL     1      -8.593  16.577  68.815  1.00  0.00    -0.241 OA 
HETATM   10  H   UNL     1      -7.755  16.991  68.988  1.00  0.00     0.000 HD 
HETATM   11  N   UNL     1      -7.298  14.498  67.228  1.00  0.00    -0.285 NA 
HETATM   12  C   UNL     1      -8.107  16.715  66.412  1.00  0.00    -0.324 C  
HETATM   13  H2  UNL     1      -7.275  13.490  67.073  1.00  0.00     0.000 HD 
HETATM   14  O   UNL     1      -8.437  17.464  65.235  1.00  0.00     0.487 OA 
HETATM   15  C   UNL     1      -9.094  17.023  67.545  1.00  0.00    -0.223 C  
HETATM   16  H1  UNL     1      -6.362  14.887  67.337  1.00  0.00     0.000 HD 
HETATM   17  H   UNL     1      -8.479  18.397  65.406  1.00  0.00     0.000 HD 
BRANCH   7  18
HETATM   18  O   UNL     1      -9.201  13.237  65.798  1.00  0.00     0.078 OA 
BRANCH  18  19
HETATM   19  C   UNL     1      -9.547  12.304  66.812  1.00  0.00    -0.218 C  
HETATM   20  O   UNL     1      -8.668  10.599  65.237  1.00  0.00    -0.183 OA 
HETATM   21  C   UNL     1      -8.596  12.708  67.945  1.00  0.00    -0.181 C  
HETATM   22  C   UNL     1      -8.144  10.475  67.624  1.00  0.00    -0.107 C  
HETATM   23  H   UNL     1      -8.456   9.687  65.078  1.00  0.00     0.000 HD 
HETATM   24  O   UNL     1      -7.550  11.723  67.984  1.00  0.00    -0.102 OA 
HETATM   25  C   UNL     1      -9.204  10.821  66.554  1.00  0.00    -0.168 C  
BRANCH  21  26
HETATM   26  C   UNL     1      -9.282  12.869  69.305  1.00  0.00     0.957 C  
HETATM   27  H   UNL     1      -9.911  14.333  70.491  1.00  0.00     0.000 HD 
HETATM   28  O   UNL     1      -9.486  14.233  69.648  1.00  0.00     0.365 OA 
ENDBRANCH  21  26
BRANCH  22  29
HETATM   29  O   UNL     1      -8.722   9.846  68.774  1.00  0.00    -0.122 OA 
BRANCH  29  30
HETATM   30  C   UNL     1      -9.880   8.970  68.555  1.00  0.00    -0.169 C  
HETATM   31  C   UNL     1     -11.011   9.292  69.567  1.00  0.00    -0.151 C  
HETATM   32  O   UNL     1     -11.877  10.297  68.994  1.00  0.00    -0.504 OA 
HETATM   33  C   UNL     1     -11.913   8.148  70.057  1.00  0.00     0.574 C  
HETATM   34  C   UNL     1     -11.248   6.784  70.027  1.00  0.00    -0.380 C  
HETATM   35  N   UNL     1     -12.357   8.422  71.449  1.00  0.00    -0.304 NA 
HETATM   36  H   UNL     1     -12.569  10.494  69.614  1.00  0.00     0.000 HD 
HETATM   37  H1  UNL     1     -12.956   7.663  71.774  1.00  0.00     0.000 HD 
HETATM   38  H2  UNL     1     -12.809   9.332  71.535  1.00  0.00     0.000 HD 
HETATM   39  C   UNL     1     -10.662   6.516  68.642  1.00  0.00    -0.271 C  
HETATM   40  C   UNL     1      -9.478   7.480  68.376  1.00  0.00    -0.148 C  
HETATM   41  N   UNL     1     -10.235   5.101  68.578  1.00  0.00    -0.144 NA 
HETATM   42  H2  UNL     1     -10.987   4.454  68.818  1.00  0.00     0.000 HD 
HETATM   43  H1  UNL     1      -9.844   4.922  67.653  1.00  0.00     0.000 HD 
BRANCH  40  44
HETATM   44  O   UNL     1      -9.001   7.206  67.036  1.00  0.00    -0.123 OA 
BRANCH  44  45
HETATM   45  C   UNL     1      -7.582   7.100  66.897  1.00  0.00    -0.101 C  
HETATM   46  O   UNL     1      -7.084   5.889  67.473  1.00  0.00    -0.071 OA 
HETATM   47  C   UNL     1      -7.549   4.706  66.808  1.00  0.00    -0.087 C  
HETATM   48  C   UNL     1      -7.165   4.702  65.321  1.00  0.00    -0.068 C  
HETATM   49  H1  UNL     1      -7.426   8.538  63.775  1.00  0.00     0.000 HD 
HETATM   50  O   UNL     1      -7.668   3.550  64.631  1.00  0.00    -0.076 OA 
HETATM   51  H2  UNL     1      -7.371   9.282  65.279  1.00  0.00     0.000 HD 
HETATM   52  C   UNL     1      -7.698   5.973  64.642  1.00  0.00    -0.099 C  
HETATM   53  H   UNL     1      -7.430   3.548  63.711  1.00  0.00     0.000 HD 
HETATM   54  O   UNL     1      -7.250   6.016  63.277  1.00  0.00    -0.048 OA 
HETATM   55  C   UNL     1      -7.192   7.216  65.397  1.00  0.00    -0.070 C  
HETATM   56  N   UNL     1      -7.682   8.461  64.759  1.00  0.00    -0.102 NA 
HETATM   57  H   UNL     1      -7.580   6.802  62.857  1.00  0.00     0.000 HD 
BRANCH  47  58
HETATM   58  C   UNL     1      -7.019   3.476  67.579  1.00  0.00    -0.054 C  
HETATM   59  H1  UNL     1      -6.021   2.975  69.367  1.00  0.00     0.000 HD 
HETATM   60  N   UNL     1      -6.371   3.787  68.859  1.00  0.00    -0.032 NA 
HETATM   61  H2  UNL     1      -6.999   4.332  69.450  1.00  0.00     0.000 HD 
ENDBRANCH  47  58
ENDBRANCH  44  45
ENDBRANCH  40  44
ENDBRANCH  29  30
ENDBRANCH  22  29
ENDBRANCH  18  19
ENDBRANCH   7  18
ENDBRANCH   2   5
TORSDOF 9
ENDMDL
MODEL      276
REMARK 921   NORMALIZED FREE ENERGY PREDICTED BY IDOCK:    2.29 KCAL/MOL
REMARK 922        TOTAL FREE ENERGY PREDICTED BY IDOCK:    0.68 KCAL/MOL
REMARK 923 INTER-LIGAND FREE ENERGY PREDICTED BY IDOCK:   -0.71 KCAL/MOL
REMARK 924 INTRA-LIGAND FREE ENERGY PREDICTED BY IDOCK:    1.39 KCAL/MOL
REMARK 927      BINDING AFFINITY PREDICTED BY RF-SCORE:    0.00 PKD
ROOT
HETATM    1  N   UNL     1      -5.282  20.961  71.471  1.00  0.00    -0.550 NA 
HETATM    2  C   UNL     1      -5.282  19.919  70.440  1.00  0.00    -0.220 C  
HETATM    3  H1  UNL     1      -4.363  21.308  71.744  1.00  0.00     0.000 HD 
HETATM    4  H2  UNL     1      -5.791  20.638  72.293  1.00  0.00     0.000 HD 
ENDROOT
BRANCH   2   5
HETATM    5  C   UNL     1      -6.681  19.391  70.026  1.00  0.00    -0.046 C  
HETATM    6  O   UNL     1      -6.637  18.350  69.015  1.00  0.00    -0.244 OA 
HETATM    7  C   UNL     1      -7.955  17.826  68.777  1.00  0.00    -0.238 C  
HETATM    8  C   UNL     1      -8.892  18.940  68.205  1.00  0.00    -0.308 C  
HETATM    9  O   UNL     1      -6.826  21.185  68.382  1.00  0.00     0.011 OA 
HETATM   10  H   UNL     1      -7.330  21.925  68.061  1.00  0.00     0.000 HD 
HETATM   11  N   UNL     1      -8.455  19.331  66.823  1.00  0.00    -0.291 NA 
HETATM   12  C   UNL     1      -8.922  20.151  69.136  1.00  0.00     0.410 C  
HETATM   13  H2  UNL     1      -8.398  18.525  66.200  1.00  0.00     0.000 HD 
HETATM   14  O   UNL     1      -9.698  19.903  70.315  1.00  0.00     0.220 OA 
HETATM   15  C   UNL     1      -7.502  20.597  69.504  1.00  0.00     1.107 C  
HETATM   16  H1  UNL     1      -9.066  20.058  66.450  1.00  0.00     0.000 HD 
HETATM   17  H   UNL     1      -9.718  20.656  70.894  1.00  0.00     0.000 HD 
BRANCH   7  18
HETATM   18  O   UNL     1      -8.008  16.845  67.756  1.00  0.00    -0.175 OA 
BRANCH  18  19
HETATM   19  C   UNL     1      -8.769  15.659  67.939  1.00  0.00    -0.166 C  
HETATM   20  O   UNL     1      -6.958  14.559  66.646  1.00  0.00    -0.014 OA 
HETATM   21  C   UNL     1      -8.700  15.474  69.460  1.00  0.00    -0.223 C  
HETATM   22  C   UNL     1      -7.898  13.482  68.631  1.00  0.00    -0.084 C  
HETATM   23  H   UNL     1      -6.594  13.752  66.302  1.00  0.00     0.000 HD 
HETATM   24  O   UNL     1      -7.765  14.410  69.709  1.00  0.00     0.110 OA 
HETATM   25  C   UNL     1      -8.178  14.347  67.381  1.00  0.00    -0.199 C  
BRANCH  21  26
HETATM   26  C   UNL     1     -10.057  15.210  70.117  1.00  0.00    -0.018 C  
HETATM   27  H   UNL     1     -11.704  16.217  70.588  1.00  0.00     0.000 HD 
HETATM   28  O   UNL     1     -10.862  16.380  70.181  1.00  0.00    -0.331 OA 
ENDBRANCH  21  26
BRANCH  22  29
HETATM   29  O   UNL     1      -8.960  12.557  68.896  1.00  0.00     0.106 OA 
BRANCH  29  30
HETATM   30  C   UNL     1      -9.512  11.816  67.754  1.00  0.00    -0.181 C  
HETATM   31  C   UNL     1     -10.433  12.728  66.903  1.00  0.00    -0.240 C  
HETATM   32  O   UNL     1      -9.637  13.372  65.883  1.00  0.00    -0.444 OA 
HETATM   33  C   UNL     1     -11.647  12.102  66.197  1.00  0.00    -0.354 C  
HETATM   34  C   UNL     1     -12.186  10.861  66.885  1.00  0.00     2.393 C  
HETATM   35  N   UNL     1     -12.743  13.101  66.106  1.00  0.00    -0.279 NA 
HETATM   36  H   UNL     1     -10.202  13.930  65.362  1.00  0.00     0.000 HD 
HETATM   37  H1  UNL     1     -13.549  12.685  65.638  1.00  0.00     0.000 HD 
HETATM   38  H2  UNL     1     -12.441  13.964  65.656  1.00  0.00     0.000 HD 
HETATM   39  C   UNL     1     -11.058   9.856  67.114  1.00  0.00     0.064 C  
HETATM   40  C   UNL     1     -10.057  10.418  68.156  1.00  0.00    -0.155 C  
HETATM   41  N   UNL     1     -11.652   8.579  67.566  1.00  0.00     1.039 NA 
HETATM   42  H2  UNL     1     -12.363   8.229  66.924  1.00  0.00     0.000 HD 
HETATM   43  H1  UNL     1     -10.899   7.908  67.719  1.00  0.00     0.000 HD 
BRANCH  40  44
HETATM   44  O   UNL     1      -8.995   9.442  68.291  1.00  0.00    -0.128 OA 
BRANCH  44  45
HETATM   45  C   UNL     1      -9.067   8.326  67.400  1.00  0.00    -0.140 C  
HETATM   46  O   UNL     1      -8.903   8.726  66.037  1.00  0.00    -0.153 OA 
HETATM   47  C   UNL     1      -7.606   9.267  65.752  1.00  0.00    -0.098 C  
HETATM   48  C   UNL     1      -6.489   8.262  66.075  1.00  0.00    -0.049 C  
HETATM   49  H1  UNL     1      -7.456   6.109  69.481  1.00  0.00     0.000 HD 
HETATM   50  O   UNL     1      -5.183   8.807  65.844  1.00  0.00    -0.033 OA 
HETATM   51  H2  UNL     1      -9.093   6.471  69.396  1.00  0.00     0.000 HD 
HETATM   52  C   UNL     1      -6.601   7.814  67.540  1.00  0.00    -0.063 C  
HETATM   53  H   UNL     1      -4.492   8.185  66.044  1.00  0.00     0.000 HD 
HETATM   54  O   UNL     1      -5.619   6.799  67.811  1.00  0.00    -0.014 OA 
HETATM   55  C   UNL     1      -8.012   7.260  67.808  1.00  0.00    -0.115 C  
HETATM   56  N   UNL     1      -8.148   6.809  69.214  1.00  0.00    -0.119 NA 
HETATM   57  H   UNL     1      -5.688   6.522  68.717  1.00  0.00     0.000 HD 
BRANCH  47  58
HETATM   58  C   UNL     1      -7.591   9.744  64.282  1.00  0.00    -0.135 C  
HETATM   59  H1  UNL     1      -6.490  10.981  62.977  1.00  0.00     0.000 HD 
HETATM   60  N   UNL     1      -6.499  10.666  63.948  1.00  0.00    -0.362 NA 
HETATM   61  H2  UNL     1      -5.599  10.253  64.195  1.00  0.00     0.000 HD 
ENDBRANCH  47  58
ENDBRANCH  44  45
ENDBRANCH  40  44
ENDBRANCH  29  30
ENDBRANCH  22  29
ENDBRANCH  18  19
ENDBRANCH   7  18
ENDBRANCH   2   5
TORSDOF 9
ENDMDL
MODEL      277
REMARK 921   NORMALIZED FREE ENERGY PREDICTED BY IDOCK:    2.33 KCAL/MOL
REMARK 922        TOTAL FREE ENERGY PREDICTED BY IDOCK:    0.74 KCAL/MOL
REMARK 923 INTER-LIGAND FREE ENERGY PREDICTED BY IDOCK:   -1.01 KCAL/MOL
REMARK 924 INTRA-LIGAND FREE ENERGY PREDICTED BY IDOCK:    1.74 KCAL/MOL
REMARK 927      BINDING AFFINITY PREDICTED BY RF-SCORE:    0.00 PKD
ROOT
HETATM    1  N   UNL     1     -10.106  20.554  70.537  1.00  0.00     0.111 NA 
HETATM    2  C   UNL     1     -10.402  19.160  70.194  1.00  0.00     1.223 C  
HETATM    3  H1  UNL     1     -10.783  21.007  71.151  1.00  0.00     0.000 HD 
HETATM    4  H2  UNL     1      -9.984  21.104  69.687  1.00  0.00     0.000 HD 
ENDROOT
BRANCH   2   5
HETATM    5  C   UNL     1      -9.373  18.471  69.260  1.00  0.00     0.115 C  
HETATM    6  O   UNL     1      -8.536  17.493  69.931  1.00  0.00     1.092 OA 
HETATM    7  C   UNL     1      -7.700  16.810  68.981  1.00  0.00    -0.213 C  
HETATM    8  C   UNL     1      -6.718  17.815  68.294  1.00  0.00    -0.206 C  
HETATM    9  O   UNL     1      -7.823  20.305  69.680  1.00  0.00     0.304 OA 
HETATM   10  H   UNL     1      -7.280  20.985  69.297  1.00  0.00     0.000 HD 
HETATM   11  N   UNL     1      -5.714  18.325  69.284  1.00  0.00    -0.215 NA 
HETATM   12  C   UNL     1      -7.488  18.967  67.648  1.00  0.00    -0.226 C  
HETATM   13  H2  UNL     1      -5.216  17.565  69.747  1.00  0.00     0.000 HD 
HETATM   14  O   UNL     1      -8.148  18.562  66.441  1.00  0.00    -0.272 OA 
HETATM   15  C   UNL     1      -8.489  19.580  68.635  1.00  0.00    -0.328 C  
HETATM   16  H1  UNL     1      -5.074  18.981  68.837  1.00  0.00     0.000 HD 
HETATM   17  H   UNL     1      -8.627  19.278  66.040  1.00  0.00     0.000 HD 
BRANCH   7  18
HETATM   18  O   UNL     1      -6.805  15.880  69.565  1.00  0.00    -0.187 OA 
BRANCH  18  19
HETATM   19  C   UNL     1      -6.590  14.612  68.960  1.00  0.00    -0.102 C  
HETATM   20  O   UNL     1      -8.937  14.145  69.616  1.00  0.00    -0.039 OA 
HETATM   21  C   UNL     1      -6.380  15.000  67.491  1.00  0.00    -0.061 C  
HETATM   22  C   UNL     1      -8.106  13.481  67.413  1.00  0.00    -0.176 C  
HETATM   23  H   UNL     1      -9.674  13.546  69.590  1.00  0.00     0.000 HD 
HETATM   24  O   UNL     1      -7.589  14.658  66.792  1.00  0.00     0.124 OA 
HETATM   25  C   UNL     1      -7.786  13.638  68.917  1.00  0.00     0.005 C  
BRANCH  21  26
HETATM   26  C   UNL     1      -5.146  14.359  66.849  1.00  0.00     1.631 C  
HETATM   27  H   UNL     1      -4.367  12.548  66.602  1.00  0.00     0.000 HD 
HETATM   28  O   UNL     1      -5.132  12.946  67.000  1.00  0.00    -0.328 OA 
ENDBRANCH  21  26
BRANCH  22  29
HETATM   29  O   UNL     1      -7.499  12.310  66.851  1.00  0.00    -0.100 OA 
BRANCH  29  30
HETATM   30  C   UNL     1      -8.386  11.201  66.480  1.00  0.00    -0.166 C  
HETATM   31  C   UNL     1      -7.602  10.106  65.710  1.00  0.00    -0.134 C  
HETATM   32  O   UNL     1      -7.084   9.149  66.660  1.00  0.00    -0.080 OA 
HETATM   33  C   UNL     1      -8.329   9.305  64.618  1.00  0.00    -0.161 C  
HETATM   34  C   UNL     1      -9.480  10.053  63.969  1.00  0.00    -0.299 C  
HETATM   35  N   UNL     1      -7.366   8.917  63.556  1.00  0.00    -0.097 NA 
HETATM   36  H   UNL     1      -6.603   8.479  66.188  1.00  0.00     0.000 HD 
HETATM   37  H1  UNL     1      -7.848   8.385  62.831  1.00  0.00     0.000 HD 
HETATM   38  H2  UNL     1      -6.563   8.412  63.931  1.00  0.00     0.000 HD 
HETATM   39  C   UNL     1     -10.433  10.582  65.040  1.00  0.00    -0.151 C  
HETATM   40  C   UNL     1      -9.730  11.687  65.869  1.00  0.00    -0.235 C  
HETATM   41  N   UNL     1     -11.650  11.095  64.374  1.00  0.00     0.014 NA 
HETATM   42  H2  UNL     1     -12.088  10.399  63.770  1.00  0.00     0.000 HD 
HETATM   43  H1  UNL     1     -12.286  11.448  65.089  1.00  0.00     0.000 HD 
BRANCH  40  44
HETATM   44  O   UNL     1     -10.666  12.111  66.891  1.00  0.00    -0.224 OA 
BRANCH  44  45
HETATM   45  C   UNL     1     -11.785  12.869  66.423  1.00  0.00    -0.395 C  
HETATM   46  O   UNL     1     -12.722  13.129  67.471  1.00  0.00     0.239 OA 
HETATM   47  C   UNL     1     -12.197  13.962  68.514  1.00  0.00    -0.166 C  
HETATM   48  C   UNL     1     -11.723  15.319  67.972  1.00  0.00    -0.251 C  
HETATM   49  H1  UNL     1      -9.990  14.832  64.240  1.00  0.00     0.000 HD 
HETATM   50  O   UNL     1     -11.148  16.143  68.995  1.00  0.00    -0.294 OA 
HETATM   51  H2  UNL     1     -10.703  13.337  63.966  1.00  0.00     0.000 HD 
HETATM   52  C   UNL     1     -10.691  15.101  66.855  1.00  0.00    -0.308 C  
HETATM   53  H   UNL     1     -10.855  16.983  68.659  1.00  0.00     0.000 HD 
HETATM   54  O   UNL     1     -10.325  16.368  66.281  1.00  0.00    -0.311 OA 
HETATM   55  C   UNL     1     -11.287  14.188  65.768  1.00  0.00    -0.317 C  
HETATM   56  N   UNL     1     -10.317  13.967  64.669  1.00  0.00    -0.418 NA 
HETATM   57  H   UNL     1      -9.687  16.233  65.591  1.00  0.00     0.000 HD 
BRANCH  47  58
HETATM   58  C   UNL     1     -13.269  14.087  69.621  1.00  0.00     1.284 C  
HETATM   59  H1  UNL     1     -14.055  15.492  70.982  1.00  0.00     0.000 HD 
HETATM   60  N   UNL     1     -13.348  15.410  70.251  1.00  0.00    -0.690 NA 
HETATM   61  H2  UNL     1     -13.484  16.132  69.543  1.00  0.00     0.000 HD 
ENDBRANCH  47  58
ENDBRANCH  44  45
ENDBRANCH  40  44
ENDBRANCH  29  30
ENDBRANCH  22  29
ENDBRANCH  18  19
ENDBRANCH   7  18
ENDBRANCH   2   5
TORSDOF 9
ENDMDL
MODEL      278
REMARK 921   NORMALIZED FREE ENERGY PREDICTED BY IDOCK:    2.68 KCAL/MOL
REMARK 922        TOTAL FREE ENERGY PREDICTED BY IDOCK:    1.28 KCAL/MOL
REMARK 923 INTER-LIGAND FREE ENERGY PREDICTED BY IDOCK:   -4.59 KCAL/MOL
REMARK 924 INTRA-LIGAND FREE ENERGY PREDICTED BY IDOCK:    5.87 KCAL/MOL
REMARK 927      BINDING AFFINITY PREDICTED BY RF-SCORE:    0.00 PKD
ROOT
HETATM    1  N   UNL     1      -5.348   4.534  68.187  1.00  0.00    -0.011 NA 
HETATM    2  C   UNL     1      -6.472   3.609  68.013  1.00  0.00    -0.037 C  
HETATM    3  H1  UNL     1      -4.697   4.584  67.405  1.00  0.00     0.000 HD 
HETATM    4  H2  UNL     1      -4.846   4.315  69.047  1.00  0.00     0.000 HD 
ENDROOT
BRANCH   2   5
HETATM    5  C   UNL     1      -7.463   3.533  69.204  1.00  0.00    -0.052 C  
HETATM    6  O   UNL     1      -7.537   4.755  69.983  1.00  0.00    -0.054 OA 
HETATM    7  C   UNL     1      -8.563   4.652  70.985  1.00  0.00    -0.110 C  
HETATM    8  C   UNL     1      -8.222   3.515  72.003  1.00  0.00    -0.071 C  
HETATM    9  O   UNL     1      -5.682   2.592  70.576  1.00  0.00    -0.015 OA 
HETATM   10  H   UNL     1      -5.409   1.871  71.133  1.00  0.00     0.000 HD 
HETATM   11  N   UNL     1      -7.021   3.890  72.821  1.00  0.00    -0.050 NA 
HETATM   12  C   UNL     1      -8.000   2.189  71.277  1.00  0.00    -0.043 C  
HETATM   13  H2  UNL     1      -7.143   4.791  73.285  1.00  0.00     0.000 HD 
HETATM   14  O   UNL     1      -9.232   1.611  70.826  1.00  0.00    -0.073 OA 
HETATM   15  C   UNL     1      -7.019   2.357  70.110  1.00  0.00    -0.033 C  
HETATM   16  H1  UNL     1      -6.798   3.149  73.485  1.00  0.00     0.000 HD 
HETATM   17  H   UNL     1      -9.095   0.786  70.375  1.00  0.00     0.000 HD 
BRANCH   7  18
HETATM   18  O   UNL     1      -8.658   5.785  71.831  1.00  0.00    -0.132 OA 
BRANCH  18  19
HETATM   19  C   UNL     1      -8.988   7.058  71.292  1.00  0.00    -0.137 C  
HETATM   20  O   UNL     1      -7.145   6.614  69.690  1.00  0.00    -0.064 OA 
HETATM   21  C   UNL     1     -10.403   6.812  70.754  1.00  0.00    -0.204 C  
HETATM   22  C   UNL     1      -9.252   7.593  68.922  1.00  0.00    -0.139 C  
HETATM   23  H   UNL     1      -6.659   6.901  68.926  1.00  0.00     0.000 HD 
HETATM   24  O   UNL     1     -10.294   6.704  69.325  1.00  0.00    -0.180 OA 
HETATM   25  C   UNL     1      -8.199   7.526  70.051  1.00  0.00    -0.130 C  
BRANCH  21  26
HETATM   26  C   UNL     1     -11.421   7.877  71.173  1.00  0.00    -0.273 C  
HETATM   27  H   UNL     1     -12.373   8.463  72.815  1.00  0.00     0.000 HD 
HETATM   28  O   UNL     1     -11.742   7.803  72.555  1.00  0.00    -0.344 OA 
ENDBRANCH  21  26
BRANCH  22  29
HETATM   29  O   UNL     1      -9.766   8.918  68.741  1.00  0.00    -0.159 OA 
BRANCH  29  30
HETATM   30  C   UNL     1      -9.573   9.545  67.428  1.00  0.00    -0.141 C  
HETATM   31  C   UNL     1      -8.828   8.583  66.466  1.00  0.00    -0.140 C  
HETATM   32  O   UNL     1      -9.802   7.789  65.754  1.00  0.00    -0.345 OA 
HETATM   33  C   UNL     1      -7.878   9.178  65.413  1.00  0.00    -0.100 C  
HETATM   34  C   UNL     1      -7.279  10.515  65.811  1.00  0.00    -0.135 C  
HETATM   35  N   UNL     1      -6.767   8.228  65.147  1.00  0.00    -0.055 NA 
HETATM   36  H   UNL     1      -9.345   7.200  65.165  1.00  0.00     0.000 HD 
HETATM   37  H1  UNL     1      -6.137   8.623  64.449  1.00  0.00     0.000 HD 
HETATM   38  H2  UNL     1      -7.108   7.305  64.879  1.00  0.00     0.000 HD 
HETATM   39  C   UNL     1      -8.385  11.487  66.218  1.00  0.00    -0.076 C  
HETATM   40  C   UNL     1      -9.051  11.005  67.532  1.00  0.00    -0.137 C  
HETATM   41  N   UNL     1      -7.795  12.834  66.371  1.00  0.00     0.028 NA 
HETATM   42  H2  UNL     1      -7.294  13.139  65.536  1.00  0.00     0.000 HD 
HETATM   43  H1  UNL     1      -8.534  13.483  66.642  1.00  0.00     0.000 HD 
BRANCH  40  44
HETATM   44  O   UNL     1     -10.116  11.940  67.835  1.00  0.00    -0.183 OA 
BRANCH  44  45
HETATM   45  C   UNL     1      -9.906  13.279  67.380  1.00  0.00    -0.227 C  
HETATM   46  O   UNL     1      -9.598  13.321  65.985  1.00  0.00    -0.249 OA 
HETATM   47  C   UNL     1     -10.673  12.874  65.147  1.00  0.00    -0.305 C  
HETATM   48  C   UNL     1     -11.945  13.707  65.363  1.00  0.00    -0.378 C  
HETATM   49  H1  UNL     1     -12.327  14.707  69.366  1.00  0.00     0.000 HD 
HETATM   50  O   UNL     1     -13.045  13.239  64.570  1.00  0.00    -0.588 OA 
HETATM   51  H2  UNL     1     -10.711  14.419  69.721  1.00  0.00     0.000 HD 
HETATM   52  C   UNL     1     -12.340  13.678  66.847  1.00  0.00    -0.262 C  
HETATM   53  H   UNL     1     -13.831  13.755  64.705  1.00  0.00     0.000 HD 
HETATM   54  O   UNL     1     -13.471  14.540  67.064  1.00  0.00     1.624 OA 
HETATM   55  C   UNL     1     -11.154  14.145  67.710  1.00  0.00    -0.276 C  
HETATM   56  N   UNL     1     -11.508  14.138  69.150  1.00  0.00    -0.277 NA 
HETATM   57  H   UNL     1     -13.715  14.522  67.982  1.00  0.00     0.000 HD 
BRANCH  47  58
HETATM   58  C   UNL     1     -10.181  12.878  63.682  1.00  0.00     0.168 C  
HETATM   59  H1  UNL     1     -10.737  12.183  61.770  1.00  0.00     0.000 HD 
HETATM   60  N   UNL     1     -11.062  12.180  62.738  1.00  0.00    -0.228 NA 
HETATM   61  H2  UNL     1     -12.009  12.555  62.795  1.00  0.00     0.000 HD 
ENDBRANCH  47  58
ENDBRANCH  44  45
ENDBRANCH  40  44
ENDBRANCH  29  30
ENDBRANCH  22  29
ENDBRANCH  18  19
ENDBRANCH   7  18
ENDBRANCH   2   5
TORSDOF 9
ENDMDL
MODEL      279
REMARK 921   NORMALIZED FREE ENERGY PREDICTED BY IDOCK:    2.74 KCAL/MOL
REMARK 922        TOTAL FREE ENERGY PREDICTED BY IDOCK:    1.37 KCAL/MOL
REMARK 923 INTER-LIGAND FREE ENERGY PREDICTED BY IDOCK:   -1.81 KCAL/MOL
REMARK 924 INTRA-LIGAND FREE ENERGY PREDICTED BY IDOCK:    3.18 KCAL/MOL
REMARK 927      BINDING AFFINITY PREDICTED BY RF-SCORE:    0.00 PKD
ROOT
HETATM    1  N   UNL     1     -11.607  16.702  66.562  1.00  0.00     0.907 NA 
HETATM    2  C   UNL     1     -10.962  15.911  67.613  1.00  0.00    -0.298 C  
HETATM    3  H1  UNL     1     -12.434  17.223  66.850  1.00  0.00     0.000 HD 
HETATM    4  H2  UNL     1     -11.830  16.107  65.764  1.00  0.00     0.000 HD 
ENDROOT
BRANCH   2   5
HETATM    5  C   UNL     1      -9.703  15.118  67.174  1.00  0.00    -0.228 C  
HETATM    6  O   UNL     1      -9.819  13.684  67.363  1.00  0.00    -0.227 OA 
HETATM    7  C   UNL     1      -8.671  13.009  66.819  1.00  0.00    -0.096 C  
HETATM    8  C   UNL     1      -7.374  13.438  67.579  1.00  0.00    -0.156 C  
HETATM    9  O   UNL     1      -8.750  15.481  69.388  1.00  0.00    -0.246 OA 
HETATM   10  H   UNL     1      -8.012  15.813  69.886  1.00  0.00     0.000 HD 
HETATM   11  N   UNL     1      -7.400  12.924  68.988  1.00  0.00    -0.292 NA 
HETATM   12  C   UNL     1      -7.208  14.957  67.551  1.00  0.00    -0.201 C  
HETATM   13  H2  UNL     1      -7.544  11.915  69.022  1.00  0.00     0.000 HD 
HETATM   14  O   UNL     1      -6.782  15.428  66.265  1.00  0.00     0.624 OA 
HETATM   15  C   UNL     1      -8.500  15.660  67.986  1.00  0.00    -0.146 C  
HETATM   16  H1  UNL     1      -6.554  13.204  69.485  1.00  0.00     0.000 HD 
HETATM   17  H   UNL     1      -6.679  16.372  66.247  1.00  0.00     0.000 HD 
BRANCH   7  18
HETATM   18  O   UNL     1      -8.679  11.607  67.018  1.00  0.00    -0.160 OA 
BRANCH  18  19
HETATM   19  C   UNL     1      -9.570  11.020  67.957  1.00  0.00    -0.170 C  
HETATM   20  O   UNL     1      -8.019   9.083  67.886  1.00  0.00    -0.101 OA 
HETATM   21  C   UNL     1      -9.408  11.951  69.165  1.00  0.00     0.432 C  
HETATM   22  C   UNL     1      -8.935   9.866  70.016  1.00  0.00    -0.169 C  
HETATM   23  H   UNL     1      -7.788   8.227  68.227  1.00  0.00     0.000 HD 
HETATM   24  O   UNL     1      -8.602  11.250  70.127  1.00  0.00     1.298 OA 
HETATM   25  C   UNL     1      -9.196   9.629  68.511  1.00  0.00    -0.137 C  
BRANCH  21  26
HETATM   26  C   UNL     1     -10.734  12.425  69.766  1.00  0.00     0.629 C  
HETATM   27  H   UNL     1     -12.676  12.054  69.568  1.00  0.00     0.000 HD 
HETATM   28  O   UNL     1     -11.854  11.760  69.195  1.00  0.00    -0.299 OA 
ENDBRANCH  21  26
BRANCH  22  29
HETATM   29  O   UNL     1     -10.083   9.561  70.818  1.00  0.00    -0.279 OA 
BRANCH  29  30
HETATM   30  C   UNL     1     -10.940   8.453  70.378  1.00  0.00    -0.239 C  
HETATM   31  C   UNL     1     -12.378   8.618  70.933  1.00  0.00    -0.052 C  
HETATM   32  O   UNL     1     -13.161   9.374  69.983  1.00  0.00     0.215 OA 
HETATM   33  C   UNL     1     -13.188   7.357  71.279  1.00  0.00    -0.281 C  
HETATM   34  C   UNL     1     -12.332   6.159  71.651  1.00  0.00     0.068 C  
HETATM   35  N   UNL     1     -14.106   7.645  72.410  1.00  0.00    -0.548 NA 
HETATM   36  H   UNL     1     -14.042   9.475  70.324  1.00  0.00     0.000 HD 
HETATM   37  H1  UNL     1     -14.643   6.809  72.639  1.00  0.00     0.000 HD 
HETATM   38  H2  UNL     1     -14.707   8.447  72.222  1.00  0.00     0.000 HD 
HETATM   39  C   UNL     1     -11.284   5.905  70.568  1.00  0.00    -0.223 C  
HETATM   40  C   UNL     1     -10.258   7.067  70.547  1.00  0.00    -0.196 C  
HETATM   41  N   UNL     1     -10.630   4.607  70.843  1.00  0.00     0.046 NA 
HETATM   42  H2  UNL     1     -11.299   3.842  70.927  1.00  0.00     0.000 HD 
HETATM   43  H1  UNL     1      -9.931   4.438  70.120  1.00  0.00     0.000 HD 
BRANCH  40  44
HETATM   44  O   UNL     1      -9.325   6.788  69.474  1.00  0.00    -0.147 OA 
BRANCH  44  45
HETATM   45  C   UNL     1      -8.605   5.558  69.589  1.00  0.00    -0.108 C  
HETATM   46  O   UNL     1      -8.958   4.640  68.552  1.00  0.00    -0.102 OA 
HETATM   47  C   UNL     1      -8.594   5.091  67.239  1.00  0.00    -0.104 C  
HETATM   48  C   UNL     1      -7.085   5.354  67.128  1.00  0.00    -0.070 C  
HETATM   49  H1  UNL     1      -5.660   6.977  70.664  1.00  0.00     0.000 HD 
HETATM   50  O   UNL     1      -6.713   5.855  65.837  1.00  0.00    -0.052 OA 
HETATM   51  H2  UNL     1      -6.973   6.462  71.575  1.00  0.00     0.000 HD 
HETATM   52  C   UNL     1      -6.651   6.357  68.207  1.00  0.00    -0.066 C  
HETATM   53  H   UNL     1      -5.779   6.017  65.768  1.00  0.00     0.000 HD 
HETATM   54  O   UNL     1      -5.223   6.524  68.166  1.00  0.00    -0.007 OA 
HETATM   55  C   UNL     1      -7.077   5.845  69.595  1.00  0.00    -0.068 C  
HETATM   56  N   UNL     1      -6.662   6.789  70.660  1.00  0.00    -0.053 NA 
HETATM   57  H   UNL     1      -4.954   7.144  68.833  1.00  0.00     0.000 HD 
BRANCH  47  58
HETATM   58  C   UNL     1      -9.112   4.060  66.211  1.00  0.00    -0.139 C  
HETATM   59  H1  UNL     1      -9.648   2.026  66.064  1.00  0.00     0.000 HD 
HETATM   60  N   UNL     1      -9.306   2.707  66.744  1.00  0.00    -0.371 NA 
HETATM   61  H2  UNL     1      -9.919   2.732  67.560  1.00  0.00     0.000 HD 
ENDBRANCH  47  58
ENDBRANCH  44  45
ENDBRANCH  40  44
ENDBRANCH  29  30
ENDBRANCH  22  29
ENDBRANCH  18  19
ENDBRANCH   7  18
ENDBRANCH   2   5
TORSDOF 9
ENDMDL
MODEL      280
REMARK 921   NORMALIZED FREE ENERGY PREDICTED BY IDOCK:    2.76 KCAL/MOL
REMARK 922        TOTAL FREE ENERGY PREDICTED BY IDOCK:    1.40 KCAL/MOL
REMARK 923 INTER-LIGAND FREE ENERGY PREDICTED BY IDOCK:    1.86 KCAL/MOL
REMARK 924 INTRA-LIGAND FREE ENERGY PREDICTED BY IDOCK:   -0.46 KCAL/MOL
REMARK 927      BINDING AFFINITY PREDICTED BY RF-SCORE:    0.00 PKD
ROOT
HETATM    1  N   UNL     1      -6.748  17.758  71.368  1.00  0.00     3.307 NA 
HETATM    2  C   UNL     1      -7.600  17.948  70.190  1.00  0.00     1.910 C  
HETATM    3  H1  UNL     1      -6.777  18.510  72.055  1.00  0.00     0.000 HD 
HETATM    4  H2  UNL     1      -5.786  17.587  71.078  1.00  0.00     0.000 HD 
ENDROOT
BRANCH   2   5
HETATM    5  C   UNL     1      -7.556  16.804  69.143  1.00  0.00    -0.181 C  
HETATM    6  O   UNL     1      -6.379  15.961  69.248  1.00  0.00    -0.134 OA 
HETATM    7  C   UNL     1      -6.470  14.854  68.334  1.00  0.00    -0.106 C  
HETATM    8  C   UNL     1      -6.501  15.367  66.857  1.00  0.00     0.658 C  
HETATM    9  O   UNL     1      -6.498  18.338  67.572  1.00  0.00    -0.185 OA 
HETATM   10  H   UNL     1      -6.534  18.735  66.709  1.00  0.00     0.000 HD 
HETATM   11  N   UNL     1      -5.178  15.971  66.486  1.00  0.00     0.303 NA 
HETATM   12  C   UNL     1      -7.639  16.366  66.654  1.00  0.00    -0.253 C  
HETATM   13  H2  UNL     1      -4.406  15.325  66.648  1.00  0.00     0.000 HD 
HETATM   14  O   UNL     1      -8.918  15.722  66.609  1.00  0.00    -0.229 OA 
HETATM   15  C   UNL     1      -7.616  17.452  67.737  1.00  0.00    -0.194 C  
HETATM   16  H1  UNL     1      -5.198  16.306  65.523  1.00  0.00     0.000 HD 
HETATM   17  H   UNL     1      -9.626  16.343  66.483  1.00  0.00     0.000 HD 
BRANCH   7  18
HETATM   18  O   UNL     1      -5.329  14.015  68.330  1.00  0.00    -0.088 OA 
BRANCH  18  19
HETATM   19  C   UNL     1      -5.458  12.627  68.605  1.00  0.00    -0.059 C  
HETATM   20  O   UNL     1      -6.250  13.366  70.838  1.00  0.00    -0.469 OA 
HETATM   21  C   UNL     1      -6.556  12.214  67.618  1.00  0.00    -0.116 C  
HETATM   22  C   UNL     1      -7.376  11.540  69.660  1.00  0.00     0.240 C  
HETATM   23  H   UNL     1      -6.603  13.121  71.685  1.00  0.00     0.000 HD 
HETATM   24  O   UNL     1      -7.763  12.047  68.382  1.00  0.00    -0.126 OA 
HETATM   25  C   UNL     1      -6.031  12.229  69.982  1.00  0.00    -0.153 C  
BRANCH  21  26
HETATM   26  C   UNL     1      -6.219  10.965  66.799  1.00  0.00    -0.093 C  
HETATM   27  H   UNL     1      -6.989   9.916  65.297  1.00  0.00     0.000 HD 
HETATM   28  O   UNL     1      -7.198  10.691  65.806  1.00  0.00    -0.144 OA 
ENDBRANCH  21  26
BRANCH  22  29
HETATM   29  O   UNL     1      -7.255  10.113  69.616  1.00  0.00    -0.093 OA 
BRANCH  29  30
HETATM   30  C   UNL     1      -7.607   9.367  70.831  1.00  0.00    -0.067 C  
HETATM   31  C   UNL     1      -6.335   8.805  71.517  1.00  0.00    -0.071 C  
HETATM   32  O   UNL     1      -5.846   9.781  72.463  1.00  0.00    -0.301 OA 
HETATM   33  C   UNL     1      -6.428   7.464  72.263  1.00  0.00    -0.050 C  
HETATM   34  C   UNL     1      -7.513   6.541  71.738  1.00  0.00    -0.093 C  
HETATM   35  N   UNL     1      -5.127   6.752  72.178  1.00  0.00    -0.027 NA 
HETATM   36  H   UNL     1      -5.066   9.436  72.883  1.00  0.00     0.000 HD 
HETATM   37  H1  UNL     1      -5.189   5.862  72.673  1.00  0.00     0.000 HD 
HETATM   38  H2  UNL     1      -4.353   7.325  72.514  1.00  0.00     0.000 HD 
HETATM   39  C   UNL     1      -8.850   7.278  71.687  1.00  0.00    -0.117 C  
HETATM   40  C   UNL     1      -8.797   8.392  70.611  1.00  0.00    -0.147 C  
HETATM   41  N   UNL     1      -9.918   6.295  71.399  1.00  0.00    -0.184 NA 
HETATM   42  H2  UNL     1      -9.924   5.518  72.060  1.00  0.00     0.000 HD 
HETATM   43  H1  UNL     1     -10.811   6.788  71.366  1.00  0.00     0.000 HD 
BRANCH  40  44
HETATM   44  O   UNL     1     -10.073   9.078  70.647  1.00  0.00    -0.197 OA 
BRANCH  44  45
HETATM   45  C   UNL     1     -11.038   8.632  69.691  1.00  0.00    -0.013 C  
HETATM   46  O   UNL     1     -11.977   9.662  69.369  1.00  0.00     0.284 OA 
HETATM   47  C   UNL     1     -11.385  10.790  68.709  1.00  0.00    -0.288 C  
HETATM   48  C   UNL     1     -10.683  10.381  67.406  1.00  0.00    -0.283 C  
HETATM   49  H1  UNL     1      -8.858   6.690  67.870  1.00  0.00     0.000 HD 
HETATM   50  O   UNL     1     -10.042  11.490  66.761  1.00  0.00    -0.207 OA 
HETATM   51  H2  UNL     1      -9.774   6.267  69.211  1.00  0.00     0.000 HD 
HETATM   52  C   UNL     1      -9.641   9.290  67.695  1.00  0.00    -0.142 C  
HETATM   53  H   UNL     1      -9.608  11.237  65.954  1.00  0.00     0.000 HD 
HETATM   54  O   UNL     1      -9.059   8.838  66.461  1.00  0.00    -0.143 OA 
HETATM   55  C   UNL     1     -10.313   8.109  68.420  1.00  0.00    -0.199 C  
HETATM   56  N   UNL     1      -9.333   7.034  68.704  1.00  0.00    -0.137 NA 
HETATM   57  H   UNL     1      -8.414   8.163  66.640  1.00  0.00     0.000 HD 
BRANCH  47  58
HETATM   58  C   UNL     1     -12.480  11.862  68.504  1.00  0.00     0.781 C  
HETATM   59  H1  UNL     1     -12.700  13.894  67.988  1.00  0.00     0.000 HD 
HETATM   60  N   UNL     1     -11.977  13.186  68.123  1.00  0.00    -0.336 NA 
HETATM   61  H2  UNL     1     -11.389  13.116  67.291  1.00  0.00     0.000 HD 
ENDBRANCH  47  58
ENDBRANCH  44  45
ENDBRANCH  40  44
ENDBRANCH  29  30
ENDBRANCH  22  29
ENDBRANCH  18  19
ENDBRANCH   7  18
ENDBRANCH   2   5
TORSDOF 9
ENDMDL
MODEL      281
REMARK 921   NORMALIZED FREE ENERGY PREDICTED BY IDOCK:    3.25 KCAL/MOL
REMARK 922        TOTAL FREE ENERGY PREDICTED BY IDOCK:    2.14 KCAL/MOL
REMARK 923 INTER-LIGAND FREE ENERGY PREDICTED BY IDOCK:   -1.21 KCAL/MOL
REMARK 924 INTRA-LIGAND FREE ENERGY PREDICTED BY IDOCK:    3.35 KCAL/MOL
REMARK 927      BINDING AFFINITY PREDICTED BY RF-SCORE:    0.00 PKD
ROOT
HETATM    1  N   UNL     1     -10.509  19.848  68.176  1.00  0.00    -0.397 NA 
HETATM    2  C   UNL     1     -10.102  19.881  66.769  1.00  0.00    -0.459 C  
HETATM    3  H1  UNL     1     -11.442  20.210  68.371  1.00  0.00     0.000 HD 
HETATM    4  H2  UNL     1      -9.819  20.332  68.750  1.00  0.00     0.000 HD 
ENDROOT
BRANCH   2   5
HETATM    5  C   UNL     1      -8.682  19.331  66.472  1.00  0.00    -0.345 C  
HETATM    6  O   UNL     1      -8.152  18.482  67.523  1.00  0.00    -0.248 OA 
HETATM    7  C   UNL     1      -6.895  17.911  67.122  1.00  0.00    -0.178 C  
HETATM    8  C   UNL     1      -5.830  19.034  66.901  1.00  0.00    -0.158 C  
HETATM    9  O   UNL     1      -7.737  21.362  67.433  1.00  0.00    -0.654 OA 
HETATM   10  H   UNL     1      -7.162  22.107  67.299  1.00  0.00     0.000 HD 
HETATM   11  N   UNL     1      -5.477  19.685  68.206  1.00  0.00    -0.199 NA 
HETATM   12  C   UNL     1      -6.333  20.065  65.891  1.00  0.00    -0.204 C  
HETATM   13  H2  UNL     1      -5.170  19.003  68.900  1.00  0.00     0.000 HD 
HETATM   14  O   UNL     1      -6.295  19.565  64.548  1.00  0.00    -0.377 OA 
HETATM   15  C   UNL     1      -7.745  20.545  66.252  1.00  0.00    -0.036 C  
HETATM   16  H1  UNL     1      -4.782  20.418  68.062  1.00  0.00     0.000 HD 
HETATM   17  H   UNL     1      -6.608  20.206  63.920  1.00  0.00     0.000 HD 
BRANCH   7  18
HETATM   18  O   UNL     1      -6.279  17.116  68.120  1.00  0.00    -0.132 OA 
BRANCH  18  19
HETATM   19  C   UNL     1      -6.834  15.858  68.479  1.00  0.00    -0.124 C  
HETATM   20  O   UNL     1      -6.594  16.665  70.814  1.00  0.00     1.006 OA 
HETATM   21  C   UNL     1      -8.245  15.958  67.888  1.00  0.00    -0.145 C  
HETATM   22  C   UNL     1      -8.617  15.484  70.109  1.00  0.00     0.654 C  
HETATM   23  H   UNL     1      -6.746  16.506  71.738  1.00  0.00     0.000 HD 
HETATM   24  O   UNL     1      -9.142  16.194  68.986  1.00  0.00    -0.229 OA 
HETATM   25  C   UNL     1      -7.081  15.597  69.981  1.00  0.00     0.103 C  
BRANCH  21  26
HETATM   26  C   UNL     1      -8.660  14.739  67.060  1.00  0.00    -0.234 C  
HETATM   27  H   UNL     1      -9.933  14.294  65.600  1.00  0.00     0.000 HD 
HETATM   28  O   UNL     1      -9.675  15.050  66.114  1.00  0.00    -0.268 OA 
ENDBRANCH  21  26
BRANCH  22  29
HETATM   29  O   UNL     1      -9.061  14.121  70.091  1.00  0.00     1.363 OA 
BRANCH  29  30
HETATM   30  C   UNL     1     -10.092  13.759  69.111  1.00  0.00     0.130 C  
HETATM   31  C   UNL     1     -11.332  14.680  69.253  1.00  0.00    -0.286 C  
HETATM   32  O   UNL     1     -11.160  15.828  68.394  1.00  0.00    -0.305 OA 
HETATM   33  C   UNL     1     -12.724  14.099  68.954  1.00  0.00     0.690 C  
HETATM   34  C   UNL     1     -12.826  12.601  69.175  1.00  0.00     1.266 C  
HETATM   35  N   UNL     1     -13.739  14.768  69.806  1.00  0.00     0.958 NA 
HETATM   36  H   UNL     1     -11.920  16.392  68.482  1.00  0.00     0.000 HD 
HETATM   37  H1  UNL     1     -14.663  14.383  69.607  1.00  0.00     0.000 HD 
HETATM   38  H2  UNL     1     -13.717  15.783  69.705  1.00  0.00     0.000 HD 
HETATM   39  C   UNL     1     -11.714  11.880  68.414  1.00  0.00    -0.326 C  
HETATM   40  C   UNL     1     -10.339  12.226  69.041  1.00  0.00     0.038 C  
HETATM   41  N   UNL     1     -11.980  10.426  68.459  1.00  0.00    -0.759 NA 
HETATM   42  H2  UNL     1     -12.910  10.187  68.112  1.00  0.00     0.000 HD 
HETATM   43  H1  UNL     1     -11.238   9.945  67.951  1.00  0.00     0.000 HD 
BRANCH  40  44
HETATM   44  O   UNL     1      -9.331  11.552  68.248  1.00  0.00    -0.178 OA 
BRANCH  44  45
HETATM   45  C   UNL     1      -9.332  10.124  68.336  1.00  0.00    -0.136 C  
HETATM   46  O   UNL     1      -9.769   9.520  67.116  1.00  0.00    -0.156 OA 
HETATM   47  C   UNL     1      -8.887   9.761  66.010  1.00  0.00    -0.147 C  
HETATM   48  C   UNL     1      -7.467   9.251  66.296  1.00  0.00    -0.096 C  
HETATM   49  H1  UNL     1      -6.498   9.890  70.273  1.00  0.00     0.000 HD 
HETATM   50  O   UNL     1      -6.561   9.531  65.220  1.00  0.00    -0.076 OA 
HETATM   51  H2  UNL     1      -8.094  10.068  70.763  1.00  0.00     0.000 HD 
HETATM   52  C   UNL     1      -6.934   9.889  67.587  1.00  0.00    -0.086 C  
HETATM   53  H   UNL     1      -5.682   9.216  65.396  1.00  0.00     0.000 HD 
HETATM   54  O   UNL     1      -5.647   9.333  67.906  1.00  0.00    -0.038 OA 
HETATM   55  C   UNL     1      -7.918   9.623  68.742  1.00  0.00    -0.089 C  
HETATM   56  N   UNL     1      -7.426  10.219  70.007  1.00  0.00    -0.161 NA 
HETATM   57  H   UNL     1      -5.318   9.727  68.705  1.00  0.00     0.000 HD 
BRANCH  47  58
HETATM   58  C   UNL     1      -9.517   9.140  64.743  1.00  0.00     0.222 C  
HETATM   59  H1  UNL     1      -8.968   8.161  62.958  1.00  0.00     0.000 HD 
HETATM   60  N   UNL     1      -8.551   8.571  63.795  1.00  0.00    -0.411 NA 
HETATM   61  H2  UNL     1      -7.954   7.889  64.265  1.00  0.00     0.000 HD 
ENDBRANCH  47  58
ENDBRANCH  44  45
ENDBRANCH  40  44
ENDBRANCH  29  30
ENDBRANCH  22  29
ENDBRANCH  18  19
ENDBRANCH   7  18
ENDBRANCH   2   5
TORSDOF 9
ENDMDL
MODEL      282
REMARK 921   NORMALIZED FREE ENERGY PREDICTED BY IDOCK:    3.39 KCAL/MOL
REMARK 922        TOTAL FREE ENERGY PREDICTED BY IDOCK:    2.37 KCAL/MOL
REMARK 923 INTER-LIGAND FREE ENERGY PREDICTED BY IDOCK:   -7.73 KCAL/MOL
REMARK 924 INTRA-LIGAND FREE ENERGY PREDICTED BY IDOCK:   10.10 KCAL/MOL
REMARK 927      BINDING AFFINITY PREDICTED BY RF-SCORE:    0.00 PKD
ROOT
HETATM    1  N   UNL     1      -5.774  16.856  68.464  1.00  0.00    -0.129 NA 
HETATM    2  C   UNL     1      -5.923  18.228  68.957  1.00  0.00    -0.218 C  
HETATM    3  H1  UNL     1      -4.873  16.417  68.653  1.00  0.00     0.000 HD 
HETATM    4  H2  UNL     1      -5.976  16.820  67.465  1.00  0.00     0.000 HD 
ENDROOT
BRANCH   2   5
HETATM    5  C   UNL     1      -7.293  18.895  68.669  1.00  0.00    -0.310 C  
HETATM    6  O   UNL     1      -8.430  18.031  68.928  1.00  0.00    -0.236 OA 
HETATM    7  C   UNL     1      -9.661  18.755  68.761  1.00  0.00    -0.384 C  
HETATM    8  C   UNL     1      -9.816  19.235  67.280  1.00  0.00    -0.338 C  
HETATM    9  O   UNL     1      -7.102  18.190  66.343  1.00  0.00    -0.204 OA 
HETATM   10  H   UNL     1      -7.104  18.462  65.432  1.00  0.00     0.000 HD 
HETATM   11  N   UNL     1     -10.018  18.061  66.368  1.00  0.00    -0.351 NA 
HETATM   12  C   UNL     1      -8.606  20.064  66.851  1.00  0.00    -0.336 C  
HETATM   13  H2  UNL     1     -10.803  17.480  66.664  1.00  0.00     0.000 HD 
HETATM   14  O   UNL     1      -8.620  21.375  67.429  1.00  0.00    -0.444 OA 
HETATM   15  C   UNL     1      -7.297  19.337  67.184  1.00  0.00    -0.208 C  
HETATM   16  H1  UNL     1     -10.119  18.373  65.403  1.00  0.00     0.000 HD 
HETATM   17  H   UNL     1      -7.868  21.891  67.162  1.00  0.00     0.000 HD 
BRANCH   7  18
HETATM   18  O   UNL     1     -10.823  17.964  68.936  1.00  0.00     0.025 OA 
BRANCH  18  19
HETATM   19  C   UNL     1     -10.781  16.563  68.702  1.00  0.00    -0.334 C  
HETATM   20  O   UNL     1      -8.321  16.827  68.896  1.00  0.00    -0.247 OA 
HETATM   21  C   UNL     1     -11.486  16.017  69.949  1.00  0.00    -0.326 C  
HETATM   22  C   UNL     1      -9.456  14.935  69.952  1.00  0.00     0.265 C  
HETATM   23  H   UNL     1      -7.468  16.409  68.916  1.00  0.00     0.000 HD 
HETATM   24  O   UNL     1     -10.464  15.479  70.805  1.00  0.00    -0.213 OA 
HETATM   25  C   UNL     1      -9.396  15.884  68.734  1.00  0.00    -0.220 C  
BRANCH  21  26
HETATM   26  C   UNL     1     -12.579  14.988  69.644  1.00  0.00    -0.064 C  
HETATM   27  H   UNL     1     -13.281  13.292  70.405  1.00  0.00     0.000 HD 
HETATM   28  O   UNL     1     -12.603  13.930  70.593  1.00  0.00    -0.335 OA 
ENDBRANCH  21  26
BRANCH  22  29
HETATM   29  O   UNL     1      -9.789  13.592  69.576  1.00  0.00     0.473 OA 
BRANCH  29  30
HETATM   30  C   UNL     1      -9.429  13.162  68.220  1.00  0.00    -0.210 C  
HETATM   31  C   UNL     1      -8.819  14.339  67.414  1.00  0.00    -0.205 C  
HETATM   32  O   UNL     1      -7.388  14.345  67.609  1.00  0.00    -0.151 OA 
HETATM   33  C   UNL     1      -9.067  14.405  65.898  1.00  0.00     0.230 C  
HETATM   34  C   UNL     1     -10.351  13.728  65.454  1.00  0.00    -0.347 C  
HETATM   35  N   UNL     1      -9.109  15.824  65.459  1.00  0.00    -0.286 NA 
HETATM   36  H   UNL     1      -7.015  15.066  67.116  1.00  0.00     0.000 HD 
HETATM   37  H1  UNL     1      -9.273  15.867  64.453  1.00  0.00     0.000 HD 
HETATM   38  H2  UNL     1      -8.271  16.336  65.734  1.00  0.00     0.000 HD 
HETATM   39  C   UNL     1     -10.407  12.301  65.995  1.00  0.00    -0.245 C  
HETATM   40  C   UNL     1     -10.550  12.329  67.539  1.00  0.00    -0.218 C  
HETATM   41  N   UNL     1     -11.543  11.601  65.357  1.00  0.00    -0.156 NA 
HETATM   42  H2  UNL     1     -11.500  11.632  64.339  1.00  0.00     0.000 HD 
HETATM   43  H1  UNL     1     -11.580  10.648  65.719  1.00  0.00     0.000 HD 
BRANCH  40  44
HETATM   44  O   UNL     1     -10.551  10.952  67.989  1.00  0.00    -0.179 OA 
BRANCH  44  45
HETATM   45  C   UNL     1      -9.784  10.690  69.168  1.00  0.00    -0.189 C  
HETATM   46  O   UNL     1     -10.575  10.070  70.185  1.00  0.00    -0.264 OA 
HETATM   47  C   UNL     1     -11.048   8.764  69.827  1.00  0.00    -0.073 C  
HETATM   48  C   UNL     1      -9.888   7.812  69.499  1.00  0.00    -0.179 C  
HETATM   49  H1  UNL     1      -6.879   9.861  67.520  1.00  0.00     0.000 HD 
HETATM   50  O   UNL     1     -10.347   6.516  69.088  1.00  0.00    -0.169 OA 
HETATM   51  H2  UNL     1      -7.408  11.373  68.022  1.00  0.00     0.000 HD 
HETATM   52  C   UNL     1      -9.015   8.416  68.389  1.00  0.00    -0.136 C  
HETATM   53  H   UNL     1      -9.630   5.927  68.885  1.00  0.00     0.000 HD 
HETATM   54  O   UNL     1      -7.876   7.571  68.155  1.00  0.00    -0.117 OA 
HETATM   55  C   UNL     1      -8.546   9.823  68.805  1.00  0.00    -0.127 C  
HETATM   56  N   UNL     1      -7.692  10.430  67.757  1.00  0.00    -0.089 NA 
HETATM   57  H   UNL     1      -7.336   7.946  67.469  1.00  0.00     0.000 HD 
BRANCH  47  58
HETATM   58  C   UNL     1     -11.959   8.249  70.964  1.00  0.00    -0.241 C  
HETATM   59  H1  UNL     1     -11.961   6.868  72.557  1.00  0.00     0.000 HD 
HETATM   60  N   UNL     1     -11.359   7.209  71.807  1.00  0.00    -0.246 NA 
HETATM   61  H2  UNL     1     -10.467   7.530  72.185  1.00  0.00     0.000 HD 
ENDBRANCH  47  58
ENDBRANCH  44  45
ENDBRANCH  40  44
ENDBRANCH  29  30
ENDBRANCH  22  29
ENDBRANCH  18  19
ENDBRANCH   7  18
ENDBRANCH   2   5
TORSDOF 9
ENDMDL
MODEL      283
REMARK 921   NORMALIZED FREE ENERGY PREDICTED BY IDOCK:    3.51 KCAL/MOL
REMARK 922        TOTAL FREE ENERGY PREDICTED BY IDOCK:    2.55 KCAL/MOL
REMARK 923 INTER-LIGAND FREE ENERGY PREDICTED BY IDOCK:   -0.03 KCAL/MOL
REMARK 924 INTRA-LIGAND FREE ENERGY PREDICTED BY IDOCK:    2.58 KCAL/MOL
REMARK 927      BINDING AFFINITY PREDICTED BY RF-SCORE:    0.00 PKD
ROOT
HETATM    1  N   UNL     1      -9.561  11.813  70.052  1.00  0.00     1.447 NA 
HETATM    2  C   UNL     1     -10.495  10.756  69.656  1.00  0.00    -0.140 C  
HETATM    3  H1  UNL     1      -9.396  11.898  71.055  1.00  0.00     0.000 HD 
HETATM    4  H2  UNL     1      -9.865  12.708  69.671  1.00  0.00     0.000 HD 
ENDROOT
BRANCH   2   5
HETATM    5  C   UNL     1     -10.747  10.626  68.131  1.00  0.00    -0.225 C  
HETATM    6  O   UNL     1     -10.486   9.298  67.606  1.00  0.00    -0.238 OA 
HETATM    7  C   UNL     1     -10.861   9.222  66.219  1.00  0.00     0.576 C  
HETATM    8  C   UNL     1      -9.992  10.201  65.364  1.00  0.00    -0.307 C  
HETATM    9  O   UNL     1      -8.469  11.394  67.729  1.00  0.00    -0.121 OA 
HETATM   10  H   UNL     1      -7.914  12.029  67.291  1.00  0.00     0.000 HD 
HETATM   11  N   UNL     1      -8.565   9.738  65.328  1.00  0.00    -0.144 NA 
HETATM   12  C   UNL     1     -10.093  11.627  65.903  1.00  0.00    -0.230 C  
HETATM   13  H2  UNL     1      -8.486   8.775  65.001  1.00  0.00     0.000 HD 
HETATM   14  O   UNL     1     -11.352  12.235  65.582  1.00  0.00    -0.323 OA 
HETATM   15  C   UNL     1      -9.844  11.662  67.416  1.00  0.00    -0.183 C  
HETATM   16  H1  UNL     1      -7.998  10.376  64.770  1.00  0.00     0.000 HD 
HETATM   17  H   UNL     1     -11.415  13.122  65.917  1.00  0.00     0.000 HD 
BRANCH   7  18
HETATM   18  O   UNL     1     -10.579   7.973  65.614  1.00  0.00     1.747 OA 
BRANCH  18  19
HETATM   19  C   UNL     1      -9.842   6.983  66.319  1.00  0.00     0.060 C  
HETATM   20  O   UNL     1     -11.493   7.361  68.133  1.00  0.00    -0.172 OA 
HETATM   21  C   UNL     1     -10.084   5.740  65.455  1.00  0.00     0.600 C  
HETATM   22  C   UNL     1     -10.783   5.093  67.550  1.00  0.00     0.103 C  
HETATM   23  H   UNL     1     -11.815   7.108  68.990  1.00  0.00     0.000 HD 
HETATM   24  O   UNL     1     -11.039   4.925  66.155  1.00  0.00    -0.109 OA 
HETATM   25  C   UNL     1     -10.365   6.572  67.712  1.00  0.00    -0.192 C  
BRANCH  21  26
HETATM   26  C   UNL     1      -8.810   4.963  65.113  1.00  0.00    -0.153 C  
HETATM   27  H   UNL     1      -6.907   5.339  64.682  1.00  0.00     0.000 HD 
HETATM   28  O   UNL     1      -7.697   5.821  64.895  1.00  0.00    -0.083 OA 
ENDBRANCH  21  26
BRANCH  22  29
HETATM   29  O   UNL     1      -9.758   4.191  67.983  1.00  0.00    -0.156 OA 
BRANCH  29  30
HETATM   30  C   UNL     1      -9.120   4.463  69.277  1.00  0.00    -0.117 C  
HETATM   31  C   UNL     1      -9.410   3.319  70.283  1.00  0.00    -0.172 C  
HETATM   32  O   UNL     1      -8.367   2.326  70.171  1.00  0.00    -0.041 OA 
HETATM   33  C   UNL     1      -9.546   3.662  71.775  1.00  0.00    -0.151 C  
HETATM   34  C   UNL     1     -10.015   5.081  72.040  1.00  0.00    -0.239 C  
HETATM   35  N   UNL     1     -10.502   2.725  72.420  1.00  0.00    -0.087 NA 
HETATM   36  H   UNL     1      -8.545   1.625  70.788  1.00  0.00     0.000 HD 
HETATM   37  H1  UNL     1     -10.591   2.953  73.410  1.00  0.00     0.000 HD 
HETATM   38  H2  UNL     1     -10.242   1.750  72.272  1.00  0.00     0.000 HD 
HETATM   39  C   UNL     1      -9.132   6.075  71.288  1.00  0.00    -0.143 C  
HETATM   40  C   UNL     1      -9.350   5.922  69.761  1.00  0.00    -0.148 C  
HETATM   41  N   UNL     1      -9.464   7.441  71.749  1.00  0.00    -0.149 NA 
HETATM   42  H2  UNL     1      -9.391   7.541  72.762  1.00  0.00     0.000 HD 
HETATM   43  H1  UNL     1      -8.874   8.105  71.247  1.00  0.00     0.000 HD 
BRANCH  40  44
HETATM   44  O   UNL     1      -8.454   6.856  69.109  1.00  0.00    -0.127 OA 
BRANCH  44  45
HETATM   45  C   UNL     1      -7.095   6.816  69.553  1.00  0.00    -0.072 C  
HETATM   46  O   UNL     1      -6.459   5.586  69.197  1.00  0.00    -0.035 OA 
HETATM   47  C   UNL     1      -6.328   5.398  67.781  1.00  0.00    -0.039 C  
HETATM   48  C   UNL     1      -5.529   6.537  67.130  1.00  0.00    -0.012 C  
HETATM   49  H1  UNL     1      -6.436  10.141  68.961  1.00  0.00     0.000 HD 
HETATM   50  O   UNL     1      -5.434   6.390  65.706  1.00  0.00    -0.013 OA 
HETATM   51  H2  UNL     1      -7.062   9.423  70.344  1.00  0.00     0.000 HD 
HETATM   52  C   UNL     1      -6.184   7.887  67.458  1.00  0.00    -0.051 C  
HETATM   53  H   UNL     1      -4.939   7.095  65.303  1.00  0.00     0.000 HD 
HETATM   54  O   UNL     1      -5.378   8.956  66.933  1.00  0.00    -0.038 OA 
HETATM   55  C   UNL     1      -6.323   8.039  68.984  1.00  0.00    -0.040 C  
HETATM   56  N   UNL     1      -6.943   9.339  69.334  1.00  0.00    -0.048 NA 
HETATM   57  H   UNL     1      -5.783   9.791  67.137  1.00  0.00     0.000 HD 
BRANCH  47  58
HETATM   58  C   UNL     1      -5.716   4.001  67.531  1.00  0.00    -0.022 C  
HETATM   59  H1  UNL     1      -6.279   1.976  67.374  1.00  0.00     0.000 HD 
HETATM   60  N   UNL     1      -6.684   2.898  67.539  1.00  0.00    -0.040 NA 
HETATM   61  H2  UNL     1      -7.434   3.081  66.872  1.00  0.00     0.000 HD 
ENDBRANCH  47  58
ENDBRANCH  44  45
ENDBRANCH  40  44
ENDBRANCH  29  30
ENDBRANCH  22  29
ENDBRANCH  18  19
ENDBRANCH   7  18
ENDBRANCH   2   5
TORSDOF 9
ENDMDL
MODEL      284
REMARK 921   NORMALIZED FREE ENERGY PREDICTED BY IDOCK:    3.56 KCAL/MOL
REMARK 922        TOTAL FREE ENERGY PREDICTED BY IDOCK:    2.62 KCAL/MOL
REMARK 923 INTER-LIGAND FREE ENERGY PREDICTED BY IDOCK:    0.02 KCAL/MOL
REMARK 924 INTRA-LIGAND FREE ENERGY PREDICTED BY IDOCK:    2.59 KCAL/MOL
REMARK 927      BINDING AFFINITY PREDICTED BY RF-SCORE:    0.00 PKD
ROOT
HETATM    1  N   UNL     1      -6.101  14.044  68.702  1.00  0.00    -0.083 NA 
HETATM    2  C   UNL     1      -5.660  12.722  68.249  1.00  0.00    -0.070 C  
HETATM    3  H1  UNL     1      -5.384  14.769  68.702  1.00  0.00     0.000 HD 
HETATM    4  H2  UNL     1      -6.524  13.973  69.627  1.00  0.00     0.000 HD 
ENDROOT
BRANCH   2   5
HETATM    5  C   UNL     1      -6.751  11.619  68.250  1.00  0.00    -0.064 C  
HETATM    6  O   UNL     1      -7.942  11.975  69.001  1.00  0.00     0.013 OA 
HETATM    7  C   UNL     1      -8.952  10.962  68.851  1.00  0.00    -0.140 C  
HETATM    8  C   UNL     1      -8.458   9.604  69.448  1.00  0.00    -0.156 C  
HETATM    9  O   UNL     1      -5.662  10.599  70.177  1.00  0.00    -0.056 OA 
HETATM   10  H   UNL     1      -5.274   9.811  70.541  1.00  0.00     0.000 HD 
HETATM   11  N   UNL     1      -8.333   9.704  70.940  1.00  0.00    -0.372 NA 
HETATM   12  C   UNL     1      -7.133   9.184  68.812  1.00  0.00    -0.073 C  
HETATM   13  H2  UNL     1      -9.202  10.016  71.374  1.00  0.00     0.000 HD 
HETATM   14  O   UNL     1      -7.309   8.697  67.475  1.00  0.00    -0.086 OA 
HETATM   15  C   UNL     1      -6.119  10.335  68.842  1.00  0.00    -0.040 C  
HETATM   16  H1  UNL     1      -8.010   8.818  71.330  1.00  0.00     0.000 HD 
HETATM   17  H   UNL     1      -6.485   8.435  67.080  1.00  0.00     0.000 HD 
BRANCH   7  18
HETATM   18  O   UNL     1     -10.126  11.204  69.605  1.00  0.00     0.023 OA 
BRANCH  18  19
HETATM   19  C   UNL     1     -11.164  12.019  69.076  1.00  0.00    -0.258 C  
HETATM   20  O   UNL     1     -10.584  13.573  70.923  1.00  0.00     1.761 OA 
HETATM   21  C   UNL     1     -10.599  12.390  67.700  1.00  0.00    -0.216 C  
HETATM   22  C   UNL     1     -11.039  14.427  68.675  1.00  0.00    -0.251 C  
HETATM   23  H   UNL     1     -10.731  14.413  71.341  1.00  0.00     0.000 HD 
HETATM   24  O   UNL     1     -10.148  13.752  67.787  1.00  0.00    -0.236 OA 
HETATM   25  C   UNL     1     -11.405  13.384  69.756  1.00  0.00    -0.080 C  
BRANCH  21  26
HETATM   26  C   UNL     1     -11.586  12.186  66.547  1.00  0.00    -0.359 C  
HETATM   27  H   UNL     1     -12.763  10.754  65.831  1.00  0.00     0.000 HD 
HETATM   28  O   UNL     1     -12.151  10.882  66.545  1.00  0.00     0.749 OA 
ENDBRANCH  21  26
BRANCH  22  29
HETATM   29  O   UNL     1     -12.192  14.898  67.966  1.00  0.00    -0.168 OA 
BRANCH  29  30
HETATM   30  C   UNL     1     -11.973  15.501  66.646  1.00  0.00     0.569 C  
HETATM   31  C   UNL     1     -12.039  14.423  65.532  1.00  0.00    -0.356 C  
HETATM   32  O   UNL     1     -13.403  14.316  65.068  1.00  0.00    -0.509 OA 
HETATM   33  C   UNL     1     -11.153  14.590  64.287  1.00  0.00    -0.005 C  
HETATM   34  C   UNL     1      -9.886  15.389  64.536  1.00  0.00     1.457 C  
HETATM   35  N   UNL     1     -10.768  13.254  63.764  1.00  0.00    -0.486 NA 
HETATM   36  H   UNL     1     -13.443  13.655  64.386  1.00  0.00     0.000 HD 
HETATM   37  H1  UNL     1     -10.180  13.365  62.937  1.00  0.00     0.000 HD 
HETATM   38  H2  UNL     1     -11.580  12.665  63.580  1.00  0.00     0.000 HD 
HETATM   39  C   UNL     1     -10.228  16.724  65.195  1.00  0.00     0.232 C  
HETATM   40  C   UNL     1     -10.767  16.480  66.628  1.00  0.00    -0.150 C  
HETATM   41  N   UNL     1      -9.013  17.567  65.208  1.00  0.00     0.838 NA 
HETATM   42  H2  UNL     1      -8.606  17.681  64.280  1.00  0.00     0.000 HD 
HETATM   43  H1  UNL     1      -9.241  18.458  65.648  1.00  0.00     0.000 HD 
BRANCH  40  44
HETATM   44  O   UNL     1     -11.114  17.776  67.176  1.00  0.00    -0.079 OA 
BRANCH  44  45
HETATM   45  C   UNL     1     -10.511  18.093  68.434  1.00  0.00    -0.293 C  
HETATM   46  O   UNL     1      -9.332  17.318  68.665  1.00  0.00    -0.261 OA 
HETATM   47  C   UNL     1      -8.274  17.593  67.736  1.00  0.00    -0.225 C  
HETATM   48  C   UNL     1      -7.866  19.074  67.764  1.00  0.00    -0.251 C  
HETATM   49  H1  UNL     1     -11.207  21.461  68.316  1.00  0.00     0.000 HD 
HETATM   50  O   UNL     1      -6.844  19.375  66.803  1.00  0.00    -0.196 OA 
HETATM   51  H2  UNL     1     -12.153  20.213  68.919  1.00  0.00     0.000 HD 
HETATM   52  C   UNL     1      -9.093  19.958  67.495  1.00  0.00    -0.340 C  
HETATM   53  H   UNL     1      -6.592  20.291  66.821  1.00  0.00     0.000 HD 
HETATM   54  O   UNL     1      -8.728  21.343  67.622  1.00  0.00    -0.184 OA 
HETATM   55  C   UNL     1     -10.209  19.616  68.500  1.00  0.00    -0.421 C  
HETATM   56  N   UNL     1     -11.405  20.462  68.272  1.00  0.00     1.280 NA 
HETATM   57  H   UNL     1      -9.488  21.889  67.456  1.00  0.00     0.000 HD 
BRANCH  47  58
HETATM   58  C   UNL     1      -7.103  16.630  68.034  1.00  0.00    -0.148 C  
HETATM   59  H1  UNL     1      -5.711  15.395  67.044  1.00  0.00     0.000 HD 
HETATM   60  N   UNL     1      -6.484  16.031  66.846  1.00  0.00    -0.287 NA 
HETATM   61  H2  UNL     1      -6.188  16.759  66.196  1.00  0.00     0.000 HD 
ENDBRANCH  47  58
ENDBRANCH  44  45
ENDBRANCH  40  44
ENDBRANCH  29  30
ENDBRANCH  22  29
ENDBRANCH  18  19
ENDBRANCH   7  18
ENDBRANCH   2   5
TORSDOF 9
ENDMDL
MODEL      285
REMARK 921   NORMALIZED FREE ENERGY PREDICTED BY IDOCK:    3.65 KCAL/MOL
REMARK 922        TOTAL FREE ENERGY PREDICTED BY IDOCK:    2.75 KCAL/MOL
REMARK 923 INTER-LIGAND FREE ENERGY PREDICTED BY IDOCK:    1.82 KCAL/MOL
REMARK 924 INTRA-LIGAND FREE ENERGY PREDICTED BY IDOCK:    0.94 KCAL/MOL
REMARK 927      BINDING AFFINITY PREDICTED BY RF-SCORE:    0.00 PKD
ROOT
HETATM    1  N   UNL     1      -5.282  20.961  71.471  1.00  0.00    -0.550 NA 
HETATM    2  C   UNL     1      -5.282  19.919  70.440  1.00  0.00    -0.220 C  
HETATM    3  H1  UNL     1      -4.363  21.308  71.744  1.00  0.00     0.000 HD 
HETATM    4  H2  UNL     1      -5.791  20.638  72.293  1.00  0.00     0.000 HD 
ENDROOT
BRANCH   2   5
HETATM    5  C   UNL     1      -6.681  19.391  70.026  1.00  0.00    -0.046 C  
HETATM    6  O   UNL     1      -6.637  18.350  69.015  1.00  0.00    -0.244 OA 
HETATM    7  C   UNL     1      -7.955  17.826  68.777  1.00  0.00    -0.238 C  
HETATM    8  C   UNL     1      -8.892  18.940  68.205  1.00  0.00    -0.308 C  
HETATM    9  O   UNL     1      -6.826  21.185  68.382  1.00  0.00     0.011 OA 
HETATM   10  H   UNL     1      -7.330  21.925  68.061  1.00  0.00     0.000 HD 
HETATM   11  N   UNL     1      -8.455  19.331  66.823  1.00  0.00    -0.291 NA 
HETATM   12  C   UNL     1      -8.922  20.151  69.136  1.00  0.00     0.410 C  
HETATM   13  H2  UNL     1      -8.398  18.525  66.200  1.00  0.00     0.000 HD 
HETATM   14  O   UNL     1      -9.698  19.903  70.315  1.00  0.00     0.220 OA 
HETATM   15  C   UNL     1      -7.502  20.597  69.504  1.00  0.00     1.107 C  
HETATM   16  H1  UNL     1      -9.066  20.058  66.450  1.00  0.00     0.000 HD 
HETATM   17  H   UNL     1      -9.718  20.656  70.894  1.00  0.00     0.000 HD 
BRANCH   7  18
HETATM   18  O   UNL     1      -8.008  16.845  67.756  1.00  0.00    -0.175 OA 
BRANCH  18  19
HETATM   19  C   UNL     1      -8.769  15.659  67.939  1.00  0.00    -0.166 C  
HETATM   20  O   UNL     1      -6.958  14.559  66.646  1.00  0.00    -0.014 OA 
HETATM   21  C   UNL     1      -8.700  15.474  69.460  1.00  0.00    -0.223 C  
HETATM   22  C   UNL     1      -7.898  13.482  68.631  1.00  0.00    -0.084 C  
HETATM   23  H   UNL     1      -6.594  13.752  66.302  1.00  0.00     0.000 HD 
HETATM   24  O   UNL     1      -7.765  14.410  69.709  1.00  0.00     0.110 OA 
HETATM   25  C   UNL     1      -8.178  14.347  67.381  1.00  0.00    -0.199 C  
BRANCH  21  26
HETATM   26  C   UNL     1     -10.057  15.210  70.117  1.00  0.00    -0.018 C  
HETATM   27  H   UNL     1     -11.704  16.217  70.588  1.00  0.00     0.000 HD 
HETATM   28  O   UNL     1     -10.862  16.380  70.181  1.00  0.00    -0.331 OA 
ENDBRANCH  21  26
BRANCH  22  29
HETATM   29  O   UNL     1      -8.960  12.557  68.896  1.00  0.00     0.106 OA 
BRANCH  29  30
HETATM   30  C   UNL     1      -9.512  11.816  67.754  1.00  0.00    -0.181 C  
HETATM   31  C   UNL     1     -10.433  12.728  66.903  1.00  0.00    -0.240 C  
HETATM   32  O   UNL     1      -9.637  13.372  65.883  1.00  0.00    -0.444 OA 
HETATM   33  C   UNL     1     -11.647  12.102  66.197  1.00  0.00    -0.354 C  
HETATM   34  C   UNL     1     -12.186  10.861  66.885  1.00  0.00     2.393 C  
HETATM   35  N   UNL     1     -12.743  13.101  66.106  1.00  0.00    -0.279 NA 
HETATM   36  H   UNL     1     -10.202  13.930  65.362  1.00  0.00     0.000 HD 
HETATM   37  H1  UNL     1     -13.549  12.685  65.638  1.00  0.00     0.000 HD 
HETATM   38  H2  UNL     1     -12.441  13.964  65.656  1.00  0.00     0.000 HD 
HETATM   39  C   UNL     1     -11.058   9.856  67.114  1.00  0.00     0.064 C  
HETATM   40  C   UNL     1     -10.057  10.418  68.156  1.00  0.00    -0.155 C  
HETATM   41  N   UNL     1     -11.652   8.579  67.566  1.00  0.00     1.039 NA 
HETATM   42  H2  UNL     1     -12.363   8.229  66.924  1.00  0.00     0.000 HD 
HETATM   43  H1  UNL     1     -10.899   7.908  67.719  1.00  0.00     0.000 HD 
BRANCH  40  44
HETATM   44  O   UNL     1      -8.995   9.442  68.291  1.00  0.00    -0.128 OA 
BRANCH  44  45
HETATM   45  C   UNL     1      -8.780   8.946  69.615  1.00  0.00    -0.140 C  
HETATM   46  O   UNL     1      -9.904   8.200  70.089  1.00  0.00    -0.182 OA 
HETATM   47  C   UNL     1     -10.148   6.998  69.344  1.00  0.00    -0.169 C  
HETATM   48  C   UNL     1      -8.930   6.062  69.364  1.00  0.00    -0.126 C  
HETATM   49  H1  UNL     1      -5.431   8.274  69.199  1.00  0.00     0.000 HD 
HETATM   50  O   UNL     1      -9.140   4.879  68.580  1.00  0.00    -0.106 OA 
HETATM   51  H2  UNL     1      -6.163   9.701  69.694  1.00  0.00     0.000 HD 
HETATM   52  C   UNL     1      -7.693   6.805  68.839  1.00  0.00    -0.110 C  
HETATM   53  H   UNL     1      -8.387   4.300  68.592  1.00  0.00     0.000 HD 
HETATM   54  O   UNL     1      -6.535   5.960  68.953  1.00  0.00    -0.044 OA 
HETATM   55  C   UNL     1      -7.479   8.096  69.651  1.00  0.00    -0.086 C  
HETATM   56  N   UNL     1      -6.284   8.832  69.175  1.00  0.00    -0.042 NA 
HETATM   57  H   UNL     1      -5.770   6.420  68.629  1.00  0.00     0.000 HD 
BRANCH  47  58
HETATM   58  C   UNL     1     -11.434   6.339  69.893  1.00  0.00    -0.389 C  
HETATM   59  H1  UNL     1     -12.320   4.443  70.140  1.00  0.00     0.000 HD 
HETATM   60  N   UNL     1     -11.470   4.877  69.778  1.00  0.00     2.639 NA 
HETATM   61  H2  UNL     1     -10.647   4.466  70.218  1.00  0.00     0.000 HD 
ENDBRANCH  47  58
ENDBRANCH  44  45
ENDBRANCH  40  44
ENDBRANCH  29  30
ENDBRANCH  22  29
ENDBRANCH  18  19
ENDBRANCH   7  18
ENDBRANCH   2   5
TORSDOF 9
ENDMDL
MODEL      286
REMARK 921   NORMALIZED FREE ENERGY PREDICTED BY IDOCK:    4.27 KCAL/MOL
REMARK 922        TOTAL FREE ENERGY PREDICTED BY IDOCK:    3.70 KCAL/MOL
REMARK 923 INTER-LIGAND FREE ENERGY PREDICTED BY IDOCK:   -3.19 KCAL/MOL
REMARK 924 INTRA-LIGAND FREE ENERGY PREDICTED BY IDOCK:    6.89 KCAL/MOL
REMARK 927      BINDING AFFINITY PREDICTED BY RF-SCORE:    0.00 PKD
ROOT
HETATM    1  N   UNL     1     -10.712   9.585  62.977  1.00  0.00     2.784 NA 
HETATM    2  C   UNL     1      -9.567  10.367  63.451  1.00  0.00    -0.312 C  
HETATM    3  H1  UNL     1     -11.590  10.096  62.899  1.00  0.00     0.000 HD 
HETATM    4  H2  UNL     1     -10.839   8.761  63.563  1.00  0.00     0.000 HD 
ENDROOT
BRANCH   2   5
HETATM    5  C   UNL     1      -8.230   9.588  63.570  1.00  0.00    -0.164 C  
HETATM    6  O   UNL     1      -8.304   8.430  64.441  1.00  0.00    -0.159 OA 
HETATM    7  C   UNL     1      -7.070   7.691  64.401  1.00  0.00    -0.066 C  
HETATM    8  C   UNL     1      -5.893   8.563  64.946  1.00  0.00    -0.048 C  
HETATM    9  O   UNL     1      -7.564  11.086  65.374  1.00  0.00    -0.362 OA 
HETATM   10  H   UNL     1      -6.906  11.691  65.697  1.00  0.00     0.000 HD 
HETATM   11  N   UNL     1      -6.062   8.810  66.416  1.00  0.00    -0.058 NA 
HETATM   12  C   UNL     1      -5.793   9.879  64.176  1.00  0.00    -0.117 C  
HETATM   13  H2  UNL     1      -6.164   7.940  66.939  1.00  0.00     0.000 HD 
HETATM   14  O   UNL     1      -5.240   9.695  62.866  1.00  0.00    -0.079 OA 
HETATM   15  C   UNL     1      -7.157  10.575  64.096  1.00  0.00     0.127 C  
HETATM   16  H1  UNL     1      -5.294   9.379  66.772  1.00  0.00     0.000 HD 
HETATM   17  H   UNL     1      -5.177  10.513  62.386  1.00  0.00     0.000 HD 
BRANCH   7  18
HETATM   18  O   UNL     1      -7.038   6.576  65.274  1.00  0.00    -0.057 OA 
BRANCH  18  19
HETATM   19  C   UNL     1      -7.493   6.700  66.615  1.00  0.00    -0.079 C  
HETATM   20  O   UNL     1      -9.682   5.960  65.709  1.00  0.00    -0.369 OA 
HETATM   21  C   UNL     1      -6.672   5.616  67.324  1.00  0.00    -0.059 C  
HETATM   22  C   UNL     1      -8.849   5.070  67.831  1.00  0.00    -0.103 C  
HETATM   23  H   UNL     1     -10.582   5.715  65.887  1.00  0.00     0.000 HD 
HETATM   24  O   UNL     1      -7.560   4.513  67.569  1.00  0.00    -0.077 OA 
HETATM   25  C   UNL     1      -8.956   6.303  66.904  1.00  0.00    -0.120 C  
BRANCH  21  26
HETATM   26  C   UNL     1      -5.985   6.096  68.606  1.00  0.00    -0.020 C  
HETATM   27  H   UNL     1      -5.922   7.725  69.741  1.00  0.00     0.000 HD 
HETATM   28  O   UNL     1      -6.348   7.427  68.946  1.00  0.00    -0.037 OA 
ENDBRANCH  21  26
BRANCH  22  29
HETATM   29  O   UNL     1      -8.970   5.423  69.215  1.00  0.00    -0.103 OA 
BRANCH  29  30
HETATM   30  C   UNL     1     -10.261   5.957  69.665  1.00  0.00    -0.218 C  
HETATM   31  C   UNL     1     -10.609   7.264  68.906  1.00  0.00    -0.191 C  
HETATM   32  O   UNL     1     -11.356   6.927  67.716  1.00  0.00    -0.561 OA 
HETATM   33  C   UNL     1     -11.402   8.358  69.639  1.00  0.00     0.223 C  
HETATM   34  C   UNL     1     -11.214   8.349  71.145  1.00  0.00    -0.307 C  
HETATM   35  N   UNL     1     -11.004   9.694  69.126  1.00  0.00    -0.365 NA 
HETATM   36  H   UNL     1     -11.569   7.727  67.251  1.00  0.00     0.000 HD 
HETATM   37  H1  UNL     1     -11.530  10.420  69.612  1.00  0.00     0.000 HD 
HETATM   38  H2  UNL     1     -11.103   9.762  68.113  1.00  0.00     0.000 HD 
HETATM   39  C   UNL     1     -11.490   6.953  71.701  1.00  0.00    -0.275 C  
HETATM   40  C   UNL     1     -10.397   5.968  71.213  1.00  0.00    -0.215 C  
HETATM   41  N   UNL     1     -11.528   7.034  73.177  1.00  0.00    -0.533 NA 
HETATM   42  H2  UNL     1     -12.195   7.728  73.514  1.00  0.00     0.000 HD 
HETATM   43  H1  UNL     1     -11.713   6.102  73.548  1.00  0.00     0.000 HD 
BRANCH  40  44
HETATM   44  O   UNL     1     -10.743   4.661  71.734  1.00  0.00    -0.073 OA 
BRANCH  44  45
HETATM   45  C   UNL     1      -9.775   4.071  72.607  1.00  0.00    -0.145 C  
HETATM   46  O   UNL     1      -8.604   3.660  71.897  1.00  0.00    -0.087 OA 
HETATM   47  C   UNL     1      -7.874   4.751  71.317  1.00  0.00    -0.088 C  
HETATM   48  C   UNL     1      -7.436   5.769  72.381  1.00  0.00    -0.096 C  
HETATM   49  H1  UNL     1     -10.381   6.166  75.269  1.00  0.00     0.000 HD 
HETATM   50  O   UNL     1      -6.750   6.892  71.810  1.00  0.00    -0.053 OA 
HETATM   51  H2  UNL     1     -11.131   4.715  74.881  1.00  0.00     0.000 HD 
HETATM   52  C   UNL     1      -8.662   6.266  73.162  1.00  0.00    -0.123 C  
HETATM   53  H   UNL     1      -6.479   7.522  72.468  1.00  0.00     0.000 HD 
HETATM   54  O   UNL     1      -8.238   7.141  74.222  1.00  0.00    -0.132 OA 
HETATM   55  C   UNL     1      -9.426   5.065  73.749  1.00  0.00    -0.129 C  
HETATM   56  N   UNL     1     -10.610   5.514  74.519  1.00  0.00    -0.273 NA 
HETATM   57  H   UNL     1      -8.996   7.448  74.705  1.00  0.00     0.000 HD 
BRANCH  47  58
HETATM   58  C   UNL     1      -6.695   4.169  70.506  1.00  0.00    -0.033 C  
HETATM   59  H1  UNL     1      -6.173   2.470  69.372  1.00  0.00     0.000 HD 
HETATM   60  N   UNL     1      -6.952   2.854  69.907  1.00  0.00    -0.034 NA 
HETATM   61  H2  UNL     1      -7.796   2.886  69.334  1.00  0.00     0.000 HD 
ENDBRANCH  47  58
ENDBRANCH  44  45
ENDBRANCH  40  44
ENDBRANCH  29  30
ENDBRANCH  22  29
ENDBRANCH  18  19
ENDBRANCH   7  18
ENDBRANCH   2   5
TORSDOF 9
ENDMDL
MODEL      287
REMARK 921   NORMALIZED FREE ENERGY PREDICTED BY IDOCK:    4.32 KCAL/MOL
REMARK 922        TOTAL FREE ENERGY PREDICTED BY IDOCK:    3.78 KCAL/MOL
REMARK 923 INTER-LIGAND FREE ENERGY PREDICTED BY IDOCK:   -3.41 KCAL/MOL
REMARK 924 INTRA-LIGAND FREE ENERGY PREDICTED BY IDOCK:    7.19 KCAL/MOL
REMARK 927      BINDING AFFINITY PREDICTED BY RF-SCORE:    0.00 PKD
ROOT
HETATM    1  N   UNL     1      -5.438  10.881  72.036  1.00  0.00    -0.294 NA 
HETATM    2  C   UNL     1      -6.452   9.839  71.853  1.00  0.00     0.544 C  
HETATM    3  H1  UNL     1      -5.796  11.832  72.114  1.00  0.00     0.000 HD 
HETATM    4  H2  UNL     1      -4.745  10.829  71.290  1.00  0.00     0.000 HD 
ENDROOT
BRANCH   2   5
HETATM    5  C   UNL     1      -5.906   8.391  71.734  1.00  0.00    -0.043 C  
HETATM    6  O   UNL     1      -5.826   7.907  70.369  1.00  0.00    -0.029 OA 
HETATM    7  C   UNL     1      -5.196   6.614  70.330  1.00  0.00    -0.018 C  
HETATM    8  C   UNL     1      -6.054   5.564  71.108  1.00  0.00    -0.033 C  
HETATM    9  O   UNL     1      -8.173   7.553  72.055  1.00  0.00    -0.099 OA 
HETATM   10  H   UNL     1      -8.742   6.988  72.565  1.00  0.00     0.000 HD 
HETATM   11  N   UNL     1      -7.344   5.305  70.387  1.00  0.00    -0.062 NA 
HETATM   12  C   UNL     1      -6.310   6.029  72.541  1.00  0.00    -0.054 C  
HETATM   13  H2  UNL     1      -7.189   5.026  69.418  1.00  0.00     0.000 HD 
HETATM   14  O   UNL     1      -5.143   5.899  73.365  1.00  0.00    -0.022 OA 
HETATM   15  C   UNL     1      -6.834   7.471  72.566  1.00  0.00    -0.064 C  
HETATM   16  H1  UNL     1      -7.905   4.621  70.894  1.00  0.00     0.000 HD 
HETATM   17  H   UNL     1      -5.301   6.188  74.256  1.00  0.00     0.000 HD 
BRANCH   7  18
HETATM   18  O   UNL     1      -5.135   6.042  69.036  1.00  0.00    -0.004 OA 
BRANCH  18  19
HETATM   19  C   UNL     1      -6.117   6.365  68.060  1.00  0.00    -0.027 C  
HETATM   20  O   UNL     1      -5.652   4.099  67.161  1.00  0.00    -0.019 OA 
HETATM   21  C   UNL     1      -7.381   6.487  68.919  1.00  0.00    -0.093 C  
HETATM   22  C   UNL     1      -7.950   4.921  67.332  1.00  0.00    -0.095 C  
HETATM   23  H   UNL     1      -5.872   3.426  66.528  1.00  0.00     0.000 HD 
HETATM   24  O   UNL     1      -8.156   5.297  68.694  1.00  0.00    -0.089 OA 
HETATM   25  C   UNL     1      -6.475   5.272  67.031  1.00  0.00    -0.041 C  
BRANCH  21  26
HETATM   26  C   UNL     1      -8.193   7.758  68.653  1.00  0.00    -0.128 C  
HETATM   27  H   UNL     1      -9.509   8.909  69.598  1.00  0.00     0.000 HD 
HETATM   28  O   UNL     1      -9.005   8.121  69.762  1.00  0.00    -0.142 OA 
ENDBRANCH  21  26
BRANCH  22  29
HETATM   29  O   UNL     1      -8.858   5.625  66.476  1.00  0.00    -0.118 OA 
BRANCH  29  30
HETATM   30  C   UNL     1      -8.727   5.412  65.029  1.00  0.00    -0.116 C  
HETATM   31  C   UNL     1      -8.391   3.929  64.722  1.00  0.00    -0.101 C  
HETATM   32  O   UNL     1      -9.626   3.199  64.545  1.00  0.00    -0.146 OA 
HETATM   33  C   UNL     1      -7.502   3.607  63.511  1.00  0.00    -0.058 C  
HETATM   34  C   UNL     1      -6.546   4.724  63.135  1.00  0.00    -0.027 C  
HETATM   35  N   UNL     1      -6.706   2.383  63.785  1.00  0.00    -0.030 NA 
HETATM   36  H   UNL     1      -9.420   2.291  64.357  1.00  0.00     0.000 HD 
HETATM   37  H1  UNL     1      -6.116   2.169  62.981  1.00  0.00     0.000 HD 
HETATM   38  H2  UNL     1      -7.294   1.593  64.050  1.00  0.00     0.000 HD 
HETATM   39  C   UNL     1      -7.311   6.036  62.967  1.00  0.00    -0.059 C  
HETATM   40  C   UNL     1      -7.861   6.503  64.340  1.00  0.00    -0.115 C  
HETATM   41  N   UNL     1      -6.399   7.041  62.378  1.00  0.00    -0.051 NA 
HETATM   42  H2  UNL     1      -5.975   6.721  61.507  1.00  0.00     0.000 HD 
HETATM   43  H1  UNL     1      -6.910   7.916  62.267  1.00  0.00     0.000 HD 
BRANCH  40  44
HETATM   44  O   UNL     1      -8.611   7.720  64.104  1.00  0.00     0.117 OA 
BRANCH  44  45
HETATM   45  C   UNL     1      -7.865   8.802  63.541  1.00  0.00    -0.149 C  
HETATM   46  O   UNL     1      -8.722   9.787  62.958  1.00  0.00    -0.189 OA 
HETATM   47  C   UNL     1      -9.562  10.452  63.912  1.00  0.00    -0.312 C  
HETATM   48  C   UNL     1      -8.737  11.147  65.006  1.00  0.00     0.044 C  
HETATM   49  H1  UNL     1      -5.427   8.849  65.969  1.00  0.00     0.000 HD 
HETATM   50  O   UNL     1      -9.565  11.773  65.996  1.00  0.00    -0.222 OA 
HETATM   51  H2  UNL     1      -5.480   7.954  64.550  1.00  0.00     0.000 HD 
HETATM   52  C   UNL     1      -7.812  10.128  65.687  1.00  0.00    -0.145 C  
HETATM   53  H   UNL     1      -9.054  12.203  66.673  1.00  0.00     0.000 HD 
HETATM   54  O   UNL     1      -6.970  10.800  66.640  1.00  0.00    -0.112 OA 
HETATM   55  C   UNL     1      -6.944   9.425  64.628  1.00  0.00    -0.096 C  
HETATM   56  N   UNL     1      -6.031   8.441  65.257  1.00  0.00    -0.045 NA 
HETATM   57  H   UNL     1      -6.398  10.170  67.061  1.00  0.00     0.000 HD 
BRANCH  47  58
HETATM   58  C   UNL     1     -10.497  11.416  63.147  1.00  0.00    -0.260 C  
HETATM   59  H1  UNL     1     -11.451  13.283  63.364  1.00  0.00     0.000 HD 
HETATM   60  N   UNL     1     -10.833  12.647  63.870  1.00  0.00    -0.408 NA 
HETATM   61  H2  UNL     1      -9.982  13.133  64.156  1.00  0.00     0.000 HD 
ENDBRANCH  47  58
ENDBRANCH  44  45
ENDBRANCH  40  44
ENDBRANCH  29  30
ENDBRANCH  22  29
ENDBRANCH  18  19
ENDBRANCH   7  18
ENDBRANCH   2   5
TORSDOF 9
ENDMDL
MODEL      288
REMARK 921   NORMALIZED FREE ENERGY PREDICTED BY IDOCK:    4.67 KCAL/MOL
REMARK 922        TOTAL FREE ENERGY PREDICTED BY IDOCK:    4.31 KCAL/MOL
REMARK 923 INTER-LIGAND FREE ENERGY PREDICTED BY IDOCK:    5.50 KCAL/MOL
REMARK 924 INTRA-LIGAND FREE ENERGY PREDICTED BY IDOCK:   -1.19 KCAL/MOL
REMARK 927      BINDING AFFINITY PREDICTED BY RF-SCORE:    0.00 PKD
ROOT
HETATM    1  N   UNL     1      -6.748  17.758  71.368  1.00  0.00     3.307 NA 
HETATM    2  C   UNL     1      -7.594  17.963  70.188  1.00  0.00     1.910 C  
HETATM    3  H1  UNL     1      -6.775  18.506  72.060  1.00  0.00     0.000 HD 
HETATM    4  H2  UNL     1      -5.786  17.582  71.081  1.00  0.00     0.000 HD 
ENDROOT
BRANCH   2   5
HETATM    5  C   UNL     1      -7.554  16.825  69.134  1.00  0.00    -0.181 C  
HETATM    6  O   UNL     1      -6.384  15.972  69.238  1.00  0.00    -0.138 OA 
HETATM    7  C   UNL     1      -6.480  14.872  68.316  1.00  0.00    -0.118 C  
HETATM    8  C   UNL     1      -6.501  15.395  66.842  1.00  0.00     0.658 C  
HETATM    9  O   UNL     1      -6.478  18.361  67.577  1.00  0.00    -0.190 OA 
HETATM   10  H   UNL     1      -6.507  18.764  66.716  1.00  0.00     0.000 HD 
HETATM   11  N   UNL     1      -5.172  15.991  66.481  1.00  0.00     0.303 NA 
HETATM   12  C   UNL     1      -7.630  16.404  66.642  1.00  0.00    -0.253 C  
HETATM   13  H2  UNL     1      -4.405  15.338  66.642  1.00  0.00     0.000 HD 
HETATM   14  O   UNL     1      -8.915  15.770  66.587  1.00  0.00    -0.229 OA 
HETATM   15  C   UNL     1      -7.603  17.483  67.732  1.00  0.00    -0.193 C  
HETATM   16  H1  UNL     1      -5.185  16.332  65.520  1.00  0.00     0.000 HD 
HETATM   17  H   UNL     1      -9.617  16.398  66.462  1.00  0.00     0.000 HD 
BRANCH   7  18
HETATM   18  O   UNL     1      -5.346  14.024  68.311  1.00  0.00    -0.096 OA 
BRANCH  18  19
HETATM   19  C   UNL     1      -5.486  12.635  68.576  1.00  0.00    -0.057 C  
HETATM   20  O   UNL     1      -6.282  13.365  70.811  1.00  0.00    -0.395 OA 
HETATM   21  C   UNL     1      -6.584  12.237  67.582  1.00  0.00    -0.122 C  
HETATM   22  C   UNL     1      -7.417  11.557  69.616  1.00  0.00     0.339 C  
HETATM   23  H   UNL     1      -6.640  13.118  71.655  1.00  0.00     0.000 HD 
HETATM   24  O   UNL     1      -7.794  12.075  68.340  1.00  0.00    -0.136 OA 
HETATM   25  C   UNL     1      -6.068  12.233  69.948  1.00  0.00    -0.140 C  
BRANCH  21  26
HETATM   26  C   UNL     1      -6.253  10.991  66.757  1.00  0.00    -0.110 C  
HETATM   27  H   UNL     1      -5.494  10.543  64.976  1.00  0.00     0.000 HD 
HETATM   28  O   UNL     1      -5.700  11.315  65.488  1.00  0.00    -0.123 OA 
ENDBRANCH  21  26
BRANCH  22  29
HETATM   29  O   UNL     1      -7.307  10.129  69.563  1.00  0.00    -0.092 OA 
BRANCH  29  30
HETATM   30  C   UNL     1      -7.670   9.378  70.772  1.00  0.00    -0.115 C  
HETATM   31  C   UNL     1      -6.405   8.801  71.459  1.00  0.00    -0.071 C  
HETATM   32  O   UNL     1      -5.912   9.767  72.413  1.00  0.00    -0.293 OA 
HETATM   33  C   UNL     1      -6.511   7.456  72.196  1.00  0.00    -0.050 C  
HETATM   34  C   UNL     1      -7.601   6.545  71.660  1.00  0.00    -0.094 C  
HETATM   35  N   UNL     1      -5.215   6.735  72.112  1.00  0.00    -0.031 NA 
HETATM   36  H   UNL     1      -5.137   9.413  72.834  1.00  0.00     0.000 HD 
HETATM   37  H1  UNL     1      -5.286   5.842  72.601  1.00  0.00     0.000 HD 
HETATM   38  H2  UNL     1      -4.438   7.299  72.454  1.00  0.00     0.000 HD 
HETATM   39  C   UNL     1      -8.932   7.293  71.610  1.00  0.00    -0.124 C  
HETATM   40  C   UNL     1      -8.866   8.413  70.541  1.00  0.00    -0.148 C  
HETATM   41  N   UNL     1     -10.006   6.320  71.310  1.00  0.00    -0.179 NA 
HETATM   42  H2  UNL     1     -10.021   5.539  71.966  1.00  0.00     0.000 HD 
HETATM   43  H1  UNL     1     -10.895   6.820  71.277  1.00  0.00     0.000 HD 
BRANCH  40  44
HETATM   44  O   UNL     1     -10.136   9.109  70.576  1.00  0.00    -0.201 OA 
BRANCH  44  45
HETATM   45  C   UNL     1     -11.102   8.677  69.613  1.00  0.00    -0.013 C  
HETATM   46  O   UNL     1     -12.237   8.074  70.238  1.00  0.00     0.230 OA 
HETATM   47  C   UNL     1     -12.995   8.982  71.049  1.00  0.00    -0.045 C  
HETATM   48  C   UNL     1     -13.499  10.183  70.236  1.00  0.00     0.464 C  
HETATM   49  H1  UNL     1     -10.646  11.317  67.453  1.00  0.00     0.000 HD 
HETATM   50  O   UNL     1     -14.214  11.127  71.045  1.00  0.00     1.878 OA 
HETATM   51  H2  UNL     1      -9.829   9.851  67.509  1.00  0.00     0.000 HD 
HETATM   52  C   UNL     1     -12.314  10.889  69.560  1.00  0.00    -0.171 C  
HETATM   53  H   UNL     1     -14.526  11.871  70.542  1.00  0.00     0.000 HD 
HETATM   54  O   UNL     1     -12.799  11.950  68.719  1.00  0.00     0.554 OA 
HETATM   55  C   UNL     1     -11.518   9.876  68.717  1.00  0.00     0.100 C  
HETATM   56  N   UNL     1     -10.372  10.531  68.042  1.00  0.00    -0.172 NA 
HETATM   57  H   UNL     1     -12.066  12.387  68.301  1.00  0.00     0.000 HD 
BRANCH  47  58
HETATM   58  C   UNL     1     -14.130   8.189  71.736  1.00  0.00    -0.439 C  
HETATM   59  H1  UNL     1     -14.447   6.824  73.311  1.00  0.00     0.000 HD 
HETATM   60  N   UNL     1     -13.697   7.348  72.858  1.00  0.00     0.473 NA 
HETATM   61  H2  UNL     1     -13.190   7.906  73.544  1.00  0.00     0.000 HD 
ENDBRANCH  47  58
ENDBRANCH  44  45
ENDBRANCH  40  44
ENDBRANCH  29  30
ENDBRANCH  22  29
ENDBRANCH  18  19
ENDBRANCH   7  18
ENDBRANCH   2   5
TORSDOF 9
ENDMDL
MODEL      289
REMARK 921   NORMALIZED FREE ENERGY PREDICTED BY IDOCK:    5.05 KCAL/MOL
REMARK 922        TOTAL FREE ENERGY PREDICTED BY IDOCK:    4.90 KCAL/MOL
REMARK 923 INTER-LIGAND FREE ENERGY PREDICTED BY IDOCK:   -3.12 KCAL/MOL
REMARK 924 INTRA-LIGAND FREE ENERGY PREDICTED BY IDOCK:    8.02 KCAL/MOL
REMARK 927      BINDING AFFINITY PREDICTED BY RF-SCORE:    0.00 PKD
ROOT
HETATM    1  N   UNL     1      -5.375   4.650  68.199  1.00  0.00    -0.010 NA 
HETATM    2  C   UNL     1      -6.630   3.920  67.998  1.00  0.00    -0.042 C  
HETATM    3  H1  UNL     1      -4.708   4.594  67.429  1.00  0.00     0.000 HD 
HETATM    4  H2  UNL     1      -4.932   4.350  69.067  1.00  0.00     0.000 HD 
ENDROOT
BRANCH   2   5
HETATM    5  C   UNL     1      -7.645   4.003  69.168  1.00  0.00    -0.054 C  
HETATM    6  O   UNL     1      -7.575   5.246  69.915  1.00  0.00    -0.063 OA 
HETATM    7  C   UNL     1      -8.624   5.302  70.897  1.00  0.00    -0.128 C  
HETATM    8  C   UNL     1      -8.450   4.159  71.950  1.00  0.00    -0.104 C  
HETATM    9  O   UNL     1      -6.024   2.880  70.601  1.00  0.00    -0.017 OA 
HETATM   10  H   UNL     1      -5.856   2.145  71.181  1.00  0.00     0.000 HD 
HETATM   11  N   UNL     1      -7.226   4.398  72.785  1.00  0.00    -0.070 NA 
HETATM   12  C   UNL     1      -8.387   2.795  71.262  1.00  0.00    -0.062 C  
HETATM   13  H2  UNL     1      -7.239   5.319  73.223  1.00  0.00     0.000 HD 
HETATM   14  O   UNL     1      -9.675   2.368  70.798  1.00  0.00    -0.127 OA 
HETATM   15  C   UNL     1      -7.372   2.805  70.112  1.00  0.00    -0.040 C  
HETATM   16  H1  UNL     1      -7.112   3.653  73.471  1.00  0.00     0.000 HD 
HETATM   17  H   UNL     1      -9.637   1.520  70.370  1.00  0.00     0.000 HD 
BRANCH   7  18
HETATM   18  O   UNL     1      -8.588   6.460  71.713  1.00  0.00    -0.128 OA 
BRANCH  18  19
HETATM   19  C   UNL     1      -8.952   7.726  71.180  1.00  0.00    -0.138 C  
HETATM   20  O   UNL     1      -7.433   7.129  69.310  1.00  0.00    -0.089 OA 
HETATM   21  C   UNL     1     -10.448   7.530  70.903  1.00  0.00    -0.213 C  
HETATM   22  C   UNL     1      -9.598   8.181  68.867  1.00  0.00    -0.153 C  
HETATM   23  H   UNL     1      -7.075   7.362  68.461  1.00  0.00     0.000 HD 
HETATM   24  O   UNL     1     -10.591   7.361  69.483  1.00  0.00    -0.231 OA 
HETATM   25  C   UNL     1      -8.369   8.106  69.802  1.00  0.00    -0.124 C  
BRANCH  21  26
HETATM   26  C   UNL     1     -11.332   8.659  71.439  1.00  0.00    -0.284 C  
HETATM   27  H   UNL     1     -11.935   9.375  73.192  1.00  0.00     0.000 HD 
HETATM   28  O   UNL     1     -11.386   8.675  72.859  1.00  0.00    -0.058 OA 
ENDBRANCH  21  26
BRANCH  22  29
HETATM   29  O   UNL     1     -10.080   9.522  68.715  1.00  0.00    -0.175 OA 
BRANCH  29  30
HETATM   30  C   UNL     1      -9.988  10.126  67.380  1.00  0.00    -0.195 C  
HETATM   31  C   UNL     1      -9.082   9.273  66.453  1.00  0.00    -0.160 C  
HETATM   32  O   UNL     1      -9.901   8.299  65.770  1.00  0.00    -0.445 OA 
HETATM   33  C   UNL     1      -8.241   9.985  65.381  1.00  0.00    -0.149 C  
HETATM   34  C   UNL     1      -7.883  11.418  65.731  1.00  0.00     0.291 C  
HETATM   35  N   UNL     1      -6.982   9.231  65.150  1.00  0.00    -0.084 NA 
HETATM   36  H   UNL     1      -9.346   7.777  65.203  1.00  0.00     0.000 HD 
HETATM   37  H1  UNL     1      -6.425   9.703  64.438  1.00  0.00     0.000 HD 
HETATM   38  H2  UNL     1      -7.157   8.254  64.914  1.00  0.00     0.000 HD 
HETATM   39  C   UNL     1      -9.143  12.199  66.102  1.00  0.00    -0.101 C  
HETATM   40  C   UNL     1      -9.725  11.657  67.432  1.00  0.00    -0.176 C  
HETATM   41  N   UNL     1      -8.793  13.632  66.206  1.00  0.00    -0.433 NA 
HETATM   42  H2  UNL     1      -8.346  13.989  65.362  1.00  0.00     0.000 HD 
HETATM   43  H1  UNL     1      -9.634  14.153  66.454  1.00  0.00     0.000 HD 
BRANCH  40  44
HETATM   44  O   UNL     1     -10.936  12.405  67.700  1.00  0.00    -0.220 OA 
BRANCH  44  45
HETATM   45  C   UNL     1     -10.836  13.821  67.527  1.00  0.00    -0.265 C  
HETATM   46  O   UNL     1     -12.038  14.487  67.918  1.00  0.00    -0.325 OA 
HETATM   47  C   UNL     1     -12.331  14.367  69.318  1.00  0.00    -0.153 C  
HETATM   48  C   UNL     1     -11.192  14.923  70.185  1.00  0.00    -0.239 C  
HETATM   49  H1  UNL     1      -7.530  14.053  68.453  1.00  0.00     0.000 HD 
HETATM   50  O   UNL     1     -11.447  14.761  71.587  1.00  0.00    -0.498 OA 
HETATM   51  H2  UNL     1      -8.177  13.766  66.931  1.00  0.00     0.000 HD 
HETATM   52  C   UNL     1      -9.873  14.222  69.825  1.00  0.00     0.640 C  
HETATM   53  H   UNL     1     -10.742  15.106  72.124  1.00  0.00     0.000 HD 
HETATM   54  O   UNL     1      -8.793  14.814  70.566  1.00  0.00     0.432 OA 
HETATM   55  C   UNL     1      -9.608  14.358  68.314  1.00  0.00    -0.211 C  
HETATM   56  N   UNL     1      -8.335  13.700  67.937  1.00  0.00    -0.160 NA 
HETATM   57  H   UNL     1      -7.977  14.381  70.342  1.00  0.00     0.000 HD 
BRANCH  47  58
HETATM   58  C   UNL     1     -13.693  15.044  69.589  1.00  0.00     2.156 C  
HETATM   59  H1  UNL     1     -15.146  15.241  71.104  1.00  0.00     0.000 HD 
HETATM   60  N   UNL     1     -14.247  14.794  70.925  1.00  0.00    -0.521 NA 
HETATM   61  H2  UNL     1     -13.571  15.056  71.643  1.00  0.00     0.000 HD 
ENDBRANCH  47  58
ENDBRANCH  44  45
ENDBRANCH  40  44
ENDBRANCH  29  30
ENDBRANCH  22  29
ENDBRANCH  18  19
ENDBRANCH   7  18
ENDBRANCH   2   5
TORSDOF 9
ENDMDL
MODEL      290
REMARK 921   NORMALIZED FREE ENERGY PREDICTED BY IDOCK:    5.22 KCAL/MOL
REMARK 922        TOTAL FREE ENERGY PREDICTED BY IDOCK:    5.16 KCAL/MOL
REMARK 923 INTER-LIGAND FREE ENERGY PREDICTED BY IDOCK:   -1.13 KCAL/MOL
REMARK 924 INTRA-LIGAND FREE ENERGY PREDICTED BY IDOCK:    6.30 KCAL/MOL
REMARK 927      BINDING AFFINITY PREDICTED BY RF-SCORE:    0.00 PKD
ROOT
HETATM    1  N   UNL     1      -7.603  15.553  70.034  1.00  0.00     0.055 NA 
HETATM    2  C   UNL     1      -8.724  16.415  69.649  1.00  0.00     0.386 C  
HETATM    3  H1  UNL     1      -7.123  15.816  70.894  1.00  0.00     0.000 HD 
HETATM    4  H2  UNL     1      -6.933  15.489  69.267  1.00  0.00     0.000 HD 
ENDROOT
BRANCH   2   5
HETATM    5  C   UNL     1      -9.454  16.015  68.340  1.00  0.00    -0.207 C  
HETATM    6  O   UNL     1      -9.471  14.584  68.093  1.00  0.00    -0.196 OA 
HETATM    7  C   UNL     1     -10.269  14.283  66.935  1.00  0.00    -0.266 C  
HETATM    8  C   UNL     1      -9.644  14.931  65.657  1.00  0.00    -0.223 C  
HETATM    9  O   UNL     1      -7.368  16.348  67.123  1.00  0.00    -0.155 OA 
HETATM   10  H   UNL     1      -6.934  16.795  66.404  1.00  0.00     0.000 HD 
HETATM   11  N   UNL     1      -8.340  14.270  65.319  1.00  0.00     2.909 NA 
HETATM   12  C   UNL     1      -9.464  16.437  65.847  1.00  0.00    -0.254 C  
HETATM   13  H2  UNL     1      -8.440  13.259  65.222  1.00  0.00     0.000 HD 
HETATM   14  O   UNL     1     -10.710  17.142  65.770  1.00  0.00    -0.312 OA 
HETATM   15  C   UNL     1      -8.748  16.742  67.168  1.00  0.00    -0.200 C  
HETATM   16  H1  UNL     1      -7.932  14.693  64.485  1.00  0.00     0.000 HD 
HETATM   17  H   UNL     1     -10.598  18.078  65.888  1.00  0.00     0.000 HD 
BRANCH   7  18
HETATM   18  O   UNL     1     -10.286  12.910  66.589  1.00  0.00    -0.246 OA 
BRANCH  18  19
HETATM   19  C   UNL     1     -10.790  11.945  67.503  1.00  0.00    -0.238 C  
HETATM   20  O   UNL     1      -8.455  11.105  67.564  1.00  0.00    -0.123 OA 
HETATM   21  C   UNL     1     -11.206  12.825  68.688  1.00  0.00    -0.282 C  
HETATM   22  C   UNL     1      -9.761  11.297  69.624  1.00  0.00     0.647 C  
HETATM   23  H   UNL     1      -7.831  10.497  67.941  1.00  0.00     0.000 HD 
HETATM   24  O   UNL     1     -10.207  12.652  69.708  1.00  0.00     0.867 OA 
HETATM   25  C   UNL     1      -9.776  10.956  68.117  1.00  0.00    -0.166 C  
BRANCH  21  26
HETATM   26  C   UNL     1     -12.615  12.537  69.212  1.00  0.00     0.592 C  
HETATM   27  H   UNL     1     -13.808  10.974  69.497  1.00  0.00     0.000 HD 
HETATM   28  O   UNL     1     -12.934  11.153  69.172  1.00  0.00     0.089 OA 
ENDBRANCH  21  26
BRANCH  22  29
HETATM   29  O   UNL     1     -10.625  10.439  70.381  1.00  0.00    -0.233 OA 
BRANCH  29  30
HETATM   30  C   UNL     1     -10.377   8.994  70.302  1.00  0.00    -0.209 C  
HETATM   31  C   UNL     1     -11.122   8.248  71.440  1.00  0.00    -0.251 C  
HETATM   32  O   UNL     1     -12.436   7.876  70.972  1.00  0.00    -0.466 OA 
HETATM   33  C   UNL     1     -10.484   6.983  72.038  1.00  0.00    -0.208 C  
HETATM   34  C   UNL     1      -8.970   6.950  71.933  1.00  0.00    -0.139 C  
HETATM   35  N   UNL     1     -10.856   6.863  73.471  1.00  0.00    -0.518 NA 
HETATM   36  H   UNL     1     -12.892   7.419  71.669  1.00  0.00     0.000 HD 
HETATM   37  H1  UNL     1     -10.433   6.024  73.867  1.00  0.00     0.000 HD 
HETATM   38  H2  UNL     1     -11.866   6.885  73.608  1.00  0.00     0.000 HD 
HETATM   39  C   UNL     1      -8.538   7.198  70.489  1.00  0.00    -0.144 C  
HETATM   40  C   UNL     1      -8.877   8.655  70.081  1.00  0.00    -0.141 C  
HETATM   41  N   UNL     1      -7.087   6.928  70.379  1.00  0.00    -0.066 NA 
HETATM   42  H2  UNL     1      -6.837   5.995  70.707  1.00  0.00     0.000 HD 
HETATM   43  H1  UNL     1      -6.799   7.093  69.414  1.00  0.00     0.000 HD 
BRANCH  40  44
HETATM   44  O   UNL     1      -8.486   8.809  68.695  1.00  0.00    -0.127 OA 
BRANCH  44  45
HETATM   45  C   UNL     1      -9.314   8.133  67.744  1.00  0.00    -0.134 C  
HETATM   46  O   UNL     1      -9.361   8.829  66.496  1.00  0.00    -0.172 OA 
HETATM   47  C   UNL     1      -8.095   8.883  65.822  1.00  0.00    -0.107 C  
HETATM   48  C   UNL     1      -7.539   7.478  65.547  1.00  0.00    -0.093 C  
HETATM   49  H1  UNL     1      -8.427   4.951  68.708  1.00  0.00     0.000 HD 
HETATM   50  O   UNL     1      -6.249   7.516  64.920  1.00  0.00    -0.038 OA 
HETATM   51  H2  UNL     1      -9.657   5.925  69.304  1.00  0.00     0.000 HD 
HETATM   52  C   UNL     1      -7.442   6.689  66.861  1.00  0.00    -0.087 C  
HETATM   53  H   UNL     1      -5.905   6.647  64.750  1.00  0.00     0.000 HD 
HETATM   54  O   UNL     1      -7.017   5.343  66.587  1.00  0.00    -0.062 OA 
HETATM   55  C   UNL     1      -8.814   6.673  67.560  1.00  0.00    -0.116 C  
HETATM   56  N   UNL     1      -8.755   5.909  68.829  1.00  0.00    -0.110 NA 
HETATM   57  H   UNL     1      -6.957   4.855  67.400  1.00  0.00     0.000 HD 
BRANCH  47  58
HETATM   58  C   UNL     1      -8.262   9.736  64.544  1.00  0.00    -0.156 C  
HETATM   59  H1  UNL     1      -8.421   9.530  62.452  1.00  0.00     0.000 HD 
HETATM   60  N   UNL     1      -8.311   8.966  63.296  1.00  0.00    -0.237 NA 
HETATM   61  H2  UNL     1      -9.043   8.257  63.346  1.00  0.00     0.000 HD 
ENDBRANCH  47  58
ENDBRANCH  44  45
ENDBRANCH  40  44
ENDBRANCH  29  30
ENDBRANCH  22  29
ENDBRANCH  18  19
ENDBRANCH   7  18
ENDBRANCH   2   5
TORSDOF 9
ENDMDL
MODEL      291
REMARK 921   NORMALIZED FREE ENERGY PREDICTED BY IDOCK:    6.04 KCAL/MOL
REMARK 922        TOTAL FREE ENERGY PREDICTED BY IDOCK:    6.41 KCAL/MOL
REMARK 923 INTER-LIGAND FREE ENERGY PREDICTED BY IDOCK:   -3.19 KCAL/MOL
REMARK 924 INTRA-LIGAND FREE ENERGY PREDICTED BY IDOCK:    9.60 KCAL/MOL
REMARK 927      BINDING AFFINITY PREDICTED BY RF-SCORE:    0.00 PKD
ROOT
HETATM    1  N   UNL     1      -8.429   8.583  72.377  1.00  0.00    -0.332 NA 
HETATM    2  C   UNL     1      -8.584   7.225  71.847  1.00  0.00    -0.114 C  
HETATM    3  H1  UNL     1      -8.700   8.706  73.352  1.00  0.00     0.000 HD 
HETATM    4  H2  UNL     1      -8.931   9.247  71.789  1.00  0.00     0.000 HD 
ENDROOT
BRANCH   2   5
HETATM    5  C   UNL     1      -8.172   7.038  70.363  1.00  0.00    -0.124 C  
HETATM    6  O   UNL     1      -7.546   8.209  69.777  1.00  0.00    -0.086 OA 
HETATM    7  C   UNL     1      -7.080   7.919  68.448  1.00  0.00    -0.081 C  
HETATM    8  C   UNL     1      -8.281   7.562  67.513  1.00  0.00    -0.113 C  
HETATM    9  O   UNL     1     -10.415   7.721  69.695  1.00  0.00    -0.221 OA 
HETATM   10  H   UNL     1     -11.197   7.495  69.205  1.00  0.00     0.000 HD 
HETATM   11  N   UNL     1      -9.143   8.769  67.286  1.00  0.00    -0.131 NA 
HETATM   12  C   UNL     1      -9.095   6.407  68.095  1.00  0.00    -0.113 C  
HETATM   13  H2  UNL     1      -8.605   9.559  66.928  1.00  0.00     0.000 HD 
HETATM   14  O   UNL     1      -8.422   5.149  67.950  1.00  0.00    -0.105 OA 
HETATM   15  C   UNL     1      -9.447   6.668  69.565  1.00  0.00    -0.147 C  
HETATM   16  H1  UNL     1      -9.927   8.537  66.676  1.00  0.00     0.000 HD 
HETATM   17  H   UNL     1      -8.928   4.430  68.312  1.00  0.00     0.000 HD 
BRANCH   7  18
HETATM   18  O   UNL     1      -6.510   9.031  67.782  1.00  0.00    -0.056 OA 
BRANCH  18  19
HETATM   19  C   UNL     1      -7.321  10.135  67.403  1.00  0.00    -0.089 C  
HETATM   20  O   UNL     1      -6.968  10.914  69.733  1.00  0.00    -0.148 OA 
HETATM   21  C   UNL     1      -6.448  10.814  66.341  1.00  0.00    -0.125 C  
HETATM   22  C   UNL     1      -6.855  12.489  67.865  1.00  0.00    -0.105 C  
HETATM   23  H   UNL     1      -7.106  11.594  70.381  1.00  0.00     0.000 HD 
HETATM   24  O   UNL     1      -5.879  11.983  66.953  1.00  0.00    -0.173 OA 
HETATM   25  C   UNL     1      -7.547  11.240  68.456  1.00  0.00    -0.123 C  
BRANCH  21  26
HETATM   26  C   UNL     1      -7.193  11.150  65.046  1.00  0.00     0.717 C  
HETATM   27  H   UNL     1      -7.283  10.505  63.169  1.00  0.00     0.000 HD 
HETATM   28  O   UNL     1      -6.821  10.297  63.972  1.00  0.00    -0.124 OA 
ENDBRANCH  21  26
BRANCH  22  29
HETATM   29  O   UNL     1      -7.779  13.347  67.183  1.00  0.00    -0.110 OA 
BRANCH  29  30
HETATM   30  C   UNL     1      -9.204  13.195  67.503  1.00  0.00    -0.206 C  
HETATM   31  C   UNL     1      -9.814  11.994  66.735  1.00  0.00    -0.204 C  
HETATM   32  O   UNL     1      -9.680  10.806  67.546  1.00  0.00    -0.164 OA 
HETATM   33  C   UNL     1     -11.283  12.070  66.288  1.00  0.00    -0.342 C  
HETATM   34  C   UNL     1     -11.787  13.485  66.066  1.00  0.00    -0.414 C  
HETATM   35  N   UNL     1     -11.464  11.305  65.028  1.00  0.00     0.051 NA 
HETATM   36  H   UNL     1     -10.054  10.070  67.075  1.00  0.00     0.000 HD 
HETATM   37  H1  UNL     1     -12.439  11.355  64.732  1.00  0.00     0.000 HD 
HETATM   38  H2  UNL     1     -11.138  10.343  65.112  1.00  0.00     0.000 HD 
HETATM   39  C   UNL     1     -11.503  14.343  67.297  1.00  0.00    -0.359 C  
HETATM   40  C   UNL     1      -9.974  14.544  67.457  1.00  0.00    -0.224 C  
HETATM   41  N   UNL     1     -12.207  15.635  67.142  1.00  0.00     0.433 NA 
HETATM   42  H2  UNL     1     -13.205  15.518  66.968  1.00  0.00     0.000 HD 
HETATM   43  H1  UNL     1     -12.017  16.208  67.964  1.00  0.00     0.000 HD 
BRANCH  40  44
HETATM   44  O   UNL     1      -9.773  15.323  68.663  1.00  0.00    -0.199 OA 
BRANCH  44  45
HETATM   45  C   UNL     1      -9.566  16.724  68.463  1.00  0.00    -0.245 C  
HETATM   46  O   UNL     1      -8.379  17.180  69.115  1.00  0.00    -0.157 OA 
HETATM   47  C   UNL     1      -7.176  16.610  68.581  1.00  0.00    -0.192 C  
HETATM   48  C   UNL     1      -7.023  16.910  67.082  1.00  0.00    -0.181 C  
HETATM   49  H1  UNL     1     -10.724  16.790  65.223  1.00  0.00     0.000 HD 
HETATM   50  O   UNL     1      -5.851  16.302  66.522  1.00  0.00    -0.212 OA 
HETATM   51  H2  UNL     1     -11.587  16.973  66.652  1.00  0.00     0.000 HD 
HETATM   52  C   UNL     1      -8.264  16.416  66.323  1.00  0.00    -0.308 C  
HETATM   53  H   UNL     1      -5.757  16.487  65.594  1.00  0.00     0.000 HD 
HETATM   54  O   UNL     1      -8.164  16.788  64.938  1.00  0.00     2.500 OA 
HETATM   55  C   UNL     1      -9.531  17.036  66.940  1.00  0.00    -0.257 C  
HETATM   56  N   UNL     1     -10.747  16.585  66.222  1.00  0.00    -0.210 NA 
HETATM   57  H   UNL     1      -8.931  16.483  64.469  1.00  0.00     0.000 HD 
BRANCH  47  58
HETATM   58  C   UNL     1      -5.984  17.108  69.429  1.00  0.00    -0.222 C  
HETATM   59  H1  UNL     1      -4.725  16.487  71.001  1.00  0.00     0.000 HD 
HETATM   60  N   UNL     1      -5.512  16.157  70.442  1.00  0.00    -0.173 NA 
HETATM   61  H2  UNL     1      -5.289  15.260  70.009  1.00  0.00     0.000 HD 
ENDBRANCH  47  58
ENDBRANCH  44  45
ENDBRANCH  40  44
ENDBRANCH  29  30
ENDBRANCH  22  29
ENDBRANCH  18  19
ENDBRANCH   7  18
ENDBRANCH   2   5
TORSDOF 9
ENDMDL
MODEL      292
REMARK 921   NORMALIZED FREE ENERGY PREDICTED BY IDOCK:    6.62 KCAL/MOL
REMARK 922        TOTAL FREE ENERGY PREDICTED BY IDOCK:    7.29 KCAL/MOL
REMARK 923 INTER-LIGAND FREE ENERGY PREDICTED BY IDOCK:    0.39 KCAL/MOL
REMARK 924 INTRA-LIGAND FREE ENERGY PREDICTED BY IDOCK:    6.90 KCAL/MOL
REMARK 927      BINDING AFFINITY PREDICTED BY RF-SCORE:    0.00 PKD
ROOT
HETATM    1  N   UNL     1     -11.644   7.936  72.989  1.00  0.00    -0.577 NA 
HETATM    2  C   UNL     1     -10.664   6.927  73.402  1.00  0.00    -0.324 C  
HETATM    3  H1  UNL     1     -12.405   8.102  73.646  1.00  0.00     0.000 HD 
HETATM    4  H2  UNL     1     -12.020   7.702  72.071  1.00  0.00     0.000 HD 
ENDROOT
BRANCH   2   5
HETATM    5  C   UNL     1      -9.506   6.674  72.402  1.00  0.00    -0.148 C  
HETATM    6  O   UNL     1      -9.659   7.375  71.140  1.00  0.00    -0.160 OA 
HETATM    7  C   UNL     1      -8.492   7.193  70.319  1.00  0.00    -0.138 C  
HETATM    8  C   UNL     1      -8.311   5.684  69.952  1.00  0.00    -0.117 C  
HETATM    9  O   UNL     1     -10.677   4.688  71.609  1.00  0.00    -0.048 OA 
HETATM   10  H   UNL     1     -10.630   3.752  71.454  1.00  0.00     0.000 HD 
HETATM   11  N   UNL     1      -9.411   5.233  69.037  1.00  0.00    -0.124 NA 
HETATM   12  C   UNL     1      -8.257   4.823  71.214  1.00  0.00    -0.102 C  
HETATM   13  H2  UNL     1      -9.479   5.821  68.205  1.00  0.00     0.000 HD 
HETATM   14  O   UNL     1      -7.006   4.955  71.902  1.00  0.00    -0.056 OA 
HETATM   15  C   UNL     1      -9.429   5.147  72.150  1.00  0.00    -0.140 C  
HETATM   16  H1  UNL     1      -9.293   4.249  68.797  1.00  0.00     0.000 HD 
HETATM   17  H   UNL     1      -6.973   4.419  72.686  1.00  0.00     0.000 HD 
BRANCH   7  18
HETATM   18  O   UNL     1      -8.587   7.797  69.041  1.00  0.00    -0.134 OA 
BRANCH  18  19
HETATM   19  C   UNL     1      -8.482   9.208  68.903  1.00  0.00    -0.129 C  
HETATM   20  O   UNL     1     -10.453   8.988  67.410  1.00  0.00    -0.249 OA 
HETATM   21  C   UNL     1      -8.785   9.684  70.329  1.00  0.00    -0.208 C  
HETATM   22  C   UNL     1     -10.325  10.808  69.041  1.00  0.00    -0.215 C  
HETATM   23  H   UNL     1     -11.111   9.423  66.881  1.00  0.00     0.000 HD 
HETATM   24  O   UNL     1     -10.125  10.205  70.320  1.00  0.00    -0.227 OA 
HETATM   25  C   UNL     1      -9.552   9.915  68.044  1.00  0.00    -0.138 C  
BRANCH  21  26
HETATM   26  C   UNL     1      -7.778  10.702  70.872  1.00  0.00     2.336 C  
HETATM   27  H   UNL     1      -6.360  10.799  72.261  1.00  0.00     0.000 HD 
HETATM   28  O   UNL     1      -6.985  10.168  71.924  1.00  0.00     0.646 OA 
ENDBRANCH  21  26
BRANCH  22  29
HETATM   29  O   UNL     1      -9.843  12.158  69.042  1.00  0.00     0.013 OA 
BRANCH  29  30
HETATM   30  C   UNL     1      -8.647  12.449  68.243  1.00  0.00    -0.172 C  
HETATM   31  C   UNL     1      -7.369  12.359  69.117  1.00  0.00     0.109 C  
HETATM   32  O   UNL     1      -6.865  11.006  69.066  1.00  0.00    -0.068 OA 
HETATM   33  C   UNL     1      -6.187  13.290  68.799  1.00  0.00    -0.090 C  
HETATM   34  C   UNL     1      -6.592  14.590  68.128  1.00  0.00    -0.140 C  
HETATM   35  N   UNL     1      -5.457  13.617  70.051  1.00  0.00    -0.100 NA 
HETATM   36  H   UNL     1      -6.082  10.950  69.601  1.00  0.00     0.000 HD 
HETATM   37  H1  UNL     1      -4.673  14.235  69.840  1.00  0.00     0.000 HD 
HETATM   38  H2  UNL     1      -5.161  12.780  70.553  1.00  0.00     0.000 HD 
HETATM   39  C   UNL     1      -7.457  14.302  66.903  1.00  0.00     0.550 C  
HETATM   40  C   UNL     1      -8.818  13.708  67.347  1.00  0.00    -0.221 C  
HETATM   41  N   UNL     1      -7.636  15.561  66.147  1.00  0.00     0.238 NA 
HETATM   42  H2  UNL     1      -6.748  16.001  65.904  1.00  0.00     0.000 HD 
HETATM   43  H1  UNL     1      -8.213  15.368  65.328  1.00  0.00     0.000 HD 
BRANCH  40  44
HETATM   44  O   UNL     1      -9.567  13.415  66.142  1.00  0.00    -0.268 OA 
BRANCH  44  45
HETATM   45  C   UNL     1     -10.663  12.511  66.303  1.00  0.00    -0.260 C  
HETATM   46  O   UNL     1     -11.584  12.968  67.295  1.00  0.00    -0.315 OA 
HETATM   47  C   UNL     1     -12.243  14.193  66.943  1.00  0.00    -0.365 C  
HETATM   48  C   UNL     1     -13.015  14.062  65.622  1.00  0.00    -0.297 C  
HETATM   49  H1  UNL     1     -10.911  11.667  62.976  1.00  0.00     0.000 HD 
HETATM   50  O   UNL     1     -13.636  15.294  65.230  1.00  0.00     0.712 OA 
HETATM   51  H2  UNL     1      -9.964  10.963  64.171  1.00  0.00     0.000 HD 
HETATM   52  C   UNL     1     -12.065  13.596  64.508  1.00  0.00    -0.419 C  
HETATM   53  H   UNL     1     -14.114  15.213  64.412  1.00  0.00     0.000 HD 
HETATM   54  O   UNL     1     -12.810  13.377  63.297  1.00  0.00    -0.508 OA 
HETATM   55  C   UNL     1     -11.366  12.292  64.934  1.00  0.00    -0.325 C  
HETATM   56  N   UNL     1     -10.449  11.810  63.873  1.00  0.00    -0.347 NA 
HETATM   57  H   UNL     1     -12.223  13.089  62.609  1.00  0.00     0.000 HD 
BRANCH  47  58
HETATM   58  C   UNL     1     -13.133  14.624  68.131  1.00  0.00     2.582 C  
HETATM   59  H1  UNL     1     -13.613  14.055  70.103  1.00  0.00     0.000 HD 
HETATM   60  N   UNL     1     -13.025  13.770  69.319  1.00  0.00     0.330 NA 
HETATM   61  H2  UNL     1     -12.051  13.696  69.615  1.00  0.00     0.000 HD 
ENDBRANCH  47  58
ENDBRANCH  44  45
ENDBRANCH  40  44
ENDBRANCH  29  30
ENDBRANCH  22  29
ENDBRANCH  18  19
ENDBRANCH   7  18
ENDBRANCH   2   5
TORSDOF 9
ENDMDL
MODEL      293
REMARK 921   NORMALIZED FREE ENERGY PREDICTED BY IDOCK:    7.26 KCAL/MOL
REMARK 922        TOTAL FREE ENERGY PREDICTED BY IDOCK:    8.27 KCAL/MOL
REMARK 923 INTER-LIGAND FREE ENERGY PREDICTED BY IDOCK:   -1.29 KCAL/MOL
REMARK 924 INTRA-LIGAND FREE ENERGY PREDICTED BY IDOCK:    9.56 KCAL/MOL
REMARK 927      BINDING AFFINITY PREDICTED BY RF-SCORE:    0.00 PKD
ROOT
HETATM    1  N   UNL     1     -11.013  16.889  64.374  1.00  0.00    -1.032 NA 
HETATM    2  C   UNL     1     -10.695  15.684  65.146  1.00  0.00    -0.443 C  
HETATM    3  H1  UNL     1     -11.789  16.797  63.718  1.00  0.00     0.000 HD 
HETATM    4  H2  UNL     1     -10.182  17.221  63.887  1.00  0.00     0.000 HD 
ENDROOT
BRANCH   2   5
HETATM    5  C   UNL     1      -9.515  15.824  66.143  1.00  0.00    -0.340 C  
HETATM    6  O   UNL     1      -9.443  14.752  67.119  1.00  0.00    -0.214 OA 
HETATM    7  C   UNL     1      -8.258  14.882  67.923  1.00  0.00    -0.144 C  
HETATM    8  C   UNL     1      -8.300  16.210  68.748  1.00  0.00    -0.231 C  
HETATM    9  O   UNL     1     -10.929  17.216  67.559  1.00  0.00    -0.253 OA 
HETATM   10  H   UNL     1     -11.026  18.050  68.004  1.00  0.00     0.000 HD 
HETATM   11  N   UNL     1      -9.379  16.145  69.788  1.00  0.00     0.038 NA 
HETATM   12  C   UNL     1      -8.496  17.413  67.826  1.00  0.00    -0.223 C  
HETATM   13  H2  UNL     1      -9.279  15.327  70.390  1.00  0.00     0.000 HD 
HETATM   14  O   UNL     1      -7.303  17.734  67.099  1.00  0.00    -0.179 OA 
HETATM   15  C   UNL     1      -9.672  17.185  66.867  1.00  0.00    -0.268 C  
HETATM   16  H1  UNL     1      -9.407  17.011  70.326  1.00  0.00     0.000 HD 
HETATM   17  H   UNL     1      -7.425  18.482  66.526  1.00  0.00     0.000 HD 
BRANCH   7  18
HETATM   18  O   UNL     1      -8.145  13.906  68.943  1.00  0.00    -0.086 OA 
BRANCH  18  19
HETATM   19  C   UNL     1      -8.288  12.526  68.636  1.00  0.00     0.021 C  
HETATM   20  O   UNL     1      -7.138  12.149  70.803  1.00  0.00     0.923 OA 
HETATM   21  C   UNL     1      -9.812  12.357  68.660  1.00  0.00    -0.077 C  
HETATM   22  C   UNL     1      -9.066  10.785  70.165  1.00  0.00     1.158 C  
HETATM   23  H   UNL     1      -6.830  11.526  71.450  1.00  0.00     0.000 HD 
HETATM   24  O   UNL     1     -10.139  11.686  69.888  1.00  0.00     0.740 OA 
HETATM   25  C   UNL     1      -7.788  11.512  69.688  1.00  0.00     0.643 C  
BRANCH  21  26
HETATM   26  C   UNL     1     -10.376  11.625  67.439  1.00  0.00    -0.205 C  
HETATM   27  H   UNL     1     -11.279   9.905  67.020  1.00  0.00     0.000 HD 
HETATM   28  O   UNL     1     -10.929  10.360  67.777  1.00  0.00    -0.273 OA 
ENDBRANCH  21  26
BRANCH  22  29
HETATM   29  O   UNL     1      -9.267   9.542  69.480  1.00  0.00    -0.165 OA 
BRANCH  29  30
HETATM   30  C   UNL     1      -9.152   8.309  70.269  1.00  0.00    -0.150 C  
HETATM   31  C   UNL     1     -10.028   8.391  71.546  1.00  0.00    -0.217 C  
HETATM   32  O   UNL     1     -11.342   7.873  71.243  1.00  0.00    -0.252 OA 
HETATM   33  C   UNL     1      -9.548   7.680  72.821  1.00  0.00    -0.198 C  
HETATM   34  C   UNL     1      -8.040   7.528  72.909  1.00  0.00    -0.134 C  
HETATM   35  N   UNL     1     -10.013   8.427  74.017  1.00  0.00     1.094 NA 
HETATM   36  H   UNL     1     -11.879   7.923  72.025  1.00  0.00     0.000 HD 
HETATM   37  H1  UNL     1      -9.694   7.955  74.863  1.00  0.00     0.000 HD 
HETATM   38  H2  UNL     1     -11.024   8.567  74.014  1.00  0.00     0.000 HD 
HETATM   39  C   UNL     1      -7.502   6.876  71.637  1.00  0.00    -0.085 C  
HETATM   40  C   UNL     1      -7.679   7.842  70.437  1.00  0.00    -0.088 C  
HETATM   41  N   UNL     1      -6.079   6.531  71.850  1.00  0.00    -0.038 NA 
HETATM   42  H2  UNL     1      -5.937   5.951  72.677  1.00  0.00     0.000 HD 
HETATM   43  H1  UNL     1      -5.721   6.096  71.000  1.00  0.00     0.000 HD 
BRANCH  40  44
HETATM   44  O   UNL     1      -7.195   7.148  69.260  1.00  0.00    -0.080 OA 
BRANCH  44  45
HETATM   45  C   UNL     1      -5.862   7.476  68.858  1.00  0.00    -0.023 C  
HETATM   46  O   UNL     1      -5.741   7.543  67.435  1.00  0.00    -0.032 OA 
HETATM   47  C   UNL     1      -6.512   8.598  66.843  1.00  0.00    -0.061 C  
HETATM   48  C   UNL     1      -6.117   9.972  67.405  1.00  0.00    -0.058 C  
HETATM   49  H1  UNL     1      -5.244   9.661  71.444  1.00  0.00     0.000 HD 
HETATM   50  O   UNL     1      -6.915  11.033  66.861  1.00  0.00    -0.108 OA 
HETATM   51  H2  UNL     1      -5.007   8.000  71.391  1.00  0.00     0.000 HD 
HETATM   52  C   UNL     1      -6.253   9.968  68.935  1.00  0.00    -0.044 C  
HETATM   53  H   UNL     1      -6.671  11.883  67.209  1.00  0.00     0.000 HD 
HETATM   54  O   UNL     1      -5.786  11.221  69.465  1.00  0.00    -0.052 OA 
HETATM   55  C   UNL     1      -5.427   8.810  69.526  1.00  0.00    -0.034 C  
HETATM   56  N   UNL     1      -5.529   8.786  71.005  1.00  0.00    -0.032 NA 
HETATM   57  H   UNL     1      -5.870  11.218  70.412  1.00  0.00     0.000 HD 
BRANCH  47  58
HETATM   58  C   UNL     1      -6.370   8.502  65.307  1.00  0.00    -0.052 C  
HETATM   59  H1  UNL     1      -5.745   7.160  63.806  1.00  0.00     0.000 HD 
HETATM   60  N   UNL     1      -5.839   7.223  64.821  1.00  0.00    -0.037 NA 
HETATM   61  H2  UNL     1      -6.402   6.449  65.174  1.00  0.00     0.000 HD 
ENDBRANCH  47  58
ENDBRANCH  44  45
ENDBRANCH  40  44
ENDBRANCH  29  30
ENDBRANCH  22  29
ENDBRANCH  18  19
ENDBRANCH   7  18
ENDBRANCH   2   5
TORSDOF 9
ENDMDL
MODEL      294
REMARK 921   NORMALIZED FREE ENERGY PREDICTED BY IDOCK:    7.56 KCAL/MOL
REMARK 922        TOTAL FREE ENERGY PREDICTED BY IDOCK:    8.72 KCAL/MOL
REMARK 923 INTER-LIGAND FREE ENERGY PREDICTED BY IDOCK:    0.86 KCAL/MOL
REMARK 924 INTRA-LIGAND FREE ENERGY PREDICTED BY IDOCK:    7.87 KCAL/MOL
REMARK 927      BINDING AFFINITY PREDICTED BY RF-SCORE:    0.00 PKD
ROOT
HETATM    1  N   UNL     1     -12.208  10.469  68.863  1.00  0.00    -0.773 NA 
HETATM    2  C   UNL     1     -12.734  11.832  68.979  1.00  0.00     1.020 C  
HETATM    3  H1  UNL     1     -12.707   9.760  69.400  1.00  0.00     0.000 HD 
HETATM    4  H2  UNL     1     -11.217  10.455  69.104  1.00  0.00     0.000 HD 
ENDROOT
BRANCH   2   5
HETATM    5  C   UNL     1     -11.974  12.910  68.163  1.00  0.00    -0.261 C  
HETATM    6  O   UNL     1     -10.802  12.404  67.472  1.00  0.00    -0.225 OA 
HETATM    7  C   UNL     1     -10.228  13.426  66.640  1.00  0.00    -0.274 C  
HETATM    8  C   UNL     1      -9.727  14.624  67.512  1.00  0.00    -0.210 C  
HETATM    9  O   UNL     1     -10.721  13.491  70.171  1.00  0.00    -0.035 OA 
HETATM   10  H   UNL     1     -10.467  14.182  70.773  1.00  0.00     0.000 HD 
HETATM   11  N   UNL     1      -8.554  14.206  68.350  1.00  0.00    -0.173 NA 
HETATM   12  C   UNL     1     -10.858  15.169  68.383  1.00  0.00    -0.255 C  
HETATM   13  H2  UNL     1      -7.804  13.809  67.784  1.00  0.00     0.000 HD 
HETATM   14  O   UNL     1     -11.803  15.932  67.621  1.00  0.00    -0.022 OA 
HETATM   15  C   UNL     1     -11.561  14.037  69.143  1.00  0.00    -0.313 C  
HETATM   16  H1  UNL     1      -8.228  14.986  68.919  1.00  0.00     0.000 HD 
HETATM   17  H   UNL     1     -12.507  16.271  68.162  1.00  0.00     0.000 HD 
BRANCH   7  18
HETATM   18  O   UNL     1      -9.040  13.030  65.977  1.00  0.00    -0.007 OA 
BRANCH  18  19
HETATM   19  C   UNL     1      -8.909  11.709  65.468  1.00  0.00     0.113 C  
HETATM   20  O   UNL     1      -8.835  11.032  67.855  1.00  0.00    -0.128 OA 
HETATM   21  C   UNL     1     -10.258  11.509  64.767  1.00  0.00    -0.281 C  
HETATM   22  C   UNL     1     -10.140   9.742  66.236  1.00  0.00    -0.243 C  
HETATM   23  H   UNL     1      -8.802  10.324  68.487  1.00  0.00     0.000 HD 
HETATM   24  O   UNL     1     -11.045  10.654  65.612  1.00  0.00     0.086 OA 
HETATM   25  C   UNL     1      -8.854  10.559  66.495  1.00  0.00    -0.144 C  
BRANCH  21  26
HETATM   26  C   UNL     1     -10.142  10.959  63.342  1.00  0.00    -0.340 C  
HETATM   27  H   UNL     1      -9.571   9.287  62.434  1.00  0.00     0.000 HD 
HETATM   28  O   UNL     1      -9.642   9.629  63.317  1.00  0.00     0.017 OA 
ENDBRANCH  21  26
BRANCH  22  29
HETATM   29  O   UNL     1      -9.901   8.613  65.385  1.00  0.00     0.198 OA 
BRANCH  29  30
HETATM   30  C   UNL     1      -9.782   7.298  66.026  1.00  0.00     0.230 C  
HETATM   31  C   UNL     1      -9.950   6.163  64.983  1.00  0.00     1.738 C  
HETATM   32  O   UNL     1      -8.652   5.828  64.445  1.00  0.00    -0.310 OA 
HETATM   33  C   UNL     1     -10.607   4.844  65.422  1.00  0.00     0.033 C  
HETATM   34  C   UNL     1     -11.573   4.995  66.584  1.00  0.00     2.524 C  
HETATM   35  N   UNL     1     -11.341   4.244  64.278  1.00  0.00    -0.608 NA 
HETATM   36  H   UNL     1      -8.755   5.133  63.806  1.00  0.00     0.000 HD 
HETATM   37  H1  UNL     1     -11.777   3.370  64.570  1.00  0.00     0.000 HD 
HETATM   38  H2  UNL     1     -10.744   4.121  63.461  1.00  0.00     0.000 HD 
HETATM   39  C   UNL     1     -10.894   5.726  67.741  1.00  0.00    -0.167 C  
HETATM   40  C   UNL     1     -10.608   7.196  67.339  1.00  0.00    -0.302 C  
HETATM   41  N   UNL     1     -11.774   5.649  68.927  1.00  0.00     1.210 NA 
HETATM   42  H2  UNL     1     -12.027   4.690  69.165  1.00  0.00     0.000 HD 
HETATM   43  H1  UNL     1     -11.319   6.137  69.699  1.00  0.00     0.000 HD 
BRANCH  40  44
HETATM   44  O   UNL     1      -9.925   7.815  68.457  1.00  0.00    -0.171 OA 
BRANCH  44  45
HETATM   45  C   UNL     1      -8.499   7.704  68.444  1.00  0.00    -0.125 C  
HETATM   46  O   UNL     1      -7.905   8.401  69.542  1.00  0.00    -0.097 OA 
HETATM   47  C   UNL     1      -8.248   7.852  70.822  1.00  0.00    -0.110 C  
HETATM   48  C   UNL     1      -7.835   6.377  70.935  1.00  0.00    -0.107 C  
HETATM   49  H1  UNL     1      -8.411   4.457  67.309  1.00  0.00     0.000 HD 
HETATM   50  O   UNL     1      -8.218   5.799  72.191  1.00  0.00    -0.111 OA 
HETATM   51  H2  UNL     1      -8.454   5.880  66.420  1.00  0.00     0.000 HD 
HETATM   52  C   UNL     1      -8.467   5.570  69.791  1.00  0.00    -0.105 C  
HETATM   53  H   UNL     1      -7.962   4.886  72.260  1.00  0.00     0.000 HD 
HETATM   54  O   UNL     1      -7.998   4.212  69.840  1.00  0.00    -0.055 OA 
HETATM   55  C   UNL     1      -8.091   6.204  68.439  1.00  0.00    -0.108 C  
HETATM   56  N   UNL     1      -8.679   5.440  67.312  1.00  0.00    -0.108 NA 
HETATM   57  H   UNL     1      -8.389   3.713  69.132  1.00  0.00     0.000 HD 
BRANCH  47  58
HETATM   58  C   UNL     1      -7.624   8.747  71.917  1.00  0.00    -0.003 C  
HETATM   59  H1  UNL     1      -5.807   9.692  72.415  1.00  0.00     0.000 HD 
HETATM   60  N   UNL     1      -6.218   9.101  71.692  1.00  0.00    -0.144 NA 
HETATM   61  H2  UNL     1      -6.105   9.533  70.774  1.00  0.00     0.000 HD 
ENDBRANCH  47  58
ENDBRANCH  44  45
ENDBRANCH  40  44
ENDBRANCH  29  30
ENDBRANCH  22  29
ENDBRANCH  18  19
ENDBRANCH   7  18
ENDBRANCH   2   5
TORSDOF 9
ENDMDL
MODEL      295
REMARK 921   NORMALIZED FREE ENERGY PREDICTED BY IDOCK:    7.64 KCAL/MOL
REMARK 922        TOTAL FREE ENERGY PREDICTED BY IDOCK:    8.84 KCAL/MOL
REMARK 923 INTER-LIGAND FREE ENERGY PREDICTED BY IDOCK:   -1.73 KCAL/MOL
REMARK 924 INTRA-LIGAND FREE ENERGY PREDICTED BY IDOCK:   10.57 KCAL/MOL
REMARK 927      BINDING AFFINITY PREDICTED BY RF-SCORE:    0.00 PKD
ROOT
HETATM    1  N   UNL     1      -7.453   6.982  66.955  1.00  0.00    -0.092 NA 
HETATM    2  C   UNL     1      -8.481   6.107  67.526  1.00  0.00    -0.108 C  
HETATM    3  H1  UNL     1      -6.646   6.507  66.555  1.00  0.00     0.000 HD 
HETATM    4  H2  UNL     1      -7.147   7.662  67.651  1.00  0.00     0.000 HD 
ENDROOT
BRANCH   2   5
HETATM    5  C   UNL     1      -9.709   6.831  68.137  1.00  0.00    -0.129 C  
HETATM    6  O   UNL     1      -9.846   8.212  67.710  1.00  0.00    -0.152 OA 
HETATM    7  C   UNL     1     -11.070   8.775  68.213  1.00  0.00     0.307 C  
HETATM    8  C   UNL     1     -11.054   8.809  69.777  1.00  0.00    -0.073 C  
HETATM    9  O   UNL     1      -8.353   7.412  70.078  1.00  0.00    -0.132 OA 
HETATM   10  H   UNL     1      -8.269   7.373  71.024  1.00  0.00     0.000 HD 
HETATM   11  N   UNL     1     -10.032   9.792  70.268  1.00  0.00    -0.273 NA 
HETATM   12  C   UNL     1     -10.794   7.415  70.345  1.00  0.00    -0.243 C  
HETATM   13  H2  UNL     1     -10.174  10.720  69.869  1.00  0.00     0.000 HD 
HETATM   14  O   UNL     1     -11.943   6.565  70.232  1.00  0.00    -0.500 OA 
HETATM   15  C   UNL     1      -9.573   6.768  69.679  1.00  0.00    -0.148 C  
HETATM   16  H1  UNL     1     -10.021   9.814  71.287  1.00  0.00     0.000 HD 
HETATM   17  H   UNL     1     -11.782   5.698  70.586  1.00  0.00     0.000 HD 
BRANCH   7  18
HETATM   18  O   UNL     1     -11.249  10.143  67.892  1.00  0.00    -0.282 OA 
BRANCH  18  19
HETATM   19  C   UNL     1     -10.124  10.985  67.681  1.00  0.00    -0.182 C  
HETATM   20  O   UNL     1     -10.773  10.883  65.288  1.00  0.00    -0.225 OA 
HETATM   21  C   UNL     1     -10.543  12.259  68.425  1.00  0.00    -0.235 C  
HETATM   22  C   UNL     1     -10.073  12.999  66.298  1.00  0.00    -0.282 C  
HETATM   23  H   UNL     1     -10.613  11.182  64.400  1.00  0.00     0.000 HD 
HETATM   24  O   UNL     1     -10.921  13.221  67.426  1.00  0.00    -0.263 OA 
HETATM   25  C   UNL     1      -9.864  11.469  66.239  1.00  0.00    -0.217 C  
BRANCH  21  26
HETATM   26  C   UNL     1      -9.473  12.806  69.372  1.00  0.00     1.175 C  
HETATM   27  H   UNL     1      -7.542  13.276  69.326  1.00  0.00     0.000 HD 
HETATM   28  O   UNL     1      -8.207  12.936  68.739  1.00  0.00    -0.035 OA 
ENDBRANCH  21  26
BRANCH  22  29
HETATM   29  O   UNL     1      -8.837  13.708  66.454  1.00  0.00    -0.059 OA 
BRANCH  29  30
HETATM   30  C   UNL     1      -8.913  15.149  66.721  1.00  0.00    -0.264 C  
HETATM   31  C   UNL     1     -10.278  15.721  66.257  1.00  0.00    -0.303 C  
HETATM   32  O   UNL     1     -11.214  15.641  67.355  1.00  0.00    -0.306 OA 
HETATM   33  C   UNL     1     -10.335  17.161  65.723  1.00  0.00    -0.240 C  
HETATM   34  C   UNL     1      -9.031  17.643  65.112  1.00  0.00     2.494 C  
HETATM   35  N   UNL     1     -11.403  17.273  64.696  1.00  0.00    -0.781 NA 
HETATM   36  H   UNL     1     -12.050  15.991  67.071  1.00  0.00     0.000 HD 
HETATM   37  H1  UNL     1     -11.440  18.229  64.342  1.00  0.00     0.000 HD 
HETATM   38  H2  UNL     1     -12.307  16.958  65.047  1.00  0.00     0.000 HD 
HETATM   39  C   UNL     1      -7.880  17.426  66.093  1.00  0.00    -0.258 C  
HETATM   40  C   UNL     1      -7.630  15.908  66.282  1.00  0.00     0.471 C  
HETATM   41  N   UNL     1      -6.679  18.112  65.567  1.00  0.00    -0.432 NA 
HETATM   42  H2  UNL     1      -6.847  19.099  65.372  1.00  0.00     0.000 HD 
HETATM   43  H1  UNL     1      -5.911  17.967  66.222  1.00  0.00     0.000 HD 
BRANCH  40  44
HETATM   44  O   UNL     1      -6.563  15.772  67.253  1.00  0.00    -0.180 OA 
BRANCH  44  45
HETATM   45  C   UNL     1      -6.487  16.811  68.233  1.00  0.00    -0.141 C  
HETATM   46  O   UNL     1      -7.627  17.672  68.178  1.00  0.00    -0.218 OA 
HETATM   47  C   UNL     1      -8.857  17.017  68.517  1.00  0.00    -0.253 C  
HETATM   48  C   UNL     1      -8.806  16.407  69.926  1.00  0.00     0.863 C  
HETATM   49  H1  UNL     1      -5.029  14.880  70.679  1.00  0.00     0.000 HD 
HETATM   50  O   UNL     1     -10.010  15.703  70.259  1.00  0.00    -0.255 OA 
HETATM   51  H2  UNL     1      -4.290  15.772  69.464  1.00  0.00     0.000 HD 
HETATM   52  C   UNL     1      -7.611  15.449  70.036  1.00  0.00     0.154 C  
HETATM   53  H   UNL     1      -9.979  15.326  71.131  1.00  0.00     0.000 HD 
HETATM   54  O   UNL     1      -7.506  14.959  71.384  1.00  0.00     1.055 OA 
HETATM   55  C   UNL     1      -6.316  16.187  69.646  1.00  0.00    -0.192 C  
HETATM   56  N   UNL     1      -5.141  15.290  69.752  1.00  0.00    -0.095 NA 
HETATM   57  H   UNL     1      -6.766  14.367  71.452  1.00  0.00     0.000 HD 
BRANCH  47  58
HETATM   58  C   UNL     1     -10.013  18.025  68.329  1.00  0.00    -0.371 C  
HETATM   59  H1  UNL     1     -10.352  20.054  67.868  1.00  0.00     0.000 HD 
HETATM   60  N   UNL     1      -9.588  19.388  67.992  1.00  0.00    -0.328 NA 
HETATM   61  H2  UNL     1      -8.988  19.378  67.166  1.00  0.00     0.000 HD 
ENDBRANCH  47  58
ENDBRANCH  44  45
ENDBRANCH  40  44
ENDBRANCH  29  30
ENDBRANCH  22  29
ENDBRANCH  18  19
ENDBRANCH   7  18
ENDBRANCH   2   5
TORSDOF 9
ENDMDL
MODEL      296
REMARK 921   NORMALIZED FREE ENERGY PREDICTED BY IDOCK:    8.06 KCAL/MOL
REMARK 922        TOTAL FREE ENERGY PREDICTED BY IDOCK:    9.48 KCAL/MOL
REMARK 923 INTER-LIGAND FREE ENERGY PREDICTED BY IDOCK:    4.30 KCAL/MOL
REMARK 924 INTRA-LIGAND FREE ENERGY PREDICTED BY IDOCK:    5.19 KCAL/MOL
REMARK 927      BINDING AFFINITY PREDICTED BY RF-SCORE:    0.00 PKD
ROOT
HETATM    1  N   UNL     1      -9.488  15.922  71.499  1.00  0.00     3.284 NA 
HETATM    2  C   UNL     1      -8.511  14.870  71.207  1.00  0.00     3.648 C  
HETATM    3  H1  UNL     1      -9.481  16.273  72.456  1.00  0.00     0.000 HD 
HETATM    4  H2  UNL     1     -10.425  15.607  71.250  1.00  0.00     0.000 HD 
ENDROOT
BRANCH   2   5
HETATM    5  C   UNL     1      -8.522  14.335  69.751  1.00  0.00     0.841 C  
HETATM    6  O   UNL     1      -7.472  13.373  69.473  1.00  0.00     0.255 OA 
HETATM    7  C   UNL     1      -7.623  12.830  68.149  1.00  0.00    -0.134 C  
HETATM    8  C   UNL     1      -7.467  13.957  67.076  1.00  0.00     0.324 C  
HETATM    9  O   UNL     1      -7.155  16.240  69.083  1.00  0.00    -0.191 OA 
HETATM   10  H   UNL     1      -7.070  16.987  68.501  1.00  0.00     0.000 HD 
HETATM   11  N   UNL     1      -6.054  14.461  67.048  1.00  0.00     0.017 NA 
HETATM   12  C   UNL     1      -8.452  15.095  67.340  1.00  0.00    -0.183 C  
HETATM   13  H2  UNL     1      -5.384  13.705  66.906  1.00  0.00     0.000 HD 
HETATM   14  O   UNL     1      -9.794  14.740  66.981  1.00  0.00    -0.232 OA 
HETATM   15  C   UNL     1      -8.384  15.553  68.803  1.00  0.00    -0.187 C  
HETATM   16  H1  UNL     1      -5.952  15.196  66.348  1.00  0.00     0.000 HD 
HETATM   17  H   UNL     1     -10.406  15.448  67.145  1.00  0.00     0.000 HD 
BRANCH   7  18
HETATM   18  O   UNL     1      -6.598  11.926  67.777  1.00  0.00    -0.069 OA 
BRANCH  18  19
HETATM   19  C   UNL     1      -6.907  10.568  67.494  1.00  0.00    -0.075 C  
HETATM   20  O   UNL     1      -8.313  11.496  65.671  1.00  0.00    -0.375 OA 
HETATM   21  C   UNL     1      -5.541  10.021  67.061  1.00  0.00    -0.046 C  
HETATM   22  C   UNL     1      -6.916   9.525  65.283  1.00  0.00    -0.091 C  
HETATM   23  H   UNL     1      -8.873  11.325  64.923  1.00  0.00     0.000 HD 
HETATM   24  O   UNL     1      -5.579   9.890  65.630  1.00  0.00    -0.051 OA 
HETATM   25  C   UNL     1      -7.818  10.289  66.279  1.00  0.00    -0.118 C  
BRANCH  21  26
HETATM   26  C   UNL     1      -5.150   8.710  67.747  1.00  0.00    -0.034 C  
HETATM   27  H   UNL     1      -5.215   7.901  69.561  1.00  0.00     0.000 HD 
HETATM   28  O   UNL     1      -5.458   8.715  69.135  1.00  0.00    -0.035 OA 
ENDBRANCH  21  26
BRANCH  22  29
HETATM   29  O   UNL     1      -7.088   8.105  65.378  1.00  0.00    -0.062 OA 
BRANCH  29  30
HETATM   30  C   UNL     1      -7.385   7.548  66.703  1.00  0.00    -0.091 C  
HETATM   31  C   UNL     1      -6.521   6.289  66.974  1.00  0.00    -0.050 C  
HETATM   32  O   UNL     1      -5.290   6.697  67.610  1.00  0.00    -0.007 OA 
HETATM   33  C   UNL     1      -7.112   5.155  67.827  1.00  0.00    -0.066 C  
HETATM   34  C   UNL     1      -8.627   5.074  67.779  1.00  0.00    -0.103 C  
HETATM   35  N   UNL     1      -6.560   3.850  67.379  1.00  0.00    -0.045 NA 
HETATM   36  H   UNL     1      -4.761   5.926  67.776  1.00  0.00     0.000 HD 
HETATM   37  H1  UNL     1      -6.952   3.098  67.945  1.00  0.00     0.000 HD 
HETATM   38  H2  UNL     1      -5.540   3.843  67.384  1.00  0.00     0.000 HD 
HETATM   39  C   UNL     1      -9.236   6.436  68.110  1.00  0.00    -0.111 C  
HETATM   40  C   UNL     1      -8.911   7.446  66.981  1.00  0.00    -0.128 C  
HETATM   41  N   UNL     1     -10.696   6.268  68.284  1.00  0.00    -0.259 NA 
HETATM   42  H2  UNL     1     -10.928   5.556  68.977  1.00  0.00     0.000 HD 
HETATM   43  H1  UNL     1     -11.102   7.177  68.505  1.00  0.00     0.000 HD 
BRANCH  40  44
HETATM   44  O   UNL     1      -9.474   8.721  67.378  1.00  0.00    -0.140 OA 
BRANCH  44  45
HETATM   45  C   UNL     1     -10.903   8.774  67.424  1.00  0.00    -0.017 C  
HETATM   46  O   UNL     1     -11.399   8.490  68.734  1.00  0.00     0.375 OA 
HETATM   47  C   UNL     1     -11.021   9.467  69.714  1.00  0.00    -0.223 C  
HETATM   48  C   UNL     1     -11.507  10.873  69.331  1.00  0.00    -0.302 C  
HETATM   49  H1  UNL     1     -11.226  11.407  65.231  1.00  0.00     0.000 HD 
HETATM   50  O   UNL     1     -11.091  11.869  70.275  1.00  0.00    -0.367 OA 
HETATM   51  H2  UNL     1     -11.152   9.763  64.897  1.00  0.00     0.000 HD 
HETATM   52  C   UNL     1     -10.980  11.244  67.936  1.00  0.00    -0.248 C  
HETATM   53  H   UNL     1     -11.392  12.739  70.038  1.00  0.00     0.000 HD 
HETATM   54  O   UNL     1     -11.519  12.516  67.538  1.00  0.00    -0.293 OA 
HETATM   55  C   UNL     1     -11.391  10.162  66.921  1.00  0.00     0.542 C  
HETATM   56  N   UNL     1     -10.905  10.497  65.561  1.00  0.00     0.035 NA 
HETATM   57  H   UNL     1     -11.193  12.745  66.676  1.00  0.00     0.000 HD 
BRANCH  47  58
HETATM   58  C   UNL     1     -11.537   8.997  71.093  1.00  0.00    -0.306 C  
HETATM   59  H1  UNL     1     -12.662   9.686  72.738  1.00  0.00     0.000 HD 
HETATM   60  N   UNL     1     -12.322   9.997  71.827  1.00  0.00    -0.384 NA 
HETATM   61  H2  UNL     1     -13.097  10.329  71.253  1.00  0.00     0.000 HD 
ENDBRANCH  47  58
ENDBRANCH  44  45
ENDBRANCH  40  44
ENDBRANCH  29  30
ENDBRANCH  22  29
ENDBRANCH  18  19
ENDBRANCH   7  18
ENDBRANCH   2   5
TORSDOF 9
ENDMDL
MODEL      297
REMARK 921   NORMALIZED FREE ENERGY PREDICTED BY IDOCK:    8.10 KCAL/MOL
REMARK 922        TOTAL FREE ENERGY PREDICTED BY IDOCK:    9.55 KCAL/MOL
REMARK 923 INTER-LIGAND FREE ENERGY PREDICTED BY IDOCK:    5.00 KCAL/MOL
REMARK 924 INTRA-LIGAND FREE ENERGY PREDICTED BY IDOCK:    4.55 KCAL/MOL
REMARK 927      BINDING AFFINITY PREDICTED BY RF-SCORE:    0.00 PKD
ROOT
HETATM    1  N   UNL     1      -6.427   5.901  66.871  1.00  0.00    -0.048 NA 
HETATM    2  C   UNL     1      -7.275   4.924  67.561  1.00  0.00    -0.070 C  
HETATM    3  H1  UNL     1      -5.704   5.507  66.272  1.00  0.00     0.000 HD 
HETATM    4  H2  UNL     1      -6.010   6.540  67.548  1.00  0.00     0.000 HD 
ENDROOT
BRANCH   2   5
HETATM    5  C   UNL     1      -8.376   5.524  68.474  1.00  0.00    -0.101 C  
HETATM    6  O   UNL     1      -8.921   6.778  67.987  1.00  0.00    -0.120 OA 
HETATM    7  C   UNL     1     -10.018   7.205  68.814  1.00  0.00    -0.163 C  
HETATM    8  C   UNL     1      -9.526   7.488  70.271  1.00  0.00    -0.165 C  
HETATM    9  O   UNL     1      -6.637   6.619  69.785  1.00  0.00    -0.045 OA 
HETATM   10  H   UNL     1      -6.258   6.745  70.648  1.00  0.00     0.000 HD 
HETATM   11  N   UNL     1      -8.629   8.690  70.296  1.00  0.00    -0.133 NA 
HETATM   12  C   UNL     1      -8.820   6.263  70.851  1.00  0.00    -0.136 C  
HETATM   13  H2  UNL     1      -9.077   9.508  69.880  1.00  0.00     0.000 HD 
HETATM   14  O   UNL     1      -9.746   5.229  71.211  1.00  0.00    -0.154 OA 
HETATM   15  C   UNL     1      -7.760   5.729  69.880  1.00  0.00    -0.087 C  
HETATM   16  H1  UNL     1      -8.308   8.875  71.246  1.00  0.00     0.000 HD 
HETATM   17  H   UNL     1      -9.307   4.467  71.572  1.00  0.00     0.000 HD 
BRANCH   7  18
HETATM   18  O   UNL     1     -10.567   8.456  68.441  1.00  0.00    -0.190 OA 
BRANCH  18  19
HETATM   19  C   UNL     1     -10.068   9.658  69.011  1.00  0.00    -0.186 C  
HETATM   20  O   UNL     1      -8.376   9.557  67.198  1.00  0.00    -0.128 OA 
HETATM   21  C   UNL     1     -11.234  10.625  68.772  1.00  0.00    -0.279 C  
HETATM   22  C   UNL     1      -9.441  11.679  67.787  1.00  0.00    -0.178 C  
HETATM   23  H   UNL     1      -7.643   9.973  66.760  1.00  0.00     0.000 HD 
HETATM   24  O   UNL     1     -10.851  11.479  67.681  1.00  0.00    -0.203 OA 
HETATM   25  C   UNL     1      -8.876  10.335  68.300  1.00  0.00    -0.126 C  
BRANCH  21  26
HETATM   26  C   UNL     1     -11.641  11.427  70.011  1.00  0.00    -0.299 C  
HETATM   27  H   UNL     1     -10.781  12.244  71.605  1.00  0.00     0.000 HD 
HETATM   28  O   UNL     1     -10.529  11.747  70.836  1.00  0.00     3.044 OA 
ENDBRANCH  21  26
BRANCH  22  29
HETATM   29  O   UNL     1      -9.155  12.762  68.681  1.00  0.00    -0.095 OA 
BRANCH  29  30
HETATM   30  C   UNL     1      -9.520  14.115  68.242  1.00  0.00    -0.211 C  
HETATM   31  C   UNL     1      -9.103  14.343  66.766  1.00  0.00    -0.257 C  
HETATM   32  O   UNL     1     -10.198  13.954  65.908  1.00  0.00    -0.297 OA 
HETATM   33  C   UNL     1      -8.669  15.752  66.329  1.00  0.00    -0.323 C  
HETATM   34  C   UNL     1      -8.086  16.592  67.451  1.00  0.00    -0.172 C  
HETATM   35  N   UNL     1      -7.657  15.651  65.246  1.00  0.00     3.779 NA 
HETATM   36  H   UNL     1      -9.942  14.094  65.003  1.00  0.00     0.000 HD 
HETATM   37  H1  UNL     1      -7.369  16.585  64.956  1.00  0.00     0.000 HD 
HETATM   38  H2  UNL     1      -7.990  15.091  64.461  1.00  0.00     0.000 HD 
HETATM   39  C   UNL     1      -9.043  16.616  68.641  1.00  0.00    -0.245 C  
HETATM   40  C   UNL     1      -9.127  15.206  69.278  1.00  0.00    -0.201 C  
HETATM   41  N   UNL     1      -8.560  17.622  69.612  1.00  0.00     0.762 NA 
HETATM   42  H2  UNL     1      -8.434  18.543  69.192  1.00  0.00     0.000 HD 
HETATM   43  H1  UNL     1      -9.199  17.638  70.407  1.00  0.00     0.000 HD 
BRANCH  40  44
HETATM   44  O   UNL     1     -10.082  15.288  70.365  1.00  0.00    -0.151 OA 
BRANCH  44  45
HETATM   45  C   UNL     1     -11.317  15.938  70.052  1.00  0.00    -0.358 C  
HETATM   46  O   UNL     1     -12.012  15.270  68.996  1.00  0.00    -0.323 OA 
HETATM   47  C   UNL     1     -12.439  13.944  69.340  1.00  0.00    -0.046 C  
HETATM   48  C   UNL     1     -13.358  13.946  70.570  1.00  0.00     0.259 C  
HETATM   49  H1  UNL     1     -12.089  16.801  73.292  1.00  0.00     0.000 HD 
HETATM   50  O   UNL     1     -13.752  12.622  70.959  1.00  0.00     0.568 OA 
HETATM   51  H2  UNL     1     -11.185  17.655  72.163  1.00  0.00     0.000 HD 
HETATM   52  C   UNL     1     -12.651  14.632  71.749  1.00  0.00    -0.340 C  
HETATM   53  H   UNL     1     -14.321  12.624  71.720  1.00  0.00     0.000 HD 
HETATM   54  O   UNL     1     -13.550  14.722  72.867  1.00  0.00    -0.463 OA 
HETATM   55  C   UNL     1     -12.193  16.041  71.331  1.00  0.00    -0.388 C  
HETATM   56  N   UNL     1     -11.514  16.733  72.452  1.00  0.00     0.032 NA 
HETATM   57  H   UNL     1     -13.112  15.146  73.596  1.00  0.00     0.000 HD 
BRANCH  47  58
HETATM   58  C   UNL     1     -13.088  13.304  68.093  1.00  0.00     2.950 C  
HETATM   59  H1  UNL     1     -13.522  13.733  66.075  1.00  0.00     0.000 HD 
HETATM   60  N   UNL     1     -13.092  14.156  66.898  1.00  0.00     0.289 NA 
HETATM   61  H2  UNL     1     -12.145  14.469  66.683  1.00  0.00     0.000 HD 
ENDBRANCH  47  58
ENDBRANCH  44  45
ENDBRANCH  40  44
ENDBRANCH  29  30
ENDBRANCH  22  29
ENDBRANCH  18  19
ENDBRANCH   7  18
ENDBRANCH   2   5
TORSDOF 9
ENDMDL
MODEL      298
REMARK 921   NORMALIZED FREE ENERGY PREDICTED BY IDOCK:    8.25 KCAL/MOL
REMARK 922        TOTAL FREE ENERGY PREDICTED BY IDOCK:    9.77 KCAL/MOL
REMARK 923 INTER-LIGAND FREE ENERGY PREDICTED BY IDOCK:   -7.80 KCAL/MOL
REMARK 924 INTRA-LIGAND FREE ENERGY PREDICTED BY IDOCK:   17.57 KCAL/MOL
REMARK 927      BINDING AFFINITY PREDICTED BY RF-SCORE:    0.00 PKD
ROOT
HETATM    1  N   UNL     1      -6.676  19.857  66.116  1.00  0.00    -0.216 NA 
HETATM    2  C   UNL     1      -6.808  19.859  67.576  1.00  0.00    -0.231 C  
HETATM    3  H1  UNL     1      -5.788  20.204  65.756  1.00  0.00     0.000 HD 
HETATM    4  H2  UNL     1      -7.448  20.373  65.695  1.00  0.00     0.000 HD 
ENDROOT
BRANCH   2   5
HETATM    5  C   UNL     1      -8.160  19.332  68.124  1.00  0.00    -0.314 C  
HETATM    6  O   UNL     1      -8.232  17.885  68.211  1.00  0.00    -0.272 OA 
HETATM    7  C   UNL     1      -9.459  17.480  68.843  1.00  0.00    -0.189 C  
HETATM    8  C   UNL     1     -10.688  17.918  67.981  1.00  0.00    -0.294 C  
HETATM    9  O   UNL     1      -9.054  19.386  65.856  1.00  0.00    -0.419 OA 
HETATM   10  H   UNL     1      -9.742  19.709  65.285  1.00  0.00     0.000 HD 
HETATM   11  N   UNL     1     -10.727  17.146  66.695  1.00  0.00    -0.159 NA 
HETATM   12  C   UNL     1     -10.655  19.423  67.718  1.00  0.00    -0.422 C  
HETATM   13  H2  UNL     1     -10.716  16.139  66.856  1.00  0.00     0.000 HD 
HETATM   14  O   UNL     1     -11.017  20.180  68.881  1.00  0.00    -0.092 OA 
HETATM   15  C   UNL     1      -9.281  19.859  67.193  1.00  0.00    -0.357 C  
HETATM   16  H1  UNL     1     -11.529  17.432  66.133  1.00  0.00     0.000 HD 
HETATM   17  H   UNL     1     -10.996  21.116  68.718  1.00  0.00     0.000 HD 
BRANCH   7  18
HETATM   18  O   UNL     1      -9.634  16.076  68.911  1.00  0.00    -0.212 OA 
BRANCH  18  19
HETATM   19  C   UNL     1      -9.047  15.230  67.932  1.00  0.00    -0.175 C  
HETATM   20  O   UNL     1      -7.190  14.999  69.562  1.00  0.00    -0.176 OA 
HETATM   21  C   UNL     1     -10.040  14.062  67.893  1.00  0.00    -0.237 C  
HETATM   22  C   UNL     1      -8.023  13.049  68.342  1.00  0.00    -0.135 C  
HETATM   23  H   UNL     1      -6.363  14.586  69.783  1.00  0.00     0.000 HD 
HETATM   24  O   UNL     1      -9.426  12.968  68.596  1.00  0.00    -0.134 OA 
HETATM   25  C   UNL     1      -7.704  14.560  68.291  1.00  0.00    -0.126 C  
BRANCH  21  26
HETATM   26  C   UNL     1     -10.475  13.662  66.480  1.00  0.00    -0.281 C  
HETATM   27  H   UNL     1     -10.473  14.431  64.648  1.00  0.00     0.000 HD 
HETATM   28  O   UNL     1     -10.203  14.679  65.524  1.00  0.00    -0.324 OA 
ENDBRANCH  21  26
BRANCH  22  29
HETATM   29  O   UNL     1      -7.699  12.386  67.112  1.00  0.00    -0.162 OA 
BRANCH  29  30
HETATM   30  C   UNL     1      -7.894  10.932  67.057  1.00  0.00    -0.132 C  
HETATM   31  C   UNL     1      -8.930  10.477  68.117  1.00  0.00    -0.138 C  
HETATM   32  O   UNL     1     -10.247  10.504  67.523  1.00  0.00    -0.187 OA 
HETATM   33  C   UNL     1      -8.762   9.096  68.772  1.00  0.00    -0.132 C  
HETATM   34  C   UNL     1      -7.326   8.606  68.813  1.00  0.00    -0.083 C  
HETATM   35  N   UNL     1      -9.283   9.134  70.163  1.00  0.00    -0.189 NA 
HETATM   36  H   UNL     1     -10.881  10.226  68.173  1.00  0.00     0.000 HD 
HETATM   37  H1  UNL     1      -9.171   8.218  70.597  1.00  0.00     0.000 HD 
HETATM   38  H2  UNL     1     -10.248   9.462  70.202  1.00  0.00     0.000 HD 
HETATM   39  C   UNL     1      -6.708   8.672  67.418  1.00  0.00    -0.063 C  
HETATM   40  C   UNL     1      -6.552  10.151  66.981  1.00  0.00    -0.074 C  
HETATM   41  N   UNL     1      -5.403   7.975  67.448  1.00  0.00    -0.032 NA 
HETATM   42  H2  UNL     1      -5.478   7.020  67.798  1.00  0.00     0.000 HD 
HETATM   43  H1  UNL     1      -4.991   8.020  66.516  1.00  0.00     0.000 HD 
BRANCH  40  44
HETATM   44  O   UNL     1      -6.007  10.142  65.639  1.00  0.00    -0.074 OA 
BRANCH  44  45
HETATM   45  C   UNL     1      -6.492   9.101  64.785  1.00  0.00    -0.071 C  
HETATM   46  O   UNL     1      -7.514   8.330  65.421  1.00  0.00    -0.080 OA 
HETATM   47  C   UNL     1      -8.704   9.079  65.703  1.00  0.00    -0.175 C  
HETATM   48  C   UNL     1      -9.309   9.684  64.427  1.00  0.00    -0.148 C  
HETATM   49  H1  UNL     1      -6.292  10.918  61.870  1.00  0.00     0.000 HD 
HETATM   50  O   UNL     1     -10.471  10.479  64.700  1.00  0.00    -0.311 OA 
HETATM   51  H2  UNL     1      -5.114   9.971  62.601  1.00  0.00     0.000 HD 
HETATM   52  C   UNL     1      -8.259  10.548  63.713  1.00  0.00    -0.068 C  
HETATM   53  H   UNL     1     -10.845  10.853  63.910  1.00  0.00     0.000 HD 
HETATM   54  O   UNL     1      -8.795  11.030  62.469  1.00  0.00    -0.285 OA 
HETATM   55  C   UNL     1      -6.993   9.713  63.447  1.00  0.00    -0.108 C  
HETATM   56  N   UNL     1      -5.963  10.517  62.748  1.00  0.00    -0.145 NA 
HETATM   57  H   UNL     1      -8.146  11.564  62.026  1.00  0.00     0.000 HD 
BRANCH  47  58
HETATM   58  C   UNL     1      -9.685   8.162  66.469  1.00  0.00    -0.239 C  
HETATM   59  H1  UNL     1     -10.015   7.369  68.394  1.00  0.00     0.000 HD 
HETATM   60  N   UNL     1      -9.367   7.975  67.889  1.00  0.00    -0.138 NA 
HETATM   61  H2  UNL     1      -9.290   8.879  68.356  1.00  0.00     0.000 HD 
ENDBRANCH  47  58
ENDBRANCH  44  45
ENDBRANCH  40  44
ENDBRANCH  29  30
ENDBRANCH  22  29
ENDBRANCH  18  19
ENDBRANCH   7  18
ENDBRANCH   2   5
TORSDOF 9
ENDMDL
MODEL      299
REMARK 921   NORMALIZED FREE ENERGY PREDICTED BY IDOCK:    8.42 KCAL/MOL
REMARK 922        TOTAL FREE ENERGY PREDICTED BY IDOCK:   10.03 KCAL/MOL
REMARK 923 INTER-LIGAND FREE ENERGY PREDICTED BY IDOCK:   -2.69 KCAL/MOL
REMARK 924 INTRA-LIGAND FREE ENERGY PREDICTED BY IDOCK:   12.72 KCAL/MOL
REMARK 927      BINDING AFFINITY PREDICTED BY RF-SCORE:    0.00 PKD
ROOT
HETATM    1  N   UNL     1     -11.002   6.978  68.579  1.00  0.00    -0.443 NA 
HETATM    2  C   UNL     1      -9.678   7.198  69.168  1.00  0.00    -0.158 C  
HETATM    3  H1  UNL     1     -11.694   6.562  69.201  1.00  0.00     0.000 HD 
HETATM    4  H2  UNL     1     -10.918   6.420  67.729  1.00  0.00     0.000 HD 
ENDROOT
BRANCH   2   5
HETATM    5  C   UNL     1      -8.624   7.829  68.220  1.00  0.00    -0.124 C  
HETATM    6  O   UNL     1      -8.406   9.246  68.449  1.00  0.00    -0.117 OA 
HETATM    7  C   UNL     1      -7.331   9.729  67.625  1.00  0.00    -0.090 C  
HETATM    8  C   UNL     1      -7.699   9.591  66.111  1.00  0.00    -0.101 C  
HETATM    9  O   UNL     1     -10.386   8.215  66.581  1.00  0.00    -0.363 OA 
HETATM   10  H   UNL     1     -10.680   8.073  65.688  1.00  0.00     0.000 HD 
HETATM   11  N   UNL     1      -8.813  10.530  65.755  1.00  0.00    -0.168 NA 
HETATM   12  C   UNL     1      -8.068   8.147  65.774  1.00  0.00    -0.115 C  
HETATM   13  H2  UNL     1      -8.592  11.494  66.006  1.00  0.00     0.000 HD 
HETATM   14  O   UNL     1      -6.916   7.295  65.720  1.00  0.00    -0.058 OA 
HETATM   15  C   UNL     1      -9.103   7.598  66.765  1.00  0.00    -0.151 C  
HETATM   16  H1  UNL     1      -9.053  10.440  64.768  1.00  0.00     0.000 HD 
HETATM   17  H   UNL     1      -7.145   6.397  65.511  1.00  0.00     0.000 HD 
BRANCH   7  18
HETATM   18  O   UNL     1      -7.096  11.121  67.743  1.00  0.00    -0.082 OA 
BRANCH  18  19
HETATM   19  C   UNL     1      -8.147  11.997  68.127  1.00  0.00    -0.160 C  
HETATM   20  O   UNL     1      -7.462  13.330  66.149  1.00  0.00     0.983 OA 
HETATM   21  C   UNL     1      -9.381  11.110  67.930  1.00  0.00    -0.161 C  
HETATM   22  C   UNL     1      -9.830  12.963  66.641  1.00  0.00    -0.250 C  
HETATM   23  H   UNL     1      -7.629  14.079  65.589  1.00  0.00     0.000 HD 
HETATM   24  O   UNL     1     -10.023  11.550  66.721  1.00  0.00    -0.202 OA 
HETATM   25  C   UNL     1      -8.419  13.215  67.218  1.00  0.00    -0.198 C  
BRANCH  21  26
HETATM   26  C   UNL     1     -10.343  11.108  69.121  1.00  0.00    -0.161 C  
HETATM   27  H   UNL     1     -12.158  10.435  69.569  1.00  0.00     0.000 HD 
HETATM   28  O   UNL     1     -11.561  10.436  68.830  1.00  0.00    -0.225 OA 
ENDBRANCH  21  26
BRANCH  22  29
HETATM   29  O   UNL     1     -10.847  13.649  67.383  1.00  0.00    -0.268 OA 
BRANCH  29  30
HETATM   30  C   UNL     1     -10.408  14.633  68.380  1.00  0.00    -0.237 C  
HETATM   31  C   UNL     1     -10.911  14.243  69.794  1.00  0.00     0.000 C  
HETATM   32  O   UNL     1      -9.916  13.410  70.428  1.00  0.00     1.987 OA 
HETATM   33  C   UNL     1     -11.262  15.361  70.790  1.00  0.00    -0.346 C  
HETATM   34  C   UNL     1     -11.694  16.658  70.131  1.00  0.00     0.531 C  
HETATM   35  N   UNL     1     -12.354  14.906  71.688  1.00  0.00    -0.322 NA 
HETATM   36  H   UNL     1     -10.224  13.171  71.295  1.00  0.00     0.000 HD 
HETATM   37  H1  UNL     1     -12.587  15.647  72.349  1.00  0.00     0.000 HD 
HETATM   38  H2  UNL     1     -12.125  14.031  72.159  1.00  0.00     0.000 HD 
HETATM   39  C   UNL     1     -10.655  17.096  69.101  1.00  0.00    -0.259 C  
HETATM   40  C   UNL     1     -10.637  16.098  67.914  1.00  0.00    -0.309 C  
HETATM   41  N   UNL     1     -10.985  18.466  68.652  1.00  0.00     0.001 NA 
HETATM   42  H2  UNL     1     -11.068  19.123  69.429  1.00  0.00     0.000 HD 
HETATM   43  H1  UNL     1     -10.291  18.758  67.965  1.00  0.00     0.000 HD 
BRANCH  40  44
HETATM   44  O   UNL     1      -9.603  16.544  67.002  1.00  0.00    -0.233 OA 
BRANCH  44  45
HETATM   45  C   UNL     1      -8.277  16.109  67.315  1.00  0.00    -0.177 C  
HETATM   46  O   UNL     1      -7.359  16.413  66.262  1.00  0.00    -0.139 OA 
HETATM   47  C   UNL     1      -7.181  17.820  66.046  1.00  0.00    -0.287 C  
HETATM   48  C   UNL     1      -6.681  18.528  67.314  1.00  0.00    -0.200 C  
HETATM   49  H1  UNL     1      -8.446  16.857  70.669  1.00  0.00     0.000 HD 
HETATM   50  O   UNL     1      -6.547  19.945  67.129  1.00  0.00    -0.202 OA 
HETATM   51  H2  UNL     1      -8.884  15.438  69.885  1.00  0.00     0.000 HD 
HETATM   52  C   UNL     1      -7.646  18.257  68.478  1.00  0.00    -0.300 C  
HETATM   53  H   UNL     1      -6.238  20.383  67.914  1.00  0.00     0.000 HD 
HETATM   54  O   UNL     1      -7.123  18.837  69.685  1.00  0.00    -0.083 OA 
HETATM   55  C   UNL     1      -7.824  16.739  68.661  1.00  0.00    -0.241 C  
HETATM   56  N   UNL     1      -8.744  16.444  69.786  1.00  0.00     0.407 NA 
HETATM   57  H   UNL     1      -7.720  18.668  70.405  1.00  0.00     0.000 HD 
BRANCH  47  58
HETATM   58  C   UNL     1      -6.246  18.010  64.831  1.00  0.00     0.485 C  
HETATM   59  H1  UNL     1      -4.540  19.098  64.236  1.00  0.00     0.000 HD 
HETATM   60  N   UNL     1      -5.157  18.972  65.039  1.00  0.00    -0.153 NA 
HETATM   61  H2  UNL     1      -4.616  18.720  65.867  1.00  0.00     0.000 HD 
ENDBRANCH  47  58
ENDBRANCH  44  45
ENDBRANCH  40  44
ENDBRANCH  29  30
ENDBRANCH  22  29
ENDBRANCH  18  19
ENDBRANCH   7  18
ENDBRANCH   2   5
TORSDOF 9
ENDMDL
MODEL      300
REMARK 921   NORMALIZED FREE ENERGY PREDICTED BY IDOCK:    8.44 KCAL/MOL
REMARK 922        TOTAL FREE ENERGY PREDICTED BY IDOCK:   10.07 KCAL/MOL
REMARK 923 INTER-LIGAND FREE ENERGY PREDICTED BY IDOCK:   -5.11 KCAL/MOL
REMARK 924 INTRA-LIGAND FREE ENERGY PREDICTED BY IDOCK:   15.17 KCAL/MOL
REMARK 927      BINDING AFFINITY PREDICTED BY RF-SCORE:    0.00 PKD
ROOT
HETATM    1  N   UNL     1     -12.253  12.984  70.665  1.00  0.00    -0.448 NA 
HETATM    2  C   UNL     1     -11.923  13.835  69.518  1.00  0.00    -0.345 C  
HETATM    3  H1  UNL     1     -12.241  13.447  71.573  1.00  0.00     0.000 HD 
HETATM    4  H2  UNL     1     -11.641  12.168  70.682  1.00  0.00     0.000 HD 
ENDROOT
BRANCH   2   5
HETATM    5  C   UNL     1     -11.940  13.129  68.137  1.00  0.00    -0.294 C  
HETATM    6  O   UNL     1     -11.065  11.974  68.059  1.00  0.00    -0.213 OA 
HETATM    7  C   UNL     1     -11.230  11.302  66.798  1.00  0.00    -0.195 C  
HETATM    8  C   UNL     1     -10.809  12.239  65.620  1.00  0.00    -0.285 C  
HETATM    9  O   UNL     1     -10.215  14.672  67.371  1.00  0.00    -0.239 OA 
HETATM   10  H   UNL     1      -9.962  15.314  66.717  1.00  0.00     0.000 HD 
HETATM   11  N   UNL     1      -9.329  12.487  65.652  1.00  0.00    -0.449 NA 
HETATM   12  C   UNL     1     -11.587  13.553  65.669  1.00  0.00    -0.325 C  
HETATM   13  H2  UNL     1      -8.798  11.616  65.653  1.00  0.00     0.000 HD 
HETATM   14  O   UNL     1     -12.946  13.390  65.244  1.00  0.00    -0.681 OA 
HETATM   15  C   UNL     1     -11.528  14.175  67.071  1.00  0.00    -0.352 C  
HETATM   16  H1  UNL     1      -9.054  13.098  64.883  1.00  0.00     0.000 HD 
HETATM   17  H   UNL     1     -13.430  14.207  65.274  1.00  0.00     0.000 HD 
BRANCH   7  18
HETATM   18  O   UNL     1     -10.363  10.196  66.618  1.00  0.00    -0.225 OA 
BRANCH  18  19
HETATM   19  C   UNL     1     -10.624   8.964  67.278  1.00  0.00    -0.234 C  
HETATM   20  O   UNL     1      -8.325   8.352  66.570  1.00  0.00    -0.106 OA 
HETATM   21  C   UNL     1     -10.767   9.415  68.736  1.00  0.00    -0.171 C  
HETATM   22  C   UNL     1      -9.118   7.813  68.821  1.00  0.00    -0.140 C  
HETATM   23  H   UNL     1      -7.619   7.717  66.598  1.00  0.00     0.000 HD 
HETATM   24  O   UNL     1      -9.556   9.037  69.411  1.00  0.00    -0.156 OA 
HETATM   25  C   UNL     1      -9.478   7.931  67.322  1.00  0.00    -0.149 C  
BRANCH  21  26
HETATM   26  C   UNL     1     -12.011   8.864  69.438  1.00  0.00     1.277 C  
HETATM   27  H   UNL     1     -12.536   8.204  71.237  1.00  0.00     0.000 HD 
HETATM   28  O   UNL     1     -11.765   8.546  70.801  1.00  0.00    -0.277 OA 
ENDBRANCH  21  26
BRANCH  22  29
HETATM   29  O   UNL     1      -9.766   6.697  69.445  1.00  0.00    -0.148 OA 
BRANCH  29  30
HETATM   30  C   UNL     1      -9.273   6.280  70.764  1.00  0.00    -0.154 C  
HETATM   31  C   UNL     1     -10.390   6.407  71.832  1.00  0.00    -0.202 C  
HETATM   32  O   UNL     1     -11.115   5.160  71.898  1.00  0.00    -0.115 OA 
HETATM   33  C   UNL     1      -9.999   6.776  73.272  1.00  0.00    -0.203 C  
HETATM   34  C   UNL     1      -8.716   7.582  73.374  1.00  0.00    -0.229 C  
HETATM   35  N   UNL     1     -11.093   7.556  73.905  1.00  0.00    -0.327 NA 
HETATM   36  H   UNL     1     -11.799   5.238  72.553  1.00  0.00     0.000 HD 
HETATM   37  H1  UNL     1     -10.833   7.801  74.861  1.00  0.00     0.000 HD 
HETATM   38  H2  UNL     1     -11.987   7.067  73.864  1.00  0.00     0.000 HD 
HETATM   39  C   UNL     1      -7.590   6.874  72.623  1.00  0.00    -0.090 C  
HETATM   40  C   UNL     1      -7.883   6.887  71.101  1.00  0.00    -0.100 C  
HETATM   41  N   UNL     1      -6.315   7.556  72.936  1.00  0.00    -0.058 NA 
HETATM   42  H2  UNL     1      -6.140   7.616  73.939  1.00  0.00     0.000 HD 
HETATM   43  H1  UNL     1      -5.563   7.083  72.435  1.00  0.00     0.000 HD 
BRANCH  40  44
HETATM   44  O   UNL     1      -6.806   6.163  70.456  1.00  0.00    -0.051 OA 
BRANCH  44  45
HETATM   45  C   UNL     1      -6.719   4.773  70.779  1.00  0.00    -0.036 C  
HETATM   46  O   UNL     1      -7.842   4.339  71.551  1.00  0.00    -0.076 OA 
HETATM   47  C   UNL     1      -9.087   4.415  70.843  1.00  0.00    -0.129 C  
HETATM   48  C   UNL     1      -9.060   3.578  69.556  1.00  0.00    -0.133 C  
HETATM   49  H1  UNL     1      -5.320   3.805  67.788  1.00  0.00     0.000 HD 
HETATM   50  O   UNL     1     -10.281   3.685  68.811  1.00  0.00     0.418 OA 
HETATM   51  H2  UNL     1      -4.553   4.328  69.187  1.00  0.00     0.000 HD 
HETATM   52  C   UNL     1      -7.884   4.019  68.672  1.00  0.00    -0.068 C  
HETATM   53  H   UNL     1     -10.264   3.167  68.014  1.00  0.00     0.000 HD 
HETATM   54  O   UNL     1      -7.801   3.167  67.517  1.00  0.00    -0.075 OA 
HETATM   55  C   UNL     1      -6.573   3.941  69.475  1.00  0.00    -0.034 C  
HETATM   56  N   UNL     1      -5.416   4.351  68.644  1.00  0.00    -0.012 NA 
HETATM   57  H   UNL     1      -7.074   3.440  66.970  1.00  0.00     0.000 HD 
BRANCH  47  58
HETATM   58  C   UNL     1     -10.222   4.012  71.812  1.00  0.00    -0.065 C  
HETATM   59  H1  UNL     1     -11.493   2.388  72.252  1.00  0.00     0.000 HD 
HETATM   60  N   UNL     1     -10.744   2.655  71.613  1.00  0.00     0.785 NA 
HETATM   61  H2  UNL     1      -9.985   1.974  71.653  1.00  0.00     0.000 HD 
ENDBRANCH  47  58
ENDBRANCH  44  45
ENDBRANCH  40  44
ENDBRANCH  29  30
ENDBRANCH  22  29
ENDBRANCH  18  19
ENDBRANCH   7  18
ENDBRANCH   2   5
TORSDOF 9
ENDMDL
MODEL      301
REMARK 921   NORMALIZED FREE ENERGY PREDICTED BY IDOCK:    8.62 KCAL/MOL
REMARK 922        TOTAL FREE ENERGY PREDICTED BY IDOCK:   10.35 KCAL/MOL
REMARK 923 INTER-LIGAND FREE ENERGY PREDICTED BY IDOCK:    2.10 KCAL/MOL
REMARK 924 INTRA-LIGAND FREE ENERGY PREDICTED BY IDOCK:    8.25 KCAL/MOL
REMARK 927      BINDING AFFINITY PREDICTED BY RF-SCORE:    0.00 PKD
ROOT
HETATM    1  N   UNL     1      -9.491  11.494  70.866  1.00  0.00     4.670 NA 
HETATM    2  C   UNL     1     -10.510  10.545  70.410  1.00  0.00     0.198 C  
HETATM    3  H1  UNL     1      -9.284  11.469  71.864  1.00  0.00     0.000 HD 
HETATM    4  H2  UNL     1      -9.745  12.441  70.586  1.00  0.00     0.000 HD 
ENDROOT
BRANCH   2   5
HETATM    5  C   UNL     1     -10.825  10.583  68.891  1.00  0.00    -0.235 C  
HETATM    6  O   UNL     1     -10.502   9.351  68.195  1.00  0.00    -0.204 OA 
HETATM    7  C   UNL     1     -10.937   9.418  66.826  1.00  0.00     0.233 C  
HETATM    8  C   UNL     1     -10.176  10.553  66.065  1.00  0.00    -0.245 C  
HETATM    9  O   UNL     1      -8.625  11.556  68.500  1.00  0.00    -0.152 OA 
HETATM   10  H   UNL     1      -8.135  12.278  68.122  1.00  0.00     0.000 HD 
HETATM   11  N   UNL     1      -8.725  10.201  65.916  1.00  0.00    -0.141 NA 
HETATM   12  C   UNL     1     -10.346  11.892  66.781  1.00  0.00    -0.209 C  
HETATM   13  H2  UNL     1      -8.598   9.293  65.469  1.00  0.00     0.000 HD 
HETATM   14  O   UNL     1     -11.656  12.442  66.588  1.00  0.00    -0.354 OA 
HETATM   15  C   UNL     1     -10.028  11.761  68.276  1.00  0.00    -0.200 C  
HETATM   16  H1  UNL     1      -8.229  10.941  65.420  1.00  0.00     0.000 HD 
HETATM   17  H   UNL     1     -11.762  13.275  67.033  1.00  0.00     0.000 HD 
BRANCH   7  18
HETATM   18  O   UNL     1     -10.602   8.275  66.059  1.00  0.00     0.610 OA 
BRANCH  18  19
HETATM   19  C   UNL     1      -9.817   7.234  66.626  1.00  0.00    -0.187 C  
HETATM   20  O   UNL     1     -10.658   8.084  68.801  1.00  0.00    -0.298 OA 
HETATM   21  C   UNL     1     -10.523   5.983  66.089  1.00  0.00     0.163 C  
HETATM   22  C   UNL     1     -10.534   5.679  68.370  1.00  0.00    -0.195 C  
HETATM   23  H   UNL     1     -10.695   7.977  69.744  1.00  0.00     0.000 HD 
HETATM   24  O   UNL     1     -11.282   5.432  67.178  1.00  0.00     0.249 OA 
HETATM   25  C   UNL     1      -9.875   7.061  68.159  1.00  0.00    -0.139 C  
BRANCH  21  26
HETATM   26  C   UNL     1      -9.575   4.952  65.471  1.00  0.00    -0.132 C  
HETATM   27  H   UNL     1      -9.666   3.399  64.234  1.00  0.00     0.000 HD 
HETATM   28  O   UNL     1     -10.253   4.039  64.618  1.00  0.00    -0.215 OA 
ENDBRANCH  21  26
BRANCH  22  29
HETATM   29  O   UNL     1      -9.564   4.644  68.575  1.00  0.00    -0.145 OA 
BRANCH  29  30
HETATM   30  C   UNL     1      -8.277   5.032  69.164  1.00  0.00    -0.083 C  
HETATM   31  C   UNL     1      -8.221   4.644  70.665  1.00  0.00    -0.083 C  
HETATM   32  O   UNL     1      -7.679   3.310  70.781  1.00  0.00    -0.040 OA 
HETATM   33  C   UNL     1      -7.427   5.537  71.632  1.00  0.00    -0.093 C  
HETATM   34  C   UNL     1      -7.326   6.985  71.189  1.00  0.00    -0.076 C  
HETATM   35  N   UNL     1      -8.056   5.502  72.977  1.00  0.00    -0.111 NA 
HETATM   36  H   UNL     1      -7.645   3.072  71.700  1.00  0.00     0.000 HD 
HETATM   37  H1  UNL     1      -7.528   6.095  73.618  1.00  0.00     0.000 HD 
HETATM   38  H2  UNL     1      -8.156   4.550  73.329  1.00  0.00     0.000 HD 
HETATM   39  C   UNL     1      -6.802   7.061  69.756  1.00  0.00    -0.050 C  
HETATM   40  C   UNL     1      -7.854   6.477  68.779  1.00  0.00    -0.110 C  
HETATM   41  N   UNL     1      -6.495   8.474  69.441  1.00  0.00    -0.037 NA 
HETATM   42  H2  UNL     1      -5.855   8.895  70.115  1.00  0.00     0.000 HD 
HETATM   43  H1  UNL     1      -6.145   8.524  68.485  1.00  0.00     0.000 HD 
BRANCH  40  44
HETATM   44  O   UNL     1      -7.278   6.535  67.451  1.00  0.00    -0.081 OA 
BRANCH  44  45
HETATM   45  C   UNL     1      -5.850   6.485  67.397  1.00  0.00    -0.017 C  
HETATM   46  O   UNL     1      -5.356   5.176  67.694  1.00  0.00    -0.010 OA 
HETATM   47  C   UNL     1      -5.738   4.187  66.727  1.00  0.00    -0.022 C  
HETATM   48  C   UNL     1      -5.253   4.555  65.317  1.00  0.00    -0.009 C  
HETATM   49  H1  UNL     1      -5.523   8.649  64.742  1.00  0.00     0.000 HD 
HETATM   50  O   UNL     1      -5.672   3.601  64.331  1.00  0.00    -0.013 OA 
HETATM   51  H2  UNL     1      -5.594   9.000  66.382  1.00  0.00     0.000 HD 
HETATM   52  C   UNL     1      -5.776   5.947  64.933  1.00  0.00    -0.024 C  
HETATM   53  H   UNL     1      -5.371   3.829  63.459  1.00  0.00     0.000 HD 
HETATM   54  O   UNL     1      -5.237   6.330  63.656  1.00  0.00    -0.017 OA 
HETATM   55  C   UNL     1      -5.361   6.972  66.004  1.00  0.00    -0.023 C  
HETATM   56  N   UNL     1      -5.844   8.329  65.655  1.00  0.00    -0.044 NA 
HETATM   57  H   UNL     1      -5.560   7.191  63.418  1.00  0.00     0.000 HD 
BRANCH  47  58
HETATM   58  C   UNL     1      -5.226   2.812  67.211  1.00  0.00    -0.009 C  
HETATM   59  H1  UNL     1      -5.795   1.197  68.442  1.00  0.00     0.000 HD 
HETATM   60  N   UNL     1      -6.134   2.105  68.122  1.00  0.00    -0.024 NA 
HETATM   61  H2  UNL     1      -7.057   2.010  67.699  1.00  0.00     0.000 HD 
ENDBRANCH  47  58
ENDBRANCH  44  45
ENDBRANCH  40  44
ENDBRANCH  29  30
ENDBRANCH  22  29
ENDBRANCH  18  19
ENDBRANCH   7  18
ENDBRANCH   2   5
TORSDOF 9
ENDMDL
MODEL      302
REMARK 921   NORMALIZED FREE ENERGY PREDICTED BY IDOCK:    8.76 KCAL/MOL
REMARK 922        TOTAL FREE ENERGY PREDICTED BY IDOCK:   10.55 KCAL/MOL
REMARK 923 INTER-LIGAND FREE ENERGY PREDICTED BY IDOCK:    5.09 KCAL/MOL
REMARK 924 INTRA-LIGAND FREE ENERGY PREDICTED BY IDOCK:    5.46 KCAL/MOL
REMARK 927      BINDING AFFINITY PREDICTED BY RF-SCORE:    0.00 PKD
ROOT
HETATM    1  N   UNL     1     -11.048   9.084  68.188  1.00  0.00    -0.470 NA 
HETATM    2  C   UNL     1      -9.804   8.364  67.901  1.00  0.00    -0.170 C  
HETATM    3  H1  UNL     1     -11.888   8.508  68.231  1.00  0.00     0.000 HD 
HETATM    4  H2  UNL     1     -11.177   9.839  67.515  1.00  0.00     0.000 HD 
ENDROOT
BRANCH   2   5
HETATM    5  C   UNL     1      -8.526   9.241  67.835  1.00  0.00    -0.117 C  
HETATM    6  O   UNL     1      -8.707  10.484  67.108  1.00  0.00    -0.130 OA 
HETATM    7  C   UNL     1      -7.523  11.296  67.198  1.00  0.00    -0.130 C  
HETATM    8  C   UNL     1      -6.313  10.575  66.520  1.00  0.00    -0.094 C  
HETATM    9  O   UNL     1      -7.833   8.010  65.848  1.00  0.00    -0.091 OA 
HETATM   10  H   UNL     1      -7.149   7.493  65.437  1.00  0.00     0.000 HD 
HETATM   11  N   UNL     1      -6.521  10.488  65.036  1.00  0.00    -0.307 NA 
HETATM   12  C   UNL     1      -6.099   9.189  67.127  1.00  0.00    -0.057 C  
HETATM   13  H2  UNL     1      -6.698  11.404  64.623  1.00  0.00     0.000 HD 
HETATM   14  O   UNL     1      -5.511   9.259  68.432  1.00  0.00    -0.037 OA 
HETATM   15  C   UNL     1      -7.412   8.397  67.165  1.00  0.00    -0.089 C  
HETATM   16  H1  UNL     1      -5.732  10.018  64.593  1.00  0.00     0.000 HD 
HETATM   17  H   UNL     1      -5.377   8.397  68.810  1.00  0.00     0.000 HD 
BRANCH   7  18
HETATM   18  O   UNL     1      -7.596  12.504  66.462  1.00  0.00     0.244 OA 
BRANCH  18  19
HETATM   19  C   UNL     1      -7.999  13.709  67.097  1.00  0.00    -0.041 C  
HETATM   20  O   UNL     1      -8.866  12.220  68.883  1.00  0.00    -0.377 OA 
HETATM   21  C   UNL     1      -6.649  14.375  67.391  1.00  0.00     0.071 C  
HETATM   22  C   UNL     1      -7.668  14.276  69.452  1.00  0.00     0.126 C  
HETATM   23  H   UNL     1      -9.273  12.145  69.739  1.00  0.00     0.000 HD 
HETATM   24  O   UNL     1      -6.400  14.211  68.797  1.00  0.00    -0.081 OA 
HETATM   25  C   UNL     1      -8.660  13.588  68.487  1.00  0.00    -0.088 C  
BRANCH  21  26
HETATM   26  C   UNL     1      -6.573  15.843  66.962  1.00  0.00     0.007 C  
HETATM   27  H   UNL     1      -7.745  17.212  66.126  1.00  0.00     0.000 HD 
HETATM   28  O   UNL     1      -7.792  16.302  66.392  1.00  0.00    -0.278 OA 
ENDBRANCH  21  26
BRANCH  22  29
HETATM   29  O   UNL     1      -8.026  15.638  69.715  1.00  0.00    -0.162 OA 
BRANCH  29  30
HETATM   30  C   UNL     1      -9.226  16.162  69.051  1.00  0.00    -0.252 C  
HETATM   31  C   UNL     1      -9.070  17.675  68.750  1.00  0.00    -0.206 C  
HETATM   32  O   UNL     1      -8.484  17.831  67.438  1.00  0.00    -0.222 OA 
HETATM   33  C   UNL     1     -10.318  18.571  68.793  1.00  0.00    -0.170 C  
HETATM   34  C   UNL     1     -11.411  18.061  69.715  1.00  0.00     2.813 C  
HETATM   35  N   UNL     1      -9.938  19.939  69.230  1.00  0.00    -0.431 NA 
HETATM   36  H   UNL     1      -8.389  18.758  67.254  1.00  0.00     0.000 HD 
HETATM   37  H1  UNL     1     -10.767  20.534  69.259  1.00  0.00     0.000 HD 
HETATM   38  H2  UNL     1      -9.200  20.337  68.649  1.00  0.00     0.000 HD 
HETATM   39  C   UNL     1     -11.743  16.608  69.381  1.00  0.00     0.422 C  
HETATM   40  C   UNL     1     -10.541  15.697  69.738  1.00  0.00    -0.304 C  
HETATM   41  N   UNL     1     -12.959  16.220  70.130  1.00  0.00    -0.151 NA 
HETATM   42  H2  UNL     1     -13.742  16.850  69.959  1.00  0.00     0.000 HD 
HETATM   43  H1  UNL     1     -13.180  15.249  69.907  1.00  0.00     0.000 HD 
BRANCH  40  44
HETATM   44  O   UNL     1     -10.903  14.347  69.355  1.00  0.00    -0.247 OA 
BRANCH  44  45
HETATM   45  C   UNL     1     -10.734  13.354  70.370  1.00  0.00     1.701 C  
HETATM   46  O   UNL     1     -10.732  13.931  71.679  1.00  0.00     2.797 OA 
HETATM   47  C   UNL     1     -11.983  14.533  72.040  1.00  0.00    -0.131 C  
HETATM   48  C   UNL     1     -13.137  13.522  71.983  1.00  0.00    -0.387 C  
HETATM   49  H1  UNL     1     -12.598  10.926  68.798  1.00  0.00     0.000 HD 
HETATM   50  O   UNL     1     -14.403  14.122  72.291  1.00  0.00    -0.525 OA 
HETATM   51  H2  UNL     1     -10.959  11.258  68.644  1.00  0.00     0.000 HD 
HETATM   52  C   UNL     1     -13.204  12.886  70.586  1.00  0.00     0.452 C  
HETATM   53  H   UNL     1     -15.117  13.496  72.256  1.00  0.00     0.000 HD 
HETATM   54  O   UNL     1     -14.219  11.868  70.566  1.00  0.00     3.459 OA 
HETATM   55  C   UNL     1     -11.838  12.270  70.230  1.00  0.00    -0.240 C  
HETATM   56  N   UNL     1     -11.873  11.638  68.890  1.00  0.00    -0.325 NA 
HETATM   57  H   UNL     1     -14.260  11.475  69.702  1.00  0.00     0.000 HD 
BRANCH  47  58
HETATM   58  C   UNL     1     -11.820  15.196  73.427  1.00  0.00    -0.301 C  
HETATM   59  H1  UNL     1     -11.813  17.098  74.337  1.00  0.00     0.000 HD 
HETATM   60  N   UNL     1     -11.921  16.660  73.421  1.00  0.00    -0.395 NA 
HETATM   61  H2  UNL     1     -12.798  16.953  72.990  1.00  0.00     0.000 HD 
ENDBRANCH  47  58
ENDBRANCH  44  45
ENDBRANCH  40  44
ENDBRANCH  29  30
ENDBRANCH  22  29
ENDBRANCH  18  19
ENDBRANCH   7  18
ENDBRANCH   2   5
TORSDOF 9
ENDMDL
MODEL      303
REMARK 921   NORMALIZED FREE ENERGY PREDICTED BY IDOCK:    9.36 KCAL/MOL
REMARK 922        TOTAL FREE ENERGY PREDICTED BY IDOCK:   11.47 KCAL/MOL
REMARK 923 INTER-LIGAND FREE ENERGY PREDICTED BY IDOCK:   -3.10 KCAL/MOL
REMARK 924 INTRA-LIGAND FREE ENERGY PREDICTED BY IDOCK:   14.58 KCAL/MOL
REMARK 927      BINDING AFFINITY PREDICTED BY RF-SCORE:    0.00 PKD
ROOT
HETATM    1  N   UNL     1     -13.262   6.731  70.687  1.00  0.00    -0.121 NA 
HETATM    2  C   UNL     1     -12.359   7.026  69.571  1.00  0.00     1.236 C  
HETATM    3  H1  UNL     1     -14.050   7.368  70.793  1.00  0.00     0.000 HD 
HETATM    4  H2  UNL     1     -12.735   6.680  71.558  1.00  0.00     0.000 HD 
ENDROOT
BRANCH   2   5
HETATM    5  C   UNL     1     -11.159   6.056  69.409  1.00  0.00    -0.375 C  
HETATM    6  O   UNL     1      -9.944   6.517  70.055  1.00  0.00    -0.167 OA 
HETATM    7  C   UNL     1      -8.918   5.512  69.971  1.00  0.00    -0.131 C  
HETATM    8  C   UNL     1      -8.535   5.244  68.479  1.00  0.00    -0.092 C  
HETATM    9  O   UNL     1     -10.620   7.138  67.293  1.00  0.00    -0.261 OA 
HETATM   10  H   UNL     1     -10.467   7.022  66.362  1.00  0.00     0.000 HD 
HETATM   11  N   UNL     1      -7.849   6.443  67.892  1.00  0.00    -0.103 NA 
HETATM   12  C   UNL     1      -9.771   4.864  67.664  1.00  0.00    -0.159 C  
HETATM   13  H2  UNL     1      -7.041   6.728  68.445  1.00  0.00     0.000 HD 
HETATM   14  O   UNL     1     -10.208   3.527  67.942  1.00  0.00     0.173 OA 
HETATM   15  C   UNL     1     -10.910   5.866  67.892  1.00  0.00    -0.233 C  
HETATM   16  H1  UNL     1      -7.600   6.268  66.918  1.00  0.00     0.000 HD 
HETATM   17  H   UNL     1     -10.976   3.291  67.435  1.00  0.00     0.000 HD 
BRANCH   7  18
HETATM   18  O   UNL     1      -7.676   5.910  70.525  1.00  0.00    -0.095 OA 
BRANCH  18  19
HETATM   19  C   UNL     1      -7.260   7.267  70.456  1.00  0.00    -0.066 C  
HETATM   20  O   UNL     1      -6.454   6.674  68.185  1.00  0.00    -0.048 OA 
HETATM   21  C   UNL     1      -8.602   8.008  70.507  1.00  0.00    -0.134 C  
HETATM   22  C   UNL     1      -7.621   8.788  68.578  1.00  0.00    -0.098 C  
HETATM   23  H   UNL     1      -6.064   6.968  67.370  1.00  0.00     0.000 HD 
HETATM   24  O   UNL     1      -8.878   8.463  69.172  1.00  0.00    -0.140 OA 
HETATM   25  C   UNL     1      -6.626   7.744  69.132  1.00  0.00    -0.040 C  
BRANCH  21  26
HETATM   26  C   UNL     1      -8.641   9.152  71.524  1.00  0.00     0.083 C  
HETATM   27  H   UNL     1      -8.223   9.455  73.442  1.00  0.00     0.000 HD 
HETATM   28  O   UNL     1      -8.199   8.746  72.812  1.00  0.00    -0.407 OA 
ENDBRANCH  21  26
BRANCH  22  29
HETATM   29  O   UNL     1      -7.241  10.129  68.913  1.00  0.00    -0.072 OA 
BRANCH  29  30
HETATM   30  C   UNL     1      -7.654  11.198  67.995  1.00  0.00    -0.100 C  
HETATM   31  C   UNL     1      -7.420  12.591  68.635  1.00  0.00    -0.090 C  
HETATM   32  O   UNL     1      -6.092  13.044  68.292  1.00  0.00    -0.070 OA 
HETATM   33  C   UNL     1      -8.388  13.735  68.291  1.00  0.00    -0.161 C  
HETATM   34  C   UNL     1      -9.780  13.269  67.906  1.00  0.00    -0.224 C  
HETATM   35  N   UNL     1      -8.506  14.656  69.451  1.00  0.00    -0.389 NA 
HETATM   36  H   UNL     1      -5.949  13.897  68.684  1.00  0.00     0.000 HD 
HETATM   37  H1  UNL     1      -9.148  15.416  69.222  1.00  0.00     0.000 HD 
HETATM   38  H2  UNL     1      -7.598  15.002  69.761  1.00  0.00     0.000 HD 
HETATM   39  C   UNL     1      -9.696  12.220  66.799  1.00  0.00    -0.213 C  
HETATM   40  C   UNL     1      -9.041  10.927  67.348  1.00  0.00    -0.140 C  
HETATM   41  N   UNL     1     -11.060  11.964  66.289  1.00  0.00    -0.303 NA 
HETATM   42  H2  UNL     1     -11.532  12.816  65.986  1.00  0.00     0.000 HD 
HETATM   43  H1  UNL     1     -11.004  11.264  65.550  1.00  0.00     0.000 HD 
BRANCH  40  44
HETATM   44  O   UNL     1      -8.949   9.996  66.242  1.00  0.00    -0.144 OA 
BRANCH  44  45
HETATM   45  C   UNL     1      -7.754   9.212  66.195  1.00  0.00    -0.095 C  
HETATM   46  O   UNL     1      -8.042   7.812  66.142  1.00  0.00    -0.103 OA 
HETATM   47  C   UNL     1      -8.722   7.412  64.944  1.00  0.00     0.278 C  
HETATM   48  C   UNL     1      -7.911   7.765  63.688  1.00  0.00    -0.103 C  
HETATM   49  H1  UNL     1      -5.981  11.393  64.211  1.00  0.00     0.000 HD 
HETATM   50  O   UNL     1      -8.601   7.418  62.479  1.00  0.00    -0.376 OA 
HETATM   51  H2  UNL     1      -6.110  11.363  65.884  1.00  0.00     0.000 HD 
HETATM   52  C   UNL     1      -7.593   9.267  63.678  1.00  0.00    -0.112 C  
HETATM   53  H   UNL     1      -8.099   7.636  61.702  1.00  0.00     0.000 HD 
HETATM   54  O   UNL     1      -6.749   9.575  62.555  1.00  0.00    -0.096 OA 
HETATM   55  C   UNL     1      -6.883   9.657  64.987  1.00  0.00    -0.104 C  
HETATM   56  N   UNL     1      -6.553  11.102  65.003  1.00  0.00     0.527 NA 
HETATM   57  H   UNL     1      -6.552  10.504  62.549  1.00  0.00     0.000 HD 
BRANCH  47  58
HETATM   58  C   UNL     1      -9.056   5.908  65.054  1.00  0.00     0.262 C  
HETATM   59  H1  UNL     1      -8.203   4.014  64.689  1.00  0.00     0.000 HD 
HETATM   60  N   UNL     1      -7.982   5.008  64.616  1.00  0.00    -0.096 NA 
HETATM   61  H2  UNL     1      -7.119   5.217  65.117  1.00  0.00     0.000 HD 
ENDBRANCH  47  58
ENDBRANCH  44  45
ENDBRANCH  40  44
ENDBRANCH  29  30
ENDBRANCH  22  29
ENDBRANCH  18  19
ENDBRANCH   7  18
ENDBRANCH   2   5
TORSDOF 9
ENDMDL
MODEL      304
REMARK 921   NORMALIZED FREE ENERGY PREDICTED BY IDOCK:    9.59 KCAL/MOL
REMARK 922        TOTAL FREE ENERGY PREDICTED BY IDOCK:   11.82 KCAL/MOL
REMARK 923 INTER-LIGAND FREE ENERGY PREDICTED BY IDOCK:    1.24 KCAL/MOL
REMARK 924 INTRA-LIGAND FREE ENERGY PREDICTED BY IDOCK:   10.58 KCAL/MOL
REMARK 927      BINDING AFFINITY PREDICTED BY RF-SCORE:    0.00 PKD
ROOT
HETATM    1  N   UNL     1      -8.077  10.202  72.318  1.00  0.00     3.103 NA 
HETATM    2  C   UNL     1      -8.895   9.427  71.381  1.00  0.00     0.312 C  
HETATM    3  H1  UNL     1      -7.889   9.750  73.212  1.00  0.00     0.000 HD 
HETATM    4  H2  UNL     1      -8.496  11.118  72.472  1.00  0.00     0.000 HD 
ENDROOT
BRANCH   2   5
HETATM    5  C   UNL     1      -9.183  10.114  70.020  1.00  0.00     0.005 C  
HETATM    6  O   UNL     1      -9.202   9.198  68.895  1.00  0.00    -0.138 OA 
HETATM    7  C   UNL     1      -9.598   9.885  67.694  1.00  0.00    -0.148 C  
HETATM    8  C   UNL     1      -8.556  10.991  67.328  1.00  0.00    -0.130 C  
HETATM    9  O   UNL     1      -6.799  10.574  69.794  1.00  0.00    -0.105 OA 
HETATM   10  H   UNL     1      -6.131  11.236  69.659  1.00  0.00     0.000 HD 
HETATM   11  N   UNL     1      -7.254  10.368  66.918  1.00  0.00    -0.095 NA 
HETATM   12  C   UNL     1      -8.359  11.957  68.497  1.00  0.00    -0.118 C  
HETATM   13  H2  UNL     1      -7.376   9.696  66.161  1.00  0.00     0.000 HD 
HETATM   14  O   UNL     1      -9.470  12.850  68.648  1.00  0.00    -0.382 OA 
HETATM   15  C   UNL     1      -8.094  11.195  69.801  1.00  0.00     0.683 C  
HETATM   16  H1  UNL     1      -6.574  11.090  66.680  1.00  0.00     0.000 HD 
HETATM   17  H   UNL     1      -9.348  13.451  69.375  1.00  0.00     0.000 HD 
BRANCH   7  18
HETATM   18  O   UNL     1      -9.582   9.072  66.534  1.00  0.00    -0.183 OA 
BRANCH  18  19
HETATM   19  C   UNL     1      -8.943   7.802  66.555  1.00  0.00    -0.161 C  
HETATM   20  O   UNL     1     -11.247   6.885  66.457  1.00  0.00    -0.378 OA 
HETATM   21  C   UNL     1      -8.181   7.815  65.225  1.00  0.00    -0.140 C  
HETATM   22  C   UNL     1      -9.460   5.907  65.102  1.00  0.00     0.533 C  
HETATM   23  H   UNL     1     -11.803   6.118  66.393  1.00  0.00     0.000 HD 
HETATM   24  O   UNL     1      -8.906   6.965  64.320  1.00  0.00     0.458 OA 
HETATM   25  C   UNL     1      -9.846   6.555  66.451  1.00  0.00    -0.052 C  
BRANCH  21  26
HETATM   26  C   UNL     1      -6.711   7.402  65.346  1.00  0.00    -0.048 C  
HETATM   27  H   UNL     1      -5.077   7.362  64.216  1.00  0.00     0.000 HD 
HETATM   28  O   UNL     1      -5.989   7.618  64.141  1.00  0.00    -0.047 OA 
ENDBRANCH  21  26
BRANCH  22  29
HETATM   29  O   UNL     1      -8.505   4.850  65.264  1.00  0.00    -0.125 OA 
BRANCH  29  30
HETATM   30  C   UNL     1      -8.480   4.154  66.556  1.00  0.00    -0.104 C  
HETATM   31  C   UNL     1      -8.490   5.170  67.727  1.00  0.00    -0.104 C  
HETATM   32  O   UNL     1      -9.860   5.445  68.094  1.00  0.00    -0.131 OA 
HETATM   33  C   UNL     1      -7.740   4.816  69.022  1.00  0.00    -0.071 C  
HETATM   34  C   UNL     1      -6.579   3.861  68.818  1.00  0.00    -0.041 C  
HETATM   35  N   UNL     1      -7.222   6.055  69.656  1.00  0.00    -0.072 NA 
HETATM   36  H   UNL     1      -9.866   6.068  68.812  1.00  0.00     0.000 HD 
HETATM   37  H1  UNL     1      -6.725   5.819  70.515  1.00  0.00     0.000 HD 
HETATM   38  H2  UNL     1      -7.958   6.742  69.815  1.00  0.00     0.000 HD 
HETATM   39  C   UNL     1      -7.044   2.623  68.052  1.00  0.00    -0.049 C  
HETATM   40  C   UNL     1      -7.424   3.015  66.601  1.00  0.00    -0.075 C  
HETATM   41  N   UNL     1      -5.957   1.619  68.076  1.00  0.00    -0.023 NA 
HETATM   42  H2  UNL     1      -5.648   1.400  69.023  1.00  0.00     0.000 HD 
HETATM   43  H1  UNL     1      -6.268   0.793  67.565  1.00  0.00     0.000 HD 
BRANCH  40  44
HETATM   44  O   UNL     1      -7.898   1.812  65.948  1.00  0.00    -0.069 OA 
BRANCH  44  45
HETATM   45  C   UNL     1      -7.319   1.537  64.669  1.00  0.00    -0.053 C  
HETATM   46  O   UNL     1      -8.308   1.509  63.637  1.00  0.00    -0.067 OA 
HETATM   47  C   UNL     1      -8.948   2.774  63.422  1.00  0.00    -0.091 C  
HETATM   48  C   UNL     1      -7.933   3.868  63.059  1.00  0.00    -0.075 C  
HETATM   49  H1  UNL     1      -4.428   3.326  65.202  1.00  0.00     0.000 HD 
HETATM   50  O   UNL     1      -8.551   5.152  62.891  1.00  0.00    -0.120 OA 
HETATM   51  H2  UNL     1      -4.751   1.719  65.564  1.00  0.00     0.000 HD 
HETATM   52  C   UNL     1      -6.855   3.962  64.150  1.00  0.00    -0.045 C  
HETATM   53  H   UNL     1      -7.923   5.828  62.667  1.00  0.00     0.000 HD 
HETATM   54  O   UNL     1      -5.852   4.916  63.758  1.00  0.00    -0.017 OA 
HETATM   55  C   UNL     1      -6.209   2.581  64.362  1.00  0.00    -0.019 C  
HETATM   56  N   UNL     1      -5.156   2.642  65.404  1.00  0.00    -0.008 NA 
HETATM   57  H   UNL     1      -5.186   4.973  64.433  1.00  0.00     0.000 HD 
BRANCH  47  58
HETATM   58  C   UNL     1     -10.051   2.586  62.356  1.00  0.00    -0.093 C  
HETATM   59  H1  UNL     1     -12.084   2.056  62.186  1.00  0.00     0.000 HD 
HETATM   60  N   UNL     1     -11.356   2.181  62.890  1.00  0.00    -0.276 NA 
HETATM   61  H2  UNL     1     -11.665   2.839  63.607  1.00  0.00     0.000 HD 
ENDBRANCH  47  58
ENDBRANCH  44  45
ENDBRANCH  40  44
ENDBRANCH  29  30
ENDBRANCH  22  29
ENDBRANCH  18  19
ENDBRANCH   7  18
ENDBRANCH   2   5
TORSDOF 9
ENDMDL
MODEL      305
REMARK 921   NORMALIZED FREE ENERGY PREDICTED BY IDOCK:   10.25 KCAL/MOL
REMARK 922        TOTAL FREE ENERGY PREDICTED BY IDOCK:   12.83 KCAL/MOL
REMARK 923 INTER-LIGAND FREE ENERGY PREDICTED BY IDOCK:    7.95 KCAL/MOL
REMARK 924 INTRA-LIGAND FREE ENERGY PREDICTED BY IDOCK:    4.88 KCAL/MOL
REMARK 927      BINDING AFFINITY PREDICTED BY RF-SCORE:    0.00 PKD
ROOT
HETATM    1  N   UNL     1      -6.448  13.406  68.092  1.00  0.00    -0.104 NA 
HETATM    2  C   UNL     1      -6.389  11.942  68.133  1.00  0.00    -0.052 C  
HETATM    3  H1  UNL     1      -5.716  13.888  68.612  1.00  0.00     0.000 HD 
HETATM    4  H2  UNL     1      -7.365  13.727  68.400  1.00  0.00     0.000 HD 
ENDROOT
BRANCH   2   5
HETATM    5  C   UNL     1      -7.503  11.207  67.341  1.00  0.00    -0.109 C  
HETATM    6  O   UNL     1      -8.627  12.055  66.989  1.00  0.00    -0.174 OA 
HETATM    7  C   UNL     1      -9.553  11.341  66.153  1.00  0.00    -0.214 C  
HETATM    8  C   UNL     1     -10.160  10.124  66.924  1.00  0.00    -0.223 C  
HETATM    9  O   UNL     1      -8.497  10.518  69.458  1.00  0.00    -0.304 OA 
HETATM   10  H   UNL     1      -8.796   9.789  69.990  1.00  0.00     0.000 HD 
HETATM   11  N   UNL     1     -11.046  10.599  68.038  1.00  0.00    -0.281 NA 
HETATM   12  C   UNL     1      -9.053   9.213  67.453  1.00  0.00    -0.127 C  
HETATM   13  H2  UNL     1     -11.770  11.235  67.703  1.00  0.00     0.000 HD 
HETATM   14  O   UNL     1      -8.452   8.435  66.409  1.00  0.00    -0.114 OA 
HETATM   15  C   UNL     1      -7.990  10.020  68.209  1.00  0.00    -0.097 C  
HETATM   16  H1  UNL     1     -11.441   9.805  68.542  1.00  0.00     0.000 HD 
HETATM   17  H   UNL     1      -7.763   7.869  66.738  1.00  0.00     0.000 HD 
BRANCH   7  18
HETATM   18  O   UNL     1     -10.713  12.082  65.815  1.00  0.00    -0.261 OA 
BRANCH  18  19
HETATM   19  C   UNL     1     -10.781  13.475  66.089  1.00  0.00    -0.289 C  
HETATM   20  O   UNL     1      -8.301  13.373  66.085  1.00  0.00     0.074 OA 
HETATM   21  C   UNL     1     -11.421  14.015  64.805  1.00  0.00    -0.369 C  
HETATM   22  C   UNL     1      -9.471  15.222  64.992  1.00  0.00     0.665 C  
HETATM   23  H   UNL     1      -7.478  13.845  66.144  1.00  0.00     0.000 HD 
HETATM   24  O   UNL     1     -10.373  14.642  64.047  1.00  0.00     0.567 OA 
HETATM   25  C   UNL     1      -9.445  14.241  66.185  1.00  0.00    -0.222 C  
BRANCH  21  26
HETATM   26  C   UNL     1     -12.599  14.962  65.048  1.00  0.00     0.030 C  
HETATM   27  H   UNL     1     -12.904  16.872  65.505  1.00  0.00     0.000 HD 
HETATM   28  O   UNL     1     -12.174  16.284  65.354  1.00  0.00     1.228 OA 
ENDBRANCH  21  26
BRANCH  22  29
HETATM   29  O   UNL     1      -9.921  16.528  65.375  1.00  0.00    -0.552 OA 
BRANCH  29  30
HETATM   30  C   UNL     1      -8.986  17.369  66.134  1.00  0.00    -0.139 C  
HETATM   31  C   UNL     1      -8.676  18.678  65.362  1.00  0.00     1.454 C  
HETATM   32  O   UNL     1      -9.633  19.687  65.753  1.00  0.00    -0.377 OA 
HETATM   33  C   UNL     1      -7.279  19.306  65.501  1.00  0.00    -0.123 C  
HETATM   34  C   UNL     1      -6.185  18.306  65.827  1.00  0.00    -0.288 C  
HETATM   35  N   UNL     1      -6.916  20.003  64.240  1.00  0.00     0.006 NA 
HETATM   36  H   UNL     1      -9.443  20.489  65.280  1.00  0.00     0.000 HD 
HETATM   37  H1  UNL     1      -5.990  20.420  64.332  1.00  0.00     0.000 HD 
HETATM   38  H2  UNL     1      -7.619  20.688  63.963  1.00  0.00     0.000 HD 
HETATM   39  C   UNL     1      -6.578  17.476  67.048  1.00  0.00    -0.173 C  
HETATM   40  C   UNL     1      -7.782  16.564  66.698  1.00  0.00    -0.283 C  
HETATM   41  N   UNL     1      -5.404  16.685  67.476  1.00  0.00    -0.127 NA 
HETATM   42  H2  UNL     1      -4.582  17.265  67.645  1.00  0.00     0.000 HD 
HETATM   43  H1  UNL     1      -5.667  16.131  68.291  1.00  0.00     0.000 HD 
BRANCH  40  44
HETATM   44  O   UNL     1      -8.131  15.843  67.905  1.00  0.00    -0.138 OA 
BRANCH  44  45
HETATM   45  C   UNL     1      -8.137  16.620  69.106  1.00  0.00    -0.139 C  
HETATM   46  O   UNL     1      -9.465  16.980  69.496  1.00  0.00     0.028 OA 
HETATM   47  C   UNL     1     -10.282  15.856  69.850  1.00  0.00    -0.232 C  
HETATM   48  C   UNL     1      -9.667  15.048  71.002  1.00  0.00     1.755 C  
HETATM   49  H1  UNL     1      -5.542  14.943  70.621  1.00  0.00     0.000 HD 
HETATM   50  O   UNL     1     -10.447  13.891  71.333  1.00  0.00     2.464 OA 
HETATM   51  H2  UNL     1      -5.479  16.267  69.591  1.00  0.00     0.000 HD 
HETATM   52  C   UNL     1      -8.242  14.610  70.628  1.00  0.00     2.015 C  
HETATM   53  H   UNL     1     -10.065  13.390  72.046  1.00  0.00     0.000 HD 
HETATM   54  O   UNL     1      -7.633  13.942  71.745  1.00  0.00     2.996 OA 
HETATM   55  C   UNL     1      -7.406  15.842  70.236  1.00  0.00     0.827 C  
HETATM   56  N   UNL     1      -6.021  15.453  69.879  1.00  0.00    -0.140 NA 
HETATM   57  H   UNL     1      -6.752  13.672  71.514  1.00  0.00     0.000 HD 
BRANCH  47  58
HETATM   58  C   UNL     1     -11.707  16.370  70.157  1.00  0.00     0.114 C  
HETATM   59  H1  UNL     1     -13.696  15.684  70.294  1.00  0.00     0.000 HD 
HETATM   60  N   UNL     1     -12.755  15.345  70.091  1.00  0.00    -0.624 NA 
HETATM   61  H2  UNL     1     -12.523  14.560  70.700  1.00  0.00     0.000 HD 
ENDBRANCH  47  58
ENDBRANCH  44  45
ENDBRANCH  40  44
ENDBRANCH  29  30
ENDBRANCH  22  29
ENDBRANCH  18  19
ENDBRANCH   7  18
ENDBRANCH   2   5
TORSDOF 9
ENDMDL
MODEL      306
REMARK 921   NORMALIZED FREE ENERGY PREDICTED BY IDOCK:   11.03 KCAL/MOL
REMARK 922        TOTAL FREE ENERGY PREDICTED BY IDOCK:   14.02 KCAL/MOL
REMARK 923 INTER-LIGAND FREE ENERGY PREDICTED BY IDOCK:    5.83 KCAL/MOL
REMARK 924 INTRA-LIGAND FREE ENERGY PREDICTED BY IDOCK:    8.19 KCAL/MOL
REMARK 927      BINDING AFFINITY PREDICTED BY RF-SCORE:    0.00 PKD
ROOT
HETATM    1  N   UNL     1     -11.325   6.992  65.638  1.00  0.00     3.570 NA 
HETATM    2  C   UNL     1      -9.925   7.051  66.069  1.00  0.00     0.426 C  
HETATM    3  H1  UNL     1     -11.710   6.055  65.526  1.00  0.00     0.000 HD 
HETATM    4  H2  UNL     1     -11.448   7.525  64.778  1.00  0.00     0.000 HD 
ENDROOT
BRANCH   2   5
HETATM    5  C   UNL     1      -9.339   8.477  66.239  1.00  0.00    -0.224 C  
HETATM    6  O   UNL     1     -10.169   9.359  67.039  1.00  0.00    -0.222 OA 
HETATM    7  C   UNL     1      -9.504  10.615  67.257  1.00  0.00    -0.158 C  
HETATM    8  C   UNL     1      -9.276  11.356  65.899  1.00  0.00    -0.216 C  
HETATM    9  O   UNL     1     -10.412   9.124  64.147  1.00  0.00     1.742 OA 
HETATM   10  H   UNL     1     -10.293   9.492  63.279  1.00  0.00     0.000 HD 
HETATM   11  N   UNL     1     -10.587  11.793  65.315  1.00  0.00    -0.269 NA 
HETATM   12  C   UNL     1      -8.508  10.468  64.921  1.00  0.00    -0.158 C  
HETATM   13  H2  UNL     1     -11.126  12.360  65.971  1.00  0.00     0.000 HD 
HETATM   14  O   UNL     1      -7.119  10.367  65.263  1.00  0.00    -0.156 OA 
HETATM   15  C   UNL     1      -9.146   9.077  64.823  1.00  0.00    -0.028 C  
HETATM   16  H1  UNL     1     -10.439  12.276  64.429  1.00  0.00     0.000 HD 
HETATM   17  H   UNL     1      -6.641   9.815  64.655  1.00  0.00     0.000 HD 
BRANCH   7  18
HETATM   18  O   UNL     1     -10.276  11.558  67.979  1.00  0.00    -0.182 OA 
BRANCH  18  19
HETATM   19  C   UNL     1      -9.653  12.682  68.586  1.00  0.00    -0.021 C  
HETATM   20  O   UNL     1      -7.980  12.460  66.766  1.00  0.00    -0.369 OA 
HETATM   21  C   UNL     1     -10.711  13.774  68.380  1.00  0.00    -0.254 C  
HETATM   22  C   UNL     1      -8.816  14.663  67.424  1.00  0.00    -0.195 C  
HETATM   23  H   UNL     1      -7.207  12.811  66.340  1.00  0.00     0.000 HD 
HETATM   24  O   UNL     1     -10.240  14.616  67.315  1.00  0.00    -0.239 OA 
HETATM   25  C   UNL     1      -8.397  13.252  67.894  1.00  0.00    -0.163 C  
BRANCH  21  26
HETATM   26  C   UNL     1     -11.033  14.574  69.644  1.00  0.00    -0.193 C  
HETATM   27  H   UNL     1     -11.684  14.241  71.492  1.00  0.00     0.000 HD 
HETATM   28  O   UNL     1     -11.484  13.745  70.707  1.00  0.00     0.003 OA 
ENDBRANCH  21  26
BRANCH  22  29
HETATM   29  O   UNL     1      -8.419  15.682  68.351  1.00  0.00    -0.156 OA 
BRANCH  29  30
HETATM   30  C   UNL     1      -9.260  16.882  68.438  1.00  0.00    -0.253 C  
HETATM   31  C   UNL     1     -10.440  16.654  69.419  1.00  0.00    -0.320 C  
HETATM   32  O   UNL     1     -10.028  17.055  70.744  1.00  0.00     1.828 OA 
HETATM   33  C   UNL     1     -11.782  17.350  69.136  1.00  0.00     1.924 C  
HETATM   34  C   UNL     1     -12.025  17.644  67.667  1.00  0.00     2.224 C  
HETATM   35  N   UNL     1     -12.898  16.505  69.635  1.00  0.00     0.360 NA 
HETATM   36  H   UNL     1     -10.751  16.916  71.344  1.00  0.00     0.000 HD 
HETATM   37  H1  UNL     1     -13.788  16.967  69.447  1.00  0.00     0.000 HD 
HETATM   38  H2  UNL     1     -12.789  16.267  70.620  1.00  0.00     0.000 HD 
HETATM   39  C   UNL     1     -10.836  18.404  67.080  1.00  0.00    -0.231 C  
HETATM   40  C   UNL     1      -9.590  17.483  67.043  1.00  0.00    -0.268 C  
HETATM   41  N   UNL     1     -11.202  18.877  65.727  1.00  0.00     0.221 NA 
HETATM   42  H2  UNL     1     -12.060  19.429  65.724  1.00  0.00     0.000 HD 
HETATM   43  H1  UNL     1     -10.408  19.384  65.336  1.00  0.00     0.000 HD 
BRANCH  40  44
HETATM   44  O   UNL     1      -8.494  18.274  66.523  1.00  0.00    -0.262 OA 
BRANCH  44  45
HETATM   45  C   UNL     1      -7.184  17.785  66.825  1.00  0.00    -0.207 C  
HETATM   46  O   UNL     1      -6.412  17.576  65.639  1.00  0.00    -0.120 OA 
HETATM   47  C   UNL     1      -6.133  18.784  64.918  1.00  0.00    -0.233 C  
HETATM   48  C   UNL     1      -5.379  19.802  65.786  1.00  0.00    -0.155 C  
HETATM   49  H1  UNL     1      -6.765  19.647  69.688  1.00  0.00     0.000 HD 
HETATM   50  O   UNL     1      -5.138  21.035  65.095  1.00  0.00    -0.187 OA 
HETATM   51  H2  UNL     1      -7.453  18.126  69.515  1.00  0.00     0.000 HD 
HETATM   52  C   UNL     1      -6.177  20.085  67.068  1.00  0.00    -0.182 C  
HETATM   53  H   UNL     1      -4.671  21.665  65.633  1.00  0.00     0.000 HD 
HETATM   54  O   UNL     1      -5.422  20.960  67.924  1.00  0.00    -0.230 OA 
HETATM   55  C   UNL     1      -6.472  18.763  67.800  1.00  0.00    -0.211 C  
HETATM   56  N   UNL     1      -7.233  19.005  69.048  1.00  0.00    -0.328 NA 
HETATM   57  H   UNL     1      -5.915  21.135  68.717  1.00  0.00     0.000 HD 
BRANCH  47  58
HETATM   58  C   UNL     1      -5.381  18.412  63.620  1.00  0.00     0.303 C  
HETATM   59  H1  UNL     1      -5.041  19.127  61.666  1.00  0.00     0.000 HD 
HETATM   60  N   UNL     1      -5.538  19.373  62.523  1.00  0.00    -0.381 NA 
HETATM   61  H2  UNL     1      -5.271  20.309  62.831  1.00  0.00     0.000 HD 
ENDBRANCH  47  58
ENDBRANCH  44  45
ENDBRANCH  40  44
ENDBRANCH  29  30
ENDBRANCH  22  29
ENDBRANCH  18  19
ENDBRANCH   7  18
ENDBRANCH   2   5
TORSDOF 9
ENDMDL
MODEL      307
REMARK 921   NORMALIZED FREE ENERGY PREDICTED BY IDOCK:   11.07 KCAL/MOL
REMARK 922        TOTAL FREE ENERGY PREDICTED BY IDOCK:   14.09 KCAL/MOL
REMARK 923 INTER-LIGAND FREE ENERGY PREDICTED BY IDOCK:    5.37 KCAL/MOL
REMARK 924 INTRA-LIGAND FREE ENERGY PREDICTED BY IDOCK:    8.72 KCAL/MOL
REMARK 927      BINDING AFFINITY PREDICTED BY RF-SCORE:    0.00 PKD
ROOT
HETATM    1  N   UNL     1     -13.703  16.438  65.634  1.00  0.00     5.669 NA 
HETATM    2  C   UNL     1     -12.733  15.933  66.610  1.00  0.00     2.877 C  
HETATM    3  H1  UNL     1     -13.874  17.443  65.666  1.00  0.00     0.000 HD 
HETATM    4  H2  UNL     1     -14.583  15.932  65.723  1.00  0.00     0.000 HD 
ENDROOT
BRANCH   2   5
HETATM    5  C   UNL     1     -12.473  14.405  66.562  1.00  0.00    -0.118 C  
HETATM    6  O   UNL     1     -11.901  13.870  67.785  1.00  0.00    -0.344 OA 
HETATM    7  C   UNL     1     -11.808  12.437  67.711  1.00  0.00    -0.298 C  
HETATM    8  C   UNL     1     -10.838  12.010  66.562  1.00  0.00    -0.277 C  
HETATM    9  O   UNL     1     -10.294  14.846  65.562  1.00  0.00    -0.312 OA 
HETATM   10  H   UNL     1      -9.711  14.676  64.831  1.00  0.00     0.000 HD 
HETATM   11  N   UNL     1      -9.428  12.399  66.896  1.00  0.00    -0.213 NA 
HETATM   12  C   UNL     1     -11.275  12.620  65.231  1.00  0.00    -0.300 C  
HETATM   13  H2  UNL     1      -9.134  12.026  67.799  1.00  0.00     0.000 HD 
HETATM   14  O   UNL     1     -12.432  11.964  64.693  1.00  0.00    -0.284 OA 
HETATM   15  C   UNL     1     -11.522  14.127  65.371  1.00  0.00    -0.325 C  
HETATM   16  H1  UNL     1      -8.795  12.121  66.146  1.00  0.00     0.000 HD 
HETATM   17  H   UNL     1     -12.704  12.343  63.865  1.00  0.00     0.000 HD 
BRANCH   7  18
HETATM   18  O   UNL     1     -11.201  11.841  68.844  1.00  0.00    -0.216 OA 
BRANCH  18  19
HETATM   19  C   UNL     1     -10.628  10.543  68.753  1.00  0.00    -0.207 C  
HETATM   20  O   UNL     1      -8.508  11.752  68.299  1.00  0.00    -0.150 OA 
HETATM   21  C   UNL     1     -10.799  10.025  70.186  1.00  0.00    -0.311 C  
HETATM   22  C   UNL     1      -8.541   9.816  69.795  1.00  0.00    -0.201 C  
HETATM   23  H   UNL     1      -7.571  11.700  68.150  1.00  0.00     0.000 HD 
HETATM   24  O   UNL     1      -9.506  10.093  70.811  1.00  0.00     0.241 OA 
HETATM   25  C   UNL     1      -9.106  10.459  68.509  1.00  0.00    -0.145 C  
BRANCH  21  26
HETATM   26  C   UNL     1     -11.404   8.621  70.271  1.00  0.00    -0.136 C  
HETATM   27  H   UNL     1     -12.361   7.490  71.595  1.00  0.00     0.000 HD 
HETATM   28  O   UNL     1     -11.986   8.361  71.542  1.00  0.00    -0.278 OA 
ENDBRANCH  21  26
BRANCH  22  29
HETATM   29  O   UNL     1      -8.353   8.402  69.655  1.00  0.00    -0.118 OA 
BRANCH  29  30
HETATM   30  C   UNL     1      -8.854   7.773  68.427  1.00  0.00    -0.130 C  
HETATM   31  C   UNL     1     -10.092   6.888  68.729  1.00  0.00    -0.166 C  
HETATM   32  O   UNL     1     -11.283   7.694  68.599  1.00  0.00    -0.408 OA 
HETATM   33  C   UNL     1     -10.316   5.618  67.893  1.00  0.00    -0.205 C  
HETATM   34  C   UNL     1      -9.040   5.020  67.328  1.00  0.00    -0.117 C  
HETATM   35  N   UNL     1     -10.990   4.585  68.721  1.00  0.00     1.629 NA 
HETATM   36  H   UNL     1     -12.041   7.152  68.784  1.00  0.00     0.000 HD 
HETATM   37  H1  UNL     1     -11.138   3.742  68.166  1.00  0.00     0.000 HD 
HETATM   38  H2  UNL     1     -11.856   4.929  69.135  1.00  0.00     0.000 HD 
HETATM   39  C   UNL     1      -8.250   6.087  66.572  1.00  0.00    -0.107 C  
HETATM   40  C   UNL     1      -7.719   7.151  67.567  1.00  0.00    -0.111 C  
HETATM   41  N   UNL     1      -7.145   5.426  65.844  1.00  0.00    -0.066 NA 
HETATM   42  H2  UNL     1      -7.472   4.676  65.234  1.00  0.00     0.000 HD 
HETATM   43  H1  UNL     1      -6.618   6.139  65.339  1.00  0.00     0.000 HD 
BRANCH  40  44
HETATM   44  O   UNL     1      -7.022   8.152  66.785  1.00  0.00    -0.070 OA 
BRANCH  44  45
HETATM   45  C   UNL     1      -7.796   9.300  66.425  1.00  0.00    -0.103 C  
HETATM   46  O   UNL     1      -6.990  10.478  66.349  1.00  0.00    -0.108 OA 
HETATM   47  C   UNL     1      -6.004  10.431  65.308  1.00  0.00    -0.135 C  
HETATM   48  C   UNL     1      -6.645  10.221  63.929  1.00  0.00    -0.075 C  
HETATM   49  H1  UNL     1      -9.878   7.647  64.239  1.00  0.00     0.000 HD 
HETATM   50  O   UNL     1      -5.668  10.119  62.884  1.00  0.00    -0.105 OA 
HETATM   51  H2  UNL     1     -10.052   7.866  65.895  1.00  0.00     0.000 HD 
HETATM   52  C   UNL     1      -7.507   8.949  63.943  1.00  0.00    -0.112 C  
HETATM   53  H   UNL     1      -6.065   9.989  62.030  1.00  0.00     0.000 HD 
HETATM   54  O   UNL     1      -8.186   8.810  62.683  1.00  0.00    -0.172 OA 
HETATM   55  C   UNL     1      -8.537   9.032  65.085  1.00  0.00    -0.179 C  
HETATM   56  N   UNL     1      -9.392   7.822  65.119  1.00  0.00     0.617 NA 
HETATM   57  H   UNL     1      -8.719   8.024  62.692  1.00  0.00     0.000 HD 
BRANCH  47  58
HETATM   58  C   UNL     1      -5.146  11.713  65.395  1.00  0.00     0.963 C  
HETATM   59  H1  UNL     1      -4.951  13.474  66.537  1.00  0.00     0.000 HD 
HETATM   60  N   UNL     1      -5.518  12.627  66.480  1.00  0.00    -0.020 NA 
HETATM   61  H2  UNL     1      -5.511  12.136  67.375  1.00  0.00     0.000 HD 
ENDBRANCH  47  58
ENDBRANCH  44  45
ENDBRANCH  40  44
ENDBRANCH  29  30
ENDBRANCH  22  29
ENDBRANCH  18  19
ENDBRANCH   7  18
ENDBRANCH   2   5
TORSDOF 9
ENDMDL
MODEL      308
REMARK 921   NORMALIZED FREE ENERGY PREDICTED BY IDOCK:   11.95 KCAL/MOL
REMARK 922        TOTAL FREE ENERGY PREDICTED BY IDOCK:   15.43 KCAL/MOL
REMARK 923 INTER-LIGAND FREE ENERGY PREDICTED BY IDOCK:   10.92 KCAL/MOL
REMARK 924 INTRA-LIGAND FREE ENERGY PREDICTED BY IDOCK:    4.51 KCAL/MOL
REMARK 927      BINDING AFFINITY PREDICTED BY RF-SCORE:    0.00 PKD
ROOT
HETATM    1  N   UNL     1     -10.976   3.097  67.083  1.00  0.00     3.968 NA 
HETATM    2  C   UNL     1     -11.068   4.067  68.178  1.00  0.00     4.294 C  
HETATM    3  H1  UNL     1     -11.846   2.622  66.844  1.00  0.00     0.000 HD 
HETATM    4  H2  UNL     1     -10.248   2.411  67.285  1.00  0.00     0.000 HD 
ENDROOT
BRANCH   2   5
HETATM    5  C   UNL     1      -9.744   4.789  68.543  1.00  0.00    -0.151 C  
HETATM    6  O   UNL     1      -9.384   5.851  67.621  1.00  0.00    -0.109 OA 
HETATM    7  C   UNL     1      -8.220   6.552  68.093  1.00  0.00    -0.117 C  
HETATM    8  C   UNL     1      -6.987   5.593  68.144  1.00  0.00    -0.065 C  
HETATM    9  O   UNL     1      -8.520   3.090  67.294  1.00  0.00    -0.086 OA 
HETATM   10  H   UNL     1      -7.832   2.435  67.317  1.00  0.00     0.000 HD 
HETATM   11  N   UNL     1      -6.574   5.197  66.757  1.00  0.00    -0.051 NA 
HETATM   12  C   UNL     1      -7.293   4.363  68.998  1.00  0.00    -0.055 C  
HETATM   13  H2  UNL     1      -6.398   6.010  66.166  1.00  0.00     0.000 HD 
HETATM   14  O   UNL     1      -7.296   4.669  70.399  1.00  0.00    -0.048 OA 
HETATM   15  C   UNL     1      -8.622   3.721  68.580  1.00  0.00    -0.094 C  
HETATM   16  H1  UNL     1      -5.769   4.571  66.791  1.00  0.00     0.000 HD 
HETATM   17  H   UNL     1      -7.487   3.904  70.930  1.00  0.00     0.000 HD 
BRANCH   7  18
HETATM   18  O   UNL     1      -7.766   7.568  67.216  1.00  0.00    -0.111 OA 
BRANCH  18  19
HETATM   19  C   UNL     1      -8.545   8.738  67.007  1.00  0.00    -0.116 C  
HETATM   20  O   UNL     1      -9.199   8.461  69.385  1.00  0.00    -0.153 OA 
HETATM   21  C   UNL     1      -7.462   9.790  66.739  1.00  0.00    -0.095 C  
HETATM   22  C   UNL     1      -8.658  10.674  68.494  1.00  0.00    -0.137 C  
HETATM   23  H   UNL     1      -9.672   8.807  70.133  1.00  0.00     0.000 HD 
HETATM   24  O   UNL     1      -7.349  10.586  67.931  1.00  0.00    -0.087 OA 
HETATM   25  C   UNL     1      -9.313   9.301  68.222  1.00  0.00    -0.134 C  
BRANCH  21  26
HETATM   26  C   UNL     1      -7.722  10.649  65.499  1.00  0.00    -0.083 C  
HETATM   27  H   UNL     1      -7.727  10.446  63.522  1.00  0.00     0.000 HD 
HETATM   28  O   UNL     1      -7.566   9.914  64.292  1.00  0.00    -0.130 OA 
ENDBRANCH  21  26
BRANCH  22  29
HETATM   29  O   UNL     1      -9.390  11.750  67.893  1.00  0.00    -0.172 OA 
BRANCH  29  30
HETATM   30  C   UNL     1      -8.828  13.101  68.016  1.00  0.00    -0.191 C  
HETATM   31  C   UNL     1      -7.591  13.266  67.094  1.00  0.00     0.030 C  
HETATM   32  O   UNL     1      -8.031  13.750  65.806  1.00  0.00     1.628 OA 
HETATM   33  C   UNL     1      -6.445  14.182  67.551  1.00  0.00    -0.044 C  
HETATM   34  C   UNL     1      -6.327  14.316  69.058  1.00  0.00    -0.096 C  
HETATM   35  N   UNL     1      -5.154  13.670  67.024  1.00  0.00     0.168 NA 
HETATM   36  H   UNL     1      -7.274  13.851  65.242  1.00  0.00     0.000 HD 
HETATM   37  H1  UNL     1      -4.393  14.278  67.327  1.00  0.00     0.000 HD 
HETATM   38  H2  UNL     1      -5.171  13.553  66.011  1.00  0.00     0.000 HD 
HETATM   39  C   UNL     1      -7.673  14.719  69.657  1.00  0.00    -0.011 C  
HETATM   40  C   UNL     1      -8.689  13.560  69.494  1.00  0.00     1.262 C  
HETATM   41  N   UNL     1      -7.470  15.066  71.081  1.00  0.00     1.025 NA 
HETATM   42  H2  UNL     1      -6.754  15.781  71.210  1.00  0.00     0.000 HD 
HETATM   43  H1  UNL     1      -8.369  15.335  71.480  1.00  0.00     0.000 HD 
BRANCH  40  44
HETATM   44  O   UNL     1      -9.951  14.022  70.037  1.00  0.00     0.804 OA 
BRANCH  44  45
HETATM   45  C   UNL     1     -10.075  15.440  70.182  1.00  0.00    -0.136 C  
HETATM   46  O   UNL     1      -9.250  16.140  69.248  1.00  0.00    -0.255 OA 
HETATM   47  C   UNL     1      -9.631  15.934  67.881  1.00  0.00    -0.215 C  
HETATM   48  C   UNL     1     -11.083  16.363  67.626  1.00  0.00    -0.150 C  
HETATM   49  H1  UNL     1     -13.440  15.424  70.902  1.00  0.00     0.000 HD 
HETATM   50  O   UNL     1     -11.496  16.115  66.275  1.00  0.00     0.255 OA 
HETATM   51  H2  UNL     1     -12.139  15.283  71.954  1.00  0.00     0.000 HD 
HETATM   52  C   UNL     1     -12.022  15.620  68.588  1.00  0.00    -0.182 C  
HETATM   53  H   UNL     1     -12.395  16.380  66.117  1.00  0.00     0.000 HD 
HETATM   54  O   UNL     1     -13.368  16.097  68.416  1.00  0.00     2.076 OA 
HETATM   55  C   UNL     1     -11.567  15.851  70.040  1.00  0.00    -0.344 C  
HETATM   56  N   UNL     1     -12.461  15.154  70.995  1.00  0.00    -0.326 NA 
HETATM   57  H   UNL     1     -13.948  15.638  69.011  1.00  0.00     0.000 HD 
BRANCH  47  58
HETATM   58  C   UNL     1      -8.611  16.664  66.977  1.00  0.00    -0.195 C  
HETATM   59  H1  UNL     1      -8.455  18.348  65.718  1.00  0.00     0.000 HD 
HETATM   60  N   UNL     1      -9.129  17.866  66.315  1.00  0.00    -0.451 NA 
HETATM   61  H2  UNL     1      -9.516  18.511  67.005  1.00  0.00     0.000 HD 
ENDBRANCH  47  58
ENDBRANCH  44  45
ENDBRANCH  40  44
ENDBRANCH  29  30
ENDBRANCH  22  29
ENDBRANCH  18  19
ENDBRANCH   7  18
ENDBRANCH   2   5
TORSDOF 9
ENDMDL
MODEL      309
REMARK 921   NORMALIZED FREE ENERGY PREDICTED BY IDOCK:   12.45 KCAL/MOL
REMARK 922        TOTAL FREE ENERGY PREDICTED BY IDOCK:   16.18 KCAL/MOL
REMARK 923 INTER-LIGAND FREE ENERGY PREDICTED BY IDOCK:   11.28 KCAL/MOL
REMARK 924 INTRA-LIGAND FREE ENERGY PREDICTED BY IDOCK:    4.91 KCAL/MOL
REMARK 927      BINDING AFFINITY PREDICTED BY RF-SCORE:    0.00 PKD
ROOT
HETATM    1  N   UNL     1      -6.680  19.957  64.999  1.00  0.00    -0.323 NA 
HETATM    2  C   UNL     1      -8.100  20.111  65.329  1.00  0.00     0.580 C  
HETATM    3  H1  UNL     1      -6.282  20.696  64.421  1.00  0.00     0.000 HD 
HETATM    4  H2  UNL     1      -6.520  19.049  64.563  1.00  0.00     0.000 HD 
ENDROOT
BRANCH   2   5
HETATM    5  C   UNL     1      -8.706  18.985  66.207  1.00  0.00    -0.273 C  
HETATM    6  O   UNL     1      -7.713  18.126  66.826  1.00  0.00    -0.209 OA 
HETATM    7  C   UNL     1      -8.342  17.192  67.720  1.00  0.00    -0.202 C  
HETATM    8  C   UNL     1      -9.300  16.241  66.931  1.00  0.00    -0.224 C  
HETATM    9  O   UNL     1      -8.891  17.587  64.219  1.00  0.00     6.279 OA 
HETATM   10  H   UNL     1      -9.466  17.069  63.667  1.00  0.00     0.000 HD 
HETATM   11  N   UNL     1      -8.512  15.333  66.033  1.00  0.00    -0.211 NA 
HETATM   12  C   UNL     1     -10.327  17.045  66.136  1.00  0.00    -0.319 C  
HETATM   13  H2  UNL     1      -7.800  14.814  66.547  1.00  0.00     0.000 HD 
HETATM   14  O   UNL     1     -11.342  17.604  66.979  1.00  0.00     0.316 OA 
HETATM   15  C   UNL     1      -9.644  18.142  65.308  1.00  0.00     1.598 C  
HETATM   16  H1  UNL     1      -9.136  14.712  65.519  1.00  0.00     0.000 HD 
HETATM   17  H   UNL     1     -11.981  18.104  66.484  1.00  0.00     0.000 HD 
BRANCH   7  18
HETATM   18  O   UNL     1      -7.444  16.275  68.319  1.00  0.00    -0.149 OA 
BRANCH  18  19
HETATM   19  C   UNL     1      -7.937  15.149  69.033  1.00  0.00    -0.188 C  
HETATM   20  O   UNL     1      -8.119  14.086  66.799  1.00  0.00    -0.386 OA 
HETATM   21  C   UNL     1      -6.711  14.743  69.860  1.00  0.00    -0.172 C  
HETATM   22  C   UNL     1      -7.253  12.826  68.708  1.00  0.00    -0.077 C  
HETATM   23  H   UNL     1      -8.322  13.306  66.295  1.00  0.00     0.000 HD 
HETATM   24  O   UNL     1      -6.156  13.573  69.236  1.00  0.00    -0.086 OA 
HETATM   25  C   UNL     1      -8.267  13.883  68.216  1.00  0.00    -0.158 C  
BRANCH  21  26
HETATM   26  C   UNL     1      -7.010  14.513  71.344  1.00  0.00     1.582 C  
HETATM   27  H   UNL     1      -8.591  14.348  72.536  1.00  0.00     0.000 HD 
HETATM   28  O   UNL     1      -8.405  14.490  71.616  1.00  0.00     3.604 OA 
ENDBRANCH  21  26
BRANCH  22  29
HETATM   29  O   UNL     1      -7.809  11.973  69.718  1.00  0.00     0.810 OA 
BRANCH  29  30
HETATM   30  C   UNL     1      -8.945  11.126  69.336  1.00  0.00     0.326 C  
HETATM   31  C   UNL     1      -9.956  11.005  70.506  1.00  0.00     2.084 C  
HETATM   32  O   UNL     1     -10.929  12.066  70.393  1.00  0.00     0.080 OA 
HETATM   33  C   UNL     1     -10.741   9.693  70.674  1.00  0.00    -0.322 C  
HETATM   34  C   UNL     1     -10.025   8.473  70.122  1.00  0.00    -0.187 C  
HETATM   35  N   UNL     1     -11.022   9.458  72.113  1.00  0.00     0.073 NA 
HETATM   36  H   UNL     1     -11.548  11.992  71.110  1.00  0.00     0.000 HD 
HETATM   37  H1  UNL     1     -11.543   8.588  72.224  1.00  0.00     0.000 HD 
HETATM   38  H2  UNL     1     -11.500  10.249  72.545  1.00  0.00     0.000 HD 
HETATM   39  C   UNL     1      -9.602   8.723  68.675  1.00  0.00    -0.154 C  
HETATM   40  C   UNL     1      -8.503   9.815  68.629  1.00  0.00    -0.116 C  
HETATM   41  N   UNL     1      -9.124   7.447  68.098  1.00  0.00    -0.132 NA 
HETATM   42  H2  UNL     1      -9.811   6.698  68.182  1.00  0.00     0.000 HD 
HETATM   43  H1  UNL     1      -8.842   7.614  67.133  1.00  0.00     0.000 HD 
BRANCH  40  44
HETATM   44  O   UNL     1      -8.182  10.035  67.233  1.00  0.00    -0.116 OA 
BRANCH  44  45
HETATM   45  C   UNL     1      -8.395   8.915  66.369  1.00  0.00    -0.116 C  
HETATM   46  O   UNL     1      -9.287   9.236  65.299  1.00  0.00    -0.241 OA 
HETATM   47  C   UNL     1      -8.768  10.227  64.400  1.00  0.00    -0.198 C  
HETATM   48  C   UNL     1      -7.437   9.784  63.775  1.00  0.00    -0.128 C  
HETATM   49  H1  UNL     1      -5.179   7.707  66.560  1.00  0.00     0.000 HD 
HETATM   50  O   UNL     1      -6.880  10.787  62.913  1.00  0.00    -0.338 OA 
HETATM   51  H2  UNL     1      -6.488   7.374  67.557  1.00  0.00     0.000 HD 
HETATM   52  C   UNL     1      -6.428   9.449  64.883  1.00  0.00    -0.078 C  
HETATM   53  H   UNL     1      -6.056  10.512  62.527  1.00  0.00     0.000 HD 
HETATM   54  O   UNL     1      -5.218   8.939  64.297  1.00  0.00    -0.053 OA 
HETATM   55  C   UNL     1      -7.030   8.399  65.834  1.00  0.00    -0.068 C  
HETATM   56  N   UNL     1      -6.074   8.046  66.911  1.00  0.00    -0.052 NA 
HETATM   57  H   UNL     1      -4.594   8.731  64.982  1.00  0.00     0.000 HD 
BRANCH  47  58
HETATM   58  C   UNL     1      -9.858  10.550  63.352  1.00  0.00    -0.264 C  
HETATM   59  H1  UNL     1     -10.810  12.195  62.439  1.00  0.00     0.000 HD 
HETATM   60  N   UNL     1     -10.090  11.982  63.131  1.00  0.00    -0.518 NA 
HETATM   61  H2  UNL     1      -9.216  12.449  62.888  1.00  0.00     0.000 HD 
ENDBRANCH  47  58
ENDBRANCH  44  45
ENDBRANCH  40  44
ENDBRANCH  29  30
ENDBRANCH  22  29
ENDBRANCH  18  19
ENDBRANCH   7  18
ENDBRANCH   2   5
TORSDOF 9
ENDMDL
MODEL      310
REMARK 921   NORMALIZED FREE ENERGY PREDICTED BY IDOCK:   12.65 KCAL/MOL
REMARK 922        TOTAL FREE ENERGY PREDICTED BY IDOCK:   16.50 KCAL/MOL
REMARK 923 INTER-LIGAND FREE ENERGY PREDICTED BY IDOCK:   -1.27 KCAL/MOL
REMARK 924 INTRA-LIGAND FREE ENERGY PREDICTED BY IDOCK:   17.77 KCAL/MOL
REMARK 927      BINDING AFFINITY PREDICTED BY RF-SCORE:    0.00 PKD
ROOT
HETATM    1  N   UNL     1     -12.549  10.419  68.755  1.00  0.00    -0.085 NA 
HETATM    2  C   UNL     1     -13.265  11.688  68.910  1.00  0.00     3.271 C  
HETATM    3  H1  UNL     1     -12.967   9.619  69.228  1.00  0.00     0.000 HD 
HETATM    4  H2  UNL     1     -11.578  10.529  69.046  1.00  0.00     0.000 HD 
ENDROOT
BRANCH   2   5
HETATM    5  C   UNL     1     -12.629  12.906  68.189  1.00  0.00     0.931 C  
HETATM    6  O   UNL     1     -11.381  12.599  67.514  1.00  0.00    -0.271 OA 
HETATM    7  C   UNL     1     -10.920  13.739  66.768  1.00  0.00    -0.304 C  
HETATM    8  C   UNL     1     -10.606  14.931  67.729  1.00  0.00    -0.262 C  
HETATM    9  O   UNL     1     -11.523  13.512  70.275  1.00  0.00    -0.506 OA 
HETATM   10  H   UNL     1     -11.379  14.189  70.926  1.00  0.00     0.000 HD 
HETATM   11  N   UNL     1      -9.414  14.614  68.584  1.00  0.00    -0.209 NA 
HETATM   12  C   UNL     1     -11.824  15.270  68.587  1.00  0.00    -0.305 C  
HETATM   13  H2  UNL     1      -8.602  14.354  68.024  1.00  0.00     0.000 HD 
HETATM   14  O   UNL     1     -12.837  15.953  67.837  1.00  0.00     1.058 OA 
HETATM   15  C   UNL     1     -12.396  14.010  69.250  1.00  0.00    -0.171 C  
HETATM   16  H1  UNL     1      -9.209  15.392  69.211  1.00  0.00     0.000 HD 
HETATM   17  H   UNL     1     -13.595  16.163  68.371  1.00  0.00     0.000 HD 
BRANCH   7  18
HETATM   18  O   UNL     1      -9.671  13.541  66.128  1.00  0.00    -0.284 OA 
BRANCH  18  19
HETATM   19  C   UNL     1      -9.208  12.227  65.848  1.00  0.00    -0.027 C  
HETATM   20  O   UNL     1      -9.340  11.894  68.304  1.00  0.00    -0.186 OA 
HETATM   21  C   UNL     1     -10.376  11.649  65.040  1.00  0.00    -0.281 C  
HETATM   22  C   UNL     1     -10.117  10.154  66.770  1.00  0.00    -0.219 C  
HETATM   23  H   UNL     1      -9.255  11.298  69.039  1.00  0.00     0.000 HD 
HETATM   24  O   UNL     1     -11.089  10.758  65.915  1.00  0.00    -0.007 OA 
HETATM   25  C   UNL     1      -9.070  11.258  67.041  1.00  0.00    -0.163 C  
BRANCH  21  26
HETATM   26  C   UNL     1      -9.953  10.959  63.741  1.00  0.00    -0.351 C  
HETATM   27  H   UNL     1      -9.058   9.279  63.170  1.00  0.00     0.000 HD 
HETATM   28  O   UNL     1      -9.321   9.708  63.975  1.00  0.00    -0.227 OA 
ENDBRANCH  21  26
BRANCH  22  29
HETATM   29  O   UNL     1      -9.539   9.005  66.137  1.00  0.00    -0.233 OA 
BRANCH  29  30
HETATM   30  C   UNL     1      -9.144   7.885  67.001  1.00  0.00    -0.137 C  
HETATM   31  C   UNL     1      -9.854   7.977  68.377  1.00  0.00    -0.171 C  
HETATM   32  O   UNL     1     -11.105   7.259  68.305  1.00  0.00    -0.453 OA 
HETATM   33  C   UNL     1      -9.115   7.470  69.626  1.00  0.00    -0.140 C  
HETATM   34  C   UNL     1      -7.602   7.531  69.514  1.00  0.00    -0.095 C  
HETATM   35  N   UNL     1      -9.529   8.265  70.811  1.00  0.00    -0.158 NA 
HETATM   36  H   UNL     1     -11.539   7.316  69.149  1.00  0.00     0.000 HD 
HETATM   37  H1  UNL     1      -9.039   7.928  71.639  1.00  0.00     0.000 HD 
HETATM   38  H2  UNL     1     -10.541   8.266  70.937  1.00  0.00     0.000 HD 
HETATM   39  C   UNL     1      -7.141   6.833  68.236  1.00  0.00    -0.086 C  
HETATM   40  C   UNL     1      -7.610   7.639  66.997  1.00  0.00    -0.103 C  
HETATM   41  N   UNL     1      -5.668   6.706  68.275  1.00  0.00    -0.016 NA 
HETATM   42  H2  UNL     1      -5.338   6.236  69.118  1.00  0.00     0.000 HD 
HETATM   43  H1  UNL     1      -5.361   6.239  67.421  1.00  0.00     0.000 HD 
BRANCH  40  44
HETATM   44  O   UNL     1      -7.183   6.902  65.825  1.00  0.00    -0.070 OA 
BRANCH  44  45
HETATM   45  C   UNL     1      -8.235   6.360  65.022  1.00  0.00    -0.125 C  
HETATM   46  O   UNL     1      -7.755   5.344  64.139  1.00  0.00    -0.075 OA 
HETATM   47  C   UNL     1      -7.256   4.183  64.818  1.00  0.00    -0.070 C  
HETATM   48  C   UNL     1      -8.328   3.547  65.715  1.00  0.00    -0.106 C  
HETATM   49  H1  UNL     1     -10.650   6.496  67.470  1.00  0.00     0.000 HD 
HETATM   50  O   UNL     1      -7.828   2.416  66.442  1.00  0.00    -0.074 OA 
HETATM   51  H2  UNL     1     -10.211   7.676  66.359  1.00  0.00     0.000 HD 
HETATM   52  C   UNL     1      -8.864   4.590  66.707  1.00  0.00    -0.112 C  
HETATM   53  H   UNL     1      -8.491   2.022  66.997  1.00  0.00     0.000 HD 
HETATM   54  O   UNL     1      -9.936   4.020  67.476  1.00  0.00    -0.114 OA 
HETATM   55  C   UNL     1      -9.370   5.825  65.938  1.00  0.00    -0.077 C  
HETATM   56  N   UNL     1      -9.905   6.848  66.869  1.00  0.00    -0.172 NA 
HETATM   57  H   UNL     1     -10.268   4.666  68.089  1.00  0.00     0.000 HD 
BRANCH  47  58
HETATM   58  C   UNL     1      -6.686   3.210  63.762  1.00  0.00    -0.032 C  
HETATM   59  H1  UNL     1      -7.144   2.402  61.869  1.00  0.00     0.000 HD 
HETATM   60  N   UNL     1      -7.521   3.046  62.566  1.00  0.00    -0.051 NA 
HETATM   61  H2  UNL     1      -7.716   3.953  62.143  1.00  0.00     0.000 HD 
ENDBRANCH  47  58
ENDBRANCH  44  45
ENDBRANCH  40  44
ENDBRANCH  29  30
ENDBRANCH  22  29
ENDBRANCH  18  19
ENDBRANCH   7  18
ENDBRANCH   2   5
TORSDOF 9
ENDMDL
MODEL      311
REMARK 921   NORMALIZED FREE ENERGY PREDICTED BY IDOCK:   12.91 KCAL/MOL
REMARK 922        TOTAL FREE ENERGY PREDICTED BY IDOCK:   16.89 KCAL/MOL
REMARK 923 INTER-LIGAND FREE ENERGY PREDICTED BY IDOCK:    7.71 KCAL/MOL
REMARK 924 INTRA-LIGAND FREE ENERGY PREDICTED BY IDOCK:    9.18 KCAL/MOL
REMARK 927      BINDING AFFINITY PREDICTED BY RF-SCORE:    0.00 PKD
ROOT
HETATM    1  N   UNL     1     -13.487   6.612  70.651  1.00  0.00     0.392 NA 
HETATM    2  C   UNL     1     -12.638   7.149  69.584  1.00  0.00     1.718 C  
HETATM    3  H1  UNL     1     -14.354   7.120  70.819  1.00  0.00     0.000 HD 
HETATM    4  H2  UNL     1     -12.953   6.537  71.517  1.00  0.00     0.000 HD 
ENDROOT
BRANCH   2   5
HETATM    5  C   UNL     1     -11.318   6.376  69.329  1.00  0.00    -0.338 C  
HETATM    6  O   UNL     1     -10.192   6.870  70.101  1.00  0.00    -0.188 OA 
HETATM    7  C   UNL     1      -9.042   6.029  69.908  1.00  0.00    -0.141 C  
HETATM    8  C   UNL     1      -8.584   6.063  68.413  1.00  0.00    -0.111 C  
HETATM    9  O   UNL     1     -10.862   7.855  67.445  1.00  0.00    -0.486 OA 
HETATM   10  H   UNL     1     -10.668   7.915  66.516  1.00  0.00     0.000 HD 
HETATM   11  N   UNL     1      -8.043   7.418  68.063  1.00  0.00    -0.122 NA 
HETATM   12  C   UNL     1      -9.735   5.673  67.486  1.00  0.00    -0.124 C  
HETATM   13  H2  UNL     1      -7.296   7.704  68.696  1.00  0.00     0.000 HD 
HETATM   14  O   UNL     1     -10.001   4.265  67.522  1.00  0.00    -0.146 OA 
HETATM   15  C   UNL     1     -11.001   6.474  67.815  1.00  0.00    -0.316 C  
HETATM   16  H1  UNL     1      -7.745   7.441  67.088  1.00  0.00     0.000 HD 
HETATM   17  H   UNL     1     -10.717   4.023  66.946  1.00  0.00     0.000 HD 
BRANCH   7  18
HETATM   18  O   UNL     1      -7.880   6.479  70.582  1.00  0.00    -0.102 OA 
BRANCH  18  19
HETATM   19  C   UNL     1      -7.671   7.867  70.805  1.00  0.00    -0.083 C  
HETATM   20  O   UNL     1      -6.615   7.845  68.559  1.00  0.00    -0.057 OA 
HETATM   21  C   UNL     1      -9.110   8.395  70.852  1.00  0.00    -0.160 C  
HETATM   22  C   UNL     1      -8.118   9.663  69.209  1.00  0.00    -0.107 C  
HETATM   23  H   UNL     1      -6.214   8.342  67.856  1.00  0.00     0.000 HD 
HETATM   24  O   UNL     1      -9.352   9.061  69.602  1.00  0.00    -0.157 OA 
HETATM   25  C   UNL     1      -7.019   8.675  69.663  1.00  0.00    -0.050 C  
BRANCH  21  26
HETATM   26  C   UNL     1      -9.400   9.303  72.051  1.00  0.00     0.566 C  
HETATM   27  H   UNL     1      -9.178   9.278  74.025  1.00  0.00     0.000 HD 
HETATM   28  O   UNL     1      -8.998   8.716  73.281  1.00  0.00    -0.288 OA 
ENDBRANCH  21  26
BRANCH  22  29
HETATM   29  O   UNL     1      -7.972  10.952  69.820  1.00  0.00     0.046 OA 
BRANCH  29  30
HETATM   30  C   UNL     1      -8.145  12.130  68.962  1.00  0.00     0.251 C  
HETATM   31  C   UNL     1      -8.024  13.435  69.792  1.00  0.00     1.443 C  
HETATM   32  O   UNL     1      -6.642  13.855  69.800  1.00  0.00    -0.216 OA 
HETATM   33  C   UNL     1      -8.862  14.656  69.378  1.00  0.00     0.128 C  
HETATM   34  C   UNL     1     -10.146  14.302  68.650  1.00  0.00    -0.238 C  
HETATM   35  N   UNL     1      -9.212  15.454  70.582  1.00  0.00     0.523 NA 
HETATM   36  H   UNL     1      -6.568  14.654  70.308  1.00  0.00     0.000 HD 
HETATM   37  H1  UNL     1      -9.768  16.264  70.307  1.00  0.00     0.000 HD 
HETATM   38  H2  UNL     1      -8.387  15.719  71.119  1.00  0.00     0.000 HD 
HETATM   39  C   UNL     1      -9.844  13.373  67.475  1.00  0.00    -0.227 C  
HETATM   40  C   UNL     1      -9.360  11.998  68.003  1.00  0.00    -0.196 C  
HETATM   41  N   UNL     1     -11.068  13.239  66.655  1.00  0.00    -0.287 NA 
HETATM   42  H2  UNL     1     -11.439  14.141  66.356  1.00  0.00     0.000 HD 
HETATM   43  H1  UNL     1     -10.866  12.619  65.871  1.00  0.00     0.000 HD 
BRANCH  40  44
HETATM   44  O   UNL     1      -9.049  11.185  66.844  1.00  0.00    -0.154 OA 
BRANCH  44  45
HETATM   45  C   UNL     1      -9.321  11.790  65.577  1.00  0.00    -0.118 C  
HETATM   46  O   UNL     1      -8.118  12.157  64.898  1.00  0.00     1.787 OA 
HETATM   47  C   UNL     1      -7.300  11.035  64.536  1.00  0.00     0.716 C  
HETATM   48  C   UNL     1      -8.057  10.049  63.635  1.00  0.00    -0.157 C  
HETATM   49  H1  UNL     1     -12.022   9.800  64.812  1.00  0.00     0.000 HD 
HETATM   50  O   UNL     1      -7.270   8.896  63.307  1.00  0.00    -0.093 OA 
HETATM   51  H2  UNL     1     -11.990  11.248  65.661  1.00  0.00     0.000 HD 
HETATM   52  C   UNL     1      -9.352   9.599  64.327  1.00  0.00    -0.114 C  
HETATM   53  H   UNL     1      -7.738   8.285  62.749  1.00  0.00     0.000 HD 
HETATM   54  O   UNL     1     -10.108   8.756  63.440  1.00  0.00     2.010 OA 
HETATM   55  C   UNL     1     -10.189  10.832  64.715  1.00  0.00    -0.334 C  
HETATM   56  N   UNL     1     -11.453  10.429  65.378  1.00  0.00     1.188 NA 
HETATM   57  H   UNL     1     -10.908   8.478  63.869  1.00  0.00     0.000 HD 
BRANCH  47  58
HETATM   58  C   UNL     1      -5.997  11.569  63.899  1.00  0.00     2.273 C  
HETATM   59  H1  UNL     1      -5.127  11.920  62.011  1.00  0.00     0.000 HD 
HETATM   60  N   UNL     1      -5.987  11.567  62.431  1.00  0.00    -0.223 NA 
HETATM   61  H2  UNL     1      -6.794  12.078  62.071  1.00  0.00     0.000 HD 
ENDBRANCH  47  58
ENDBRANCH  44  45
ENDBRANCH  40  44
ENDBRANCH  29  30
ENDBRANCH  22  29
ENDBRANCH  18  19
ENDBRANCH   7  18
ENDBRANCH   2   5
TORSDOF 9
ENDMDL
MODEL      312
REMARK 921   NORMALIZED FREE ENERGY PREDICTED BY IDOCK:   12.94 KCAL/MOL
REMARK 922        TOTAL FREE ENERGY PREDICTED BY IDOCK:   16.93 KCAL/MOL
REMARK 923 INTER-LIGAND FREE ENERGY PREDICTED BY IDOCK:    3.08 KCAL/MOL
REMARK 924 INTRA-LIGAND FREE ENERGY PREDICTED BY IDOCK:   13.85 KCAL/MOL
REMARK 927      BINDING AFFINITY PREDICTED BY RF-SCORE:    0.00 PKD
ROOT
HETATM    1  N   UNL     1      -9.921  19.363  68.910  1.00  0.00    -0.481 NA 
HETATM    2  C   UNL     1      -8.687  18.673  68.521  1.00  0.00    -0.332 C  
HETATM    3  H1  UNL     1     -10.005  20.326  68.586  1.00  0.00     0.000 HD 
HETATM    4  H2  UNL     1     -10.039  19.323  69.922  1.00  0.00     0.000 HD 
ENDROOT
BRANCH   2   5
HETATM    5  C   UNL     1      -8.559  17.208  69.014  1.00  0.00    -0.101 C  
HETATM    6  O   UNL     1      -7.807  16.352  68.115  1.00  0.00    -0.151 OA 
HETATM    7  C   UNL     1      -7.624  15.049  68.696  1.00  0.00    -0.128 C  
HETATM    8  C   UNL     1      -9.004  14.344  68.905  1.00  0.00    -0.067 C  
HETATM    9  O   UNL     1     -10.692  16.704  67.946  1.00  0.00    -0.336 OA 
HETATM   10  H   UNL     1     -11.571  16.360  68.059  1.00  0.00     0.000 HD 
HETATM   11  N   UNL     1      -9.627  14.011  67.582  1.00  0.00    -0.216 NA 
HETATM   12  C   UNL     1      -9.934  15.216  69.747  1.00  0.00    -0.135 C  
HETATM   13  H2  UNL     1      -9.002  13.457  66.996  1.00  0.00     0.000 HD 
HETATM   14  O   UNL     1      -9.563  15.218  71.132  1.00  0.00     0.608 OA 
HETATM   15  C   UNL     1      -9.992  16.648  69.199  1.00  0.00    -0.263 C  
HETATM   16  H1  UNL     1     -10.527  13.552  67.718  1.00  0.00     0.000 HD 
HETATM   17  H   UNL     1     -10.142  15.760  71.656  1.00  0.00     0.000 HD 
BRANCH   7  18
HETATM   18  O   UNL     1      -6.950  14.132  67.853  1.00  0.00    -0.128 OA 
BRANCH  18  19
HETATM   19  C   UNL     1      -6.440  12.914  68.379  1.00  0.00    -0.082 C  
HETATM   20  O   UNL     1      -7.559  13.608  70.482  1.00  0.00     1.037 OA 
HETATM   21  C   UNL     1      -7.194  11.873  67.543  1.00  0.00    -0.125 C  
HETATM   22  C   UNL     1      -7.685  11.289  69.713  1.00  0.00     0.530 C  
HETATM   23  H   UNL     1      -7.791  13.391  71.377  1.00  0.00     0.000 HD 
HETATM   24  O   UNL     1      -8.216  11.320  68.388  1.00  0.00    -0.135 OA 
HETATM   25  C   UNL     1      -6.815  12.560  69.833  1.00  0.00     0.379 C  
BRANCH  21  26
HETATM   26  C   UNL     1      -6.295  10.787  66.944  1.00  0.00    -0.084 C  
HETATM   27  H   UNL     1      -5.372  10.397  65.229  1.00  0.00     0.000 HD 
HETATM   28  O   UNL     1      -5.929  11.070  65.600  1.00  0.00    -0.111 OA 
ENDBRANCH  21  26
BRANCH  22  29
HETATM   29  O   UNL     1      -6.924  10.092  69.920  1.00  0.00    -0.083 OA 
BRANCH  29  30
HETATM   30  C   UNL     1      -7.493   8.835  69.418  1.00  0.00    -0.080 C  
HETATM   31  C   UNL     1      -7.376   8.758  67.873  1.00  0.00    -0.088 C  
HETATM   32  O   UNL     1      -6.121   8.129  67.532  1.00  0.00    -0.048 OA 
HETATM   33  C   UNL     1      -8.474   8.029  67.082  1.00  0.00    -0.124 C  
HETATM   34  C   UNL     1      -9.827   8.023  67.770  1.00  0.00    -0.207 C  
HETATM   35  N   UNL     1      -8.631   8.658  65.746  1.00  0.00    -0.153 NA 
HETATM   36  H   UNL     1      -6.049   8.082  66.586  1.00  0.00     0.000 HD 
HETATM   37  H1  UNL     1      -9.359   8.174  65.221  1.00  0.00     0.000 HD 
HETATM   38  H2  UNL     1      -7.750   8.696  65.233  1.00  0.00     0.000 HD 
HETATM   39  C   UNL     1      -9.688   7.500  69.199  1.00  0.00    -0.166 C  
HETATM   40  C   UNL     1      -8.874   8.508  70.051  1.00  0.00    -0.141 C  
HETATM   41  N   UNL     1     -11.041   7.288  69.756  1.00  0.00    -0.396 NA 
HETATM   42  H2  UNL     1     -11.614   6.680  69.170  1.00  0.00     0.000 HD 
HETATM   43  H1  UNL     1     -10.948   6.939  70.710  1.00  0.00     0.000 HD 
BRANCH  40  44
HETATM   44  O   UNL     1      -8.740   7.933  71.374  1.00  0.00    -0.120 OA 
BRANCH  44  45
HETATM   45  C   UNL     1      -9.550   8.531  72.390  1.00  0.00    -0.286 C  
HETATM   46  O   UNL     1      -9.925   9.867  72.047  1.00  0.00     1.043 OA 
HETATM   47  C   UNL     1     -10.770   9.947  70.891  1.00  0.00    -0.235 C  
HETATM   48  C   UNL     1     -12.062   9.137  71.076  1.00  0.00    -0.263 C  
HETATM   49  H1  UNL     1     -11.275   5.664  73.193  1.00  0.00     0.000 HD 
HETATM   50  O   UNL     1     -12.894   9.165  69.907  1.00  0.00     0.510 OA 
HETATM   51  H2  UNL     1      -9.822   6.226  73.817  1.00  0.00     0.000 HD 
HETATM   52  C   UNL     1     -11.720   7.681  71.422  1.00  0.00    -0.283 C  
HETATM   53  H   UNL     1     -13.694   8.664  70.022  1.00  0.00     0.000 HD 
HETATM   54  O   UNL     1     -12.929   6.951  71.693  1.00  0.00    -0.370 OA 
HETATM   55  C   UNL     1     -10.798   7.642  72.654  1.00  0.00    -0.340 C  
HETATM   56  N   UNL     1     -10.457   6.247  73.020  1.00  0.00    -0.215 NA 
HETATM   57  H   UNL     1     -12.716   6.050  71.907  1.00  0.00     0.000 HD 
BRANCH  47  58
HETATM   58  C   UNL     1     -11.023  11.438  70.575  1.00  0.00     0.969 C  
HETATM   59  H1  UNL     1     -10.003  13.281  70.468  1.00  0.00     0.000 HD 
HETATM   60  N   UNL     1      -9.836  12.295  70.676  1.00  0.00     4.484 NA 
HETATM   61  H2  UNL     1      -9.085  11.931  70.089  1.00  0.00     0.000 HD 
ENDBRANCH  47  58
ENDBRANCH  44  45
ENDBRANCH  40  44
ENDBRANCH  29  30
ENDBRANCH  22  29
ENDBRANCH  18  19
ENDBRANCH   7  18
ENDBRANCH   2   5
TORSDOF 9
ENDMDL
MODEL      313
REMARK 921   NORMALIZED FREE ENERGY PREDICTED BY IDOCK:   13.62 KCAL/MOL
REMARK 922        TOTAL FREE ENERGY PREDICTED BY IDOCK:   17.97 KCAL/MOL
REMARK 923 INTER-LIGAND FREE ENERGY PREDICTED BY IDOCK:    7.46 KCAL/MOL
REMARK 924 INTRA-LIGAND FREE ENERGY PREDICTED BY IDOCK:   10.51 KCAL/MOL
REMARK 927      BINDING AFFINITY PREDICTED BY RF-SCORE:    0.00 PKD
ROOT
HETATM    1  N   UNL     1      -7.005  14.468  67.879  1.00  0.00    -0.144 NA 
HETATM    2  C   UNL     1      -7.281  13.087  68.283  1.00  0.00    -0.113 C  
HETATM    3  H1  UNL     1      -7.023  15.157  68.631  1.00  0.00     0.000 HD 
HETATM    4  H2  UNL     1      -7.644  14.748  67.135  1.00  0.00     0.000 HD 
ENDROOT
BRANCH   2   5
HETATM    5  C   UNL     1      -7.254  12.039  67.139  1.00  0.00    -0.131 C  
HETATM    6  O   UNL     1      -8.399  11.147  67.137  1.00  0.00    -0.128 OA 
HETATM    7  C   UNL     1      -8.368  10.293  65.980  1.00  0.00    -0.142 C  
HETATM    8  C   UNL     1      -7.106   9.370  66.016  1.00  0.00    -0.091 C  
HETATM    9  O   UNL     1      -5.929  10.573  68.567  1.00  0.00    -0.044 OA 
HETATM   10  H   UNL     1      -5.128  10.069  68.656  1.00  0.00     0.000 HD 
HETATM   11  N   UNL     1      -7.215   8.378  67.136  1.00  0.00    -0.083 NA 
HETATM   12  C   UNL     1      -5.831  10.203  66.141  1.00  0.00    -0.067 C  
HETATM   13  H2  UNL     1      -8.079   7.838  67.082  1.00  0.00     0.000 HD 
HETATM   14  O   UNL     1      -5.494  10.859  64.912  1.00  0.00    -0.294 OA 
HETATM   15  C   UNL     1      -5.948  11.219  67.285  1.00  0.00    -0.072 C  
HETATM   16  H1  UNL     1      -6.392   7.776  67.159  1.00  0.00     0.000 HD 
HETATM   17  H   UNL     1      -4.701  11.377  64.990  1.00  0.00     0.000 HD 
BRANCH   7  18
HETATM   18  O   UNL     1      -9.422   9.347  65.934  1.00  0.00    -0.211 OA 
BRANCH  18  19
HETATM   19  C   UNL     1      -9.614   8.434  67.007  1.00  0.00    -0.190 C  
HETATM   20  O   UNL     1      -9.518  10.450  68.451  1.00  0.00    -0.141 OA 
HETATM   21  C   UNL     1     -11.021   7.900  66.713  1.00  0.00     0.433 C  
HETATM   22  C   UNL     1     -11.182   8.705  68.862  1.00  0.00     0.417 C  
HETATM   23  H   UNL     1      -9.592  10.816  69.324  1.00  0.00     0.000 HD 
HETATM   24  O   UNL     1     -11.912   8.533  67.647  1.00  0.00     2.696 OA 
HETATM   25  C   UNL     1      -9.735   9.028  68.426  1.00  0.00    -0.156 C  
BRANCH  21  26
HETATM   26  C   UNL     1     -11.129   6.374  66.761  1.00  0.00    -0.170 C  
HETATM   27  H   UNL     1     -10.381   4.797  65.811  1.00  0.00     0.000 HD 
HETATM   28  O   UNL     1     -10.315   5.743  65.782  1.00  0.00     0.168 OA 
ENDBRANCH  21  26
BRANCH  22  29
HETATM   29  O   UNL     1     -11.253   7.517  69.661  1.00  0.00    -0.147 OA 
BRANCH  29  30
HETATM   30  C   UNL     1     -10.258   7.360  70.729  1.00  0.00    -0.197 C  
HETATM   31  C   UNL     1     -10.653   8.195  71.974  1.00  0.00    -0.269 C  
HETATM   32  O   UNL     1     -11.465   7.377  72.845  1.00  0.00    -0.505 OA 
HETATM   33  C   UNL     1      -9.539   8.804  72.841  1.00  0.00     0.296 C  
HETATM   34  C   UNL     1      -8.252   9.080  72.085  1.00  0.00     0.295 C  
HETATM   35  N   UNL     1     -10.012  10.079  73.440  1.00  0.00     7.258 NA 
HETATM   36  H   UNL     1     -11.707   7.888  73.608  1.00  0.00     0.000 HD 
HETATM   37  H1  UNL     1      -9.273  10.483  74.016  1.00  0.00     0.000 HD 
HETATM   38  H2  UNL     1     -10.881   9.960  73.960  1.00  0.00     0.000 HD 
HETATM   39  C   UNL     1      -7.798   7.822  71.346  1.00  0.00    -0.090 C  
HETATM   40  C   UNL     1      -8.798   7.490  70.210  1.00  0.00    -0.146 C  
HETATM   41  N   UNL     1      -6.435   8.053  70.819  1.00  0.00    -0.037 NA 
HETATM   42  H2  UNL     1      -5.778   8.340  71.544  1.00  0.00     0.000 HD 
HETATM   43  H1  UNL     1      -6.132   7.214  70.325  1.00  0.00     0.000 HD 
BRANCH  40  44
HETATM   44  O   UNL     1      -8.337   6.268  69.583  1.00  0.00    -0.122 OA 
BRANCH  44  45
HETATM   45  C   UNL     1      -6.967   6.266  69.173  1.00  0.00    -0.068 C  
HETATM   46  O   UNL     1      -6.088   6.550  70.265  1.00  0.00    -0.029 OA 
HETATM   47  C   UNL     1      -6.106   5.547  71.290  1.00  0.00    -0.033 C  
HETATM   48  C   UNL     1      -5.724   4.166  70.738  1.00  0.00    -0.013 C  
HETATM   49  H1  UNL     1      -7.276   3.678  66.926  1.00  0.00     0.000 HD 
HETATM   50  O   UNL     1      -5.788   3.142  71.740  1.00  0.00    -0.012 OA 
HETATM   51  H2  UNL     1      -7.502   5.322  66.674  1.00  0.00     0.000 HD 
HETATM   52  C   UNL     1      -6.655   3.795  69.573  1.00  0.00    -0.034 C  
HETATM   53  H   UNL     1      -5.552   2.287  71.398  1.00  0.00     0.000 HD 
HETATM   54  O   UNL     1      -6.232   2.549  68.994  1.00  0.00    -0.027 OA 
HETATM   55  C   UNL     1      -6.621   4.905  68.507  1.00  0.00    -0.049 C  
HETATM   56  N   UNL     1      -7.503   4.571  67.363  1.00  0.00    -0.073 NA 
HETATM   57  H   UNL     1      -6.807   2.320  68.273  1.00  0.00     0.000 HD 
BRANCH  47  58
HETATM   58  C   UNL     1      -5.194   6.017  72.445  1.00  0.00    -0.022 C  
HETATM   59  H1  UNL     1      -5.196   6.238  74.542  1.00  0.00     0.000 HD 
HETATM   60  N   UNL     1      -5.799   5.927  73.779  1.00  0.00    -0.054 NA 
HETATM   61  H2  UNL     1      -6.132   4.979  73.954  1.00  0.00     0.000 HD 
ENDBRANCH  47  58
ENDBRANCH  44  45
ENDBRANCH  40  44
ENDBRANCH  29  30
ENDBRANCH  22  29
ENDBRANCH  18  19
ENDBRANCH   7  18
ENDBRANCH   2   5
TORSDOF 9
ENDMDL
MODEL      314
REMARK 921   NORMALIZED FREE ENERGY PREDICTED BY IDOCK:   14.11 KCAL/MOL
REMARK 922        TOTAL FREE ENERGY PREDICTED BY IDOCK:   18.73 KCAL/MOL
REMARK 923 INTER-LIGAND FREE ENERGY PREDICTED BY IDOCK:    2.06 KCAL/MOL
REMARK 924 INTRA-LIGAND FREE ENERGY PREDICTED BY IDOCK:   16.67 KCAL/MOL
REMARK 927      BINDING AFFINITY PREDICTED BY RF-SCORE:    0.00 PKD
ROOT
HETATM    1  N   UNL     1     -10.490  17.198  64.200  1.00  0.00     1.506 NA 
HETATM    2  C   UNL     1     -10.235  16.018  65.030  1.00  0.00     0.022 C  
HETATM    3  H1  UNL     1     -11.219  17.090  63.496  1.00  0.00     0.000 HD 
HETATM    4  H2  UNL     1      -9.624  17.509  63.760  1.00  0.00     0.000 HD 
ENDROOT
BRANCH   2   5
HETATM    5  C   UNL     1      -9.125  16.183  66.101  1.00  0.00    -0.347 C  
HETATM    6  O   UNL     1      -9.148  15.160  67.131  1.00  0.00    -0.192 OA 
HETATM    7  C   UNL     1      -8.019  15.306  68.010  1.00  0.00    -0.131 C  
HETATM    8  C   UNL     1      -8.086  16.674  68.764  1.00  0.00    -0.247 C  
HETATM    9  O   UNL     1     -10.600  17.675  67.343  1.00  0.00    -0.356 OA 
HETATM   10  H   UNL     1     -10.706  18.533  67.738  1.00  0.00     0.000 HD 
HETATM   11  N   UNL     1      -9.237  16.685  69.727  1.00  0.00     0.423 NA 
HETATM   12  C   UNL     1      -8.187  17.833  67.773  1.00  0.00    -0.227 C  
HETATM   13  H2  UNL     1      -9.199  15.897  70.373  1.00  0.00     0.000 HD 
HETATM   14  O   UNL     1      -6.938  18.091  67.117  1.00  0.00    -0.185 OA 
HETATM   15  C   UNL     1      -9.298  17.582  66.745  1.00  0.00    -0.265 C  
HETATM   16  H1  UNL     1      -9.280  17.578  70.218  1.00  0.00     0.000 HD 
HETATM   17  H   UNL     1      -7.001  18.812  66.501  1.00  0.00     0.000 HD 
BRANCH   7  18
HETATM   18  O   UNL     1      -8.002  14.380  69.083  1.00  0.00    -0.103 OA 
BRANCH  18  19
HETATM   19  C   UNL     1      -8.146  12.989  68.833  1.00  0.00     0.206 C  
HETATM   20  O   UNL     1      -8.641  13.681  66.502  1.00  0.00    -0.439 OA 
HETATM   21  C   UNL     1      -6.721  12.478  69.081  1.00  0.00    -0.089 C  
HETATM   22  C   UNL     1      -7.194  11.760  66.947  1.00  0.00    -0.103 C  
HETATM   23  H   UNL     1      -8.824  13.417  65.608  1.00  0.00     0.000 HD 
HETATM   24  O   UNL     1      -6.139  12.221  67.792  1.00  0.00    -0.075 OA 
HETATM   25  C   UNL     1      -8.444  12.559  67.381  1.00  0.00    -0.181 C  
BRANCH  21  26
HETATM   26  C   UNL     1      -6.650  11.253  69.996  1.00  0.00    -0.066 C  
HETATM   27  H   UNL     1      -6.158   9.332  69.878  1.00  0.00     0.000 HD 
HETATM   28  O   UNL     1      -6.202  10.092  69.310  1.00  0.00    -0.043 OA 
ENDBRANCH  21  26
BRANCH  22  29
HETATM   29  O   UNL     1      -7.376  10.346  67.101  1.00  0.00    -0.089 OA 
BRANCH  29  30
HETATM   30  C   UNL     1      -7.429   9.534  65.879  1.00  0.00    -0.100 C  
HETATM   31  C   UNL     1      -6.174   9.780  65.002  1.00  0.00    -0.094 C  
HETATM   32  O   UNL     1      -5.149   8.835  65.381  1.00  0.00    -0.033 OA 
HETATM   33  C   UNL     1      -6.312   9.704  63.473  1.00  0.00    -0.108 C  
HETATM   34  C   UNL     1      -7.704  10.031  62.964  1.00  0.00    -0.143 C  
HETATM   35  N   UNL     1      -5.349  10.638  62.836  1.00  0.00    -0.155 NA 
HETATM   36  H   UNL     1      -4.380   8.986  64.844  1.00  0.00     0.000 HD 
HETATM   37  H1  UNL     1      -5.441  10.587  61.821  1.00  0.00     0.000 HD 
HETATM   38  H2  UNL     1      -4.391  10.472  63.143  1.00  0.00     0.000 HD 
HETATM   39  C   UNL     1      -8.743   9.178  63.690  1.00  0.00    -0.125 C  
HETATM   40  C   UNL     1      -8.817   9.595  65.181  1.00  0.00    -0.180 C  
HETATM   41  N   UNL     1     -10.047   9.349  63.013  1.00  0.00     0.807 NA 
HETATM   42  H2  UNL     1     -10.000   9.143  62.015  1.00  0.00     0.000 HD 
HETATM   43  H1  UNL     1     -10.740   8.779  63.498  1.00  0.00     0.000 HD 
BRANCH  40  44
HETATM   44  O   UNL     1      -9.781   8.720  65.818  1.00  0.00    -0.204 OA 
BRANCH  44  45
HETATM   45  C   UNL     1     -11.085   9.277  66.007  1.00  0.00     1.833 C  
HETATM   46  O   UNL     1     -11.634   8.917  67.277  1.00  0.00     1.248 OA 
HETATM   47  C   UNL     1     -10.904   9.455  68.389  1.00  0.00    -0.109 C  
HETATM   48  C   UNL     1     -10.834  10.989  68.333  1.00  0.00    -0.220 C  
HETATM   49  H1  UNL     1     -10.431  12.252  64.407  1.00  0.00     0.000 HD 
HETATM   50  O   UNL     1     -10.063  11.539  69.410  1.00  0.00    -0.422 OA 
HETATM   51  H2  UNL     1     -10.982  10.807  63.755  1.00  0.00     0.000 HD 
HETATM   52  C   UNL     1     -10.226  11.434  66.994  1.00  0.00    -0.213 C  
HETATM   53  H   UNL     1     -10.020  12.487  69.375  1.00  0.00     0.000 HD 
HETATM   54  O   UNL     1     -10.256  12.869  66.903  1.00  0.00    -0.237 OA 
HETATM   55  C   UNL     1     -11.026  10.820  65.831  1.00  0.00     0.073 C  
HETATM   56  N   UNL     1     -10.469  11.240  64.523  1.00  0.00    -0.314 NA 
HETATM   57  H   UNL     1      -9.880  13.144  66.075  1.00  0.00     0.000 HD 
BRANCH  47  58
HETATM   58  C   UNL     1     -11.539   8.920  69.692  1.00  0.00     0.412 C  
HETATM   59  H1  UNL     1     -12.848   7.413  70.371  1.00  0.00     0.000 HD 
HETATM   60  N   UNL     1     -12.428   7.766  69.511  1.00  0.00     1.323 NA 
HETATM   61  H2  UNL     1     -11.940   7.017  69.020  1.00  0.00     0.000 HD 
ENDBRANCH  47  58
ENDBRANCH  44  45
ENDBRANCH  40  44
ENDBRANCH  29  30
ENDBRANCH  22  29
ENDBRANCH  18  19
ENDBRANCH   7  18
ENDBRANCH   2   5
TORSDOF 9
ENDMDL
MODEL      315
REMARK 921   NORMALIZED FREE ENERGY PREDICTED BY IDOCK:   14.85 KCAL/MOL
REMARK 922        TOTAL FREE ENERGY PREDICTED BY IDOCK:   19.85 KCAL/MOL
REMARK 923 INTER-LIGAND FREE ENERGY PREDICTED BY IDOCK:    9.81 KCAL/MOL
REMARK 924 INTRA-LIGAND FREE ENERGY PREDICTED BY IDOCK:   10.04 KCAL/MOL
REMARK 927      BINDING AFFINITY PREDICTED BY RF-SCORE:    0.00 PKD
ROOT
HETATM    1  N   UNL     1      -6.540  11.918  72.540  1.00  0.00     4.062 NA 
HETATM    2  C   UNL     1      -7.517  10.967  72.002  1.00  0.00     6.773 C  
HETATM    3  H1  UNL     1      -6.809  12.900  72.485  1.00  0.00     0.000 HD 
HETATM    4  H2  UNL     1      -5.634  11.779  72.092  1.00  0.00     0.000 HD 
ENDROOT
BRANCH   2   5
HETATM    5  C   UNL     1      -7.107   9.473  72.084  1.00  0.00     0.925 C  
HETATM    6  O   UNL     1      -6.578   8.942  70.841  1.00  0.00    -0.047 OA 
HETATM    7  C   UNL     1      -6.106   7.597  71.030  1.00  0.00    -0.035 C  
HETATM    8  C   UNL     1      -7.287   6.653  71.431  1.00  0.00    -0.083 C  
HETATM    9  O   UNL     1      -9.403   8.855  71.542  1.00  0.00    -0.246 OA 
HETATM   10  H   UNL     1     -10.171   8.360  71.803  1.00  0.00     0.000 HD 
HETATM   11  N   UNL     1      -8.240   6.492  70.283  1.00  0.00    -0.124 NA 
HETATM   12  C   UNL     1      -8.004   7.183  72.672  1.00  0.00    -0.099 C  
HETATM   13  H2  UNL     1      -7.768   6.171  69.438  1.00  0.00     0.000 HD 
HETATM   14  O   UNL     1      -7.240   6.971  73.866  1.00  0.00    -0.090 OA 
HETATM   15  C   UNL     1      -8.359   8.666  72.511  1.00  0.00    -0.010 C  
HETATM   16  H1  UNL     1      -9.011   5.877  70.545  1.00  0.00     0.000 HD 
HETATM   17  H   UNL     1      -7.686   7.300  74.638  1.00  0.00     0.000 HD 
BRANCH   7  18
HETATM   18  O   UNL     1      -5.629   6.983  69.845  1.00  0.00    -0.022 OA 
BRANCH  18  19
HETATM   19  C   UNL     1      -6.462   6.893  68.697  1.00  0.00    -0.036 C  
HETATM   20  O   UNL     1      -5.221   8.894  67.912  1.00  0.00    -0.034 OA 
HETATM   21  C   UNL     1      -6.013   5.558  68.090  1.00  0.00    -0.018 C  
HETATM   22  C   UNL     1      -5.729   7.062  66.372  1.00  0.00    -0.030 C  
HETATM   23  H   UNL     1      -5.069   9.522  67.215  1.00  0.00     0.000 HD 
HETATM   24  O   UNL     1      -5.193   5.872  66.952  1.00  0.00    -0.005 OA 
HETATM   25  C   UNL     1      -6.217   7.914  67.566  1.00  0.00    -0.051 C  
BRANCH  21  26
HETATM   26  C   UNL     1      -7.169   4.623  67.724  1.00  0.00    -0.066 C  
HETATM   27  H   UNL     1      -7.610   3.276  66.331  1.00  0.00     0.000 HD 
HETATM   28  O   UNL     1      -6.894   3.856  66.558  1.00  0.00    -0.055 OA 
ENDBRANCH  21  26
BRANCH  22  29
HETATM   29  O   UNL     1      -6.793   6.742  65.466  1.00  0.00    -0.049 OA 
BRANCH  29  30
HETATM   30  C   UNL     1      -7.996   7.583  65.513  1.00  0.00    -0.121 C  
HETATM   31  C   UNL     1      -7.633   9.038  65.909  1.00  0.00    -0.094 C  
HETATM   32  O   UNL     1      -7.359   9.793  64.708  1.00  0.00    -0.117 OA 
HETATM   33  C   UNL     1      -8.642   9.854  66.733  1.00  0.00    -0.128 C  
HETATM   34  C   UNL     1      -9.558   9.008  67.598  1.00  0.00    -0.183 C  
HETATM   35  N   UNL     1      -7.916  10.807  67.612  1.00  0.00    -0.109 NA 
HETATM   36  H   UNL     1      -7.137  10.684  64.951  1.00  0.00     0.000 HD 
HETATM   37  H1  UNL     1      -8.586  11.348  68.159  1.00  0.00     0.000 HD 
HETATM   38  H2  UNL     1      -7.277  11.404  67.087  1.00  0.00     0.000 HD 
HETATM   39  C   UNL     1     -10.230   7.928  66.752  1.00  0.00    -0.287 C  
HETATM   40  C   UNL     1      -9.171   6.903  66.269  1.00  0.00    -0.120 C  
HETATM   41  N   UNL     1     -11.281   7.279  67.566  1.00  0.00    -0.541 NA 
HETATM   42  H2  UNL     1     -11.949   7.949  67.948  1.00  0.00     0.000 HD 
HETATM   43  H1  UNL     1     -11.729   6.558  67.000  1.00  0.00     0.000 HD 
BRANCH  40  44
HETATM   44  O   UNL     1      -9.863   5.938  65.439  1.00  0.00     0.345 OA 
BRANCH  44  45
HETATM   45  C   UNL     1     -10.862   5.160  66.103  1.00  0.00    -0.097 C  
HETATM   46  O   UNL     1     -11.362   4.116  65.263  1.00  0.00     0.106 OA 
HETATM   47  C   UNL     1     -10.376   3.131  64.925  1.00  0.00     0.317 C  
HETATM   48  C   UNL     1      -9.781   2.470  66.177  1.00  0.00     0.450 C  
HETATM   49  H1  UNL     1      -9.384   5.268  69.208  1.00  0.00     0.000 HD 
HETATM   50  O   UNL     1      -8.756   1.520  65.857  1.00  0.00    -0.106 OA 
HETATM   51  H2  UNL     1     -10.472   6.347  68.524  1.00  0.00     0.000 HD 
HETATM   52  C   UNL     1      -9.203   3.546  67.109  1.00  0.00    -0.192 C  
HETATM   53  H   UNL     1      -8.387   1.111  66.632  1.00  0.00     0.000 HD 
HETATM   54  O   UNL     1      -8.738   2.935  68.324  1.00  0.00    -0.085 OA 
HETATM   55  C   UNL     1     -10.286   4.592  67.430  1.00  0.00     0.116 C  
HETATM   56  N   UNL     1      -9.761   5.640  68.337  1.00  0.00    -0.122 NA 
HETATM   57  H   UNL     1      -8.381   3.601  68.900  1.00  0.00     0.000 HD 
BRANCH  47  58
HETATM   58  C   UNL     1     -11.015   2.120  63.946  1.00  0.00     0.214 C  
HETATM   59  H1  UNL     1     -10.682   1.238  62.060  1.00  0.00     0.000 HD 
HETATM   60  N   UNL     1     -10.259   1.905  62.707  1.00  0.00    -0.099 NA 
HETATM   61  H2  UNL     1      -9.299   1.633  62.920  1.00  0.00     0.000 HD 
ENDBRANCH  47  58
ENDBRANCH  44  45
ENDBRANCH  40  44
ENDBRANCH  29  30
ENDBRANCH  22  29
ENDBRANCH  18  19
ENDBRANCH   7  18
ENDBRANCH   2   5
TORSDOF 9
ENDMDL
MODEL      316
REMARK 921   NORMALIZED FREE ENERGY PREDICTED BY IDOCK:   15.15 KCAL/MOL
REMARK 922        TOTAL FREE ENERGY PREDICTED BY IDOCK:   20.31 KCAL/MOL
REMARK 923 INTER-LIGAND FREE ENERGY PREDICTED BY IDOCK:   15.47 KCAL/MOL
REMARK 924 INTRA-LIGAND FREE ENERGY PREDICTED BY IDOCK:    4.85 KCAL/MOL
REMARK 927      BINDING AFFINITY PREDICTED BY RF-SCORE:    0.00 PKD
ROOT
HETATM    1  N   UNL     1      -7.429  21.205  71.915  1.00  0.00     2.046 NA 
HETATM    2  C   UNL     1      -7.100  20.004  71.142  1.00  0.00     0.789 C  
HETATM    3  H1  UNL     1      -6.630  21.731  72.267  1.00  0.00     0.000 HD 
HETATM    4  H2  UNL     1      -8.054  20.966  72.684  1.00  0.00     0.000 HD 
ENDROOT
BRANCH   2   5
HETATM    5  C   UNL     1      -8.316  19.203  70.607  1.00  0.00     2.779 C  
HETATM    6  O   UNL     1      -8.100  18.618  69.296  1.00  0.00    -0.060 OA 
HETATM    7  C   UNL     1      -9.216  17.790  68.925  1.00  0.00    -0.139 C  
HETATM    8  C   UNL     1     -10.517  18.649  68.802  1.00  0.00     0.002 C  
HETATM    9  O   UNL     1      -9.229  21.272  69.697  1.00  0.00     2.768 OA 
HETATM   10  H   UNL     1      -9.973  21.862  69.668  1.00  0.00     0.000 HD 
HETATM   11  N   UNL     1     -10.418  19.585  67.633  1.00  0.00    -0.447 NA 
HETATM   12  C   UNL     1     -10.784  19.414  70.098  1.00  0.00     1.835 C  
HETATM   13  H2  UNL     1     -10.207  19.089  66.767  1.00  0.00     0.000 HD 
HETATM   14  O   UNL     1     -11.275  18.557  71.137  1.00  0.00     2.180 OA 
HETATM   15  C   UNL     1      -9.529  20.165  70.561  1.00  0.00     1.362 C  
HETATM   16  H1  UNL     1     -11.267  20.145  67.554  1.00  0.00     0.000 HD 
HETATM   17  H   UNL     1     -11.441  19.033  71.943  1.00  0.00     0.000 HD 
BRANCH   7  18
HETATM   18  O   UNL     1      -9.111  17.230  67.628  1.00  0.00    -0.225 OA 
BRANCH  18  19
HETATM   19  C   UNL     1      -9.494  15.882  67.394  1.00  0.00    -0.219 C  
HETATM   20  O   UNL     1      -7.334  15.708  66.186  1.00  0.00     0.129 OA 
HETATM   21  C   UNL     1      -9.503  15.309  68.816  1.00  0.00    -0.212 C  
HETATM   22  C   UNL     1      -8.074  13.913  67.675  1.00  0.00    -0.177 C  
HETATM   23  H   UNL     1      -6.716  15.154  65.722  1.00  0.00     0.000 HD 
HETATM   24  O   UNL     1      -8.318  14.507  68.951  1.00  0.00    -0.157 OA 
HETATM   25  C   UNL     1      -8.491  14.983  66.641  1.00  0.00    -0.157 C  
BRANCH  21  26
HETATM   26  C   UNL     1     -10.770  14.522  69.162  1.00  0.00    -0.252 C  
HETATM   27  H   UNL     1     -12.540  14.118  68.353  1.00  0.00     0.000 HD 
HETATM   28  O   UNL     1     -11.754  14.606  68.139  1.00  0.00    -0.317 OA 
ENDBRANCH  21  26
BRANCH  22  29
HETATM   29  O   UNL     1      -8.828  12.702  67.534  1.00  0.00    -0.167 OA 
BRANCH  29  30
HETATM   30  C   UNL     1      -9.473  12.455  66.238  1.00  0.00    -0.220 C  
HETATM   31  C   UNL     1      -9.985  13.781  65.619  1.00  0.00    -0.255 C  
HETATM   32  O   UNL     1      -8.939  14.346  64.798  1.00  0.00     1.242 OA 
HETATM   33  C   UNL     1     -11.262  13.753  64.763  1.00  0.00    -0.366 C  
HETATM   34  C   UNL     1     -12.218  12.630  65.120  1.00  0.00    -0.539 C  
HETATM   35  N   UNL     1     -11.985  15.044  64.899  1.00  0.00    -0.304 NA 
HETATM   36  H   UNL     1      -9.254  15.158  64.418  1.00  0.00     0.000 HD 
HETATM   37  H1  UNL     1     -12.832  15.025  64.331  1.00  0.00     0.000 HD 
HETATM   38  H2  UNL     1     -11.390  15.842  64.676  1.00  0.00     0.000 HD 
HETATM   39  C   UNL     1     -11.481  11.291  65.117  1.00  0.00     0.183 C  
HETATM   40  C   UNL     1     -10.457  11.253  66.280  1.00  0.00    -0.258 C  
HETATM   41  N   UNL     1     -12.478  10.205  65.236  1.00  0.00     6.278 NA 
HETATM   42  H2  UNL     1     -13.200  10.256  64.517  1.00  0.00     0.000 HD 
HETATM   43  H1  UNL     1     -11.986   9.312  65.234  1.00  0.00     0.000 HD 
BRANCH  40  44
HETATM   44  O   UNL     1      -9.764   9.983  66.192  1.00  0.00    -0.196 OA 
BRANCH  44  45
HETATM   45  C   UNL     1     -10.181   8.988  67.130  1.00  0.00    -0.265 C  
HETATM   46  O   UNL     1      -9.276   7.882  67.165  1.00  0.00    -0.138 OA 
HETATM   47  C   UNL     1      -7.968   8.228  67.642  1.00  0.00    -0.118 C  
HETATM   48  C   UNL     1      -8.020   8.827  69.055  1.00  0.00    -0.111 C  
HETATM   49  H1  UNL     1     -11.391  11.200  69.472  1.00  0.00     0.000 HD 
HETATM   50  O   UNL     1      -6.724   9.226  69.525  1.00  0.00    -0.046 OA 
HETATM   51  H2  UNL     1     -12.189  10.512  68.165  1.00  0.00     0.000 HD 
HETATM   52  C   UNL     1      -8.962  10.040  69.073  1.00  0.00    -0.163 C  
HETATM   53  H   UNL     1      -6.757   9.597  70.400  1.00  0.00     0.000 HD 
HETATM   54  O   UNL     1      -9.087  10.536  70.416  1.00  0.00    -0.049 OA 
HETATM   55  C   UNL     1     -10.346   9.630  68.536  1.00  0.00    -0.205 C  
HETATM   56  N   UNL     1     -11.282  10.779  68.550  1.00  0.00    -0.258 NA 
HETATM   57  H   UNL     1      -9.670  11.286  70.427  1.00  0.00     0.000 HD 
BRANCH  47  58
HETATM   58  C   UNL     1      -7.067   6.976  67.542  1.00  0.00    -0.085 C  
HETATM   59  H1  UNL     1      -5.075   6.367  67.863  1.00  0.00     0.000 HD 
HETATM   60  N   UNL     1      -5.669   7.194  67.930  1.00  0.00    -0.024 NA 
HETATM   61  H2  UNL     1      -5.620   7.591  68.868  1.00  0.00     0.000 HD 
ENDBRANCH  47  58
ENDBRANCH  44  45
ENDBRANCH  40  44
ENDBRANCH  29  30
ENDBRANCH  22  29
ENDBRANCH  18  19
ENDBRANCH   7  18
ENDBRANCH   2   5
TORSDOF 9
ENDMDL
MODEL      317
REMARK 921   NORMALIZED FREE ENERGY PREDICTED BY IDOCK:   16.59 KCAL/MOL
REMARK 922        TOTAL FREE ENERGY PREDICTED BY IDOCK:   22.51 KCAL/MOL
REMARK 923 INTER-LIGAND FREE ENERGY PREDICTED BY IDOCK:   14.01 KCAL/MOL
REMARK 924 INTRA-LIGAND FREE ENERGY PREDICTED BY IDOCK:    8.49 KCAL/MOL
REMARK 927      BINDING AFFINITY PREDICTED BY RF-SCORE:    0.00 PKD
ROOT
HETATM    1  N   UNL     1      -9.915  19.479  68.921  1.00  0.00    -0.481 NA 
HETATM    2  C   UNL     1      -8.719  18.987  68.232  1.00  0.00    -0.331 C  
HETATM    3  H1  UNL     1     -10.106  20.474  68.809  1.00  0.00     0.000 HD 
HETATM    4  H2  UNL     1      -9.869  19.242  69.912  1.00  0.00     0.000 HD 
ENDROOT
BRANCH   2   5
HETATM    5  C   UNL     1      -8.427  17.473  68.403  1.00  0.00    -0.275 C  
HETATM    6  O   UNL     1      -7.957  16.827  67.191  1.00  0.00    -0.162 OA 
HETATM    7  C   UNL     1      -7.589  15.462  67.458  1.00  0.00    -0.181 C  
HETATM    8  C   UNL     1      -8.835  14.642  67.926  1.00  0.00    -0.170 C  
HETATM    9  O   UNL     1     -10.770  17.007  67.919  1.00  0.00    -0.356 OA 
HETATM   10  H   UNL     1     -11.572  16.591  68.217  1.00  0.00     0.000 HD 
HETATM   11  N   UNL     1      -9.813  14.487  66.799  1.00  0.00    -0.257 NA 
HETATM   12  C   UNL     1      -9.493  15.301  69.138  1.00  0.00    -0.236 C  
HETATM   13  H2  UNL     1      -9.378  14.079  65.972  1.00  0.00     0.000 HD 
HETATM   14  O   UNL     1      -8.732  15.102  70.337  1.00  0.00    -0.064 OA 
HETATM   15  C   UNL     1      -9.733  16.795  68.889  1.00  0.00    -0.257 C  
HETATM   16  H1  UNL     1     -10.626  13.952  67.104  1.00  0.00     0.000 HD 
HETATM   17  H   UNL     1      -9.140  15.512  71.091  1.00  0.00     0.000 HD 
BRANCH   7  18
HETATM   18  O   UNL     1      -7.177  14.742  66.310  1.00  0.00     1.248 OA 
BRANCH  18  19
HETATM   19  C   UNL     1      -6.792  13.378  66.418  1.00  0.00     2.824 C  
HETATM   20  O   UNL     1      -7.144  13.699  68.854  1.00  0.00    -0.108 OA 
HETATM   21  C   UNL     1      -7.932  12.672  65.674  1.00  0.00     2.344 C  
HETATM   22  C   UNL     1      -7.924  11.664  67.743  1.00  0.00    -0.131 C  
HETATM   23  H   UNL     1      -7.163  13.310  69.720  1.00  0.00     0.000 HD 
HETATM   24  O   UNL     1      -8.777  12.076  66.673  1.00  0.00    -0.194 OA 
HETATM   25  C   UNL     1      -6.823  12.745  67.825  1.00  0.00    -0.135 C  
BRANCH  21  26
HETATM   26  C   UNL     1      -7.459  11.649  64.639  1.00  0.00     2.250 C  
HETATM   27  H   UNL     1      -7.097  11.564  62.687  1.00  0.00     0.000 HD 
HETATM   28  O   UNL     1      -7.391  12.198  63.329  1.00  0.00     2.834 OA 
ENDBRANCH  21  26
BRANCH  22  29
HETATM   29  O   UNL     1      -7.385  10.362  67.480  1.00  0.00    -0.090 OA 
BRANCH  29  30
HETATM   30  C   UNL     1      -8.318   9.324  67.025  1.00  0.00    -0.120 C  
HETATM   31  C   UNL     1      -8.940   9.706  65.657  1.00  0.00    -0.169 C  
HETATM   32  O   UNL     1      -8.105   9.178  64.603  1.00  0.00    -0.121 OA 
HETATM   33  C   UNL     1     -10.381   9.269  65.350  1.00  0.00     0.923 C  
HETATM   34  C   UNL     1     -11.246   9.090  66.585  1.00  0.00     1.216 C  
HETATM   35  N   UNL     1     -11.031  10.270  64.466  1.00  0.00     0.398 NA 
HETATM   36  H   UNL     1      -8.486   9.412  63.764  1.00  0.00     0.000 HD 
HETATM   37  H1  UNL     1     -11.988   9.979  64.262  1.00  0.00     0.000 HD 
HETATM   38  H2  UNL     1     -10.493  10.438  63.616  1.00  0.00     0.000 HD 
HETATM   39  C   UNL     1     -10.551   8.164  67.583  1.00  0.00    -0.188 C  
HETATM   40  C   UNL     1      -9.285   8.855  68.148  1.00  0.00    -0.139 C  
HETATM   41  N   UNL     1     -11.511   7.826  68.657  1.00  0.00     0.144 NA 
HETATM   42  H2  UNL     1     -12.380   7.432  68.296  1.00  0.00     0.000 HD 
HETATM   43  H1  UNL     1     -11.047   7.208  69.323  1.00  0.00     0.000 HD 
BRANCH  40  44
HETATM   44  O   UNL     1      -8.652   7.910  69.047  1.00  0.00    -0.133 OA 
BRANCH  44  45
HETATM   45  C   UNL     1      -9.111   7.947  70.401  1.00  0.00    -0.154 C  
HETATM   46  O   UNL     1      -8.347   7.079  71.241  1.00  0.00    -0.113 OA 
HETATM   47  C   UNL     1      -6.973   7.470  71.370  1.00  0.00    -0.054 C  
HETATM   48  C   UNL     1      -6.839   8.893  71.932  1.00  0.00    -0.001 C  
HETATM   49  H1  UNL     1      -9.852  11.307  70.429  1.00  0.00     0.000 HD 
HETATM   50  O   UNL     1      -5.472   9.318  72.018  1.00  0.00    -0.067 OA 
HETATM   51  H2  UNL     1     -10.830  10.019  69.978  1.00  0.00     0.000 HD 
HETATM   52  C   UNL     1      -7.622   9.877  71.051  1.00  0.00     0.615 C  
HETATM   53  H   UNL     1      -5.389  10.199  72.366  1.00  0.00     0.000 HD 
HETATM   54  O   UNL     1      -7.579  11.191  71.635  1.00  0.00     4.090 OA 
HETATM   55  C   UNL     1      -9.084   9.410  70.923  1.00  0.00    -0.152 C  
HETATM   56  N   UNL     1      -9.870  10.347  70.086  1.00  0.00     0.060 NA 
HETATM   57  H   UNL     1      -8.063  11.799  71.090  1.00  0.00     0.000 HD 
BRANCH  47  58
HETATM   58  C   UNL     1      -6.243   6.406  72.220  1.00  0.00    -0.049 C  
HETATM   59  H1  UNL     1      -6.187   4.321  72.532  1.00  0.00     0.000 HD 
HETATM   60  N   UNL     1      -6.669   5.024  71.970  1.00  0.00    -0.046 NA 
HETATM   61  H2  UNL     1      -6.588   4.802  70.978  1.00  0.00     0.000 HD 
ENDBRANCH  47  58
ENDBRANCH  44  45
ENDBRANCH  40  44
ENDBRANCH  29  30
ENDBRANCH  22  29
ENDBRANCH  18  19
ENDBRANCH   7  18
ENDBRANCH   2   5
TORSDOF 9
ENDMDL
MODEL      318
REMARK 921   NORMALIZED FREE ENERGY PREDICTED BY IDOCK:   16.92 KCAL/MOL
REMARK 922        TOTAL FREE ENERGY PREDICTED BY IDOCK:   23.01 KCAL/MOL
REMARK 923 INTER-LIGAND FREE ENERGY PREDICTED BY IDOCK:    0.89 KCAL/MOL
REMARK 924 INTRA-LIGAND FREE ENERGY PREDICTED BY IDOCK:   22.12 KCAL/MOL
REMARK 927      BINDING AFFINITY PREDICTED BY RF-SCORE:    0.00 PKD
ROOT
HETATM    1  N   UNL     1     -11.678   7.187  70.445  1.00  0.00    -0.492 NA 
HETATM    2  C   UNL     1     -12.560   8.272  70.005  1.00  0.00     1.488 C  
HETATM    3  H1  UNL     1     -12.088   6.254  70.425  1.00  0.00     0.000 HD 
HETATM    4  H2  UNL     1     -11.314   7.389  71.376  1.00  0.00     0.000 HD 
ENDROOT
BRANCH   2   5
HETATM    5  C   UNL     1     -11.936   9.692  70.035  1.00  0.00     0.120 C  
HETATM    6  O   UNL     1     -12.335  10.529  68.919  1.00  0.00    -0.251 OA 
HETATM    7  C   UNL     1     -11.822  11.863  69.082  1.00  0.00    -0.311 C  
HETATM    8  C   UNL     1     -10.258  11.852  69.073  1.00  0.00     0.009 C  
HETATM    9  O   UNL     1      -9.983   8.815  68.870  1.00  0.00    -0.180 OA 
HETATM   10  H   UNL     1      -9.037   8.715  68.877  1.00  0.00     0.000 HD 
HETATM   11  N   UNL     1      -9.746  11.484  67.712  1.00  0.00    -0.171 NA 
HETATM   12  C   UNL     1      -9.718  10.901  70.140  1.00  0.00     1.081 C  
HETATM   13  H2  UNL     1     -10.126  12.091  66.986  1.00  0.00     0.000 HD 
HETATM   14  O   UNL     1      -9.850  11.443  71.461  1.00  0.00     5.954 OA 
HETATM   15  C   UNL     1     -10.396   9.528  70.046  1.00  0.00    -0.247 C  
HETATM   16  H1  UNL     1      -8.726  11.477  67.706  1.00  0.00     0.000 HD 
HETATM   17  H   UNL     1      -9.514  10.851  72.124  1.00  0.00     0.000 HD 
BRANCH   7  18
HETATM   18  O   UNL     1     -12.116  12.730  68.001  1.00  0.00    -0.302 OA 
BRANCH  18  19
HETATM   19  C   UNL     1     -11.168  13.703  67.583  1.00  0.00    -0.279 C  
HETATM   20  O   UNL     1      -9.552  12.391  68.933  1.00  0.00    -0.407 OA 
HETATM   21  C   UNL     1     -11.116  13.458  66.070  1.00  0.00    -0.283 C  
HETATM   22  C   UNL     1      -8.922  13.252  66.731  1.00  0.00    -0.174 C  
HETATM   23  H   UNL     1      -8.652  12.270  69.213  1.00  0.00     0.000 HD 
HETATM   24  O   UNL     1      -9.889  12.760  65.802  1.00  0.00    -0.262 OA 
HETATM   25  C   UNL     1      -9.707  13.507  68.038  1.00  0.00    -0.228 C  
BRANCH  21  26
HETATM   26  C   UNL     1     -11.248  14.731  65.229  1.00  0.00    -0.366 C  
HETATM   27  H   UNL     1     -11.502  16.682  65.510  1.00  0.00     0.000 HD 
HETATM   28  O   UNL     1     -11.421  15.892  66.031  1.00  0.00     0.102 OA 
ENDBRANCH  21  26
BRANCH  22  29
HETATM   29  O   UNL     1      -8.306  14.445  66.229  1.00  0.00     0.346 OA 
BRANCH  29  30
HETATM   30  C   UNL     1      -7.150  14.970  66.965  1.00  0.00     0.253 C  
HETATM   31  C   UNL     1      -6.616  13.916  67.971  1.00  0.00    -0.143 C  
HETATM   32  O   UNL     1      -5.615  13.109  67.312  1.00  0.00    -0.349 OA 
HETATM   33  C   UNL     1      -6.002  14.401  69.295  1.00  0.00    -0.097 C  
HETATM   34  C   UNL     1      -6.539  15.739  69.768  1.00  0.00    -0.154 C  
HETATM   35  N   UNL     1      -6.250  13.395  70.359  1.00  0.00    -0.377 NA 
HETATM   36  H   UNL     1      -5.288  12.464  67.928  1.00  0.00     0.000 HD 
HETATM   37  H1  UNL     1      -5.843  13.716  71.237  1.00  0.00     0.000 HD 
HETATM   38  H2  UNL     1      -5.915  12.468  70.097  1.00  0.00     0.000 HD 
HETATM   39  C   UNL     1      -6.420  16.777  68.652  1.00  0.00    -0.165 C  
HETATM   40  C   UNL     1      -7.381  16.414  67.492  1.00  0.00    -0.145 C  
HETATM   41  N   UNL     1      -6.728  18.110  69.215  1.00  0.00    -0.243 NA 
HETATM   42  H2  UNL     1      -6.149  18.336  70.024  1.00  0.00     0.000 HD 
HETATM   43  H1  UNL     1      -6.648  18.802  68.470  1.00  0.00     0.000 HD 
BRANCH  40  44
HETATM   44  O   UNL     1      -7.185  17.405  66.454  1.00  0.00    -0.239 OA 
BRANCH  44  45
HETATM   45  C   UNL     1      -8.379  18.009  65.947  1.00  0.00     0.106 C  
HETATM   46  O   UNL     1      -9.547  17.477  66.575  1.00  0.00    -0.266 OA 
HETATM   47  C   UNL     1      -9.625  17.767  67.978  1.00  0.00    -0.291 C  
HETATM   48  C   UNL     1      -9.604  19.280  68.247  1.00  0.00    -0.371 C  
HETATM   49  H1  UNL     1      -7.049  21.162  65.582  1.00  0.00     0.000 HD 
HETATM   50  O   UNL     1      -9.629  19.584  69.648  1.00  0.00    -0.127 OA 
HETATM   51  H2  UNL     1      -7.053  19.889  64.487  1.00  0.00     0.000 HD 
HETATM   52  C   UNL     1      -8.351  19.903  67.613  1.00  0.00    -0.321 C  
HETATM   53  H   UNL     1      -9.615  20.520  69.814  1.00  0.00     0.000 HD 
HETATM   54  O   UNL     1      -8.386  21.331  67.779  1.00  0.00    -0.067 OA 
HETATM   55  C   UNL     1      -8.297  19.552  66.115  1.00  0.00    -0.321 C  
HETATM   56  N   UNL     1      -7.102  20.149  65.472  1.00  0.00    -0.311 NA 
HETATM   57  H   UNL     1      -7.611  21.717  67.387  1.00  0.00     0.000 HD 
BRANCH  47  58
HETATM   58  C   UNL     1     -10.875  17.062  68.551  1.00  0.00    -0.310 C  
HETATM   59  H1  UNL     1     -11.687  16.412  70.385  1.00  0.00     0.000 HD 
HETATM   60  N   UNL     1     -10.862  16.878  70.007  1.00  0.00    -0.320 NA 
HETATM   61  H2  UNL     1     -10.713  17.772  70.476  1.00  0.00     0.000 HD 
ENDBRANCH  47  58
ENDBRANCH  44  45
ENDBRANCH  40  44
ENDBRANCH  29  30
ENDBRANCH  22  29
ENDBRANCH  18  19
ENDBRANCH   7  18
ENDBRANCH   2   5
TORSDOF 9
ENDMDL
MODEL      319
REMARK 921   NORMALIZED FREE ENERGY PREDICTED BY IDOCK:   18.81 KCAL/MOL
REMARK 922        TOTAL FREE ENERGY PREDICTED BY IDOCK:   25.89 KCAL/MOL
REMARK 923 INTER-LIGAND FREE ENERGY PREDICTED BY IDOCK:   15.36 KCAL/MOL
REMARK 924 INTRA-LIGAND FREE ENERGY PREDICTED BY IDOCK:   10.53 KCAL/MOL
REMARK 927      BINDING AFFINITY PREDICTED BY RF-SCORE:    0.00 PKD
ROOT
HETATM    1  N   UNL     1      -8.660  16.669  66.990  1.00  0.00    -0.185 NA 
HETATM    2  C   UNL     1      -9.904  16.166  67.580  1.00  0.00    -0.237 C  
HETATM    3  H1  UNL     1      -7.963  17.002  67.655  1.00  0.00     0.000 HD 
HETATM    4  H2  UNL     1      -8.867  17.399  66.308  1.00  0.00     0.000 HD 
ENDROOT
BRANCH   2   5
HETATM    5  C   UNL     1     -10.965  15.661  66.567  1.00  0.00    -0.206 C  
HETATM    6  O   UNL     1     -10.758  14.290  66.137  1.00  0.00    -0.287 OA 
HETATM    7  C   UNL     1     -11.845  13.854  65.304  1.00  0.00    -0.357 C  
HETATM    8  C   UNL     1     -11.909  14.709  63.996  1.00  0.00    -0.110 C  
HETATM    9  O   UNL     1      -9.622  16.588  64.757  1.00  0.00     0.765 OA 
HETATM   10  H   UNL     1      -9.602  17.168  64.004  1.00  0.00     0.000 HD 
HETATM   11  N   UNL     1     -10.717  14.427  63.129  1.00  0.00     2.687 NA 
HETATM   12  C   UNL     1     -12.008  16.197  64.327  1.00  0.00     0.237 C  
HETATM   13  H2  UNL     1     -10.620  13.431  62.927  1.00  0.00     0.000 HD 
HETATM   14  O   UNL     1     -13.314  16.558  64.797  1.00  0.00     3.060 OA 
HETATM   15  C   UNL     1     -10.933  16.608  65.341  1.00  0.00    -0.091 C  
HETATM   16  H1  UNL     1     -10.758  14.984  62.276  1.00  0.00     0.000 HD 
HETATM   17  H   UNL     1     -13.375  17.484  65.003  1.00  0.00     0.000 HD 
BRANCH   7  18
HETATM   18  O   UNL     1     -11.688  12.543  64.790  1.00  0.00    -0.329 OA 
BRANCH  18  19
HETATM   19  C   UNL     1     -11.396  11.460  65.663  1.00  0.00     0.001 C  
HETATM   20  O   UNL     1      -9.034  11.859  65.011  1.00  0.00    -0.393 OA 
HETATM   21  C   UNL     1     -11.811  12.035  67.023  1.00  0.00    -0.176 C  
HETATM   22  C   UNL     1      -9.621  11.405  67.342  1.00  0.00    -0.174 C  
HETATM   23  H   UNL     1      -8.120  11.632  65.130  1.00  0.00     0.000 HD 
HETATM   24  O   UNL     1     -10.600  12.373  67.720  1.00  0.00    -0.210 OA 
HETATM   25  C   UNL     1      -9.910  11.091  65.857  1.00  0.00    -0.232 C  
BRANCH  21  26
HETATM   26  C   UNL     1     -12.704  11.102  67.845  1.00  0.00     3.047 C  
HETATM   27  H   UNL     1     -12.539   9.421  68.892  1.00  0.00     0.000 HD 
HETATM   28  O   UNL     1     -11.985  10.000  68.381  1.00  0.00     0.111 OA 
ENDBRANCH  21  26
BRANCH  22  29
HETATM   29  O   UNL     1      -9.724  10.239  68.171  1.00  0.00    -0.141 OA 
BRANCH  29  30
HETATM   30  C   UNL     1      -8.604   9.290  68.144  1.00  0.00    -0.125 C  
HETATM   31  C   UNL     1      -9.105   7.844  68.397  1.00  0.00    -0.135 C  
HETATM   32  O   UNL     1      -9.429   7.235  67.128  1.00  0.00    -0.133 OA 
HETATM   33  C   UNL     1      -8.187   6.863  69.145  1.00  0.00    -0.121 C  
HETATM   34  C   UNL     1      -7.210   7.535  70.092  1.00  0.00    -0.068 C  
HETATM   35  N   UNL     1      -9.010   5.903  69.924  1.00  0.00    -0.138 NA 
HETATM   36  H   UNL     1      -9.735   6.349  67.283  1.00  0.00     0.000 HD 
HETATM   37  H1  UNL     1      -8.401   5.252  70.420  1.00  0.00     0.000 HD 
HETATM   38  H2  UNL     1      -9.693   5.420  69.341  1.00  0.00     0.000 HD 
HETATM   39  C   UNL     1      -6.430   8.624  69.358  1.00  0.00    -0.045 C  
HETATM   40  C   UNL     1      -7.383   9.783  68.969  1.00  0.00    -0.078 C  
HETATM   41  N   UNL     1      -5.336   9.092  70.236  1.00  0.00    -0.027 NA 
HETATM   42  H2  UNL     1      -4.738   8.330  70.556  1.00  0.00     0.000 HD 
HETATM   43  H1  UNL     1      -4.815   9.818  69.745  1.00  0.00     0.000 HD 
BRANCH  40  44
HETATM   44  O   UNL     1      -6.593  10.754  68.239  1.00  0.00    -0.058 OA 
BRANCH  44  45
HETATM   45  C   UNL     1      -7.312  11.889  67.751  1.00  0.00    -0.109 C  
HETATM   46  O   UNL     1      -8.515  12.111  68.491  1.00  0.00    -0.151 OA 
HETATM   47  C   UNL     1      -8.288  12.456  69.865  1.00  0.00     2.618 C  
HETATM   48  C   UNL     1      -7.425  13.720  69.996  1.00  0.00     0.937 C  
HETATM   49  H1  UNL     1      -4.531  13.783  67.032  1.00  0.00     0.000 HD 
HETATM   50  O   UNL     1      -7.145  14.048  71.364  1.00  0.00     0.646 OA 
HETATM   51  H2  UNL     1      -5.328  12.675  66.056  1.00  0.00     0.000 HD 
HETATM   52  C   UNL     1      -6.103  13.530  69.239  1.00  0.00    -0.097 C  
HETATM   53  H   UNL     1      -6.612  14.830  71.446  1.00  0.00     0.000 HD 
HETATM   54  O   UNL     1      -5.343  14.750  69.279  1.00  0.00    -0.090 OA 
HETATM   55  C   UNL     1      -6.393  13.142  67.777  1.00  0.00    -0.156 C  
HETATM   56  N   UNL     1      -5.134  12.961  67.015  1.00  0.00    -0.301 NA 
HETATM   57  H   UNL     1      -4.525  14.632  68.810  1.00  0.00     0.000 HD 
BRANCH  47  58
HETATM   58  C   UNL     1      -9.658  12.574  70.569  1.00  0.00     6.042 C  
HETATM   59  H1  UNL     1     -11.457  13.670  70.470  1.00  0.00     0.000 HD 
HETATM   60  N   UNL     1     -10.552  13.591  70.004  1.00  0.00     0.166 NA 
HETATM   61  H2  UNL     1     -10.680  13.434  69.004  1.00  0.00     0.000 HD 
ENDBRANCH  47  58
ENDBRANCH  44  45
ENDBRANCH  40  44
ENDBRANCH  29  30
ENDBRANCH  22  29
ENDBRANCH  18  19
ENDBRANCH   7  18
ENDBRANCH   2   5
TORSDOF 9
ENDMDL
MODEL      320
REMARK 921   NORMALIZED FREE ENERGY PREDICTED BY IDOCK:   19.55 KCAL/MOL
REMARK 922        TOTAL FREE ENERGY PREDICTED BY IDOCK:   27.02 KCAL/MOL
REMARK 923 INTER-LIGAND FREE ENERGY PREDICTED BY IDOCK:   -0.49 KCAL/MOL
REMARK 924 INTRA-LIGAND FREE ENERGY PREDICTED BY IDOCK:   27.51 KCAL/MOL
REMARK 927      BINDING AFFINITY PREDICTED BY RF-SCORE:    0.00 PKD
ROOT
HETATM    1  N   UNL     1      -7.766   9.614  64.946  1.00  0.00    -0.114 NA 
HETATM    2  C   UNL     1      -6.916   9.804  66.124  1.00  0.00    -0.095 C  
HETATM    3  H1  UNL     1      -7.512  10.168  64.128  1.00  0.00     0.000 HD 
HETATM    4  H2  UNL     1      -8.742   9.779  65.189  1.00  0.00     0.000 HD 
ENDROOT
BRANCH   2   5
HETATM    5  C   UNL     1      -7.303   8.961  67.368  1.00  0.00    -0.081 C  
HETATM    6  O   UNL     1      -8.079   9.694  68.352  1.00  0.00    -0.102 OA 
HETATM    7  C   UNL     1      -8.506   8.817  69.410  1.00  0.00    -0.125 C  
HETATM    8  C   UNL     1      -7.269   8.245  70.178  1.00  0.00    -0.055 C  
HETATM    9  O   UNL     1      -5.171   9.560  68.388  1.00  0.00    -0.034 OA 
HETATM   10  H   UNL     1      -4.366   9.243  68.782  1.00  0.00     0.000 HD 
HETATM   11  N   UNL     1      -6.574   9.336  70.937  1.00  0.00    -0.081 NA 
HETATM   12  C   UNL     1      -6.310   7.548  69.215  1.00  0.00    -0.035 C  
HETATM   13  H2  UNL     1      -7.212   9.832  71.560  1.00  0.00     0.000 HD 
HETATM   14  O   UNL     1      -6.811   6.276  68.782  1.00  0.00    -0.064 OA 
HETATM   15  C   UNL     1      -5.992   8.444  68.011  1.00  0.00    -0.043 C  
HETATM   16  H1  UNL     1      -5.768   8.964  71.438  1.00  0.00     0.000 HD 
HETATM   17  H   UNL     1      -6.214   5.842  68.183  1.00  0.00     0.000 HD 
BRANCH   7  18
HETATM   18  O   UNL     1      -9.219   9.469  70.446  1.00  0.00    -0.242 OA 
BRANCH  18  19
HETATM   19  C   UNL     1      -9.563  10.843  70.326  1.00  0.00     1.472 C  
HETATM   20  O   UNL     1      -7.113  11.221  70.210  1.00  0.00    -0.445 OA 
HETATM   21  C   UNL     1     -10.298  10.865  68.980  1.00  0.00    -0.211 C  
HETATM   22  C   UNL     1      -8.628  12.425  68.715  1.00  0.00     0.151 C  
HETATM   23  H   UNL     1      -6.400  11.838  70.090  1.00  0.00     0.000 HD 
HETATM   24  O   UNL     1      -9.396  11.441  68.021  1.00  0.00    -0.159 OA 
HETATM   25  C   UNL     1      -8.406  11.846  70.130  1.00  0.00     3.263 C  
BRANCH  21  26
HETATM   26  C   UNL     1     -11.641  11.599  69.018  1.00  0.00    -0.316 C  
HETATM   27  H   UNL     1     -12.639  12.819  70.228  1.00  0.00     0.000 HD 
HETATM   28  O   UNL     1     -11.806  12.363  70.205  1.00  0.00    -0.324 OA 
ENDBRANCH  21  26
BRANCH  22  29
HETATM   29  O   UNL     1      -9.329  13.676  68.746  1.00  0.00    -0.106 OA 
BRANCH  29  30
HETATM   30  C   UNL     1      -8.579  14.880  68.368  1.00  0.00    -0.159 C  
HETATM   31  C   UNL     1      -7.181  14.889  69.041  1.00  0.00    -0.138 C  
HETATM   32  O   UNL     1      -6.238  14.234  68.165  1.00  0.00    -0.109 OA 
HETATM   33  C   UNL     1      -6.561  16.238  69.440  1.00  0.00    -0.202 C  
HETATM   34  C   UNL     1      -7.582  17.323  69.731  1.00  0.00     0.841 C  
HETATM   35  N   UNL     1      -5.710  16.061  70.645  1.00  0.00    -0.059 NA 
HETATM   36  H   UNL     1      -5.382  14.240  68.577  1.00  0.00     0.000 HD 
HETATM   37  H1  UNL     1      -5.299  16.956  70.910  1.00  0.00     0.000 HD 
HETATM   38  H2  UNL     1      -5.004  15.338  70.514  1.00  0.00     0.000 HD 
HETATM   39  C   UNL     1      -8.560  17.450  68.564  1.00  0.00    -0.270 C  
HETATM   40  C   UNL     1      -9.434  16.173  68.469  1.00  0.00    -0.216 C  
HETATM   41  N   UNL     1      -9.386  18.659  68.773  1.00  0.00    -0.324 NA 
HETATM   42  H2  UNL     1      -8.824  19.500  68.905  1.00  0.00     0.000 HD 
HETATM   43  H1  UNL     1     -10.039  18.744  67.993  1.00  0.00     0.000 HD 
BRANCH  40  44
HETATM   44  O   UNL     1     -10.302  16.339  67.321  1.00  0.00    -0.276 OA 
BRANCH  44  45
HETATM   45  C   UNL     1     -11.665  15.953  67.519  1.00  0.00     0.226 C  
HETATM   46  O   UNL     1     -12.331  15.708  66.278  1.00  0.00     0.909 OA 
HETATM   47  C   UNL     1     -11.796  14.593  65.551  1.00  0.00    -0.292 C  
HETATM   48  C   UNL     1     -11.861  13.297  66.373  1.00  0.00    -0.396 C  
HETATM   49  H1  UNL     1     -11.095  14.104  70.365  1.00  0.00     0.000 HD 
HETATM   50  O   UNL     1     -11.282  12.183  65.680  1.00  0.00    -0.312 OA 
HETATM   51  H2  UNL     1     -11.426  15.744  70.225  1.00  0.00     0.000 HD 
HETATM   52  C   UNL     1     -11.136  13.493  67.713  1.00  0.00    -0.268 C  
HETATM   53  H   UNL     1     -11.322  11.381  66.189  1.00  0.00     0.000 HD 
HETATM   54  O   UNL     1     -11.285  12.314  68.522  1.00  0.00    -0.231 OA 
HETATM   55  C   UNL     1     -11.727  14.710  68.450  1.00  0.00    -0.320 C  
HETATM   56  N   UNL     1     -11.054  14.920  69.754  1.00  0.00    -0.269 NA 
HETATM   57  H   UNL     1     -10.838  12.435  69.351  1.00  0.00     0.000 HD 
BRANCH  47  58
HETATM   58  C   UNL     1     -12.535  14.495  64.197  1.00  0.00    -0.180 C  
HETATM   59  H1  UNL     1     -13.224  13.063  62.812  1.00  0.00     0.000 HD 
HETATM   60  N   UNL     1     -12.736  13.127  63.706  1.00  0.00    -0.698 NA 
HETATM   61  H2  UNL     1     -13.213  12.565  64.412  1.00  0.00     0.000 HD 
ENDBRANCH  47  58
ENDBRANCH  44  45
ENDBRANCH  40  44
ENDBRANCH  29  30
ENDBRANCH  22  29
ENDBRANCH  18  19
ENDBRANCH   7  18
ENDBRANCH   2   5
TORSDOF 9
ENDMDL
MODEL      321
REMARK 921   NORMALIZED FREE ENERGY PREDICTED BY IDOCK:   20.52 KCAL/MOL
REMARK 922        TOTAL FREE ENERGY PREDICTED BY IDOCK:   28.50 KCAL/MOL
REMARK 923 INTER-LIGAND FREE ENERGY PREDICTED BY IDOCK:   16.93 KCAL/MOL
REMARK 924 INTRA-LIGAND FREE ENERGY PREDICTED BY IDOCK:   11.57 KCAL/MOL
REMARK 927      BINDING AFFINITY PREDICTED BY RF-SCORE:    0.00 PKD
ROOT
HETATM    1  N   UNL     1      -6.320  14.695  68.639  1.00  0.00    -0.079 NA 
HETATM    2  C   UNL     1      -5.747  13.471  68.073  1.00  0.00    -0.124 C  
HETATM    3  H1  UNL     1      -5.741  15.530  68.554  1.00  0.00     0.000 HD 
HETATM    4  H2  UNL     1      -6.573  14.544  69.615  1.00  0.00     0.000 HD 
ENDROOT
BRANCH   2   5
HETATM    5  C   UNL     1      -6.627  12.200  68.204  1.00  0.00    -0.061 C  
HETATM    6  O   UNL     1      -7.785  12.376  69.061  1.00  0.00     0.010 OA 
HETATM    7  C   UNL     1      -8.616  11.203  69.031  1.00  0.00    -0.024 C  
HETATM    8  C   UNL     1      -7.843   9.970  69.603  1.00  0.00    -0.167 C  
HETATM    9  O   UNL     1      -5.203  11.449  70.034  1.00  0.00    -0.061 OA 
HETATM   10  H   UNL     1      -4.654  10.751  70.374  1.00  0.00     0.000 HD 
HETATM   11  N   UNL     1      -7.598  10.144  71.074  1.00  0.00    -0.118 NA 
HETATM   12  C   UNL     1      -6.531   9.757  68.849  1.00  0.00    -0.045 C  
HETATM   13  H2  UNL     1      -8.463  10.320  71.585  1.00  0.00     0.000 HD 
HETATM   14  O   UNL     1      -6.745   9.199  67.546  1.00  0.00    -0.067 OA 
HETATM   15  C   UNL     1      -5.732  11.063  68.756  1.00  0.00    -0.039 C  
HETATM   16  H1  UNL     1      -7.093   9.340  71.447  1.00  0.00     0.000 HD 
HETATM   17  H   UNL     1      -5.929   9.066  67.077  1.00  0.00     0.000 HD 
BRANCH   7  18
HETATM   18  O   UNL     1      -9.739  11.270  69.892  1.00  0.00     0.651 OA 
BRANCH  18  19
HETATM   19  C   UNL     1     -10.969  11.811  69.427  1.00  0.00    -0.125 C  
HETATM   20  O   UNL     1     -10.236  13.888  70.571  1.00  0.00     0.989 OA 
HETATM   21  C   UNL     1     -10.766  11.787  67.907  1.00  0.00    -0.204 C  
HETATM   22  C   UNL     1     -11.271  13.987  68.356  1.00  0.00    -0.266 C  
HETATM   23  H   UNL     1     -10.408  14.802  70.762  1.00  0.00     0.000 HD 
HETATM   24  O   UNL     1     -10.502  13.140  67.500  1.00  0.00    -0.226 OA 
HETATM   25  C   UNL     1     -11.250  13.296  69.738  1.00  0.00     0.039 C  
BRANCH  21  26
HETATM   26  C   UNL     1     -11.936  11.173  67.133  1.00  0.00     0.764 C  
HETATM   27  H   UNL     1     -13.500   9.999  67.483  1.00  0.00     0.000 HD 
HETATM   28  O   UNL     1     -12.774  10.380  67.962  1.00  0.00     2.088 OA 
ENDBRANCH  21  26
BRANCH  22  29
HETATM   29  O   UNL     1     -12.603  14.136  67.847  1.00  0.00     0.064 OA 
BRANCH  29  30
HETATM   30  C   UNL     1     -12.748  14.492  66.430  1.00  0.00     0.289 C  
HETATM   31  C   UNL     1     -12.363  13.295  65.522  1.00  0.00    -0.480 C  
HETATM   32  O   UNL     1     -13.545  12.503  65.269  1.00  0.00     0.199 OA 
HETATM   33  C   UNL     1     -11.712  13.580  64.158  1.00  0.00    -0.411 C  
HETATM   34  C   UNL     1     -10.945  14.888  64.104  1.00  0.00     0.417 C  
HETATM   35  N   UNL     1     -10.781  12.476  63.808  1.00  0.00    -0.434 NA 
HETATM   36  H   UNL     1     -13.308  11.770  64.712  1.00  0.00     0.000 HD 
HETATM   37  H1  UNL     1     -10.350  12.666  62.903  1.00  0.00     0.000 HD 
HETATM   38  H2  UNL     1     -11.239  11.565  63.832  1.00  0.00     0.000 HD 
HETATM   39  C   UNL     1     -11.831  16.037  64.582  1.00  0.00     0.041 C  
HETATM   40  C   UNL     1     -12.130  15.877  66.095  1.00  0.00     1.321 C  
HETATM   41  N   UNL     1     -11.141  17.314  64.297  1.00  0.00    -0.484 NA 
HETATM   42  H2  UNL     1     -10.876  17.405  63.316  1.00  0.00     0.000 HD 
HETATM   43  H1  UNL     1     -11.733  18.081  64.616  1.00  0.00     0.000 HD 
BRANCH  40  44
HETATM   44  O   UNL     1     -13.007  16.967  66.471  1.00  0.00     5.892 OA 
BRANCH  44  45
HETATM   45  C   UNL     1     -12.365  18.097  67.067  1.00  0.00     4.766 C  
HETATM   46  O   UNL     1     -12.111  17.887  68.459  1.00  0.00     2.152 OA 
HETATM   47  C   UNL     1     -11.179  16.828  68.717  1.00  0.00    -0.148 C  
HETATM   48  C   UNL     1      -9.826  17.084  68.035  1.00  0.00    -0.275 C  
HETATM   49  H1  UNL     1     -10.411  18.868  64.341  1.00  0.00     0.000 HD 
HETATM   50  O   UNL     1      -8.900  16.009  68.242  1.00  0.00    -0.175 OA 
HETATM   51  H2  UNL     1     -11.969  19.382  64.697  1.00  0.00     0.000 HD 
HETATM   52  C   UNL     1     -10.035  17.292  66.528  1.00  0.00    -0.305 C  
HETATM   53  H   UNL     1      -8.063  16.167  67.820  1.00  0.00     0.000 HD 
HETATM   54  O   UNL     1      -8.782  17.632  65.909  1.00  0.00    -0.520 OA 
HETATM   55  C   UNL     1     -11.055  18.422  66.295  1.00  0.00     0.504 C  
HETATM   56  N   UNL     1     -11.270  18.654  64.847  1.00  0.00     0.142 NA 
HETATM   57  H   UNL     1      -8.911  17.761  64.976  1.00  0.00     0.000 HD 
BRANCH  47  58
HETATM   58  C   UNL     1     -11.066  16.643  70.248  1.00  0.00    -0.025 C  
HETATM   59  H1  UNL     1     -11.049  17.767  72.032  1.00  0.00     0.000 HD 
HETATM   60  N   UNL     1     -11.124  17.889  71.021  1.00  0.00     1.465 NA 
HETATM   61  H2  UNL     1     -11.969  18.412  70.788  1.00  0.00     0.000 HD 
ENDBRANCH  47  58
ENDBRANCH  44  45
ENDBRANCH  40  44
ENDBRANCH  29  30
ENDBRANCH  22  29
ENDBRANCH  18  19
ENDBRANCH   7  18
ENDBRANCH   2   5
TORSDOF 9
ENDMDL
MODEL      322
REMARK 921   NORMALIZED FREE ENERGY PREDICTED BY IDOCK:   20.71 KCAL/MOL
REMARK 922        TOTAL FREE ENERGY PREDICTED BY IDOCK:   28.80 KCAL/MOL
REMARK 923 INTER-LIGAND FREE ENERGY PREDICTED BY IDOCK:    4.50 KCAL/MOL
REMARK 924 INTRA-LIGAND FREE ENERGY PREDICTED BY IDOCK:   24.30 KCAL/MOL
REMARK 927      BINDING AFFINITY PREDICTED BY RF-SCORE:    0.00 PKD
ROOT
HETATM    1  N   UNL     1      -8.920   5.014  68.891  1.00  0.00    -0.099 NA 
HETATM    2  C   UNL     1      -9.131   6.075  67.902  1.00  0.00    -0.117 C  
HETATM    3  H1  UNL     1      -9.285   5.205  69.823  1.00  0.00     0.000 HD 
HETATM    4  H2  UNL     1      -7.929   4.780  68.946  1.00  0.00     0.000 HD 
ENDROOT
BRANCH   2   5
HETATM    5  C   UNL     1      -8.575   5.784  66.483  1.00  0.00    -0.121 C  
HETATM    6  O   UNL     1      -8.731   6.890  65.556  1.00  0.00    -0.124 OA 
HETATM    7  C   UNL     1      -8.082   6.595  64.307  1.00  0.00    -0.044 C  
HETATM    8  C   UNL     1      -8.754   5.361  63.620  1.00  0.00     0.071 C  
HETATM    9  O   UNL     1     -10.720   4.792  65.889  1.00  0.00    -0.425 OA 
HETATM   10  H   UNL     1     -11.171   4.024  65.554  1.00  0.00     0.000 HD 
HETATM   11  N   UNL     1     -10.145   5.704  63.177  1.00  0.00     1.460 NA 
HETATM   12  C   UNL     1      -8.757   4.155  64.558  1.00  0.00    -0.129 C  
HETATM   13  H2  UNL     1     -10.161   6.529  62.576  1.00  0.00     0.000 HD 
HETATM   14  O   UNL     1      -7.457   3.562  64.676  1.00  0.00    -0.070 OA 
HETATM   15  C   UNL     1      -9.309   4.534  65.938  1.00  0.00    -0.159 C  
HETATM   16  H1  UNL     1     -10.584   4.900  62.729  1.00  0.00     0.000 HD 
HETATM   17  H   UNL     1      -7.459   2.812  65.260  1.00  0.00     0.000 HD 
BRANCH   7  18
HETATM   18  O   UNL     1      -8.240   7.602  63.324  1.00  0.00    -0.091 OA 
BRANCH  18  19
HETATM   19  C   UNL     1      -8.415   8.959  63.707  1.00  0.00    -0.137 C  
HETATM   20  O   UNL     1     -10.840   8.482  63.481  1.00  0.00     7.608 OA 
HETATM   21  C   UNL     1      -7.872   8.951  65.141  1.00  0.00    -0.106 C  
HETATM   22  C   UNL     1     -10.001   9.792  65.369  1.00  0.00    -0.232 C  
HETATM   23  H   UNL     1     -11.732   8.794  63.578  1.00  0.00     0.000 HD 
HETATM   24  O   UNL     1      -9.009   8.996  66.018  1.00  0.00    -0.160 OA 
HETATM   25  C   UNL     1      -9.864   9.468  63.864  1.00  0.00     1.012 C  
BRANCH  21  26
HETATM   26  C   UNL     1      -6.876  10.077  65.434  1.00  0.00    -0.122 C  
HETATM   27  H   UNL     1      -5.074  10.298  66.243  1.00  0.00     0.000 HD 
HETATM   28  O   UNL     1      -5.692   9.600  66.060  1.00  0.00    -0.053 OA 
ENDBRANCH  21  26
BRANCH  22  29
HETATM   29  O   UNL     1      -9.786  11.183  65.644  1.00  0.00    -0.205 OA 
BRANCH  29  30
HETATM   30  C   UNL     1     -10.181  11.679  66.968  1.00  0.00    -0.212 C  
HETATM   31  C   UNL     1      -9.019  11.518  67.983  1.00  0.00    -0.170 C  
HETATM   32  O   UNL     1      -8.214  12.717  67.962  1.00  0.00    -0.147 OA 
HETATM   33  C   UNL     1      -9.357  11.229  69.455  1.00  0.00     0.393 C  
HETATM   34  C   UNL     1     -10.680  10.513  69.653  1.00  0.00    -0.302 C  
HETATM   35  N   UNL     1      -8.282  10.403  70.062  1.00  0.00    -0.335 NA 
HETATM   36  H   UNL     1      -7.502  12.619  68.584  1.00  0.00     0.000 HD 
HETATM   37  H1  UNL     1      -8.506  10.211  71.038  1.00  0.00     0.000 HD 
HETATM   38  H2  UNL     1      -7.362  10.831  69.956  1.00  0.00     0.000 HD 
HETATM   39  C   UNL     1     -11.798  11.265  68.932  1.00  0.00    -0.345 C  
HETATM   40  C   UNL     1     -11.587  11.177  67.399  1.00  0.00    -0.071 C  
HETATM   41  N   UNL     1     -13.095  10.680  69.337  1.00  0.00    -0.261 NA 
HETATM   42  H2  UNL     1     -13.220  10.668  70.349  1.00  0.00     0.000 HD 
HETATM   43  H1  UNL     1     -13.841  11.183  68.855  1.00  0.00     0.000 HD 
BRANCH  40  44
HETATM   44  O   UNL     1     -12.648  11.946  66.781  1.00  0.00     0.525 OA 
BRANCH  44  45
HETATM   45  C   UNL     1     -12.598  13.357  67.006  1.00  0.00     0.238 C  
HETATM   46  O   UNL     1     -11.729  13.687  68.093  1.00  0.00    -0.317 OA 
HETATM   47  C   UNL     1     -10.353  13.364  67.844  1.00  0.00    -0.238 C  
HETATM   48  C   UNL     1      -9.820  14.077  66.593  1.00  0.00    -0.284 C  
HETATM   49  H1  UNL     1     -12.769  14.249  63.687  1.00  0.00     0.000 HD 
HETATM   50  O   UNL     1      -8.461  13.723  66.302  1.00  0.00    -0.243 OA 
HETATM   51  H2  UNL     1     -14.024  13.973  64.768  1.00  0.00     0.000 HD 
HETATM   52  C   UNL     1     -10.704  13.737  65.383  1.00  0.00    -0.317 C  
HETATM   53  H   UNL     1      -8.131  14.165  65.528  1.00  0.00     0.000 HD 
HETATM   54  O   UNL     1     -10.263  14.485  64.237  1.00  0.00    -0.465 OA 
HETATM   55  C   UNL     1     -12.171  14.081  65.699  1.00  0.00    -0.442 C  
HETATM   56  N   UNL     1     -13.049  13.773  64.545  1.00  0.00    -0.275 NA 
HETATM   57  H   UNL     1     -10.810  14.275  63.489  1.00  0.00     0.000 HD 
BRANCH  47  58
HETATM   58  C   UNL     1      -9.542  13.681  69.121  1.00  0.00     0.377 C  
HETATM   59  H1  UNL     1      -8.768  15.318  70.200  1.00  0.00     0.000 HD 
HETATM   60  N   UNL     1      -9.304  15.109  69.357  1.00  0.00    -0.361 NA 
HETATM   61  H2  UNL     1     -10.188  15.619  69.363  1.00  0.00     0.000 HD 
ENDBRANCH  47  58
ENDBRANCH  44  45
ENDBRANCH  40  44
ENDBRANCH  29  30
ENDBRANCH  22  29
ENDBRANCH  18  19
ENDBRANCH   7  18
ENDBRANCH   2   5
TORSDOF 9
ENDMDL
MODEL      323
REMARK 921   NORMALIZED FREE ENERGY PREDICTED BY IDOCK:   21.47 KCAL/MOL
REMARK 922        TOTAL FREE ENERGY PREDICTED BY IDOCK:   29.95 KCAL/MOL
REMARK 923 INTER-LIGAND FREE ENERGY PREDICTED BY IDOCK:   30.95 KCAL/MOL
REMARK 924 INTRA-LIGAND FREE ENERGY PREDICTED BY IDOCK:   -1.00 KCAL/MOL
REMARK 927      BINDING AFFINITY PREDICTED BY RF-SCORE:    0.00 PKD
ROOT
HETATM    1  N   UNL     1      -7.562   2.822  68.574  1.00  0.00    -0.048 NA 
HETATM    2  C   UNL     1      -6.929   4.122  68.810  1.00  0.00    -0.047 C  
HETATM    3  H1  UNL     1      -7.122   2.244  67.859  1.00  0.00     0.000 HD 
HETATM    4  H2  UNL     1      -8.551   2.949  68.360  1.00  0.00     0.000 HD 
ENDROOT
BRANCH   2   5
HETATM    5  C   UNL     1      -7.599   5.002  69.898  1.00  0.00    -0.060 C  
HETATM    6  O   UNL     1      -7.062   6.348  69.975  1.00  0.00    -0.066 OA 
HETATM    7  C   UNL     1      -7.814   7.138  70.912  1.00  0.00    -0.095 C  
HETATM    8  C   UNL     1      -7.688   6.543  72.353  1.00  0.00    -0.096 C  
HETATM    9  O   UNL     1      -6.017   4.120  71.530  1.00  0.00    -0.012 OA 
HETATM   10  H   UNL     1      -5.906   3.680  72.365  1.00  0.00     0.000 HD 
HETATM   11  N   UNL     1      -6.286   6.702  72.863  1.00  0.00    -0.054 NA 
HETATM   12  C   UNL     1      -8.116   5.076  72.372  1.00  0.00    -0.109 C  
HETATM   13  H2  UNL     1      -5.975   7.673  72.825  1.00  0.00     0.000 HD 
HETATM   14  O   UNL     1      -9.540   4.931  72.282  1.00  0.00    -0.146 OA 
HETATM   15  C   UNL     1      -7.418   4.285  71.259  1.00  0.00    -0.059 C  
HETATM   16  H1  UNL     1      -6.203   6.314  73.803  1.00  0.00     0.000 HD 
HETATM   17  H   UNL     1      -9.807   4.019  72.293  1.00  0.00     0.000 HD 
BRANCH   7  18
HETATM   18  O   UNL     1      -7.313   8.450  71.092  1.00  0.00    -0.060 OA 
BRANCH  18  19
HETATM   19  C   UNL     1      -7.645   9.478  70.168  1.00  0.00    -0.142 C  
HETATM   20  O   UNL     1      -9.651   9.808  71.592  1.00  0.00    -0.031 OA 
HETATM   21  C   UNL     1      -6.505  10.479  70.392  1.00  0.00    -0.117 C  
HETATM   22  C   UNL     1      -8.405  11.731  70.734  1.00  0.00     6.616 C  
HETATM   23  H   UNL     1     -10.435  10.314  71.769  1.00  0.00     0.000 HD 
HETATM   24  O   UNL     1      -7.050  11.569  71.155  1.00  0.00     2.086 OA 
HETATM   25  C   UNL     1      -8.919  10.301  70.454  1.00  0.00     0.692 C  
BRANCH  21  26
HETATM   26  C   UNL     1      -5.838  10.961  69.101  1.00  0.00    -0.041 C  
HETATM   27  H   UNL     1      -5.355  12.678  68.225  1.00  0.00     0.000 HD 
HETATM   28  O   UNL     1      -5.769  12.379  69.026  1.00  0.00    -0.062 OA 
ENDBRANCH  21  26
BRANCH  22  29
HETATM   29  O   UNL     1      -8.471  12.566  69.571  1.00  0.00     0.977 OA 
BRANCH  29  30
HETATM   30  C   UNL     1      -9.804  12.934  69.078  1.00  0.00     0.304 C  
HETATM   31  C   UNL     1     -10.884  12.652  70.155  1.00  0.00     1.182 C  
HETATM   32  O   UNL     1     -11.047  13.833  70.971  1.00  0.00     0.301 OA 
HETATM   33  C   UNL     1     -12.289  12.223  69.701  1.00  0.00     0.012 C  
HETATM   34  C   UNL     1     -12.311  11.513  68.359  1.00  0.00     0.396 C  
HETATM   35  N   UNL     1     -12.890  11.321  70.717  1.00  0.00    -0.240 NA 
HETATM   36  H   UNL     1     -11.709  13.661  71.631  1.00  0.00     0.000 HD 
HETATM   37  H1  UNL     1     -13.822  11.037  70.416  1.00  0.00     0.000 HD 
HETATM   38  H2  UNL     1     -12.899  11.742  71.646  1.00  0.00     0.000 HD 
HETATM   39  C   UNL     1     -11.587  12.353  67.309  1.00  0.00    -0.365 C  
HETATM   40  C   UNL     1     -10.073  12.416  67.638  1.00  0.00    -0.198 C  
HETATM   41  N   UNL     1     -11.828  11.753  65.979  1.00  0.00    -0.400 NA 
HETATM   42  H2  UNL     1     -12.821  11.642  65.774  1.00  0.00     0.000 HD 
HETATM   43  H1  UNL     1     -11.344  12.314  65.277  1.00  0.00     0.000 HD 
BRANCH  40  44
HETATM   44  O   UNL     1      -9.456  13.260  66.635  1.00  0.00    -0.252 OA 
BRANCH  44  45
HETATM   45  C   UNL     1     -10.158  14.469  66.332  1.00  0.00    -0.284 C  
HETATM   46  O   UNL     1      -9.890  15.491  67.295  1.00  0.00    -0.222 OA 
HETATM   47  C   UNL     1      -8.522  15.923  67.306  1.00  0.00    -0.184 C  
HETATM   48  C   UNL     1      -8.084  16.454  65.933  1.00  0.00     0.310 C  
HETATM   49  H1  UNL     1      -9.832  14.216  62.916  1.00  0.00     0.000 HD 
HETATM   50  O   UNL     1      -6.703  16.841  65.914  1.00  0.00     0.097 OA 
HETATM   51  H2  UNL     1     -11.036  13.592  63.906  1.00  0.00     0.000 HD 
HETATM   52  C   UNL     1      -8.326  15.384  64.858  1.00  0.00     5.848 C  
HETATM   53  H   UNL     1      -6.432  17.170  65.064  1.00  0.00     0.000 HD 
HETATM   54  O   UNL     1      -8.011  15.920  63.562  1.00  0.00    14.399 OA 
HETATM   55  C   UNL     1      -9.799  14.936  64.894  1.00  0.00     0.113 C  
HETATM   56  N   UNL     1     -10.067  13.909  63.859  1.00  0.00     0.770 NA 
HETATM   57  H   UNL     1      -8.161  15.258  62.897  1.00  0.00     0.000 HD 
BRANCH  47  58
HETATM   58  C   UNL     1      -8.346  16.952  68.444  1.00  0.00    -0.238 C  
HETATM   59  H1  UNL     1      -8.727  17.190  70.504  1.00  0.00     0.000 HD 
HETATM   60  N   UNL     1      -8.843  16.510  69.752  1.00  0.00     0.471 NA 
HETATM   61  H2  UNL     1      -8.415  15.620  70.011  1.00  0.00     0.000 HD 
ENDBRANCH  47  58
ENDBRANCH  44  45
ENDBRANCH  40  44
ENDBRANCH  29  30
ENDBRANCH  22  29
ENDBRANCH  18  19
ENDBRANCH   7  18
ENDBRANCH   2   5
TORSDOF 9
ENDMDL
MODEL      324
REMARK 921   NORMALIZED FREE ENERGY PREDICTED BY IDOCK:   21.69 KCAL/MOL
REMARK 922        TOTAL FREE ENERGY PREDICTED BY IDOCK:   30.29 KCAL/MOL
REMARK 923 INTER-LIGAND FREE ENERGY PREDICTED BY IDOCK:    4.84 KCAL/MOL
REMARK 924 INTRA-LIGAND FREE ENERGY PREDICTED BY IDOCK:   25.45 KCAL/MOL
REMARK 927      BINDING AFFINITY PREDICTED BY RF-SCORE:    0.00 PKD
ROOT
HETATM    1  N   UNL     1      -5.132  12.972  71.780  1.00  0.00    -0.265 NA 
HETATM    2  C   UNL     1      -6.587  12.840  71.673  1.00  0.00     3.486 C  
HETATM    3  H1  UNL     1      -4.797  13.487  72.594  1.00  0.00     0.000 HD 
HETATM    4  H2  UNL     1      -4.755  13.384  70.927  1.00  0.00     0.000 HD 
ENDROOT
BRANCH   2   5
HETATM    5  C   UNL     1      -7.096  12.056  70.434  1.00  0.00     1.771 C  
HETATM    6  O   UNL     1      -8.010  10.976  70.760  1.00  0.00     1.777 OA 
HETATM    7  C   UNL     1      -8.534  10.382  69.560  1.00  0.00    -0.100 C  
HETATM    8  C   UNL     1      -7.383   9.733  68.723  1.00  0.00    -0.074 C  
HETATM    9  O   UNL     1      -5.125  10.629  70.576  1.00  0.00    -0.051 OA 
HETATM   10  H   UNL     1      -4.365  10.283  70.122  1.00  0.00     0.000 HD 
HETATM   11  N   UNL     1      -6.821   8.543  69.442  1.00  0.00    -0.045 NA 
HETATM   12  C   UNL     1      -6.291  10.758  68.419  1.00  0.00    -0.053 C  
HETATM   13  H2  UNL     1      -7.546   7.865  69.680  1.00  0.00     0.000 HD 
HETATM   14  O   UNL     1      -6.696  11.691  67.408  1.00  0.00    -0.087 OA 
HETATM   15  C   UNL     1      -5.858  11.493  69.694  1.00  0.00    -0.087 C  
HETATM   16  H1  UNL     1      -6.071   8.119  68.896  1.00  0.00     0.000 HD 
HETATM   17  H   UNL     1      -6.017  12.329  67.219  1.00  0.00     0.000 HD 
BRANCH   7  18
HETATM   18  O   UNL     1      -9.389   9.276  69.790  1.00  0.00    -0.165 OA 
BRANCH  18  19
HETATM   19  C   UNL     1      -8.937   7.953  69.535  1.00  0.00    -0.142 C  
HETATM   20  O   UNL     1     -11.311   7.483  68.986  1.00  0.00    -0.410 OA 
HETATM   21  C   UNL     1      -8.011   8.167  68.331  1.00  0.00    -0.123 C  
HETATM   22  C   UNL     1      -9.511   6.587  67.592  1.00  0.00    -0.123 C  
HETATM   23  H   UNL     1     -11.953   6.858  68.671  1.00  0.00     0.000 HD 
HETATM   24  O   UNL     1      -8.720   7.699  67.171  1.00  0.00    -0.122 OA 
HETATM   25  C   UNL     1      -9.979   6.937  69.022  1.00  0.00    -0.158 C  
BRANCH  21  26
HETATM   26  C   UNL     1      -6.641   7.499  68.474  1.00  0.00    -0.049 C  
HETATM   27  H   UNL     1      -5.111   6.977  67.319  1.00  0.00     0.000 HD 
HETATM   28  O   UNL     1      -5.961   7.391  67.231  1.00  0.00    -0.041 OA 
ENDBRANCH  21  26
BRANCH  22  29
HETATM   29  O   UNL     1      -8.738   5.380  67.557  1.00  0.00    -0.109 OA 
BRANCH  29  30
HETATM   30  C   UNL     1      -7.908   5.075  68.729  1.00  0.00    -0.078 C  
HETATM   31  C   UNL     1      -6.819   4.031  68.372  1.00  0.00    -0.047 C  
HETATM   32  O   UNL     1      -5.634   4.726  67.926  1.00  0.00    -0.015 OA 
HETATM   33  C   UNL     1      -6.372   3.029  69.450  1.00  0.00    -0.029 C  
HETATM   34  C   UNL     1      -7.434   2.735  70.494  1.00  0.00    -0.040 C  
HETATM   35  N   UNL     1      -5.977   1.748  68.810  1.00  0.00    -0.023 NA 
HETATM   36  H   UNL     1      -4.967   4.086  67.707  1.00  0.00     0.000 HD 
HETATM   37  H1  UNL     1      -5.680   1.084  69.525  1.00  0.00     0.000 HD 
HETATM   38  H2  UNL     1      -5.265   1.881  68.092  1.00  0.00     0.000 HD 
HETATM   39  C   UNL     1      -7.962   4.039  71.088  1.00  0.00    -0.067 C  
HETATM   40  C   UNL     1      -8.750   4.827  70.011  1.00  0.00    -0.082 C  
HETATM   41  N   UNL     1      -8.814   3.714  72.253  1.00  0.00    -0.091 NA 
HETATM   42  H2  UNL     1      -8.330   3.137  72.942  1.00  0.00     0.000 HD 
HETATM   43  H1  UNL     1      -9.166   4.585  72.650  1.00  0.00     0.000 HD 
BRANCH  40  44
HETATM   44  O   UNL     1      -9.181   6.067  70.623  1.00  0.00    -0.148 OA 
BRANCH  44  45
HETATM   45  C   UNL     1      -9.634   5.961  71.976  1.00  0.00    -0.149 C  
HETATM   46  O   UNL     1      -8.543   5.839  72.890  1.00  0.00    -0.122 OA 
HETATM   47  C   UNL     1      -7.702   7.001  72.936  1.00  0.00    -0.084 C  
HETATM   48  C   UNL     1      -8.494   8.258  73.326  1.00  0.00    -0.199 C  
HETATM   49  H1  UNL     1     -12.274   8.141  71.634  1.00  0.00     0.000 HD 
HETATM   50  O   UNL     1      -7.678   9.438  73.325  1.00  0.00     0.535 OA 
HETATM   51  H2  UNL     1     -12.237   6.485  71.361  1.00  0.00     0.000 HD 
HETATM   52  C   UNL     1      -9.670   8.454  72.358  1.00  0.00    -0.306 C  
HETATM   53  H   UNL     1      -8.168  10.216  73.567  1.00  0.00     0.000 HD 
HETATM   54  O   UNL     1     -10.467   9.572  72.785  1.00  0.00     1.575 OA 
HETATM   55  C   UNL     1     -10.533   7.180  72.324  1.00  0.00    -0.209 C  
HETATM   56  N   UNL     1     -11.685   7.342  71.405  1.00  0.00    -0.273 NA 
HETATM   57  H   UNL     1     -11.195   9.693  72.186  1.00  0.00     0.000 HD 
BRANCH  47  58
HETATM   58  C   UNL     1      -6.517   6.707  73.884  1.00  0.00    -0.065 C  
HETATM   59  H1  UNL     1      -4.994   7.699  74.951  1.00  0.00     0.000 HD 
HETATM   60  N   UNL     1      -5.776   7.894  74.325  1.00  0.00    -0.072 NA 
HETATM   61  H2  UNL     1      -6.411   8.569  74.751  1.00  0.00     0.000 HD 
ENDBRANCH  47  58
ENDBRANCH  44  45
ENDBRANCH  40  44
ENDBRANCH  29  30
ENDBRANCH  22  29
ENDBRANCH  18  19
ENDBRANCH   7  18
ENDBRANCH   2   5
TORSDOF 9
ENDMDL
MODEL      325
REMARK 921   NORMALIZED FREE ENERGY PREDICTED BY IDOCK:   21.69 KCAL/MOL
REMARK 922        TOTAL FREE ENERGY PREDICTED BY IDOCK:   30.30 KCAL/MOL
REMARK 923 INTER-LIGAND FREE ENERGY PREDICTED BY IDOCK:    2.56 KCAL/MOL
REMARK 924 INTRA-LIGAND FREE ENERGY PREDICTED BY IDOCK:   27.74 KCAL/MOL
REMARK 927      BINDING AFFINITY PREDICTED BY RF-SCORE:    0.00 PKD
ROOT
HETATM    1  N   UNL     1      -7.878   3.819  68.774  1.00  0.00    -0.056 NA 
HETATM    2  C   UNL     1      -7.974   4.717  67.620  1.00  0.00    -0.094 C  
HETATM    3  H1  UNL     1      -7.426   2.923  68.596  1.00  0.00     0.000 HD 
HETATM    4  H2  UNL     1      -8.802   3.669  69.178  1.00  0.00     0.000 HD 
ENDROOT
BRANCH   2   5
HETATM    5  C   UNL     1      -8.662   6.081  67.892  1.00  0.00    -0.112 C  
HETATM    6  O   UNL     1      -8.469   6.574  69.243  1.00  0.00    -0.125 OA 
HETATM    7  C   UNL     1      -9.025   7.894  69.380  1.00  0.00    -0.145 C  
HETATM    8  C   UNL     1     -10.571   7.862  69.152  1.00  0.00    -0.173 C  
HETATM    9  O   UNL     1     -10.710   4.888  68.463  1.00  0.00     0.131 OA 
HETATM   10  H   UNL     1     -11.638   4.782  68.287  1.00  0.00     0.000 HD 
HETATM   11  N   UNL     1     -11.249   7.119  70.266  1.00  0.00    -0.277 NA 
HETATM   12  C   UNL     1     -10.905   7.243  67.796  1.00  0.00    -0.144 C  
HETATM   13  H2  UNL     1     -11.008   7.501  71.180  1.00  0.00     0.000 HD 
HETATM   14  O   UNL     1     -10.619   8.137  66.712  1.00  0.00    -0.327 OA 
HETATM   15  C   UNL     1     -10.175   5.908  67.605  1.00  0.00    -0.187 C  
HETATM   16  H1  UNL     1     -12.258   7.098  70.117  1.00  0.00     0.000 HD 
HETATM   17  H   UNL     1     -10.827   7.753  65.868  1.00  0.00     0.000 HD 
BRANCH   7  18
HETATM   18  O   UNL     1      -8.932   8.424  70.691  1.00  0.00    -0.140 OA 
BRANCH  18  19
HETATM   19  C   UNL     1      -8.889   9.830  70.896  1.00  0.00     0.471 C  
HETATM   20  O   UNL     1      -6.474   9.469  71.339  1.00  0.00    -0.237 OA 
HETATM   21  C   UNL     1      -9.231  10.360  69.498  1.00  0.00    -0.120 C  
HETATM   22  C   UNL     1      -7.220  11.365  69.985  1.00  0.00     0.573 C  
HETATM   23  H   UNL     1      -5.626   9.855  71.526  1.00  0.00     0.000 HD 
HETATM   24  O   UNL     1      -8.003  10.830  68.917  1.00  0.00    -0.126 OA 
HETATM   25  C   UNL     1      -7.512  10.457  71.200  1.00  0.00     1.924 C  
BRANCH  21  26
HETATM   26  C   UNL     1     -10.319  11.437  69.491  1.00  0.00     0.162 C  
HETATM   27  H   UNL     1     -10.846  13.013  68.402  1.00  0.00     0.000 HD 
HETATM   28  O   UNL     1     -10.172  12.345  68.407  1.00  0.00    -0.220 OA 
ENDBRANCH  21  26
BRANCH  22  29
HETATM   29  O   UNL     1      -7.579  12.731  70.233  1.00  0.00     1.686 OA 
BRANCH  29  30
HETATM   30  C   UNL     1      -8.003  13.537  69.082  1.00  0.00     0.329 C  
HETATM   31  C   UNL     1      -6.932  13.501  67.961  1.00  0.00    -0.133 C  
HETATM   32  O   UNL     1      -7.220  12.396  67.077  1.00  0.00    -0.317 OA 
HETATM   33  C   UNL     1      -6.741  14.745  67.078  1.00  0.00     0.662 C  
HETATM   34  C   UNL     1      -7.126  16.046  67.758  1.00  0.00    -0.163 C  
HETATM   35  N   UNL     1      -5.322  14.842  66.649  1.00  0.00     1.336 NA 
HETATM   36  H   UNL     1      -6.564  12.373  66.391  1.00  0.00     0.000 HD 
HETATM   37  H1  UNL     1      -5.196  15.667  66.063  1.00  0.00     0.000 HD 
HETATM   38  H2  UNL     1      -5.001  13.991  66.188  1.00  0.00     0.000 HD 
HETATM   39  C   UNL     1      -8.539  15.944  68.328  1.00  0.00    -0.176 C  
HETATM   40  C   UNL     1      -8.561  14.927  69.498  1.00  0.00     0.010 C  
HETATM   41  N   UNL     1      -8.966  17.289  68.771  1.00  0.00    -0.261 NA 
HETATM   42  H2  UNL     1      -8.893  17.986  68.029  1.00  0.00     0.000 HD 
HETATM   43  H1  UNL     1      -9.910  17.220  69.151  1.00  0.00     0.000 HD 
BRANCH  40  44
HETATM   44  O   UNL     1      -9.932  14.843  69.961  1.00  0.00    -0.014 OA 
BRANCH  44  45
HETATM   45  C   UNL     1     -10.921  14.721  68.935  1.00  0.00    -0.254 C  
HETATM   46  O   UNL     1     -11.029  13.376  68.463  1.00  0.00    -0.249 OA 
HETATM   47  C   UNL     1     -11.499  12.456  69.458  1.00  0.00    -0.240 C  
HETATM   48  C   UNL     1     -12.875  12.865  70.003  1.00  0.00     0.482 C  
HETATM   49  H1  UNL     1     -13.119  16.991  70.296  1.00  0.00     0.000 HD 
HETATM   50  O   UNL     1     -13.336  11.984  71.037  1.00  0.00     0.095 OA 
HETATM   51  H2  UNL     1     -11.845  17.266  69.238  1.00  0.00     0.000 HD 
HETATM   52  C   UNL     1     -12.813  14.299  70.550  1.00  0.00    -0.275 C  
HETATM   53  H   UNL     1     -14.188  12.237  71.374  1.00  0.00     0.000 HD 
HETATM   54  O   UNL     1     -14.125  14.716  70.966  1.00  0.00    -0.517 OA 
HETATM   55  C   UNL     1     -12.285  15.249  69.458  1.00  0.00    -0.239 C  
HETATM   56  N   UNL     1     -12.224  16.645  69.953  1.00  0.00     0.761 NA 
HETATM   57  H   UNL     1     -14.086  15.603  71.304  1.00  0.00     0.000 HD 
BRANCH  47  58
HETATM   58  C   UNL     1     -11.480  11.034  68.852  1.00  0.00    -0.296 C  
HETATM   59  H1  UNL     1     -11.731   9.017  69.412  1.00  0.00     0.000 HD 
HETATM   60  N   UNL     1     -11.744   9.956  69.812  1.00  0.00    -0.450 NA 
HETATM   61  H2  UNL     1     -12.626  10.122  70.298  1.00  0.00     0.000 HD 
ENDBRANCH  47  58
ENDBRANCH  44  45
ENDBRANCH  40  44
ENDBRANCH  29  30
ENDBRANCH  22  29
ENDBRANCH  18  19
ENDBRANCH   7  18
ENDBRANCH   2   5
TORSDOF 9
ENDMDL
MODEL      326
REMARK 921   NORMALIZED FREE ENERGY PREDICTED BY IDOCK:   21.84 KCAL/MOL
REMARK 922        TOTAL FREE ENERGY PREDICTED BY IDOCK:   30.52 KCAL/MOL
REMARK 923 INTER-LIGAND FREE ENERGY PREDICTED BY IDOCK:   14.25 KCAL/MOL
REMARK 924 INTRA-LIGAND FREE ENERGY PREDICTED BY IDOCK:   16.27 KCAL/MOL
REMARK 927      BINDING AFFINITY PREDICTED BY RF-SCORE:    0.00 PKD
ROOT
HETATM    1  N   UNL     1      -9.152  11.537  71.691  1.00  0.00    10.623 NA 
HETATM    2  C   UNL     1     -10.277  10.688  71.290  1.00  0.00     2.969 C  
HETATM    3  H1  UNL     1      -8.895  11.488  72.677  1.00  0.00     0.000 HD 
HETATM    4  H2  UNL     1      -9.333  12.505  71.426  1.00  0.00     0.000 HD 
ENDROOT
BRANCH   2   5
HETATM    5  C   UNL     1     -10.668  10.763  69.791  1.00  0.00    -0.186 C  
HETATM    6  O   UNL     1     -10.578   9.491  69.099  1.00  0.00    -0.214 OA 
HETATM    7  C   UNL     1     -11.075   9.613  67.755  1.00  0.00    -0.023 C  
HETATM    8  C   UNL     1     -10.193  10.611  66.935  1.00  0.00    -0.223 C  
HETATM    9  O   UNL     1      -8.370  11.380  69.263  1.00  0.00    -0.375 OA 
HETATM   10  H   UNL     1      -7.797  12.015  68.848  1.00  0.00     0.000 HD 
HETATM   11  N   UNL     1      -8.824  10.038  66.712  1.00  0.00    -0.132 NA 
HETATM   12  C   UNL     1     -10.114  11.966  67.637  1.00  0.00    -0.191 C  
HETATM   13  H2  UNL     1      -8.864   9.117  66.273  1.00  0.00     0.000 HD 
HETATM   14  O   UNL     1     -11.332  12.711  67.507  1.00  0.00    -0.271 OA 
HETATM   15  C   UNL     1      -9.735  11.798  69.114  1.00  0.00     0.266 C  
HETATM   16  H1  UNL     1      -8.249  10.688  66.177  1.00  0.00     0.000 HD 
HETATM   17  H   UNL     1     -11.283  13.553  67.943  1.00  0.00     0.000 HD 
BRANCH   7  18
HETATM   18  O   UNL     1     -10.964   8.426  66.989  1.00  0.00    -0.115 OA 
BRANCH  18  19
HETATM   19  C   UNL     1     -10.233   7.315  67.490  1.00  0.00    -0.221 C  
HETATM   20  O   UNL     1     -11.116   8.010  69.702  1.00  0.00    -0.422 OA 
HETATM   21  C   UNL     1     -10.961   6.138  66.828  1.00  0.00    -0.245 C  
HETATM   22  C   UNL     1     -11.057   5.646  69.074  1.00  0.00     0.046 C  
HETATM   23  H   UNL     1     -11.187   7.826  70.632  1.00  0.00     0.000 HD 
HETATM   24  O   UNL     1     -11.773   5.526  67.844  1.00  0.00     1.661 OA 
HETATM   25  C   UNL     1     -10.347   7.016  69.000  1.00  0.00    -0.200 C  
BRANCH  21  26
HETATM   26  C   UNL     1     -10.028   5.129  66.154  1.00  0.00    -0.194 C  
HETATM   27  H   UNL     1      -9.825   4.237  64.390  1.00  0.00     0.000 HD 
HETATM   28  O   UNL     1     -10.403   4.863  64.809  1.00  0.00     0.217 OA 
ENDBRANCH  21  26
BRANCH  22  29
HETATM   29  O   UNL     1     -10.129   4.563  69.220  1.00  0.00    -0.172 OA 
BRANCH  29  30
HETATM   30  C   UNL     1      -8.699   4.895  69.216  1.00  0.00    -0.087 C  
HETATM   31  C   UNL     1      -8.224   5.293  70.638  1.00  0.00    -0.109 C  
HETATM   32  O   UNL     1      -7.773   4.107  71.328  1.00  0.00    -0.066 OA 
HETATM   33  C   UNL     1      -7.112   6.345  70.780  1.00  0.00    -0.069 C  
HETATM   34  C   UNL     1      -7.041   7.325  69.623  1.00  0.00    -0.073 C  
HETATM   35  N   UNL     1      -7.309   7.116  72.034  1.00  0.00    -0.080 NA 
HETATM   36  H   UNL     1      -7.483   4.351  72.199  1.00  0.00     0.000 HD 
HETATM   37  H1  UNL     1      -6.571   7.814  72.128  1.00  0.00     0.000 HD 
HETATM   38  H2  UNL     1      -7.370   6.510  72.852  1.00  0.00     0.000 HD 
HETATM   39  C   UNL     1      -6.967   6.568  68.297  1.00  0.00    -0.080 C  
HETATM   40  C   UNL     1      -8.304   5.829  68.039  1.00  0.00    -0.103 C  
HETATM   41  N   UNL     1      -6.664   7.536  67.220  1.00  0.00    -0.065 NA 
HETATM   42  H2  UNL     1      -5.822   8.080  67.408  1.00  0.00     0.000 HD 
HETATM   43  H1  UNL     1      -6.614   7.030  66.336  1.00  0.00     0.000 HD 
BRANCH  40  44
HETATM   44  O   UNL     1      -8.151   5.098  66.797  1.00  0.00    -0.107 OA 
BRANCH  44  45
HETATM   45  C   UNL     1      -7.480   3.839  66.903  1.00  0.00    -0.079 C  
HETATM   46  O   UNL     1      -8.150   2.958  67.807  1.00  0.00    -0.073 OA 
HETATM   47  C   UNL     1      -9.461   2.574  67.366  1.00  0.00    -0.025 C  
HETATM   48  C   UNL     1      -9.418   1.884  65.995  1.00  0.00     0.259 C  
HETATM   49  H1  UNL     1      -6.545   3.662  63.596  1.00  0.00     0.000 HD 
HETATM   50  O   UNL     1     -10.727   1.541  65.517  1.00  0.00     1.413 OA 
HETATM   51  H2  UNL     1      -5.731   4.370  64.882  1.00  0.00     0.000 HD 
HETATM   52  C   UNL     1      -8.728   2.800  64.972  1.00  0.00    -0.116 C  
HETATM   53  H   UNL     1     -10.700   1.114  64.668  1.00  0.00     0.000 HD 
HETATM   54  O   UNL     1      -8.600   2.111  63.716  1.00  0.00    -0.084 OA 
HETATM   55  C   UNL     1      -7.336   3.203  65.492  1.00  0.00    -0.072 C  
HETATM   56  N   UNL     1      -6.640   4.079  64.521  1.00  0.00    -0.042 NA 
HETATM   57  H   UNL     1      -8.173   2.678  63.084  1.00  0.00     0.000 HD 
BRANCH  47  58
HETATM   58  C   UNL     1     -10.108   1.705  68.468  1.00  0.00     0.729 C  
HETATM   59  H1  UNL     1     -10.476   1.706  70.544  1.00  0.00     0.000 HD 
HETATM   60  N   UNL     1     -10.049   2.281  69.817  1.00  0.00     0.591 NA 
HETATM   61  H2  UNL     1     -10.454   3.217  69.820  1.00  0.00     0.000 HD 
ENDBRANCH  47  58
ENDBRANCH  44  45
ENDBRANCH  40  44
ENDBRANCH  29  30
ENDBRANCH  22  29
ENDBRANCH  18  19
ENDBRANCH   7  18
ENDBRANCH   2   5
TORSDOF 9
ENDMDL
MODEL      327
REMARK 921   NORMALIZED FREE ENERGY PREDICTED BY IDOCK:   24.34 KCAL/MOL
REMARK 922        TOTAL FREE ENERGY PREDICTED BY IDOCK:   34.34 KCAL/MOL
REMARK 923 INTER-LIGAND FREE ENERGY PREDICTED BY IDOCK:   11.36 KCAL/MOL
REMARK 924 INTRA-LIGAND FREE ENERGY PREDICTED BY IDOCK:   22.98 KCAL/MOL
REMARK 927      BINDING AFFINITY PREDICTED BY RF-SCORE:    0.00 PKD
ROOT
HETATM    1  N   UNL     1      -7.568  15.854  69.614  1.00  0.00    -0.123 NA 
HETATM    2  C   UNL     1      -8.638  16.752  70.056  1.00  0.00     1.657 C  
HETATM    3  H1  UNL     1      -6.662  15.999  70.059  1.00  0.00     0.000 HD 
HETATM    4  H2  UNL     1      -7.470  15.900  68.600  1.00  0.00     0.000 HD 
ENDROOT
BRANCH   2   5
HETATM    5  C   UNL     1     -10.016  16.531  69.379  1.00  0.00    -0.187 C  
HETATM    6  O   UNL     1     -10.202  15.190  68.856  1.00  0.00    -0.219 OA 
HETATM    7  C   UNL     1     -11.542  15.026  68.360  1.00  0.00    -0.331 C  
HETATM    8  C   UNL     1     -11.804  15.994  67.160  1.00  0.00     0.718 C  
HETATM    9  O   UNL     1      -9.080  17.374  67.292  1.00  0.00    -0.232 OA 
HETATM   10  H   UNL     1      -9.161  18.009  66.589  1.00  0.00     0.000 HD 
HETATM   11  N   UNL     1     -10.979  15.592  65.973  1.00  0.00    -0.292 NA 
HETATM   12  C   UNL     1     -11.520  17.441  67.561  1.00  0.00     0.706 C  
HETATM   13  H2  UNL     1     -11.134  14.617  65.715  1.00  0.00     0.000 HD 
HETATM   14  O   UNL     1     -12.549  17.977  68.405  1.00  0.00     3.219 OA 
HETATM   15  C   UNL     1     -10.147  17.566  68.233  1.00  0.00    -0.346 C  
HETATM   16  H1  UNL     1     -11.149  16.223  65.191  1.00  0.00     0.000 HD 
HETATM   17  H   UNL     1     -12.372  18.877  68.654  1.00  0.00     0.000 HD 
BRANCH   7  18
HETATM   18  O   UNL     1     -11.788  13.760  67.774  1.00  0.00    -0.337 OA 
BRANCH  18  19
HETATM   19  C   UNL     1     -11.720  12.578  68.561  1.00  0.00    -0.324 C  
HETATM   20  O   UNL     1      -9.325  12.546  67.912  1.00  0.00    -0.186 OA 
HETATM   21  C   UNL     1     -12.016  13.121  69.964  1.00  0.00    -0.321 C  
HETATM   22  C   UNL     1      -9.997  12.046  70.210  1.00  0.00     3.252 C  
HETATM   23  H   UNL     1      -8.474  12.133  68.003  1.00  0.00     0.000 HD 
HETATM   24  O   UNL     1     -10.764  13.159  70.670  1.00  0.00     1.839 OA 
HETATM   25  C   UNL     1     -10.339  11.907  68.710  1.00  0.00    -0.165 C  
BRANCH  21  26
HETATM   26  C   UNL     1     -13.080  12.327  70.727  1.00  0.00     0.265 C  
HETATM   27  H   UNL     1     -13.625  10.434  70.986  1.00  0.00     0.000 HD 
HETATM   28  O   UNL     1     -12.965  10.927  70.513  1.00  0.00    -0.259 OA 
ENDBRANCH  21  26
BRANCH  22  29
HETATM   29  O   UNL     1     -10.333  10.866  70.952  1.00  0.00     1.341 OA 
BRANCH  29  30
HETATM   30  C   UNL     1     -10.384   9.597  70.216  1.00  0.00    -0.280 C  
HETATM   31  C   UNL     1     -11.008   8.479  71.092  1.00  0.00    -0.253 C  
HETATM   32  O   UNL     1     -12.437   8.464  70.879  1.00  0.00    -0.492 OA 
HETATM   33  C   UNL     1     -10.512   7.035  70.915  1.00  0.00    -0.214 C  
HETATM   34  C   UNL     1      -9.085   6.933  70.407  1.00  0.00    -0.156 C  
HETATM   35  N   UNL     1     -10.600   6.312  72.210  1.00  0.00    -0.207 NA 
HETATM   36  H   UNL     1     -12.819   7.779  71.416  1.00  0.00     0.000 HD 
HETATM   37  H1  UNL     1     -10.271   5.354  72.092  1.00  0.00     0.000 HD 
HETATM   38  H2  UNL     1     -11.539   6.349  72.607  1.00  0.00     0.000 HD 
HETATM   39  C   UNL     1      -8.916   7.770  69.141  1.00  0.00    -0.145 C  
HETATM   40  C   UNL     1      -9.051   9.276  69.484  1.00  0.00    -0.160 C  
HETATM   41  N   UNL     1      -7.596   7.465  68.547  1.00  0.00    -0.111 NA 
HETATM   42  H2  UNL     1      -7.465   6.468  68.377  1.00  0.00     0.000 HD 
HETATM   43  H1  UNL     1      -7.485   8.024  67.701  1.00  0.00     0.000 HD 
BRANCH  40  44
HETATM   44  O   UNL     1      -8.929  10.007  68.239  1.00  0.00    -0.118 OA 
BRANCH  44  45
HETATM   45  C   UNL     1     -10.124  10.643  67.779  1.00  0.00    -0.174 C  
HETATM   46  O   UNL     1      -9.855  11.928  67.214  1.00  0.00    -0.186 OA 
HETATM   47  C   UNL     1      -9.056  11.875  66.024  1.00  0.00    -0.119 C  
HETATM   48  C   UNL     1      -9.719  11.020  64.933  1.00  0.00    -0.254 C  
HETATM   49  H1  UNL     1     -11.634   7.768  66.641  1.00  0.00     0.000 HD 
HETATM   50  O   UNL     1      -8.906  10.915  63.756  1.00  0.00    -0.294 OA 
HETATM   51  H2  UNL     1     -11.689   8.447  68.175  1.00  0.00     0.000 HD 
HETATM   52  C   UNL     1     -10.009   9.614  65.478  1.00  0.00    -0.209 C  
HETATM   53  H   UNL     1      -9.317  10.386  63.081  1.00  0.00     0.000 HD 
HETATM   54  O   UNL     1     -10.720   8.850  64.489  1.00  0.00     3.084 OA 
HETATM   55  C   UNL     1     -10.851   9.718  66.763  1.00  0.00    -0.000 C  
HETATM   56  N   UNL     1     -11.157   8.374  67.308  1.00  0.00     0.211 NA 
HETATM   57  H   UNL     1     -10.900   7.980  64.826  1.00  0.00     0.000 HD 
BRANCH  47  58
HETATM   58  C   UNL     1      -8.761  13.323  65.572  1.00  0.00     1.587 C  
HETATM   59  H1  UNL     1      -9.281  14.701  64.063  1.00  0.00     0.000 HD 
HETATM   60  N   UNL     1      -9.476  13.744  64.362  1.00  0.00     0.176 NA 
HETATM   61  H2  UNL     1     -10.481  13.607  64.478  1.00  0.00     0.000 HD 
ENDBRANCH  47  58
ENDBRANCH  44  45
ENDBRANCH  40  44
ENDBRANCH  29  30
ENDBRANCH  22  29
ENDBRANCH  18  19
ENDBRANCH   7  18
ENDBRANCH   2   5
TORSDOF 9
ENDMDL
MODEL      328
REMARK 921   NORMALIZED FREE ENERGY PREDICTED BY IDOCK:   24.35 KCAL/MOL
REMARK 922        TOTAL FREE ENERGY PREDICTED BY IDOCK:   34.34 KCAL/MOL
REMARK 923 INTER-LIGAND FREE ENERGY PREDICTED BY IDOCK:   26.62 KCAL/MOL
REMARK 924 INTRA-LIGAND FREE ENERGY PREDICTED BY IDOCK:    7.73 KCAL/MOL
REMARK 927      BINDING AFFINITY PREDICTED BY RF-SCORE:    0.00 PKD
ROOT
HETATM    1  N   UNL     1     -10.879  14.978  73.001  1.00  0.00     0.898 NA 
HETATM    2  C   UNL     1     -10.592  13.635  72.491  1.00  0.00     7.532 C  
HETATM    3  H1  UNL     1     -11.118  15.029  73.990  1.00  0.00     0.000 HD 
HETATM    4  H2  UNL     1     -11.612  15.414  72.442  1.00  0.00     0.000 HD 
ENDROOT
BRANCH   2   5
HETATM    5  C   UNL     1     -10.229  13.556  70.984  1.00  0.00     5.187 C  
HETATM    6  O   UNL     1     -10.371  12.228  70.417  1.00  0.00     2.191 OA 
HETATM    7  C   UNL     1     -10.141  12.261  68.997  1.00  0.00     0.139 C  
HETATM    8  C   UNL     1      -8.673  12.703  68.691  1.00  0.00     0.050 C  
HETATM    9  O   UNL     1      -7.898  13.202  71.605  1.00  0.00     6.684 OA 
HETATM   10  H   UNL     1      -7.000  13.500  71.509  1.00  0.00     0.000 HD 
HETATM   11  N   UNL     1      -7.705  11.649  69.141  1.00  0.00    -0.344 NA 
HETATM   12  C   UNL     1      -8.366  14.048  69.347  1.00  0.00     0.517 C  
HETATM   13  H2  UNL     1      -7.919  10.738  68.736  1.00  0.00     0.000 HD 
HETATM   14  O   UNL     1      -8.991  15.139  68.657  1.00  0.00    -0.174 OA 
HETATM   15  C   UNL     1      -8.766  14.042  70.828  1.00  0.00     4.386 C  
HETATM   16  H1  UNL     1      -6.747  11.937  68.942  1.00  0.00     0.000 HD 
HETATM   17  H   UNL     1      -8.800  15.975  69.065  1.00  0.00     0.000 HD 
BRANCH   7  18
HETATM   18  O   UNL     1     -10.201  10.989  68.375  1.00  0.00    -0.171 OA 
BRANCH  18  19
HETATM   19  C   UNL     1      -9.407   9.915  68.860  1.00  0.00    -0.170 C  
HETATM   20  O   UNL     1     -11.096   8.463  67.766  1.00  0.00    -0.481 OA 
HETATM   21  C   UNL     1      -8.102  10.114  68.079  1.00  0.00    -0.112 C  
HETATM   22  C   UNL     1      -8.710   7.951  67.583  1.00  0.00    -0.126 C  
HETATM   23  H   UNL     1     -11.367   7.582  67.533  1.00  0.00     0.000 HD 
HETATM   24  O   UNL     1      -8.076   9.113  67.047  1.00  0.00    -0.108 OA 
HETATM   25  C   UNL     1      -9.848   8.485  68.483  1.00  0.00    -0.173 C  
BRANCH  21  26
HETATM   26  C   UNL     1      -6.843  10.072  68.950  1.00  0.00    -0.054 C  
HETATM   27  H   UNL     1      -4.870  10.077  68.716  1.00  0.00     0.000 HD 
HETATM   28  O   UNL     1      -5.651  10.102  68.177  1.00  0.00    -0.039 OA 
ENDBRANCH  21  26
BRANCH  22  29
HETATM   29  O   UNL     1      -7.767   7.160  68.317  1.00  0.00    -0.115 OA 
BRANCH  29  30
HETATM   30  C   UNL     1      -7.721   5.721  68.027  1.00  0.00    -0.096 C  
HETATM   31  C   UNL     1      -7.556   4.903  69.335  1.00  0.00    -0.060 C  
HETATM   32  O   UNL     1      -8.867   4.584  69.853  1.00  0.00    -0.081 OA 
HETATM   33  C   UNL     1      -6.759   3.590  69.291  1.00  0.00    -0.037 C  
HETATM   34  C   UNL     1      -5.708   3.544  68.196  1.00  0.00    -0.018 C  
HETATM   35  N   UNL     1      -6.084   3.370  70.596  1.00  0.00    -0.018 NA 
HETATM   36  H   UNL     1      -8.765   4.083  70.654  1.00  0.00     0.000 HD 
HETATM   37  H1  UNL     1      -5.555   2.498  70.567  1.00  0.00     0.000 HD 
HETATM   38  H2  UNL     1      -6.740   3.394  71.376  1.00  0.00     0.000 HD 
HETATM   39  C   UNL     1      -6.338   3.893  66.849  1.00  0.00    -0.040 C  
HETATM   40  C   UNL     1      -6.776   5.380  66.842  1.00  0.00    -0.062 C  
HETATM   41  N   UNL     1      -5.353   3.612  65.782  1.00  0.00    -0.009 NA 
HETATM   42  H2  UNL     1      -5.002   2.655  65.815  1.00  0.00     0.000 HD 
HETATM   43  H1  UNL     1      -5.774   3.845  64.883  1.00  0.00     0.000 HD 
BRANCH  40  44
HETATM   44  O   UNL     1      -7.405   5.630  65.560  1.00  0.00    -0.070 OA 
BRANCH  44  45
HETATM   45  C   UNL     1      -7.548   4.488  64.711  1.00  0.00    -0.073 C  
HETATM   46  O   UNL     1      -8.271   3.437  65.357  1.00  0.00    -0.096 OA 
HETATM   47  C   UNL     1      -9.633   3.777  65.652  1.00  0.00    -0.166 C  
HETATM   48  C   UNL     1     -10.409   4.159  64.382  1.00  0.00    -0.138 C  
HETATM   49  H1  UNL     1      -7.955   6.268  61.795  1.00  0.00     0.000 HD 
HETATM   50  O   UNL     1     -11.759   4.552  64.667  1.00  0.00    -0.832 OA 
HETATM   51  H2  UNL     1      -6.533   5.739  62.513  1.00  0.00     0.000 HD 
HETATM   52  C   UNL     1      -9.689   5.306  63.657  1.00  0.00     0.977 C  
HETATM   53  H   UNL     1     -12.239   4.788  63.882  1.00  0.00     0.000 HD 
HETATM   54  O   UNL     1     -10.362   5.593  62.419  1.00  0.00     0.719 OA 
HETATM   55  C   UNL     1      -8.228   4.908  63.379  1.00  0.00    -0.110 C  
HETATM   56  N   UNL     1      -7.508   5.993  62.669  1.00  0.00    -0.056 NA 
HETATM   57  H   UNL     1      -9.916   6.302  61.971  1.00  0.00     0.000 HD 
BRANCH  47  58
HETATM   58  C   UNL     1     -10.270   2.601  66.427  1.00  0.00     1.764 C  
HETATM   59  H1  UNL     1      -9.895   1.334  68.069  1.00  0.00     0.000 HD 
HETATM   60  N   UNL     1      -9.474   2.111  67.558  1.00  0.00    -0.397 NA 
HETATM   61  H2  UNL     1      -9.254   2.877  68.195  1.00  0.00     0.000 HD 
ENDBRANCH  47  58
ENDBRANCH  44  45
ENDBRANCH  40  44
ENDBRANCH  29  30
ENDBRANCH  22  29
ENDBRANCH  18  19
ENDBRANCH   7  18
ENDBRANCH   2   5
TORSDOF 9
ENDMDL
MODEL      329
REMARK 921   NORMALIZED FREE ENERGY PREDICTED BY IDOCK:   25.01 KCAL/MOL
REMARK 922        TOTAL FREE ENERGY PREDICTED BY IDOCK:   35.36 KCAL/MOL
REMARK 923 INTER-LIGAND FREE ENERGY PREDICTED BY IDOCK:   17.85 KCAL/MOL
REMARK 924 INTRA-LIGAND FREE ENERGY PREDICTED BY IDOCK:   17.51 KCAL/MOL
REMARK 927      BINDING AFFINITY PREDICTED BY RF-SCORE:    0.00 PKD
ROOT
HETATM    1  N   UNL     1     -12.849  17.282  64.857  1.00  0.00     6.077 NA 
HETATM    2  C   UNL     1     -11.999  16.852  65.971  1.00  0.00     2.607 C  
HETATM    3  H1  UNL     1     -12.863  18.286  64.679  1.00  0.00     0.000 HD 
HETATM    4  H2  UNL     1     -13.800  16.938  64.991  1.00  0.00     0.000 HD 
ENDROOT
BRANCH   2   5
HETATM    5  C   UNL     1     -11.978  15.324  66.242  1.00  0.00     0.321 C  
HETATM    6  O   UNL     1     -12.135  14.977  67.642  1.00  0.00    -0.202 OA 
HETATM    7  C   UNL     1     -12.232  13.550  67.798  1.00  0.00    -0.157 C  
HETATM    8  C   UNL     1     -10.911  12.857  67.330  1.00  0.00    -0.255 C  
HETATM    9  O   UNL     1      -9.546  15.424  66.387  1.00  0.00    -0.252 OA 
HETATM   10  H   UNL     1      -8.720  15.085  66.061  1.00  0.00     0.000 HD 
HETATM   11  N   UNL     1      -9.784  13.198  68.260  1.00  0.00    -0.226 NA 
HETATM   12  C   UNL     1     -10.575  13.250  65.892  1.00  0.00    -0.281 C  
HETATM   13  H2  UNL     1     -10.008  12.971  69.229  1.00  0.00     0.000 HD 
HETATM   14  O   UNL     1     -11.426  12.593  64.942  1.00  0.00    -0.303 OA 
HETATM   15  C   UNL     1     -10.632  14.772  65.710  1.00  0.00    -0.327 C  
HETATM   16  H1  UNL     1      -8.922  12.746  67.954  1.00  0.00     0.000 HD 
HETATM   17  H   UNL     1     -11.217  12.837  64.048  1.00  0.00     0.000 HD 
BRANCH   7  18
HETATM   18  O   UNL     1     -12.326  13.124  69.146  1.00  0.00    -0.164 OA 
BRANCH  18  19
HETATM   19  C   UNL     1     -12.062  11.770  69.491  1.00  0.00    -0.250 C  
HETATM   20  O   UNL     1      -9.700  12.508  69.678  1.00  0.00     0.504 OA 
HETATM   21  C   UNL     1     -12.818  11.633  70.818  1.00  0.00    -0.109 C  
HETATM   22  C   UNL     1     -10.669  11.004  71.347  1.00  0.00     3.367 C  
HETATM   23  H   UNL     1      -8.805  12.283  69.903  1.00  0.00     0.000 HD 
HETATM   24  O   UNL     1     -11.832  11.652  71.864  1.00  0.00     1.122 OA 
HETATM   25  C   UNL     1     -10.608  11.405  69.856  1.00  0.00     0.422 C  
BRANCH  21  26
HETATM   26  C   UNL     1     -13.715  10.396  70.897  1.00  0.00     0.413 C  
HETATM   27  H   UNL     1     -14.641   9.145  69.661  1.00  0.00     0.000 HD 
HETATM   28  O   UNL     1     -14.085   9.913  69.612  1.00  0.00     1.423 OA 
ENDBRANCH  21  26
BRANCH  22  29
HETATM   29  O   UNL     1     -10.768   9.584  71.521  1.00  0.00    -0.340 OA 
BRANCH  29  30
HETATM   30  C   UNL     1     -11.142   8.784  70.348  1.00  0.00    -0.236 C  
HETATM   31  C   UNL     1     -12.560   8.181  70.524  1.00  0.00     0.498 C  
HETATM   32  O   UNL     1     -13.530   9.108  69.989  1.00  0.00     0.756 OA 
HETATM   33  C   UNL     1     -12.862   6.807  69.905  1.00  0.00     1.931 C  
HETATM   34  C   UNL     1     -11.642   5.917  69.756  1.00  0.00     0.252 C  
HETATM   35  N   UNL     1     -13.863   6.092  70.738  1.00  0.00     2.992 NA 
HETATM   36  H   UNL     1     -14.398   8.739  70.097  1.00  0.00     0.000 HD 
HETATM   37  H1  UNL     1     -14.064   5.180  70.327  1.00  0.00     0.000 HD 
HETATM   38  H2  UNL     1     -14.709   6.643  70.880  1.00  0.00     0.000 HD 
HETATM   39  C   UNL     1     -10.535   6.664  69.013  1.00  0.00    -0.214 C  
HETATM   40  C   UNL     1     -10.006   7.828  69.890  1.00  0.00    -0.191 C  
HETATM   41  N   UNL     1      -9.461   5.703  68.680  1.00  0.00    -0.122 NA 
HETATM   42  H2  UNL     1      -9.805   4.896  68.161  1.00  0.00     0.000 HD 
HETATM   43  H1  UNL     1      -8.722   6.202  68.184  1.00  0.00     0.000 HD 
BRANCH  40  44
HETATM   44  O   UNL     1      -8.997   8.520  69.112  1.00  0.00    -0.144 OA 
BRANCH  44  45
HETATM   45  C   UNL     1      -9.458   9.661  68.383  1.00  0.00    -0.137 C  
HETATM   46  O   UNL     1      -8.424  10.634  68.218  1.00  0.00    -0.117 OA 
HETATM   47  C   UNL     1      -7.328  10.175  67.415  1.00  0.00    -0.089 C  
HETATM   48  C   UNL     1      -7.792   9.752  66.013  1.00  0.00    -0.107 C  
HETATM   49  H1  UNL     1     -11.495   7.906  66.235  1.00  0.00     0.000 HD 
HETATM   50  O   UNL     1      -6.715   9.241  65.214  1.00  0.00    -0.072 OA 
HETATM   51  H2  UNL     1     -11.859   8.541  67.746  1.00  0.00     0.000 HD 
HETATM   52  C   UNL     1      -8.889   8.683  66.128  1.00  0.00    -0.171 C  
HETATM   53  H   UNL     1      -7.002   8.979  64.347  1.00  0.00     0.000 HD 
HETATM   54  O   UNL     1      -9.391   8.363  64.819  1.00  0.00    -0.171 OA 
HETATM   55  C   UNL     1     -10.035   9.208  67.013  1.00  0.00    -0.230 C  
HETATM   56  N   UNL     1     -11.116   8.202  67.135  1.00  0.00     0.180 NA 
HETATM   57  H   UNL     1     -10.070   7.702  64.890  1.00  0.00     0.000 HD 
BRANCH  47  58
HETATM   58  C   UNL     1      -6.246  11.279  67.393  1.00  0.00    -0.071 C  
HETATM   59  H1  UNL     1      -5.921  13.260  68.036  1.00  0.00     0.000 HD 
HETATM   60  N   UNL     1      -6.636  12.532  68.050  1.00  0.00    -0.075 NA 
HETATM   61  H2  UNL     1      -6.938  12.350  69.008  1.00  0.00     0.000 HD 
ENDBRANCH  47  58
ENDBRANCH  44  45
ENDBRANCH  40  44
ENDBRANCH  29  30
ENDBRANCH  22  29
ENDBRANCH  18  19
ENDBRANCH   7  18
ENDBRANCH   2   5
TORSDOF 9
ENDMDL
MODEL      330
REMARK 921   NORMALIZED FREE ENERGY PREDICTED BY IDOCK:   25.12 KCAL/MOL
REMARK 922        TOTAL FREE ENERGY PREDICTED BY IDOCK:   35.52 KCAL/MOL
REMARK 923 INTER-LIGAND FREE ENERGY PREDICTED BY IDOCK:    5.25 KCAL/MOL
REMARK 924 INTRA-LIGAND FREE ENERGY PREDICTED BY IDOCK:   30.27 KCAL/MOL
REMARK 927      BINDING AFFINITY PREDICTED BY RF-SCORE:    0.00 PKD
ROOT
HETATM    1  N   UNL     1     -13.804   5.376  70.733  1.00  0.00     6.667 NA 
HETATM    2  C   UNL     1     -12.649   6.277  70.709  1.00  0.00     0.718 C  
HETATM    3  H1  UNL     1     -13.607   4.403  70.500  1.00  0.00     0.000 HD 
HETATM    4  H2  UNL     1     -14.541   5.737  70.128  1.00  0.00     0.000 HD 
ENDROOT
BRANCH   2   5
HETATM    5  C   UNL     1     -12.950   7.757  71.063  1.00  0.00    -0.028 C  
HETATM    6  O   UNL     1     -12.335   8.711  70.158  1.00  0.00     0.453 OA 
HETATM    7  C   UNL     1     -12.761  10.049  70.473  1.00  0.00    -0.130 C  
HETATM    8  C   UNL     1     -12.285  10.450  71.908  1.00  0.00     0.041 C  
HETATM    9  O   UNL     1     -11.040   7.741  72.578  1.00  0.00    -0.289 OA 
HETATM   10  H   UNL     1     -10.733   7.893  73.465  1.00  0.00     0.000 HD 
HETATM   11  N   UNL     1     -10.791  10.580  71.946  1.00  0.00     1.888 NA 
HETATM   12  C   UNL     1     -12.776   9.439  72.943  1.00  0.00     0.492 C  
HETATM   13  H2  UNL     1     -10.447  11.227  71.237  1.00  0.00     0.000 HD 
HETATM   14  O   UNL     1     -14.177   9.581  73.211  1.00  0.00    -0.558 OA 
HETATM   15  C   UNL     1     -12.450   8.005  72.508  1.00  0.00    -0.148 C  
HETATM   16  H1  UNL     1     -10.480  10.841  72.882  1.00  0.00     0.000 HD 
HETATM   17  H   UNL     1     -14.483   8.953  73.855  1.00  0.00     0.000 HD 
BRANCH   7  18
HETATM   18  O   UNL     1     -12.156  11.049  69.673  1.00  0.00    -0.318 OA 
BRANCH  18  19
HETATM   19  C   UNL     1     -10.845  10.861  69.158  1.00  0.00    -0.235 C  
HETATM   20  O   UNL     1     -11.465   8.460  69.057  1.00  0.00    -0.127 OA 
HETATM   21  C   UNL     1     -10.921  11.619  67.827  1.00  0.00    -0.233 C  
HETATM   22  C   UNL     1     -10.243   9.507  67.214  1.00  0.00    -0.234 C  
HETATM   23  H   UNL     1     -11.221   7.578  68.802  1.00  0.00     0.000 HD 
HETATM   24  O   UNL     1     -11.016  10.630  66.788  1.00  0.00    -0.215 OA 
HETATM   25  C   UNL     1     -10.447   9.428  68.744  1.00  0.00    -0.212 C  
BRANCH  21  26
HETATM   26  C   UNL     1      -9.756  12.584  67.594  1.00  0.00    -0.196 C  
HETATM   27  H   UNL     1      -7.926  12.908  68.298  1.00  0.00     0.000 HD 
HETATM   28  O   UNL     1      -8.649  12.309  68.442  1.00  0.00    -0.174 OA 
ENDBRANCH  21  26
BRANCH  22  29
HETATM   29  O   UNL     1      -8.865   9.685  66.861  1.00  0.00    -0.130 OA 
BRANCH  29  30
HETATM   30  C   UNL     1      -7.870   8.905  67.608  1.00  0.00    -0.101 C  
HETATM   31  C   UNL     1      -8.350   7.443  67.797  1.00  0.00    -0.118 C  
HETATM   32  O   UNL     1      -7.883   6.651  66.682  1.00  0.00    -0.100 OA 
HETATM   33  C   UNL     1      -7.950   6.693  69.078  1.00  0.00    -0.112 C  
HETATM   34  C   UNL     1      -7.700   7.600  70.270  1.00  0.00    -0.091 C  
HETATM   35  N   UNL     1      -9.015   5.723  69.444  1.00  0.00    -0.115 NA 
HETATM   36  H   UNL     1      -8.177   5.755  66.799  1.00  0.00     0.000 HD 
HETATM   37  H1  UNL     1      -8.750   5.226  70.294  1.00  0.00     0.000 HD 
HETATM   38  H2  UNL     1      -9.234   5.086  68.678  1.00  0.00     0.000 HD 
HETATM   39  C   UNL     1      -6.702   8.694  69.896  1.00  0.00    -0.042 C  
HETATM   40  C   UNL     1      -7.339   9.656  68.861  1.00  0.00    -0.073 C  
HETATM   41  N   UNL     1      -6.305   9.409  71.128  1.00  0.00    -0.113 NA 
HETATM   42  H2  UNL     1      -5.946   8.780  71.847  1.00  0.00     0.000 HD 
HETATM   43  H1  UNL     1      -5.638  10.140  70.878  1.00  0.00     0.000 HD 
BRANCH  40  44
HETATM   44  O   UNL     1      -6.330  10.637  68.516  1.00  0.00    -0.053 OA 
BRANCH  44  45
HETATM   45  C   UNL     1      -5.234  10.145  67.740  1.00  0.00    -0.034 C  
HETATM   46  O   UNL     1      -5.198   8.716  67.723  1.00  0.00    -0.033 OA 
HETATM   47  C   UNL     1      -6.330   8.122  67.072  1.00  0.00    -0.056 C  
HETATM   48  C   UNL     1      -6.461   8.598  65.617  1.00  0.00    -0.056 C  
HETATM   49  H1  UNL     1      -5.392  12.590  65.324  1.00  0.00     0.000 HD 
HETATM   50  O   UNL     1      -7.618   8.053  64.969  1.00  0.00    -0.091 OA 
HETATM   51  H2  UNL     1      -4.549  12.600  66.775  1.00  0.00     0.000 HD 
HETATM   52  C   UNL     1      -6.530  10.131  65.575  1.00  0.00    -0.107 C  
HETATM   53  H   UNL     1      -7.699   8.347  64.069  1.00  0.00     0.000 HD 
HETATM   54  O   UNL     1      -6.551  10.577  64.208  1.00  0.00    -0.327 OA 
HETATM   55  C   UNL     1      -5.310  10.727  66.301  1.00  0.00    -0.094 C  
HETATM   56  N   UNL     1      -5.342  12.208  66.268  1.00  0.00    -0.017 NA 
HETATM   57  H   UNL     1      -6.593  11.526  64.182  1.00  0.00     0.000 HD 
BRANCH  47  58
HETATM   58  C   UNL     1      -6.216   6.586  67.205  1.00  0.00    -0.036 C  
HETATM   59  H1  UNL     1      -5.383   5.113  68.462  1.00  0.00     0.000 HD 
HETATM   60  N   UNL     1      -5.459   6.127  68.375  1.00  0.00    -0.007 NA 
HETATM   61  H2  UNL     1      -5.847   6.529  69.229  1.00  0.00     0.000 HD 
ENDBRANCH  47  58
ENDBRANCH  44  45
ENDBRANCH  40  44
ENDBRANCH  29  30
ENDBRANCH  22  29
ENDBRANCH  18  19
ENDBRANCH   7  18
ENDBRANCH   2   5
TORSDOF 9
ENDMDL
MODEL      331
REMARK 921   NORMALIZED FREE ENERGY PREDICTED BY IDOCK:   25.67 KCAL/MOL
REMARK 922        TOTAL FREE ENERGY PREDICTED BY IDOCK:   36.37 KCAL/MOL
REMARK 923 INTER-LIGAND FREE ENERGY PREDICTED BY IDOCK:   20.93 KCAL/MOL
REMARK 924 INTRA-LIGAND FREE ENERGY PREDICTED BY IDOCK:   15.44 KCAL/MOL
REMARK 927      BINDING AFFINITY PREDICTED BY RF-SCORE:    0.00 PKD
ROOT
HETATM    1  N   UNL     1     -11.676   7.766  62.661  1.00  0.00    15.105 NA 
HETATM    2  C   UNL     1     -11.023   9.032  63.007  1.00  0.00     9.084 C  
HETATM    3  H1  UNL     1     -12.692   7.805  62.581  1.00  0.00     0.000 HD 
HETATM    4  H2  UNL     1     -11.405   7.041  63.324  1.00  0.00     0.000 HD 
ENDROOT
BRANCH   2   5
HETATM    5  C   UNL     1      -9.478   8.974  63.129  1.00  0.00     1.223 C  
HETATM    6  O   UNL     1      -9.002   7.967  64.060  1.00  0.00     0.498 OA 
HETATM    7  C   UNL     1      -7.567   7.887  64.024  1.00  0.00    -0.120 C  
HETATM    8  C   UNL     1      -6.932   9.238  64.491  1.00  0.00    -0.093 C  
HETATM    9  O   UNL     1      -9.587  10.712  64.835  1.00  0.00    -0.223 OA 
HETATM   10  H   UNL     1      -9.287  11.571  65.108  1.00  0.00     0.000 HD 
HETATM   11  N   UNL     1      -7.197   9.462  65.951  1.00  0.00    -0.090 NA 
HETATM   12  C   UNL     1      -7.457  10.401  63.652  1.00  0.00    -0.024 C  
HETATM   13  H2  UNL     1      -6.880   8.677  66.520  1.00  0.00     0.000 HD 
HETATM   14  O   UNL     1      -6.882  10.419  62.339  1.00  0.00    -0.128 OA 
HETATM   15  C   UNL     1      -8.989  10.375  63.573  1.00  0.00    -0.233 C  
HETATM   16  H1  UNL     1      -6.783  10.343  66.256  1.00  0.00     0.000 HD 
HETATM   17  H   UNL     1      -7.209  11.143  61.816  1.00  0.00     0.000 HD 
BRANCH   7  18
HETATM   18  O   UNL     1      -7.018   6.968  64.952  1.00  0.00    -0.049 OA 
BRANCH  18  19
HETATM   19  C   UNL     1      -7.447   6.973  66.307  1.00  0.00    -0.080 C  
HETATM   20  O   UNL     1      -5.772   8.781  66.601  1.00  0.00    -0.045 OA 
HETATM   21  C   UNL     1      -8.902   7.437  66.172  1.00  0.00    -0.160 C  
HETATM   22  C   UNL     1      -7.981   8.950  67.640  1.00  0.00    -0.102 C  
HETATM   23  H   UNL     1      -5.381   9.426  67.178  1.00  0.00     0.000 HD 
HETATM   24  O   UNL     1      -8.943   8.810  66.594  1.00  0.00    -0.128 OA 
HETATM   25  C   UNL     1      -6.811   8.021  67.245  1.00  0.00    -0.074 C  
BRANCH  21  26
HETATM   26  C   UNL     1      -9.904   6.571  66.940  1.00  0.00    -0.164 C  
HETATM   27  H   UNL     1     -11.804   6.649  67.517  1.00  0.00     0.000 HD 
HETATM   28  O   UNL     1     -11.182   7.185  67.041  1.00  0.00    -0.277 OA 
ENDBRANCH  21  26
BRANCH  22  29
HETATM   29  O   UNL     1      -8.557   8.588  68.902  1.00  0.00    -0.125 OA 
BRANCH  29  30
HETATM   30  C   UNL     1     -10.013   8.716  69.041  1.00  0.00    -0.192 C  
HETATM   31  C   UNL     1     -10.467  10.169  68.741  1.00  0.00    -0.204 C  
HETATM   32  O   UNL     1     -10.763  10.282  67.332  1.00  0.00    -0.255 OA 
HETATM   33  C   UNL     1     -11.675  10.739  69.502  1.00  0.00    -0.312 C  
HETATM   34  C   UNL     1     -11.896  10.111  70.866  1.00  0.00    -0.468 C  
HETATM   35  N   UNL     1     -11.508  12.204  69.682  1.00  0.00    -0.452 NA 
HETATM   36  H   UNL     1     -11.041  11.172  67.148  1.00  0.00     0.000 HD 
HETATM   37  H1  UNL     1     -12.310  12.581  70.187  1.00  0.00     0.000 HD 
HETATM   38  H2  UNL     1     -11.350  12.684  68.797  1.00  0.00     0.000 HD 
HETATM   39  C   UNL     1     -11.946   8.589  70.742  1.00  0.00    -0.112 C  
HETATM   40  C   UNL     1     -10.550   8.048  70.337  1.00  0.00    -0.224 C  
HETATM   41  N   UNL     1     -12.391   8.026  72.036  1.00  0.00    -0.316 NA 
HETATM   42  H2  UNL     1     -13.277   8.423  72.350  1.00  0.00     0.000 HD 
HETATM   43  H1  UNL     1     -12.425   7.010  71.952  1.00  0.00     0.000 HD 
BRANCH  40  44
HETATM   44  O   UNL     1     -10.678   6.612  70.192  1.00  0.00    -0.211 OA 
BRANCH  44  45
HETATM   45  C   UNL     1      -9.498   5.857  70.479  1.00  0.00    -0.167 C  
HETATM   46  O   UNL     1      -8.432   6.696  70.932  1.00  0.00    -0.131 OA 
HETATM   47  C   UNL     1      -8.701   7.338  72.186  1.00  0.00    -0.120 C  
HETATM   48  C   UNL     1      -8.988   6.315  73.296  1.00  0.00    -0.128 C  
HETATM   49  H1  UNL     1     -11.137   3.120  71.767  1.00  0.00     0.000 HD 
HETATM   50  O   UNL     1      -9.311   6.943  74.545  1.00  0.00    -0.263 OA 
HETATM   51  H2  UNL     1     -10.721   3.441  70.173  1.00  0.00     0.000 HD 
HETATM   52  C   UNL     1     -10.147   5.400  72.874  1.00  0.00    -0.176 C  
HETATM   53  H   UNL     1      -9.488   6.311  75.231  1.00  0.00     0.000 HD 
HETATM   54  O   UNL     1     -10.346   4.381  73.870  1.00  0.00    -0.168 OA 
HETATM   55  C   UNL     1      -9.826   4.747  71.517  1.00  0.00    -0.187 C  
HETATM   56  N   UNL     1     -10.923   3.848  71.087  1.00  0.00     1.400 NA 
HETATM   57  H   UNL     1     -11.062   3.815  73.608  1.00  0.00     0.000 HD 
BRANCH  47  58
HETATM   58  C   UNL     1      -7.521   8.280  72.513  1.00  0.00    -0.113 C  
HETATM   59  H1  UNL     1      -5.734   8.332  73.630  1.00  0.00     0.000 HD 
HETATM   60  N   UNL     1      -6.513   7.709  73.414  1.00  0.00    -0.065 NA 
HETATM   61  H2  UNL     1      -6.167   6.824  73.043  1.00  0.00     0.000 HD 
ENDBRANCH  47  58
ENDBRANCH  44  45
ENDBRANCH  40  44
ENDBRANCH  29  30
ENDBRANCH  22  29
ENDBRANCH  18  19
ENDBRANCH   7  18
ENDBRANCH   2   5
TORSDOF 9
ENDMDL
MODEL      332
REMARK 921   NORMALIZED FREE ENERGY PREDICTED BY IDOCK:   28.98 KCAL/MOL
REMARK 922        TOTAL FREE ENERGY PREDICTED BY IDOCK:   41.42 KCAL/MOL
REMARK 923 INTER-LIGAND FREE ENERGY PREDICTED BY IDOCK:   35.54 KCAL/MOL
REMARK 924 INTRA-LIGAND FREE ENERGY PREDICTED BY IDOCK:    5.88 KCAL/MOL
REMARK 927      BINDING AFFINITY PREDICTED BY RF-SCORE:    0.00 PKD
ROOT
HETATM    1  N   UNL     1      -6.306  13.749  67.695  1.00  0.00    -0.252 NA 
HETATM    2  C   UNL     1      -6.883  12.462  68.092  1.00  0.00    -0.081 C  
HETATM    3  H1  UNL     1      -6.150  14.412  68.454  1.00  0.00     0.000 HD 
HETATM    4  H2  UNL     1      -6.878  14.179  66.969  1.00  0.00     0.000 HD 
ENDROOT
BRANCH   2   5
HETATM    5  C   UNL     1      -7.121  11.453  66.938  1.00  0.00    -0.142 C  
HETATM    6  O   UNL     1      -8.482  10.956  66.867  1.00  0.00    -0.128 OA 
HETATM    7  C   UNL     1      -8.656  10.130  65.702  1.00  0.00    -0.155 C  
HETATM    8  C   UNL     1      -7.742   8.864  65.789  1.00  0.00    -0.094 C  
HETATM    9  O   UNL     1      -6.385   9.655  68.411  1.00  0.00    -0.051 OA 
HETATM   10  H   UNL     1      -5.783   8.930  68.533  1.00  0.00     0.000 HD 
HETATM   11  N   UNL     1      -8.207   7.957  66.889  1.00  0.00    -0.114 NA 
HETATM   12  C   UNL     1      -6.281   9.265  65.988  1.00  0.00    -0.067 C  
HETATM   13  H2  UNL     1      -9.191   7.708  66.786  1.00  0.00     0.000 HD 
HETATM   14  O   UNL     1      -5.696   9.783  64.786  1.00  0.00    -0.072 OA 
HETATM   15  C   UNL     1      -6.139  10.271  67.137  1.00  0.00    -0.055 C  
HETATM   16  H1  UNL     1      -7.611   7.131  66.946  1.00  0.00     0.000 HD 
HETATM   17  H   UNL     1      -4.788  10.032  64.909  1.00  0.00     0.000 HD 
BRANCH   7  18
HETATM   18  O   UNL     1      -9.945   9.553  65.593  1.00  0.00    -0.305 OA 
BRANCH  18  19
HETATM   19  C   UNL     1     -10.478   8.776  66.657  1.00  0.00    -0.170 C  
HETATM   20  O   UNL     1      -9.791  10.676  68.097  1.00  0.00    -0.150 OA 
HETATM   21  C   UNL     1     -11.967   8.727  66.293  1.00  0.00     7.437 C  
HETATM   22  C   UNL     1     -11.954   9.582  68.430  1.00  0.00     1.900 C  
HETATM   23  H   UNL     1      -9.781  11.063  68.965  1.00  0.00     0.000 HD 
HETATM   24  O   UNL     1     -12.642   9.636  67.179  1.00  0.00     5.913 OA 
HETATM   25  C   UNL     1     -10.462   9.403  68.066  1.00  0.00    -0.228 C  
BRANCH  21  26
HETATM   26  C   UNL     1     -12.573   7.322  66.341  1.00  0.00     9.612 C  
HETATM   27  H   UNL     1     -12.350   5.572  65.428  1.00  0.00     0.000 HD 
HETATM   28  O   UNL     1     -11.974   6.443  65.399  1.00  0.00     4.450 OA 
ENDBRANCH  21  26
BRANCH  22  29
HETATM   29  O   UNL     1     -12.449   8.500  69.228  1.00  0.00     2.366 OA 
BRANCH  29  30
HETATM   30  C   UNL     1     -11.611   8.045  70.344  1.00  0.00    -0.068 C  
HETATM   31  C   UNL     1     -11.760   8.993  71.563  1.00  0.00    -0.345 C  
HETATM   32  O   UNL     1     -12.836   8.513  72.398  1.00  0.00    -0.455 OA 
HETATM   33  C   UNL     1     -10.546   9.217  72.480  1.00  0.00     1.030 C  
HETATM   34  C   UNL     1      -9.209   9.030  71.786  1.00  0.00    -0.173 C  
HETATM   35  N   UNL     1     -10.592  10.590  73.045  1.00  0.00     7.833 NA 
HETATM   36  H   UNL     1     -12.928   9.093  73.144  1.00  0.00     0.000 HD 
HETATM   37  H1  UNL     1      -9.787  10.738  73.653  1.00  0.00     0.000 HD 
HETATM   38  H2  UNL     1     -11.474  10.779  73.522  1.00  0.00     0.000 HD 
HETATM   39  C   UNL     1      -9.168   7.676  71.079  1.00  0.00    -0.148 C  
HETATM   40  C   UNL     1     -10.171   7.670  69.897  1.00  0.00    -0.215 C  
HETATM   41  N   UNL     1      -7.785   7.428  70.619  1.00  0.00    -0.090 NA 
HETATM   42  H2  UNL     1      -7.103   7.496  71.374  1.00  0.00     0.000 HD 
HETATM   43  H1  UNL     1      -7.758   6.524  70.147  1.00  0.00     0.000 HD 
BRANCH  40  44
HETATM   44  O   UNL     1     -10.116   6.349  69.303  1.00  0.00    -0.161 OA 
BRANCH  44  45
HETATM   45  C   UNL     1      -8.803   5.821  69.098  1.00  0.00    -0.112 C  
HETATM   46  O   UNL     1      -8.303   5.180  70.274  1.00  0.00    -0.094 OA 
HETATM   47  C   UNL     1      -9.050   4.016  70.654  1.00  0.00    -0.111 C  
HETATM   48  C   UNL     1      -9.074   2.967  69.532  1.00  0.00    -0.130 C  
HETATM   49  H1  UNL     1      -9.325   4.837  65.842  1.00  0.00     0.000 HD 
HETATM   50  O   UNL     1      -9.861   1.819  69.877  1.00  0.00     0.036 OA 
HETATM   51  H2  UNL     1      -8.796   6.322  66.420  1.00  0.00     0.000 HD 
HETATM   52  C   UNL     1      -9.629   3.595  68.244  1.00  0.00    -0.099 C  
HETATM   53  H   UNL     1      -9.876   1.170  69.182  1.00  0.00     0.000 HD 
HETATM   54  O   UNL     1      -9.557   2.641  67.171  1.00  0.00    -0.405 OA 
HETATM   55  C   UNL     1      -8.813   4.850  67.885  1.00  0.00    -0.104 C  
HETATM   56  N   UNL     1      -9.319   5.474  66.639  1.00  0.00    -0.136 NA 
HETATM   57  H   UNL     1      -9.900   3.030  66.375  1.00  0.00     0.000 HD 
BRANCH  47  58
HETATM   58  C   UNL     1      -8.469   3.477  71.981  1.00  0.00    -0.082 C  
HETATM   59  H1  UNL     1      -7.514   1.773  72.773  1.00  0.00     0.000 HD 
HETATM   60  N   UNL     1      -7.897   2.128  71.897  1.00  0.00    -0.044 NA 
HETATM   61  H2  UNL     1      -7.193   2.087  71.159  1.00  0.00     0.000 HD 
ENDBRANCH  47  58
ENDBRANCH  44  45
ENDBRANCH  40  44
ENDBRANCH  29  30
ENDBRANCH  22  29
ENDBRANCH  18  19
ENDBRANCH   7  18
ENDBRANCH   2   5
TORSDOF 9
ENDMDL
MODEL      333
REMARK 921   NORMALIZED FREE ENERGY PREDICTED BY IDOCK:   29.14 KCAL/MOL
REMARK 922        TOTAL FREE ENERGY PREDICTED BY IDOCK:   41.65 KCAL/MOL
REMARK 923 INTER-LIGAND FREE ENERGY PREDICTED BY IDOCK:   16.04 KCAL/MOL
REMARK 924 INTRA-LIGAND FREE ENERGY PREDICTED BY IDOCK:   25.61 KCAL/MOL
REMARK 927      BINDING AFFINITY PREDICTED BY RF-SCORE:    0.00 PKD
ROOT
HETATM    1  N   UNL     1      -8.621  15.089  71.485  1.00  0.00     3.042 NA 
HETATM    2  C   UNL     1      -7.981  13.778  71.350  1.00  0.00     6.579 C  
HETATM    3  H1  UNL     1      -8.538  15.525  72.403  1.00  0.00     0.000 HD 
HETATM    4  H2  UNL     1      -9.603  15.027  71.217  1.00  0.00     0.000 HD 
ENDROOT
BRANCH   2   5
HETATM    5  C   UNL     1      -8.108  13.115  69.954  1.00  0.00     2.157 C  
HETATM    6  O   UNL     1      -7.112  12.090  69.699  1.00  0.00     0.066 OA 
HETATM    7  C   UNL     1      -7.371  11.437  68.444  1.00  0.00    -0.095 C  
HETATM    8  C   UNL     1      -7.252  12.455  67.263  1.00  0.00    -0.125 C  
HETATM    9  O   UNL     1      -6.728  14.896  69.025  1.00  0.00    -0.104 OA 
HETATM   10  H   UNL     1      -6.658  15.584  68.372  1.00  0.00     0.000 HD 
HETATM   11  N   UNL     1      -5.828  12.898  67.097  1.00  0.00    -0.446 NA 
HETATM   12  C   UNL     1      -8.178  13.650  67.483  1.00  0.00    -0.184 C  
HETATM   13  H2  UNL     1      -5.194  12.107  66.982  1.00  0.00     0.000 HD 
HETATM   14  O   UNL     1      -9.552  13.316  67.246  1.00  0.00    -0.221 OA 
HETATM   15  C   UNL     1      -7.995  14.235  68.889  1.00  0.00    -0.080 C  
HETATM   16  H1  UNL     1      -5.750  13.562  66.327  1.00  0.00     0.000 HD 
HETATM   17  H   UNL     1     -10.128  14.060  67.383  1.00  0.00     0.000 HD 
BRANCH   7  18
HETATM   18  O   UNL     1      -6.405  10.463  68.092  1.00  0.00    -0.051 OA 
BRANCH  18  19
HETATM   19  C   UNL     1      -6.783   9.103  67.925  1.00  0.00    -0.068 C  
HETATM   20  O   UNL     1      -8.049   9.926  65.955  1.00  0.00    -0.115 OA 
HETATM   21  C   UNL     1      -5.435   8.441  67.614  1.00  0.00    -0.035 C  
HETATM   22  C   UNL     1      -6.759   7.851  65.827  1.00  0.00    -0.045 C  
HETATM   23  H   UNL     1      -8.585   9.714  65.201  1.00  0.00     0.000 HD 
HETATM   24  O   UNL     1      -5.419   8.171  66.202  1.00  0.00    -0.028 OA 
HETATM   25  C   UNL     1      -7.655   8.758  66.700  1.00  0.00    -0.089 C  
BRANCH  21  26
HETATM   26  C   UNL     1      -5.155   7.183  68.441  1.00  0.00    -0.019 C  
HETATM   27  H   UNL     1      -5.111   6.636  70.351  1.00  0.00     0.000 HD 
HETATM   28  O   UNL     1      -5.285   7.415  69.837  1.00  0.00    -0.022 OA 
ENDBRANCH  21  26
BRANCH  22  29
HETATM   29  O   UNL     1      -7.022   6.459  66.048  1.00  0.00    -0.059 OA 
BRANCH  29  30
HETATM   30  C   UNL     1      -7.408   6.052  67.405  1.00  0.00    -0.077 C  
HETATM   31  C   UNL     1      -6.597   4.810  67.857  1.00  0.00    -0.046 C  
HETATM   32  O   UNL     1      -5.392   5.256  68.518  1.00  0.00    -0.006 OA 
HETATM   33  C   UNL     1      -7.267   3.786  68.787  1.00  0.00    -0.051 C  
HETATM   34  C   UNL     1      -8.778   3.734  68.659  1.00  0.00    -0.136 C  
HETATM   35  N   UNL     1      -6.727   2.430  68.511  1.00  0.00    -0.036 NA 
HETATM   36  H   UNL     1      -4.895   4.495  68.794  1.00  0.00     0.000 HD 
HETATM   37  H1  UNL     1      -7.172   1.751  69.129  1.00  0.00     0.000 HD 
HETATM   38  H2  UNL     1      -5.710   2.400  68.577  1.00  0.00     0.000 HD 
HETATM   39  C   UNL     1      -9.366   5.136  68.809  1.00  0.00    -0.125 C  
HETATM   40  C   UNL     1      -8.949   6.014  67.601  1.00  0.00    -0.111 C  
HETATM   41  N   UNL     1     -10.837   5.020  68.913  1.00  0.00     0.324 NA 
HETATM   42  H2  UNL     1     -11.128   4.391  69.662  1.00  0.00     0.000 HD 
HETATM   43  H1  UNL     1     -11.230   5.957  69.014  1.00  0.00     0.000 HD 
BRANCH  40  44
HETATM   44  O   UNL     1      -9.498   7.336  67.829  1.00  0.00    -0.131 OA 
BRANCH  44  45
HETATM   45  C   UNL     1      -9.631   7.719  69.200  1.00  0.00    -0.155 C  
HETATM   46  O   UNL     1      -9.375   9.113  69.386  1.00  0.00    -0.153 OA 
HETATM   47  C   UNL     1     -10.329   9.963  68.733  1.00  0.00    -0.203 C  
HETATM   48  C   UNL     1     -11.760   9.687  69.220  1.00  0.00     0.371 C  
HETATM   49  H1  UNL     1     -12.277   5.631  69.893  1.00  0.00     0.000 HD 
HETATM   50  O   UNL     1     -12.731  10.492  68.538  1.00  0.00     0.035 OA 
HETATM   51  H2  UNL     1     -10.632   5.311  69.990  1.00  0.00     0.000 HD 
HETATM   52  C   UNL     1     -12.101   8.202  69.020  1.00  0.00     2.495 C  
HETATM   53  H   UNL     1     -13.617  10.322  68.839  1.00  0.00     0.000 HD 
HETATM   54  O   UNL     1     -13.401   7.927  69.569  1.00  0.00     3.045 OA 
HETATM   55  C   UNL     1     -11.043   7.328  69.718  1.00  0.00    -0.182 C  
HETATM   56  N   UNL     1     -11.350   5.888  69.553  1.00  0.00    -0.255 NA 
HETATM   57  H   UNL     1     -13.611   7.009  69.446  1.00  0.00     0.000 HD 
BRANCH  47  58
HETATM   58  C   UNL     1      -9.888  11.431  68.931  1.00  0.00    -0.112 C  
HETATM   59  H1  UNL     1      -8.662  12.615  70.171  1.00  0.00     0.000 HD 
HETATM   60  N   UNL     1      -8.952  11.645  70.041  1.00  0.00     1.495 NA 
HETATM   61  H2  UNL     1      -8.137  11.041  69.937  1.00  0.00     0.000 HD 
ENDBRANCH  47  58
ENDBRANCH  44  45
ENDBRANCH  40  44
ENDBRANCH  29  30
ENDBRANCH  22  29
ENDBRANCH  18  19
ENDBRANCH   7  18
ENDBRANCH   2   5
TORSDOF 9
ENDMDL
MODEL      334
REMARK 921   NORMALIZED FREE ENERGY PREDICTED BY IDOCK:   29.33 KCAL/MOL
REMARK 922        TOTAL FREE ENERGY PREDICTED BY IDOCK:   41.95 KCAL/MOL
REMARK 923 INTER-LIGAND FREE ENERGY PREDICTED BY IDOCK:   14.90 KCAL/MOL
REMARK 924 INTRA-LIGAND FREE ENERGY PREDICTED BY IDOCK:   27.05 KCAL/MOL
REMARK 927      BINDING AFFINITY PREDICTED BY RF-SCORE:    0.00 PKD
ROOT
HETATM    1  N   UNL     1      -5.224  16.890  68.905  1.00  0.00    -0.130 NA 
HETATM    2  C   UNL     1      -5.932  18.080  69.385  1.00  0.00    -0.240 C  
HETATM    3  H1  UNL     1      -4.550  16.488  69.557  1.00  0.00     0.000 HD 
HETATM    4  H2  UNL     1      -4.770  17.089  68.014  1.00  0.00     0.000 HD 
ENDROOT
BRANCH   2   5
HETATM    5  C   UNL     1      -6.956  18.691  68.393  1.00  0.00    -0.260 C  
HETATM    6  O   UNL     1      -7.594  17.711  67.534  1.00  0.00    -0.194 OA 
HETATM    7  C   UNL     1      -8.616  18.333  66.735  1.00  0.00    -0.261 C  
HETATM    8  C   UNL     1      -7.990  19.399  65.778  1.00  0.00    -0.048 C  
HETATM    9  O   UNL     1      -5.135  19.097  66.825  1.00  0.00    -0.152 OA 
HETATM   10  H   UNL     1      -4.675  19.740  66.296  1.00  0.00     0.000 HD 
HETATM   11  N   UNL     1      -7.141  18.732  64.737  1.00  0.00     0.297 NA 
HETATM   12  C   UNL     1      -7.183  20.428  66.569  1.00  0.00    -0.252 C  
HETATM   13  H2  UNL     1      -7.659  18.019  64.223  1.00  0.00     0.000 HD 
HETATM   14  O   UNL     1      -8.027  21.347  67.275  1.00  0.00    -0.677 OA 
HETATM   15  C   UNL     1      -6.207  19.739  67.532  1.00  0.00    -0.194 C  
HETATM   16  H1  UNL     1      -6.732  19.427  64.113  1.00  0.00     0.000 HD 
HETATM   17  H   UNL     1      -7.526  21.987  67.767  1.00  0.00     0.000 HD 
BRANCH   7  18
HETATM   18  O   UNL     1      -9.248  17.453  65.822  1.00  0.00    -0.517 OA 
BRANCH  18  19
HETATM   19  C   UNL     1      -9.258  16.053  66.063  1.00  0.00    -0.340 C  
HETATM   20  O   UNL     1      -9.712  16.684  68.420  1.00  0.00    -0.228 OA 
HETATM   21  C   UNL     1     -10.480  15.605  65.253  1.00  0.00    -0.412 C  
HETATM   22  C   UNL     1     -10.919  14.831  67.374  1.00  0.00    -0.313 C  
HETATM   23  H   UNL     1      -9.909  16.398  69.304  1.00  0.00     0.000 HD 
HETATM   24  O   UNL     1     -11.535  15.350  66.195  1.00  0.00    -0.178 OA 
HETATM   25  C   UNL     1      -9.577  15.586  67.499  1.00  0.00    -0.212 C  
BRANCH  21  26
HETATM   26  C   UNL     1     -10.217  14.400  64.346  1.00  0.00     0.488 C  
HETATM   27  H   UNL     1     -11.248  12.950  63.460  1.00  0.00     0.000 HD 
HETATM   28  O   UNL     1     -11.410  13.697  64.023  1.00  0.00    -0.342 OA 
ENDBRANCH  21  26
BRANCH  22  29
HETATM   29  O   UNL     1     -10.734  13.414  67.260  1.00  0.00    -0.257 OA 
BRANCH  29  30
HETATM   30  C   UNL     1     -10.488  12.663  68.498  1.00  0.00    -0.234 C  
HETATM   31  C   UNL     1     -10.934  13.485  69.735  1.00  0.00     0.207 C  
HETATM   32  O   UNL     1     -12.316  13.178  70.025  1.00  0.00    -0.262 OA 
HETATM   33  C   UNL     1     -10.153  13.325  71.050  1.00  0.00     6.482 C  
HETATM   34  C   UNL     1      -8.706  12.911  70.860  1.00  0.00     9.528 C  
HETATM   35  N   UNL     1     -10.179  14.603  71.806  1.00  0.00     1.752 NA 
HETATM   36  H   UNL     1     -12.588  13.681  70.783  1.00  0.00     0.000 HD 
HETATM   37  H1  UNL     1      -9.661  14.497  72.679  1.00  0.00     0.000 HD 
HETATM   38  H2  UNL     1     -11.130  14.938  71.963  1.00  0.00     0.000 HD 
HETATM   39  C   UNL     1      -8.626  11.667  69.976  1.00  0.00     2.517 C  
HETATM   40  C   UNL     1      -9.075  12.017  68.534  1.00  0.00    -0.106 C  
HETATM   41  N   UNL     1      -7.238  11.158  70.004  1.00  0.00    -0.421 NA 
HETATM   42  H2  UNL     1      -6.903  10.987  70.952  1.00  0.00     0.000 HD 
HETATM   43  H1  UNL     1      -7.185  10.328  69.414  1.00  0.00     0.000 HD 
BRANCH  40  44
HETATM   44  O   UNL     1      -9.022  10.790  67.765  1.00  0.00    -0.135 OA 
BRANCH  44  45
HETATM   45  C   UNL     1     -10.190  10.496  66.994  1.00  0.00    -0.226 C  
HETATM   46  O   UNL     1     -10.473   9.095  66.979  1.00  0.00    -0.260 OA 
HETATM   47  C   UNL     1     -10.811   8.564  68.268  1.00  0.00     0.072 C  
HETATM   48  C   UNL     1     -12.032   9.275  68.871  1.00  0.00     1.535 C  
HETATM   49  H1  UNL     1     -11.941  13.308  67.925  1.00  0.00     0.000 HD 
HETATM   50  O   UNL     1     -12.350   8.791  70.183  1.00  0.00    -0.168 OA 
HETATM   51  H2  UNL     1     -10.870  13.112  66.647  1.00  0.00     0.000 HD 
HETATM   52  C   UNL     1     -11.773  10.788  68.937  1.00  0.00    -0.267 C  
HETATM   53  H   UNL     1     -13.105   9.231  70.557  1.00  0.00     0.000 HD 
HETATM   54  O   UNL     1     -12.954  11.460  69.407  1.00  0.00     0.160 OA 
HETATM   55  C   UNL     1     -11.395  11.312  67.539  1.00  0.00    -0.288 C  
HETATM   56  N   UNL     1     -11.150  12.773  67.568  1.00  0.00    -0.252 NA 
HETATM   57  H   UNL     1     -12.794  12.396  69.447  1.00  0.00     0.000 HD 
BRANCH  47  58
HETATM   58  C   UNL     1     -11.000   7.037  68.130  1.00  0.00    -0.096 C  
HETATM   59  H1  UNL     1     -10.622   5.244  69.174  1.00  0.00     0.000 HD 
HETATM   60  N   UNL     1     -10.498   6.253  69.265  1.00  0.00    -0.218 NA 
HETATM   61  H2  UNL     1     -10.913   6.584  70.136  1.00  0.00     0.000 HD 
ENDBRANCH  47  58
ENDBRANCH  44  45
ENDBRANCH  40  44
ENDBRANCH  29  30
ENDBRANCH  22  29
ENDBRANCH  18  19
ENDBRANCH   7  18
ENDBRANCH   2   5
TORSDOF 9
ENDMDL
MODEL      335
REMARK 921   NORMALIZED FREE ENERGY PREDICTED BY IDOCK:   29.75 KCAL/MOL
REMARK 922        TOTAL FREE ENERGY PREDICTED BY IDOCK:   42.60 KCAL/MOL
REMARK 923 INTER-LIGAND FREE ENERGY PREDICTED BY IDOCK:   16.13 KCAL/MOL
REMARK 924 INTRA-LIGAND FREE ENERGY PREDICTED BY IDOCK:   26.47 KCAL/MOL
REMARK 927      BINDING AFFINITY PREDICTED BY RF-SCORE:    0.00 PKD
ROOT
HETATM    1  N   UNL     1     -11.527   3.682  68.086  1.00  0.00     7.001 NA 
HETATM    2  C   UNL     1     -11.869   4.806  68.963  1.00  0.00     7.279 C  
HETATM    3  H1  UNL     1     -12.314   3.239  67.615  1.00  0.00     0.000 HD 
HETATM    4  H2  UNL     1     -10.992   2.985  68.604  1.00  0.00     0.000 HD 
ENDROOT
BRANCH   2   5
HETATM    5  C   UNL     1     -10.670   5.481  69.680  1.00  0.00    -0.278 C  
HETATM    6  O   UNL     1     -10.971   6.798  70.209  1.00  0.00    -0.254 OA 
HETATM    7  C   UNL     1      -9.857   7.303  70.965  1.00  0.00    -0.183 C  
HETATM    8  C   UNL     1      -8.608   7.487  70.042  1.00  0.00    -0.139 C  
HETATM    9  O   UNL     1      -9.926   6.353  67.529  1.00  0.00    -0.123 OA 
HETATM   10  H   UNL     1      -9.212   6.412  66.904  1.00  0.00     0.000 HD 
HETATM   11  N   UNL     1      -8.845   8.594  69.056  1.00  0.00    -0.137 NA 
HETATM   12  C   UNL     1      -8.265   6.180  69.330  1.00  0.00    -0.116 C  
HETATM   13  H2  UNL     1      -9.108   9.465  69.518  1.00  0.00     0.000 HD 
HETATM   14  O   UNL     1      -7.652   5.231  70.213  1.00  0.00    -0.068 OA 
HETATM   15  C   UNL     1      -9.507   5.576  68.661  1.00  0.00    -0.129 C  
HETATM   16  H1  UNL     1      -8.031   8.714  68.454  1.00  0.00     0.000 HD 
HETATM   17  H   UNL     1      -7.439   4.418  69.770  1.00  0.00     0.000 HD 
BRANCH   7  18
HETATM   18  O   UNL     1     -10.048   8.615  71.465  1.00  0.00    -0.222 OA 
BRANCH  18  19
HETATM   19  C   UNL     1     -10.017   9.731  70.586  1.00  0.00    -0.146 C  
HETATM   20  O   UNL     1      -7.591   9.239  70.402  1.00  0.00    -0.094 OA 
HETATM   21  C   UNL     1     -10.881   9.234  69.420  1.00  0.00    -0.169 C  
HETATM   22  C   UNL     1      -8.896   9.821  68.416  1.00  0.00    -0.120 C  
HETATM   23  H   UNL     1      -6.759   9.447  69.995  1.00  0.00     0.000 HD 
HETATM   24  O   UNL     1      -9.984   8.898  68.349  1.00  0.00    -0.166 OA 
HETATM   25  C   UNL     1      -8.665  10.070  69.924  1.00  0.00    -0.142 C  
BRANCH  21  26
HETATM   26  C   UNL     1     -11.957  10.229  68.977  1.00  0.00     0.189 C  
HETATM   27  H   UNL     1     -12.115  11.831  67.812  1.00  0.00     0.000 HD 
HETATM   28  O   UNL     1     -11.448  11.214  68.087  1.00  0.00    -0.284 OA 
ENDBRANCH  21  26
BRANCH  22  29
HETATM   29  O   UNL     1      -9.219  11.028  67.713  1.00  0.00    -0.150 OA 
BRANCH  29  30
HETATM   30  C   UNL     1      -8.359  11.403  66.583  1.00  0.00    -0.172 C  
HETATM   31  C   UNL     1      -7.800  10.140  65.877  1.00  0.00    -0.132 C  
HETATM   32  O   UNL     1      -8.715   9.749  64.830  1.00  0.00    -0.164 OA 
HETATM   33  C   UNL     1      -6.399  10.202  65.249  1.00  0.00    -0.119 C  
HETATM   34  C   UNL     1      -5.474  11.211  65.906  1.00  0.00    -0.096 C  
HETATM   35  N   UNL     1      -5.758   8.864  65.320  1.00  0.00    -0.047 NA 
HETATM   36  H   UNL     1      -8.373   8.976  64.397  1.00  0.00     0.000 HD 
HETATM   37  H1  UNL     1      -4.828   8.905  64.903  1.00  0.00     0.000 HD 
HETATM   38  H2  UNL     1      -6.336   8.138  64.897  1.00  0.00     0.000 HD 
HETATM   39  C   UNL     1      -6.149  12.580  65.969  1.00  0.00     2.889 C  
HETATM   40  C   UNL     1      -7.351  12.528  66.947  1.00  0.00     0.132 C  
HETATM   41  N   UNL     1      -5.146  13.580  66.395  1.00  0.00     1.653 NA 
HETATM   42  H2  UNL     1      -4.317  13.579  65.800  1.00  0.00     0.000 HD 
HETATM   43  H1  UNL     1      -5.597  14.493  66.437  1.00  0.00     0.000 HD 
BRANCH  40  44
HETATM   44  O   UNL     1      -7.972  13.837  66.925  1.00  0.00    -0.013 OA 
BRANCH  44  45
HETATM   45  C   UNL     1      -7.068  14.946  66.914  1.00  0.00     0.600 C  
HETATM   46  O   UNL     1      -7.748  16.179  66.662  1.00  0.00    -0.241 OA 
HETATM   47  C   UNL     1      -8.674  16.544  67.694  1.00  0.00    -0.190 C  
HETATM   48  C   UNL     1      -7.981  16.670  69.059  1.00  0.00    -0.208 C  
HETATM   49  H1  UNL     1      -5.044  13.772  69.437  1.00  0.00     0.000 HD 
HETATM   50  O   UNL     1      -8.904  16.984  70.111  1.00  0.00     1.516 OA 
HETATM   51  H2  UNL     1      -4.940  13.484  67.786  1.00  0.00     0.000 HD 
HETATM   52  C   UNL     1      -7.253  15.360  69.396  1.00  0.00    -0.203 C  
HETATM   53  H   UNL     1      -8.475  17.062  70.956  1.00  0.00     0.000 HD 
HETATM   54  O   UNL     1      -6.523  15.516  70.625  1.00  0.00     0.130 OA 
HETATM   55  C   UNL     1      -6.285  14.996  68.256  1.00  0.00    -0.121 C  
HETATM   56  N   UNL     1      -5.558  13.739  68.557  1.00  0.00    -0.086 NA 
HETATM   57  H   UNL     1      -6.072  14.706  70.834  1.00  0.00     0.000 HD 
BRANCH  47  58
HETATM   58  C   UNL     1      -9.404  17.834  67.258  1.00  0.00    -0.254 C  
HETATM   59  H1  UNL     1      -9.386  19.915  67.596  1.00  0.00     0.000 HD 
HETATM   60  N   UNL     1      -8.904  19.063  67.885  1.00  0.00    -0.294 NA 
HETATM   61  H2  UNL     1      -7.899  19.155  67.732  1.00  0.00     0.000 HD 
ENDBRANCH  47  58
ENDBRANCH  44  45
ENDBRANCH  40  44
ENDBRANCH  29  30
ENDBRANCH  22  29
ENDBRANCH  18  19
ENDBRANCH   7  18
ENDBRANCH   2   5
TORSDOF 9
ENDMDL
MODEL      336
REMARK 921   NORMALIZED FREE ENERGY PREDICTED BY IDOCK:   30.02 KCAL/MOL
REMARK 922        TOTAL FREE ENERGY PREDICTED BY IDOCK:   43.01 KCAL/MOL
REMARK 923 INTER-LIGAND FREE ENERGY PREDICTED BY IDOCK:   16.60 KCAL/MOL
REMARK 924 INTRA-LIGAND FREE ENERGY PREDICTED BY IDOCK:   26.41 KCAL/MOL
REMARK 927      BINDING AFFINITY PREDICTED BY RF-SCORE:    0.00 PKD
ROOT
HETATM    1  N   UNL     1      -9.062  11.405  69.229  1.00  0.00    -0.367 NA 
HETATM    2  C   UNL     1      -8.061  10.878  70.160  1.00  0.00     1.150 C  
HETATM    3  H1  UNL     1      -8.755  12.187  68.652  1.00  0.00     0.000 HD 
HETATM    4  H2  UNL     1      -9.911  11.657  69.735  1.00  0.00     0.000 HD 
ENDROOT
BRANCH   2   5
HETATM    5  C   UNL     1      -8.528   9.688  71.038  1.00  0.00     0.427 C  
HETATM    6  O   UNL     1      -9.340   8.718  70.326  1.00  0.00    -0.159 OA 
HETATM    7  C   UNL     1      -9.627   7.587  71.166  1.00  0.00    -0.158 C  
HETATM    8  C   UNL     1     -10.473   8.028  72.405  1.00  0.00    -0.301 C  
HETATM    9  O   UNL     1     -10.455  11.009  71.734  1.00  0.00     3.414 OA 
HETATM   10  H   UNL     1     -10.946  11.366  72.465  1.00  0.00     0.000 HD 
HETATM   11  N   UNL     1     -11.846   8.455  71.975  1.00  0.00    -0.327 NA 
HETATM   12  C   UNL     1      -9.767   9.143  73.174  1.00  0.00     2.191 C  
HETATM   13  H2  UNL     1     -12.317   7.731  71.432  1.00  0.00     0.000 HD 
HETATM   14  O   UNL     1      -8.652   8.652  73.930  1.00  0.00    -0.261 OA 
HETATM   15  C   UNL     1      -9.328  10.270  72.230  1.00  0.00     6.848 C  
HETATM   16  H1  UNL     1     -12.398   8.742  72.783  1.00  0.00     0.000 HD 
HETATM   17  H   UNL     1      -8.212   9.345  74.409  1.00  0.00     0.000 HD 
BRANCH   7  18
HETATM   18  O   UNL     1     -10.469   6.621  70.564  1.00  0.00    -0.196 OA 
BRANCH  18  19
HETATM   19  C   UNL     1     -10.430   6.410  69.159  1.00  0.00    -0.229 C  
HETATM   20  O   UNL     1      -8.663   8.152  69.168  1.00  0.00    -0.138 OA 
HETATM   21  C   UNL     1      -9.930   4.963  69.074  1.00  0.00    -0.167 C  
HETATM   22  C   UNL     1      -8.417   6.139  67.800  1.00  0.00    -0.115 C  
HETATM   23  H   UNL     1      -8.018   8.644  68.672  1.00  0.00     0.000 HD 
HETATM   24  O   UNL     1      -8.549   5.021  68.679  1.00  0.00    -0.094 OA 
HETATM   25  C   UNL     1      -9.384   7.210  68.354  1.00  0.00    -0.135 C  
BRANCH  21  26
HETATM   26  C   UNL     1     -10.756   4.074  68.141  1.00  0.00     2.073 C  
HETATM   27  H   UNL     1     -11.921   4.268  66.543  1.00  0.00     0.000 HD 
HETATM   28  O   UNL     1     -11.409   4.820  67.122  1.00  0.00     1.485 OA 
ENDBRANCH  21  26
BRANCH  22  29
HETATM   29  O   UNL     1      -8.743   5.759  66.456  1.00  0.00    -0.118 OA 
BRANCH  29  30
HETATM   30  C   UNL     1      -8.476   4.370  66.063  1.00  0.00    -0.113 C  
HETATM   31  C   UNL     1      -9.461   3.402  66.768  1.00  0.00    -0.137 C  
HETATM   32  O   UNL     1     -10.628   3.235  65.933  1.00  0.00     0.470 OA 
HETATM   33  C   UNL     1      -8.972   1.994  67.144  1.00  0.00    -0.133 C  
HETATM   34  C   UNL     1      -7.476   1.904  67.380  1.00  0.00    -0.059 C  
HETATM   35  N   UNL     1      -9.668   1.534  68.374  1.00  0.00    -0.263 NA 
HETATM   36  H   UNL     1     -11.231   2.641  66.366  1.00  0.00     0.000 HD 
HETATM   37  H1  UNL     1      -9.344   0.599  68.623  1.00  0.00     0.000 HD 
HETATM   38  H2  UNL     1     -10.683   1.575  68.279  1.00  0.00     0.000 HD 
HETATM   39  C   UNL     1      -6.720   2.488  66.187  1.00  0.00    -0.039 C  
HETATM   40  C   UNL     1      -6.964   4.016  66.107  1.00  0.00    -0.062 C  
HETATM   41  N   UNL     1      -5.283   2.174  66.342  1.00  0.00    -0.005 NA 
HETATM   42  H2  UNL     1      -5.111   1.176  66.464  1.00  0.00     0.000 HD 
HETATM   43  H1  UNL     1      -4.779   2.564  65.545  1.00  0.00     0.000 HD 
BRANCH  40  44
HETATM   44  O   UNL     1      -6.262   4.496  64.934  1.00  0.00    -0.031 OA 
BRANCH  44  45
HETATM   45  C   UNL     1      -6.972   4.374  63.699  1.00  0.00    -0.045 C  
HETATM   46  O   UNL     1      -8.384   4.299  63.907  1.00  0.00    -0.092 OA 
HETATM   47  C   UNL     1      -8.944   5.495  64.468  1.00  0.00     0.178 C  
HETATM   48  C   UNL     1      -8.672   6.719  63.581  1.00  0.00     0.691 C  
HETATM   49  H1  UNL     1      -4.897   6.443  61.895  1.00  0.00     0.000 HD 
HETATM   50  O   UNL     1      -9.181   7.931  64.155  1.00  0.00     0.458 OA 
HETATM   51  H2  UNL     1      -4.766   4.790  62.153  1.00  0.00     0.000 HD 
HETATM   52  C   UNL     1      -7.161   6.865  63.344  1.00  0.00    -0.070 C  
HETATM   53  H   UNL     1      -9.012   8.688  63.607  1.00  0.00     0.000 HD 
HETATM   54  O   UNL     1      -6.917   7.950  62.433  1.00  0.00    -0.083 OA 
HETATM   55  C   UNL     1      -6.598   5.555  62.761  1.00  0.00    -0.025 C  
HETATM   56  N   UNL     1      -5.142   5.668  62.511  1.00  0.00    -0.013 NA 
HETATM   57  H   UNL     1      -5.983   8.039  62.286  1.00  0.00     0.000 HD 
BRANCH  47  58
HETATM   58  C   UNL     1     -10.448   5.251  64.728  1.00  0.00     1.194 C  
HETATM   59  H1  UNL     1     -12.135   4.352  63.839  1.00  0.00     0.000 HD 
HETATM   60  N   UNL     1     -11.142   4.512  63.667  1.00  0.00    -0.047 NA 
HETATM   61  H2  UNL     1     -10.666   3.629  63.481  1.00  0.00     0.000 HD 
ENDBRANCH  47  58
ENDBRANCH  44  45
ENDBRANCH  40  44
ENDBRANCH  29  30
ENDBRANCH  22  29
ENDBRANCH  18  19
ENDBRANCH   7  18
ENDBRANCH   2   5
TORSDOF 9
ENDMDL
MODEL      337
REMARK 921   NORMALIZED FREE ENERGY PREDICTED BY IDOCK:   30.07 KCAL/MOL
REMARK 922        TOTAL FREE ENERGY PREDICTED BY IDOCK:   43.08 KCAL/MOL
REMARK 923 INTER-LIGAND FREE ENERGY PREDICTED BY IDOCK:   11.68 KCAL/MOL
REMARK 924 INTRA-LIGAND FREE ENERGY PREDICTED BY IDOCK:   31.40 KCAL/MOL
REMARK 927      BINDING AFFINITY PREDICTED BY RF-SCORE:    0.00 PKD
ROOT
HETATM    1  N   UNL     1      -6.346  14.825  68.987  1.00  0.00    -0.090 NA 
HETATM    2  C   UNL     1      -5.352  13.892  68.449  1.00  0.00    -0.101 C  
HETATM    3  H1  UNL     1      -5.978  15.552  69.600  1.00  0.00     0.000 HD 
HETATM    4  H2  UNL     1      -7.087  14.310  69.462  1.00  0.00     0.000 HD 
ENDROOT
BRANCH   2   5
HETATM    5  C   UNL     1      -5.911  12.786  67.517  1.00  0.00    -0.143 C  
HETATM    6  O   UNL     1      -7.355  12.818  67.372  1.00  0.00    -0.144 OA 
HETATM    7  C   UNL     1      -7.785  11.849  66.400  1.00  0.00     0.203 C  
HETATM    8  C   UNL     1      -7.434  10.402  66.878  1.00  0.00    -0.107 C  
HETATM    9  O   UNL     1      -5.989  11.272  69.426  1.00  0.00    -0.052 OA 
HETATM   10  H   UNL     1      -5.719  10.433  69.781  1.00  0.00     0.000 HD 
HETATM   11  N   UNL     1      -8.260  10.032  68.075  1.00  0.00    -0.115 NA 
HETATM   12  C   UNL     1      -5.941  10.280  67.181  1.00  0.00    -0.050 C  
HETATM   13  H2  UNL     1      -9.258  10.142  67.896  1.00  0.00     0.000 HD 
HETATM   14  O   UNL     1      -5.152  10.231  65.985  1.00  0.00    -0.038 OA 
HETATM   15  C   UNL     1      -5.471  11.418  68.095  1.00  0.00    -0.042 C  
HETATM   16  H1  UNL     1      -8.031   9.089  68.387  1.00  0.00     0.000 HD 
HETATM   17  H   UNL     1      -4.224  10.155  66.173  1.00  0.00     0.000 HD 
BRANCH   7  18
HETATM   18  O   UNL     1      -9.191  11.774  66.244  1.00  0.00    -0.216 OA 
BRANCH  18  19
HETATM   19  C   UNL     1     -10.014  12.872  66.615  1.00  0.00    -0.251 C  
HETATM   20  O   UNL     1     -11.901  11.378  66.007  1.00  0.00    -0.176 OA 
HETATM   21  C   UNL     1      -9.722  12.988  68.116  1.00  0.00    -0.228 C  
HETATM   22  C   UNL     1     -12.010  12.762  68.022  1.00  0.00    -0.264 C  
HETATM   23  H   UNL     1     -12.841  11.248  65.969  1.00  0.00     0.000 HD 
HETATM   24  O   UNL     1     -10.860  12.444  68.806  1.00  0.00    -0.228 OA 
HETATM   25  C   UNL     1     -11.542  12.661  66.552  1.00  0.00    -0.381 C  
BRANCH  21  26
HETATM   26  C   UNL     1      -9.398  14.411  68.578  1.00  0.00    -0.204 C  
HETATM   27  H   UNL     1      -8.606  16.074  67.833  1.00  0.00     0.000 HD 
HETATM   28  O   UNL     1      -8.807  15.191  67.547  1.00  0.00    -0.171 OA 
ENDBRANCH  21  26
BRANCH  22  29
HETATM   29  O   UNL     1     -12.491  14.073  68.347  1.00  0.00    -0.119 OA 
BRANCH  29  30
HETATM   30  C   UNL     1     -13.058  14.271  69.686  1.00  0.00     0.825 C  
HETATM   31  C   UNL     1     -12.480  15.551  70.343  1.00  0.00    -0.402 C  
HETATM   32  O   UNL     1     -13.326  16.672  70.005  1.00  0.00     1.642 OA 
HETATM   33  C   UNL     1     -12.287  15.579  71.868  1.00  0.00    -0.395 C  
HETATM   34  C   UNL     1     -12.068  14.209  72.485  1.00  0.00     0.187 C  
HETATM   35  N   UNL     1     -11.124  16.438  72.211  1.00  0.00     0.656 NA 
HETATM   36  H   UNL     1     -12.971  17.456  70.407  1.00  0.00     0.000 HD 
HETATM   37  H1  UNL     1     -10.997  16.456  73.223  1.00  0.00     0.000 HD 
HETATM   38  H2  UNL     1     -11.210  17.375  71.818  1.00  0.00     0.000 HD 
HETATM   39  C   UNL     1     -13.179  13.254  72.052  1.00  0.00    -0.446 C  
HETATM   40  C   UNL     1     -13.063  12.968  70.533  1.00  0.00     0.354 C  
HETATM   41  N   UNL     1     -13.068  12.012  72.848  1.00  0.00     0.538 NA 
HETATM   42  H2  UNL     1     -13.074  12.190  73.853  1.00  0.00     0.000 HD 
HETATM   43  H1  UNL     1     -13.810  11.375  72.559  1.00  0.00     0.000 HD 
BRANCH  40  44
HETATM   44  O   UNL     1     -14.167  12.098  70.180  1.00  0.00     4.556 OA 
BRANCH  44  45
HETATM   45  C   UNL     1     -13.826  10.724  69.976  1.00  0.00     2.248 C  
HETATM   46  O   UNL     1     -12.818  10.574  68.974  1.00  0.00     0.141 OA 
HETATM   47  C   UNL     1     -11.557  11.154  69.338  1.00  0.00    -0.318 C  
HETATM   48  C   UNL     1     -11.009  10.549  70.639  1.00  0.00     0.015 C  
HETATM   49  H1  UNL     1     -14.115   9.796  73.276  1.00  0.00     0.000 HD 
HETATM   50  O   UNL     1      -9.775  11.156  71.044  1.00  0.00     2.755 OA 
HETATM   51  H2  UNL     1     -15.299   9.831  72.087  1.00  0.00     0.000 HD 
HETATM   52  C   UNL     1     -12.045  10.705  71.763  1.00  0.00     0.158 C  
HETATM   53  H   UNL     1      -9.436  10.781  71.849  1.00  0.00     0.000 HD 
HETATM   54  O   UNL     1     -11.572  10.049  72.951  1.00  0.00     2.434 OA 
HETATM   55  C   UNL     1     -13.385  10.088  71.323  1.00  0.00    -0.330 C  
HETATM   56  N   UNL     1     -14.404  10.213  72.393  1.00  0.00     0.443 NA 
HETATM   57  H   UNL     1     -12.213  10.145  73.646  1.00  0.00     0.000 HD 
BRANCH  47  58
HETATM   58  C   UNL     1     -10.591  11.007  68.141  1.00  0.00    -0.191 C  
HETATM   59  H1  UNL     1      -9.943   9.581  66.730  1.00  0.00     0.000 HD 
HETATM   60  N   UNL     1     -10.582   9.677  67.521  1.00  0.00    -0.270 NA 
HETATM   61  H2  UNL     1     -11.527   9.407  67.248  1.00  0.00     0.000 HD 
ENDBRANCH  47  58
ENDBRANCH  44  45
ENDBRANCH  40  44
ENDBRANCH  29  30
ENDBRANCH  22  29
ENDBRANCH  18  19
ENDBRANCH   7  18
ENDBRANCH   2   5
TORSDOF 9
ENDMDL
MODEL      338
REMARK 921   NORMALIZED FREE ENERGY PREDICTED BY IDOCK:   30.41 KCAL/MOL
REMARK 922        TOTAL FREE ENERGY PREDICTED BY IDOCK:   43.59 KCAL/MOL
REMARK 923 INTER-LIGAND FREE ENERGY PREDICTED BY IDOCK:   29.16 KCAL/MOL
REMARK 924 INTRA-LIGAND FREE ENERGY PREDICTED BY IDOCK:   14.43 KCAL/MOL
REMARK 927      BINDING AFFINITY PREDICTED BY RF-SCORE:    0.00 PKD
ROOT
HETATM    1  N   UNL     1      -9.932  19.546  68.931  1.00  0.00    -0.481 NA 
HETATM    2  C   UNL     1      -8.787  18.894  68.289  1.00  0.00    -0.332 C  
HETATM    3  H1  UNL     1     -10.027  20.544  68.749  1.00  0.00     0.000 HD 
HETATM    4  H2  UNL     1      -9.911  19.375  69.937  1.00  0.00     0.000 HD 
ENDROOT
BRANCH   2   5
HETATM    5  C   UNL     1      -8.643  17.374  68.567  1.00  0.00    -0.270 C  
HETATM    6  O   UNL     1      -8.274  16.598  67.398  1.00  0.00    -0.164 OA 
HETATM    7  C   UNL     1      -8.036  15.226  67.759  1.00  0.00    -0.146 C  
HETATM    8  C   UNL     1      -9.344  14.572  68.313  1.00  0.00    -0.203 C  
HETATM    9  O   UNL     1     -11.033  17.114  68.167  1.00  0.00    -0.361 OA 
HETATM   10  H   UNL     1     -11.864  16.804  68.511  1.00  0.00     0.000 HD 
HETATM   11  N   UNL     1     -10.363  14.436  67.221  1.00  0.00    -0.259 NA 
HETATM   12  C   UNL     1      -9.898  15.380  69.485  1.00  0.00    -0.260 C  
HETATM   13  H2  UNL     1      -9.994  13.926  66.417  1.00  0.00     0.000 HD 
HETATM   14  O   UNL     1      -9.128  15.194  70.679  1.00  0.00     0.253 OA 
HETATM   15  C   UNL     1      -9.996  16.869  69.129  1.00  0.00    -0.239 C  
HETATM   16  H1  UNL     1     -11.216  14.009  67.581  1.00  0.00     0.000 HD 
HETATM   17  H   UNL     1      -9.473  15.696  71.409  1.00  0.00     0.000 HD 
BRANCH   7  18
HETATM   18  O   UNL     1      -7.730  14.386  66.660  1.00  0.00     0.317 OA 
BRANCH  18  19
HETATM   19  C   UNL     1      -7.689  12.975  66.825  1.00  0.00     0.402 C  
HETATM   20  O   UNL     1      -8.123  13.462  69.219  1.00  0.00    -0.275 OA 
HETATM   21  C   UNL     1      -8.909  12.530  66.010  1.00  0.00     0.269 C  
HETATM   22  C   UNL     1      -9.286  11.627  68.092  1.00  0.00    -0.184 C  
HETATM   23  H   UNL     1      -8.295  13.120  70.089  1.00  0.00     0.000 HD 
HETATM   24  O   UNL     1      -9.939  12.188  66.953  1.00  0.00    -0.201 OA 
HETATM   25  C   UNL     1      -7.967  12.420  68.238  1.00  0.00    -0.160 C  
BRANCH  21  26
HETATM   26  C   UNL     1      -8.622  11.386  65.034  1.00  0.00     0.326 C  
HETATM   27  H   UNL     1      -7.671  11.100  63.313  1.00  0.00     0.000 HD 
HETATM   28  O   UNL     1      -7.850  11.809  63.919  1.00  0.00     1.697 OA 
ENDBRANCH  21  26
BRANCH  22  29
HETATM   29  O   UNL     1      -9.055  10.226  67.898  1.00  0.00    -0.131 OA 
BRANCH  29  30
HETATM   30  C   UNL     1     -10.172   9.423  67.384  1.00  0.00    -0.239 C  
HETATM   31  C   UNL     1     -11.425  10.307  67.158  1.00  0.00     0.582 C  
HETATM   32  O   UNL     1     -11.396  10.819  65.808  1.00  0.00     0.213 OA 
HETATM   33  C   UNL     1     -12.816   9.689  67.374  1.00  0.00    10.385 C  
HETATM   34  C   UNL     1     -12.832   8.541  68.366  1.00  0.00     8.834 C  
HETATM   35  N   UNL     1     -13.759  10.733  67.852  1.00  0.00     8.994 NA 
HETATM   36  H   UNL     1     -12.164  11.361  65.669  1.00  0.00     0.000 HD 
HETATM   37  H1  UNL     1     -14.682  10.323  67.995  1.00  0.00     0.000 HD 
HETATM   38  H2  UNL     1     -13.790  11.538  67.226  1.00  0.00     0.000 HD 
HETATM   39  C   UNL     1     -11.781   7.500  67.982  1.00  0.00     1.610 C  
HETATM   40  C   UNL     1     -10.361   8.093  68.167  1.00  0.00    -0.201 C  
HETATM   41  N   UNL     1     -11.981   6.299  68.822  1.00  0.00     0.245 NA 
HETATM   42  H2  UNL     1     -12.932   5.934  68.764  1.00  0.00     0.000 HD 
HETATM   43  H1  UNL     1     -11.279   5.604  68.565  1.00  0.00     0.000 HD 
BRANCH  40  44
HETATM   44  O   UNL     1      -9.419   7.077  67.743  1.00  0.00    -0.125 OA 
BRANCH  44  45
HETATM   45  C   UNL     1      -8.397   6.753  68.690  1.00  0.00    -0.120 C  
HETATM   46  O   UNL     1      -7.404   5.896  68.122  1.00  0.00    -0.077 OA 
HETATM   47  C   UNL     1      -6.659   6.507  67.059  1.00  0.00    -0.051 C  
HETATM   48  C   UNL     1      -5.951   7.787  67.526  1.00  0.00    -0.045 C  
HETATM   49  H1  UNL     1      -8.344   9.836  70.218  1.00  0.00     0.000 HD 
HETATM   50  O   UNL     1      -5.244   8.438  66.461  1.00  0.00    -0.027 OA 
HETATM   51  H2  UNL     1      -9.300   8.503  70.573  1.00  0.00     0.000 HD 
HETATM   52  C   UNL     1      -6.977   8.761  68.125  1.00  0.00    -0.074 C  
HETATM   53  H   UNL     1      -4.806   9.231  66.751  1.00  0.00     0.000 HD 
HETATM   54  O   UNL     1      -6.299   9.914  68.653  1.00  0.00    -0.046 OA 
HETATM   55  C   UNL     1      -7.766   8.060  69.246  1.00  0.00    -0.102 C  
HETATM   56  N   UNL     1      -8.758   8.979  69.852  1.00  0.00    -0.145 NA 
HETATM   57  H   UNL     1      -6.933  10.516  69.024  1.00  0.00     0.000 HD 
BRANCH  47  58
HETATM   58  C   UNL     1      -5.693   5.452  66.474  1.00  0.00    -0.018 C  
HETATM   59  H1  UNL     1      -5.603   3.397  66.012  1.00  0.00     0.000 HD 
HETATM   60  N   UNL     1      -6.242   4.094  66.398  1.00  0.00    -0.031 NA 
HETATM   61  H2  UNL     1      -7.121   4.095  65.880  1.00  0.00     0.000 HD 
ENDBRANCH  47  58
ENDBRANCH  44  45
ENDBRANCH  40  44
ENDBRANCH  29  30
ENDBRANCH  22  29
ENDBRANCH  18  19
ENDBRANCH   7  18
ENDBRANCH   2   5
TORSDOF 9
ENDMDL
MODEL      339
REMARK 921   NORMALIZED FREE ENERGY PREDICTED BY IDOCK:   30.44 KCAL/MOL
REMARK 922        TOTAL FREE ENERGY PREDICTED BY IDOCK:   43.65 KCAL/MOL
REMARK 923 INTER-LIGAND FREE ENERGY PREDICTED BY IDOCK:   -7.02 KCAL/MOL
REMARK 924 INTRA-LIGAND FREE ENERGY PREDICTED BY IDOCK:   50.67 KCAL/MOL
REMARK 927      BINDING AFFINITY PREDICTED BY RF-SCORE:    0.00 PKD
ROOT
HETATM    1  N   UNL     1     -12.774  14.898  65.830  1.00  0.00     0.115 NA 
HETATM    2  C   UNL     1     -11.319  14.730  65.866  1.00  0.00    -0.331 C  
HETATM    3  H1  UNL     1     -13.160  15.182  64.930  1.00  0.00     0.000 HD 
HETATM    4  H2  UNL     1     -13.068  15.550  66.557  1.00  0.00     0.000 HD 
ENDROOT
BRANCH   2   5
HETATM    5  C   UNL     1     -10.731  14.298  67.236  1.00  0.00    -0.277 C  
HETATM    6  O   UNL     1     -11.319  13.083  67.768  1.00  0.00    -0.260 OA 
HETATM    7  C   UNL     1     -10.640  12.679  68.969  1.00  0.00    -0.041 C  
HETATM    8  C   UNL     1     -10.812  13.762  70.084  1.00  0.00     0.611 C  
HETATM    9  O   UNL     1     -12.355  15.742  68.342  1.00  0.00    -0.382 OA 
HETATM   10  H   UNL     1     -12.489  16.459  68.951  1.00  0.00     0.000 HD 
HETATM   11  N   UNL     1     -12.241  13.823  70.538  1.00  0.00    -0.353 NA 
HETATM   12  C   UNL     1     -10.332  15.127  69.591  1.00  0.00    -0.227 C  
HETATM   13  H2  UNL     1     -12.584  12.911  70.839  1.00  0.00     0.000 HD 
HETATM   14  O   UNL     1      -8.902  15.206  69.534  1.00  0.00    -0.364 OA 
HETATM   15  C   UNL     1     -10.950  15.467  68.229  1.00  0.00    -0.288 C  
HETATM   16  H1  UNL     1     -12.353  14.529  71.265  1.00  0.00     0.000 HD 
HETATM   17  H   UNL     1      -8.604  16.054  69.228  1.00  0.00     0.000 HD 
BRANCH   7  18
HETATM   18  O   UNL     1     -11.195  11.531  69.587  1.00  0.00    -0.251 OA 
BRANCH  18  19
HETATM   19  C   UNL     1     -10.757  10.232  69.212  1.00  0.00    -0.234 C  
HETATM   20  O   UNL     1      -9.040  11.433  67.883  1.00  0.00    -0.154 OA 
HETATM   21  C   UNL     1     -10.277   9.665  70.554  1.00  0.00    -0.287 C  
HETATM   22  C   UNL     1      -8.443   9.446  69.181  1.00  0.00    -0.134 C  
HETATM   23  H   UNL     1      -8.272  11.376  67.325  1.00  0.00     0.000 HD 
HETATM   24  O   UNL     1      -8.840   9.697  70.530  1.00  0.00    -0.225 OA 
HETATM   25  C   UNL     1      -9.512  10.140  68.306  1.00  0.00    -0.140 C  
BRANCH  21  26
HETATM   26  C   UNL     1     -10.814   8.266  70.866  1.00  0.00    -0.230 C  
HETATM   27  H   UNL     1     -12.315   7.437  71.869  1.00  0.00     0.000 HD 
HETATM   28  O   UNL     1     -11.982   8.305  71.675  1.00  0.00    -0.277 OA 
ENDBRANCH  21  26
BRANCH  22  29
HETATM   29  O   UNL     1      -8.376   8.036  68.934  1.00  0.00    -0.124 OA 
BRANCH  29  30
HETATM   30  C   UNL     1      -8.978   7.145  69.933  1.00  0.00    -0.142 C  
HETATM   31  C   UNL     1     -10.521   7.116  69.782  1.00  0.00    -0.225 C  
HETATM   32  O   UNL     1     -10.880   6.055  68.870  1.00  0.00    -0.286 OA 
HETATM   33  C   UNL     1     -11.385   6.936  71.041  1.00  0.00    -0.299 C  
HETATM   34  C   UNL     1     -10.728   7.437  72.315  1.00  0.00    -0.275 C  
HETATM   35  N   UNL     1     -12.676   7.651  70.869  1.00  0.00    -0.548 NA 
HETATM   36  H   UNL     1     -11.825   6.037  68.777  1.00  0.00     0.000 HD 
HETATM   37  H1  UNL     1     -13.249   7.531  71.704  1.00  0.00     0.000 HD 
HETATM   38  H2  UNL     1     -13.166   7.360  70.023  1.00  0.00     0.000 HD 
HETATM   39  C   UNL     1      -9.338   6.822  72.465  1.00  0.00    -0.139 C  
HETATM   40  C   UNL     1      -8.399   7.366  71.358  1.00  0.00    -0.112 C  
HETATM   41  N   UNL     1      -8.826   7.141  73.816  1.00  0.00    -0.163 NA 
HETATM   42  H2  UNL     1      -9.465   6.849  74.555  1.00  0.00     0.000 HD 
HETATM   43  H1  UNL     1      -7.898   6.730  73.916  1.00  0.00     0.000 HD 
BRANCH  40  44
HETATM   44  O   UNL     1      -7.118   6.712  71.529  1.00  0.00    -0.076 OA 
BRANCH  44  45
HETATM   45  C   UNL     1      -7.160   5.437  72.175  1.00  0.00    -0.086 C  
HETATM   46  O   UNL     1      -8.452   5.165  72.723  1.00  0.00    -0.112 OA 
HETATM   47  C   UNL     1      -9.481   5.043  71.731  1.00  0.00    -0.150 C  
HETATM   48  C   UNL     1      -9.165   3.931  70.720  1.00  0.00    -0.128 C  
HETATM   49  H1  UNL     1      -5.098   3.838  69.932  1.00  0.00     0.000 HD 
HETATM   50  O   UNL     1     -10.159   3.831  69.691  1.00  0.00     0.063 OA 
HETATM   51  H2  UNL     1      -4.684   4.690  71.318  1.00  0.00     0.000 HD 
HETATM   52  C   UNL     1      -7.793   4.185  70.078  1.00  0.00    -0.052 C  
HETATM   53  H   UNL     1      -9.963   3.143  69.065  1.00  0.00     0.000 HD 
HETATM   54  O   UNL     1      -7.455   3.091  69.208  1.00  0.00    -0.047 OA 
HETATM   55  C   UNL     1      -6.723   4.329  71.177  1.00  0.00    -0.031 C  
HETATM   56  N   UNL     1      -5.384   4.565  70.587  1.00  0.00    -0.003 NA 
HETATM   57  H   UNL     1      -6.606   3.248  68.812  1.00  0.00     0.000 HD 
BRANCH  47  58
HETATM   58  C   UNL     1     -10.832   4.845  72.454  1.00  0.00    -0.137 C  
HETATM   59  H1  UNL     1     -11.630   4.058  74.240  1.00  0.00     0.000 HD 
HETATM   60  N   UNL     1     -10.737   4.189  73.763  1.00  0.00    -0.218 NA 
HETATM   61  H2  UNL     1     -10.083   4.691  74.364  1.00  0.00     0.000 HD 
ENDBRANCH  47  58
ENDBRANCH  44  45
ENDBRANCH  40  44
ENDBRANCH  29  30
ENDBRANCH  22  29
ENDBRANCH  18  19
ENDBRANCH   7  18
ENDBRANCH   2   5
TORSDOF 9
ENDMDL
MODEL      340
REMARK 921   NORMALIZED FREE ENERGY PREDICTED BY IDOCK:   30.78 KCAL/MOL
REMARK 922        TOTAL FREE ENERGY PREDICTED BY IDOCK:   44.16 KCAL/MOL
REMARK 923 INTER-LIGAND FREE ENERGY PREDICTED BY IDOCK:   10.24 KCAL/MOL
REMARK 924 INTRA-LIGAND FREE ENERGY PREDICTED BY IDOCK:   33.92 KCAL/MOL
REMARK 927      BINDING AFFINITY PREDICTED BY RF-SCORE:    0.00 PKD
ROOT
HETATM    1  N   UNL     1      -5.225  16.889  68.907  1.00  0.00    -0.130 NA 
HETATM    2  C   UNL     1      -5.922  18.085  69.387  1.00  0.00    -0.240 C  
HETATM    3  H1  UNL     1      -4.549  16.486  69.555  1.00  0.00     0.000 HD 
HETATM    4  H2  UNL     1      -4.777  17.081  68.011  1.00  0.00     0.000 HD 
ENDROOT
BRANCH   2   5
HETATM    5  C   UNL     1      -6.950  18.699  68.400  1.00  0.00    -0.260 C  
HETATM    6  O   UNL     1      -7.612  17.717  67.561  1.00  0.00    -0.200 OA 
HETATM    7  C   UNL     1      -8.636  18.343  66.767  1.00  0.00    -0.276 C  
HETATM    8  C   UNL     1      -8.007  19.388  65.789  1.00  0.00    -0.048 C  
HETATM    9  O   UNL     1      -5.143  19.060  66.804  1.00  0.00    -0.145 OA 
HETATM   10  H   UNL     1      -4.681  19.690  66.262  1.00  0.00     0.000 HD 
HETATM   11  N   UNL     1      -7.180  18.697  64.746  1.00  0.00     0.659 NA 
HETATM   12  C   UNL     1      -7.176  20.416  66.557  1.00  0.00    -0.252 C  
HETATM   13  H2  UNL     1      -7.714  17.985  64.247  1.00  0.00     0.000 HD 
HETATM   14  O   UNL     1      -7.999  21.355  67.262  1.00  0.00    -0.677 OA 
HETATM   15  C   UNL     1      -6.198  19.725  67.516  1.00  0.00    -0.194 C  
HETATM   16  H1  UNL     1      -6.769  19.379  64.108  1.00  0.00     0.000 HD 
HETATM   17  H   UNL     1      -7.482  21.994  67.739  1.00  0.00     0.000 HD 
BRANCH   7  18
HETATM   18  O   UNL     1      -9.290  17.461  65.872  1.00  0.00    -0.508 OA 
BRANCH  18  19
HETATM   19  C   UNL     1      -9.325  16.065  66.137  1.00  0.00    -0.342 C  
HETATM   20  O   UNL     1      -7.511  16.549  67.760  1.00  0.00    -0.138 OA 
HETATM   21  C   UNL     1     -10.724  15.897  66.742  1.00  0.00    -0.281 C  
HETATM   22  C   UNL     1      -9.328  15.019  68.345  1.00  0.00    -0.193 C  
HETATM   23  H   UNL     1      -6.931  16.221  68.437  1.00  0.00     0.000 HD 
HETATM   24  O   UNL     1     -10.550  15.734  68.159  1.00  0.00    -0.258 OA 
HETATM   25  C   UNL     1      -8.382  15.530  67.235  1.00  0.00    -0.193 C  
BRANCH  21  26
HETATM   26  C   UNL     1     -11.533  14.751  66.128  1.00  0.00    -0.311 C  
HETATM   27  H   UNL     1     -13.056  13.573  66.620  1.00  0.00     0.000 HD 
HETATM   28  O   UNL     1     -12.554  14.284  67.000  1.00  0.00    -0.179 OA 
ENDBRANCH  21  26
BRANCH  22  29
HETATM   29  O   UNL     1      -9.556  13.606  68.253  1.00  0.00    -0.209 OA 
BRANCH  29  30
HETATM   30  C   UNL     1      -8.525  12.718  68.803  1.00  0.00     0.163 C  
HETATM   31  C   UNL     1      -7.603  13.490  69.783  1.00  0.00     0.900 C  
HETATM   32  O   UNL     1      -8.154  13.394  71.115  1.00  0.00     4.676 OA 
HETATM   33  C   UNL     1      -6.123  13.085  69.880  1.00  0.00    -0.125 C  
HETATM   34  C   UNL     1      -5.573  12.453  68.614  1.00  0.00    -0.054 C  
HETATM   35  N   UNL     1      -5.298  14.278  70.204  1.00  0.00    -0.096 NA 
HETATM   36  H   UNL     1      -7.589  13.867  71.715  1.00  0.00     0.000 HD 
HETATM   37  H1  UNL     1      -4.316  14.009  70.268  1.00  0.00     0.000 HD 
HETATM   38  H2  UNL     1      -5.622  14.752  71.046  1.00  0.00     0.000 HD 
HETATM   39  C   UNL     1      -6.469  11.297  68.173  1.00  0.00    -0.056 C  
HETATM   40  C   UNL     1      -7.845  11.843  67.714  1.00  0.00    -0.138 C  
HETATM   41  N   UNL     1      -5.786  10.562  67.086  1.00  0.00    -0.049 NA 
HETATM   42  H2  UNL     1      -4.850  10.254  67.349  1.00  0.00     0.000 HD 
HETATM   43  H1  UNL     1      -6.385   9.790  66.791  1.00  0.00     0.000 HD 
BRANCH  40  44
HETATM   44  O   UNL     1      -8.657  10.698  67.355  1.00  0.00    -0.122 OA 
BRANCH  44  45
HETATM   45  C   UNL     1      -9.972  10.677  67.916  1.00  0.00    -0.166 C  
HETATM   46  O   UNL     1     -10.371   9.352  68.278  1.00  0.00    -0.195 OA 
HETATM   47  C   UNL     1      -9.577   8.782  69.328  1.00  0.00    -0.162 C  
HETATM   48  C   UNL     1      -9.619   9.641  70.601  1.00  0.00    -0.147 C  
HETATM   49  H1  UNL     1      -9.682  13.662  69.603  1.00  0.00     0.000 HD 
HETATM   50  O   UNL     1      -8.788   9.111  71.643  1.00  0.00    -0.339 OA 
HETATM   51  H2  UNL     1     -10.191  13.391  68.027  1.00  0.00     0.000 HD 
HETATM   52  C   UNL     1      -9.174  11.075  70.277  1.00  0.00     2.038 C  
HETATM   53  H   UNL     1      -8.814   9.642  72.430  1.00  0.00     0.000 HD 
HETATM   54  O   UNL     1      -9.311  11.900  71.446  1.00  0.00     9.095 OA 
HETATM   55  C   UNL     1     -10.037  11.640  69.134  1.00  0.00     0.079 C  
HETATM   56  N   UNL     1      -9.639  13.030  68.805  1.00  0.00     0.004 NA 
HETATM   57  H   UNL     1      -9.037  12.787  71.246  1.00  0.00     0.000 HD 
BRANCH  47  58
HETATM   58  C   UNL     1     -10.046   7.327  69.556  1.00  0.00    -0.182 C  
HETATM   59  H1  UNL     1     -11.774   6.227  70.054  1.00  0.00     0.000 HD 
HETATM   60  N   UNL     1     -11.465   7.188  69.903  1.00  0.00    -0.504 NA 
HETATM   61  H2  UNL     1     -12.048   7.642  69.200  1.00  0.00     0.000 HD 
ENDBRANCH  47  58
ENDBRANCH  44  45
ENDBRANCH  40  44
ENDBRANCH  29  30
ENDBRANCH  22  29
ENDBRANCH  18  19
ENDBRANCH   7  18
ENDBRANCH   2   5
TORSDOF 9
ENDMDL
MODEL      341
REMARK 921   NORMALIZED FREE ENERGY PREDICTED BY IDOCK:   31.56 KCAL/MOL
REMARK 922        TOTAL FREE ENERGY PREDICTED BY IDOCK:   45.35 KCAL/MOL
REMARK 923 INTER-LIGAND FREE ENERGY PREDICTED BY IDOCK:   22.17 KCAL/MOL
REMARK 924 INTRA-LIGAND FREE ENERGY PREDICTED BY IDOCK:   23.18 KCAL/MOL
REMARK 927      BINDING AFFINITY PREDICTED BY RF-SCORE:    0.00 PKD
ROOT
HETATM    1  N   UNL     1      -9.149  11.560  71.722  1.00  0.00    11.617 NA 
HETATM    2  C   UNL     1     -10.346  10.793  71.365  1.00  0.00     3.646 C  
HETATM    3  H1  UNL     1      -8.857  11.488  72.696  1.00  0.00     0.000 HD 
HETATM    4  H2  UNL     1      -9.273  12.539  71.467  1.00  0.00     0.000 HD 
ENDROOT
BRANCH   2   5
HETATM    5  C   UNL     1     -10.792  10.903  69.883  1.00  0.00    -0.141 C  
HETATM    6  O   UNL     1     -10.883   9.624  69.203  1.00  0.00    -0.220 OA 
HETATM    7  C   UNL     1     -11.421   9.795  67.880  1.00  0.00     0.486 C  
HETATM    8  C   UNL     1     -10.465  10.676  67.011  1.00  0.00    -0.243 C  
HETATM    9  O   UNL     1      -8.462  11.241  69.249  1.00  0.00    -0.376 OA 
HETATM   10  H   UNL     1      -7.838  11.800  68.802  1.00  0.00     0.000 HD 
HETATM   11  N   UNL     1      -9.184   9.944  66.736  1.00  0.00    -0.146 NA 
HETATM   12  C   UNL     1     -10.196  12.017  67.693  1.00  0.00    -0.199 C  
HETATM   13  H2  UNL     1      -9.352   9.031  66.311  1.00  0.00     0.000 HD 
HETATM   14  O   UNL     1     -11.322  12.900  67.606  1.00  0.00    -0.269 OA 
HETATM   15  C   UNL     1      -9.774  11.816  69.154  1.00  0.00     0.266 C  
HETATM   16  H1  UNL     1      -8.561  10.518  66.170  1.00  0.00     0.000 HD 
HETATM   17  H   UNL     1     -11.155  13.734  68.030  1.00  0.00     0.000 HD 
BRANCH   7  18
HETATM   18  O   UNL     1     -11.484   8.598  67.125  1.00  0.00     0.941 OA 
BRANCH  18  19
HETATM   19  C   UNL     1     -10.872   7.410  67.609  1.00  0.00    -0.149 C  
HETATM   20  O   UNL     1     -11.476   8.276  69.856  1.00  0.00    -0.455 OA 
HETATM   21  C   UNL     1     -11.802   6.328  67.047  1.00  0.00     1.706 C  
HETATM   22  C   UNL     1     -11.785   5.911  69.310  1.00  0.00     0.973 C  
HETATM   23  H   UNL     1     -11.497   8.128  70.794  1.00  0.00     0.000 HD 
HETATM   24  O   UNL     1     -12.606   5.859  68.143  1.00  0.00     5.277 OA 
HETATM   25  C   UNL     1     -10.905   7.169  69.134  1.00  0.00    -0.162 C  
BRANCH  21  26
HETATM   26  C   UNL     1     -11.070   5.184  66.342  1.00  0.00     0.291 C  
HETATM   27  H   UNL     1     -11.317   4.010  64.758  1.00  0.00     0.000 HD 
HETATM   28  O   UNL     1     -11.771   4.720  65.196  1.00  0.00     0.179 OA 
ENDBRANCH  21  26
BRANCH  22  29
HETATM   29  O   UNL     1     -11.003   4.716  69.426  1.00  0.00     0.944 OA 
BRANCH  29  30
HETATM   30  C   UNL     1      -9.553   4.837  69.229  1.00  0.00    -0.173 C  
HETATM   31  C   UNL     1      -8.839   5.124  70.576  1.00  0.00    -0.119 C  
HETATM   32  O   UNL     1      -8.480   3.867  71.190  1.00  0.00    -0.074 OA 
HETATM   33  C   UNL     1      -7.575   6.000  70.572  1.00  0.00    -0.092 C  
HETATM   34  C   UNL     1      -7.516   6.989  69.423  1.00  0.00    -0.097 C  
HETATM   35  N   UNL     1      -7.487   6.757  71.847  1.00  0.00    -0.092 NA 
HETATM   36  H   UNL     1      -8.042   4.043  72.015  1.00  0.00     0.000 HD 
HETATM   37  H1  UNL     1      -6.648   7.338  71.844  1.00  0.00     0.000 HD 
HETATM   38  H2  UNL     1      -7.527   6.145  72.661  1.00  0.00     0.000 HD 
HETATM   39  C   UNL     1      -7.732   6.265  68.095  1.00  0.00    -0.104 C  
HETATM   40  C   UNL     1      -9.186   5.735  68.015  1.00  0.00    -0.109 C  
HETATM   41  N   UNL     1      -7.437   7.207  66.993  1.00  0.00    -0.095 NA 
HETATM   42  H2  UNL     1      -6.506   7.618  67.068  1.00  0.00     0.000 HD 
HETATM   43  H1  UNL     1      -7.581   6.724  66.106  1.00  0.00     0.000 HD 
BRANCH  40  44
HETATM   44  O   UNL     1      -9.309   5.023  66.759  1.00  0.00    -0.125 OA 
BRANCH  44  45
HETATM   45  C   UNL     1      -8.901   3.653  66.786  1.00  0.00    -0.130 C  
HETATM   46  O   UNL     1      -8.874   3.084  65.475  1.00  0.00    -0.125 OA 
HETATM   47  C   UNL     1      -7.897   3.681  64.611  1.00  0.00    -0.085 C  
HETATM   48  C   UNL     1      -6.480   3.567  65.193  1.00  0.00    -0.035 C  
HETATM   49  H1  UNL     1      -6.591   4.026  69.309  1.00  0.00     0.000 HD 
HETATM   50  O   UNL     1      -5.498   4.206  64.365  1.00  0.00    -0.012 OA 
HETATM   51  H2  UNL     1      -8.231   3.691  69.427  1.00  0.00     0.000 HD 
HETATM   52  C   UNL     1      -6.442   4.188  66.597  1.00  0.00    -0.041 C  
HETATM   53  H   UNL     1      -4.622   4.135  64.725  1.00  0.00     0.000 HD 
HETATM   54  O   UNL     1      -5.142   3.989  67.179  1.00  0.00    -0.007 OA 
HETATM   55  C   UNL     1      -7.517   3.533  67.484  1.00  0.00    -0.066 C  
HETATM   56  N   UNL     1      -7.498   4.105  68.852  1.00  0.00    -0.055 NA 
HETATM   57  H   UNL     1      -5.119   4.372  68.048  1.00  0.00     0.000 HD 
BRANCH  47  58
HETATM   58  C   UNL     1      -8.035   3.046  63.209  1.00  0.00    -0.069 C  
HETATM   59  H1  UNL     1      -9.480   2.676  61.719  1.00  0.00     0.000 HD 
HETATM   60  N   UNL     1      -9.389   3.096  62.645  1.00  0.00    -0.090 NA 
HETATM   61  H2  UNL     1      -9.733   4.056  62.634  1.00  0.00     0.000 HD 
ENDBRANCH  47  58
ENDBRANCH  44  45
ENDBRANCH  40  44
ENDBRANCH  29  30
ENDBRANCH  22  29
ENDBRANCH  18  19
ENDBRANCH   7  18
ENDBRANCH   2   5
TORSDOF 9
ENDMDL
MODEL      342
REMARK 921   NORMALIZED FREE ENERGY PREDICTED BY IDOCK:   31.68 KCAL/MOL
REMARK 922        TOTAL FREE ENERGY PREDICTED BY IDOCK:   45.54 KCAL/MOL
REMARK 923 INTER-LIGAND FREE ENERGY PREDICTED BY IDOCK:    8.29 KCAL/MOL
REMARK 924 INTRA-LIGAND FREE ENERGY PREDICTED BY IDOCK:   37.25 KCAL/MOL
REMARK 927      BINDING AFFINITY PREDICTED BY RF-SCORE:    0.00 PKD
ROOT
HETATM    1  N   UNL     1     -11.029   9.222  68.294  1.00  0.00    -0.475 NA 
HETATM    2  C   UNL     1      -9.702   8.603  68.369  1.00  0.00    -0.162 C  
HETATM    3  H1  UNL     1     -11.809   8.574  68.190  1.00  0.00     0.000 HD 
HETATM    4  H2  UNL     1     -11.049   9.915  67.546  1.00  0.00     0.000 HD 
ENDROOT
BRANCH   2   5
HETATM    5  C   UNL     1      -8.515   9.589  68.527  1.00  0.00    -0.119 C  
HETATM    6  O   UNL     1      -8.702  10.847  67.828  1.00  0.00    -0.126 OA 
HETATM    7  C   UNL     1      -7.624  11.752  68.123  1.00  0.00    -0.117 C  
HETATM    8  C   UNL     1      -6.267  11.173  67.607  1.00  0.00    -0.053 C  
HETATM    9  O   UNL     1      -7.429   8.524  66.622  1.00  0.00    -0.081 OA 
HETATM   10  H   UNL     1      -6.648   8.088  66.299  1.00  0.00     0.000 HD 
HETATM   11  N   UNL     1      -6.248  11.143  66.107  1.00  0.00    -0.302 NA 
HETATM   12  C   UNL     1      -6.016   9.782  68.188  1.00  0.00    -0.046 C  
HETATM   13  H2  UNL     1      -6.447  12.059  65.705  1.00  0.00     0.000 HD 
HETATM   14  O   UNL     1      -5.633   9.837  69.568  1.00  0.00    -0.034 OA 
HETATM   15  C   UNL     1      -7.242   8.879  68.000  1.00  0.00    -0.083 C  
HETATM   16  H1  UNL     1      -5.363  10.765  65.770  1.00  0.00     0.000 HD 
HETATM   17  H   UNL     1      -5.477   8.972  69.930  1.00  0.00     0.000 HD 
BRANCH   7  18
HETATM   18  O   UNL     1      -7.701  12.985  67.429  1.00  0.00    -0.164 OA 
BRANCH  18  19
HETATM   19  C   UNL     1      -7.794  14.208  68.146  1.00  0.00    -0.142 C  
HETATM   20  O   UNL     1      -8.149  12.763  70.132  1.00  0.00     1.749 OA 
HETATM   21  C   UNL     1      -6.378  14.774  67.986  1.00  0.00    -0.154 C  
HETATM   22  C   UNL     1      -6.690  14.723  70.265  1.00  0.00    -0.054 C  
HETATM   23  H   UNL     1      -8.266  12.707  71.073  1.00  0.00     0.000 HD 
HETATM   24  O   UNL     1      -5.705  14.577  69.241  1.00  0.00    -0.091 OA 
HETATM   25  C   UNL     1      -7.985  14.118  69.675  1.00  0.00     0.543 C  
BRANCH  21  26
HETATM   26  C   UNL     1      -6.340  16.237  67.538  1.00  0.00    -0.160 C  
HETATM   27  H   UNL     1      -7.096  17.373  66.094  1.00  0.00     0.000 HD 
HETATM   28  O   UNL     1      -7.120  16.465  66.372  1.00  0.00    -0.147 OA 
ENDBRANCH  21  26
BRANCH  22  29
HETATM   29  O   UNL     1      -6.849  16.104  70.613  1.00  0.00     0.805 OA 
BRANCH  29  30
HETATM   30  C   UNL     1      -7.995  16.819  70.037  1.00  0.00     1.529 C  
HETATM   31  C   UNL     1      -9.269  15.935  70.077  1.00  0.00     0.444 C  
HETATM   32  O   UNL     1      -9.963  16.174  71.321  1.00  0.00     1.711 OA 
HETATM   33  C   UNL     1     -10.305  16.078  68.951  1.00  0.00    -0.235 C  
HETATM   34  C   UNL     1      -9.721  16.557  67.634  1.00  0.00    -0.239 C  
HETATM   35  N   UNL     1     -10.975  14.772  68.718  1.00  0.00    -0.248 NA 
HETATM   36  H   UNL     1     -10.743  15.633  71.346  1.00  0.00     0.000 HD 
HETATM   37  H1  UNL     1     -11.663  14.868  67.970  1.00  0.00     0.000 HD 
HETATM   38  H2  UNL     1     -11.386  14.394  69.571  1.00  0.00     0.000 HD 
HETATM   39  C   UNL     1      -8.912  17.835  67.853  1.00  0.00    -0.255 C  
HETATM   40  C   UNL     1      -7.649  17.520  68.694  1.00  0.00    -0.273 C  
HETATM   41  N   UNL     1      -8.558  18.398  66.532  1.00  0.00    -0.275 NA 
HETATM   42  H2  UNL     1      -9.374  18.548  65.939  1.00  0.00     0.000 HD 
HETATM   43  H1  UNL     1      -8.018  19.251  66.678  1.00  0.00     0.000 HD 
BRANCH  40  44
HETATM   44  O   UNL     1      -6.956  18.775  68.903  1.00  0.00    -0.291 OA 
BRANCH  44  45
HETATM   45  C   UNL     1      -5.624  18.836  68.386  1.00  0.00    -0.192 C  
HETATM   46  O   UNL     1      -5.331  17.715  67.548  1.00  0.00    -0.125 OA 
HETATM   47  C   UNL     1      -6.125  17.670  66.354  1.00  0.00    -0.215 C  
HETATM   48  C   UNL     1      -5.947  18.939  65.507  1.00  0.00    -0.214 C  
HETATM   49  H1  UNL     1      -5.566  22.251  67.967  1.00  0.00     0.000 HD 
HETATM   50  O   UNL     1      -6.775  18.931  64.335  1.00  0.00    -0.093 OA 
HETATM   51  H2  UNL     1      -5.155  21.351  69.323  1.00  0.00     0.000 HD 
HETATM   52  C   UNL     1      -6.275  20.179  66.351  1.00  0.00    -0.179 C  
HETATM   53  H   UNL     1      -6.665  19.716  63.811  1.00  0.00     0.000 HD 
HETATM   54  O   UNL     1      -6.010  21.368  65.587  1.00  0.00    -0.277 OA 
HETATM   55  C   UNL     1      -5.416  20.178  67.630  1.00  0.00    -0.183 C  
HETATM   56  N   UNL     1      -5.702  21.371  68.463  1.00  0.00    -0.205 NA 
HETATM   57  H   UNL     1      -6.212  22.135  66.110  1.00  0.00     0.000 HD 
BRANCH  47  58
HETATM   58  C   UNL     1      -5.780  16.371  65.590  1.00  0.00     3.195 C  
HETATM   59  H1  UNL     1      -6.602  14.490  65.113  1.00  0.00     0.000 HD 
HETATM   60  N   UNL     1      -6.830  15.347  65.617  1.00  0.00     4.323 NA 
HETATM   61  H2  UNL     1      -7.711  15.734  65.278  1.00  0.00     0.000 HD 
ENDBRANCH  47  58
ENDBRANCH  44  45
ENDBRANCH  40  44
ENDBRANCH  29  30
ENDBRANCH  22  29
ENDBRANCH  18  19
ENDBRANCH   7  18
ENDBRANCH   2   5
TORSDOF 9
ENDMDL
MODEL      343
REMARK 921   NORMALIZED FREE ENERGY PREDICTED BY IDOCK:   33.58 KCAL/MOL
REMARK 922        TOTAL FREE ENERGY PREDICTED BY IDOCK:   48.43 KCAL/MOL
REMARK 923 INTER-LIGAND FREE ENERGY PREDICTED BY IDOCK:   12.59 KCAL/MOL
REMARK 924 INTRA-LIGAND FREE ENERGY PREDICTED BY IDOCK:   35.84 KCAL/MOL
REMARK 927      BINDING AFFINITY PREDICTED BY RF-SCORE:    0.00 PKD
ROOT
HETATM    1  N   UNL     1     -14.223   6.437  70.612  1.00  0.00     1.878 NA 
HETATM    2  C   UNL     1     -13.578   7.091  69.470  1.00  0.00     6.373 C  
HETATM    3  H1  UNL     1     -15.023   6.931  71.005  1.00  0.00     0.000 HD 
HETATM    4  H2  UNL     1     -13.535   6.252  71.342  1.00  0.00     0.000 HD 
ENDROOT
BRANCH   2   5
HETATM    5  C   UNL     1     -12.359   6.339  68.873  1.00  0.00     3.393 C  
HETATM    6  O   UNL     1     -11.252   6.190  69.800  1.00  0.00    -0.384 OA 
HETATM    7  C   UNL     1     -10.216   5.378  69.220  1.00  0.00    -0.245 C  
HETATM    8  C   UNL     1      -9.622   6.073  67.952  1.00  0.00    -0.116 C  
HETATM    9  O   UNL     1     -11.531   8.459  67.998  1.00  0.00     0.152 OA 
HETATM   10  H   UNL     1     -11.245   8.939  67.229  1.00  0.00     0.000 HD 
HETATM   11  N   UNL     1      -8.869   7.312  68.340  1.00  0.00    -0.128 NA 
HETATM   12  C   UNL     1     -10.725   6.393  66.944  1.00  0.00    -0.338 C  
HETATM   13  H2  UNL     1      -8.151   7.118  69.038  1.00  0.00     0.000 HD 
HETATM   14  O   UNL     1     -11.186   5.220  66.261  1.00  0.00    -0.651 OA 
HETATM   15  C   UNL     1     -11.893   7.122  67.619  1.00  0.00     1.816 C  
HETATM   16  H1  UNL     1      -8.482   7.766  67.513  1.00  0.00     0.000 HD 
HETATM   17  H   UNL     1     -11.871   5.418  65.634  1.00  0.00     0.000 HD 
BRANCH   7  18
HETATM   18  O   UNL     1      -9.071   5.234  70.041  1.00  0.00    -0.123 OA 
BRANCH  18  19
HETATM   19  C   UNL     1      -8.360   6.381  70.490  1.00  0.00    -0.129 C  
HETATM   20  O   UNL     1      -7.095   6.157  68.367  1.00  0.00    -0.077 OA 
HETATM   21  C   UNL     1      -9.461   7.449  70.493  1.00  0.00    -0.161 C  
HETATM   22  C   UNL     1      -7.824   8.356  69.154  1.00  0.00    -0.105 C  
HETATM   23  H   UNL     1      -6.434   6.514  67.785  1.00  0.00     0.000 HD 
HETATM   24  O   UNL     1      -9.238   8.281  69.342  1.00  0.00    -0.153 OA 
HETATM   25  C   UNL     1      -7.286   6.961  69.546  1.00  0.00    -0.091 C  
BRANCH  21  26
HETATM   26  C   UNL     1      -9.532   8.265  71.786  1.00  0.00    -0.209 C  
HETATM   27  H   UNL     1      -9.372   7.969  73.745  1.00  0.00     0.000 HD 
HETATM   28  O   UNL     1      -9.329   7.463  72.942  1.00  0.00    -0.144 OA 
ENDBRANCH  21  26
BRANCH  22  29
HETATM   29  O   UNL     1      -7.266   9.398  69.965  1.00  0.00    -0.068 OA 
BRANCH  29  30
HETATM   30  C   UNL     1      -6.881  10.644  69.293  1.00  0.00    -0.086 C  
HETATM   31  C   UNL     1      -6.642  11.774  70.328  1.00  0.00     0.352 C  
HETATM   32  O   UNL     1      -5.253  11.758  70.723  1.00  0.00    -0.113 OA 
HETATM   33  C   UNL     1      -6.980  13.222  69.934  1.00  0.00     0.451 C  
HETATM   34  C   UNL     1      -8.067  13.335  68.881  1.00  0.00     0.171 C  
HETATM   35  N   UNL     1      -7.412  13.980  71.137  1.00  0.00     1.671 NA 
HETATM   36  H   UNL     1      -5.106  12.450  71.357  1.00  0.00     0.000 HD 
HETATM   37  H1  UNL     1      -7.636  14.940  70.876  1.00  0.00     0.000 HD 
HETATM   38  H2  UNL     1      -6.722  13.937  71.887  1.00  0.00     0.000 HD 
HETATM   39  C   UNL     1      -7.722  12.465  67.674  1.00  0.00    -0.151 C  
HETATM   40  C   UNL     1      -7.784  10.968  68.070  1.00  0.00    -0.106 C  
HETATM   41  N   UNL     1      -8.671  12.778  66.583  1.00  0.00    -0.407 NA 
HETATM   42  H2  UNL     1      -8.692  13.772  66.356  1.00  0.00     0.000 HD 
HETATM   43  H1  UNL     1      -8.440  12.197  65.777  1.00  0.00     0.000 HD 
BRANCH  40  44
HETATM   44  O   UNL     1      -7.403  10.204  66.899  1.00  0.00    -0.090 OA 
BRANCH  44  45
HETATM   45  C   UNL     1      -6.911  10.972  65.797  1.00  0.00     0.094 C  
HETATM   46  O   UNL     1      -6.397  10.135  64.758  1.00  0.00    -0.120 OA 
HETATM   47  C   UNL     1      -7.395   9.310  64.140  1.00  0.00    -0.106 C  
HETATM   48  C   UNL     1      -8.531  10.150  63.537  1.00  0.00    -0.186 C  
HETATM   49  H1  UNL     1      -9.332  13.412  65.963  1.00  0.00     0.000 HD 
HETATM   50  O   UNL     1      -9.563   9.337  62.962  1.00  0.00    -0.403 OA 
HETATM   51  H2  UNL     1      -7.856  13.340  66.760  1.00  0.00     0.000 HD 
HETATM   52  C   UNL     1      -9.141  11.054  64.619  1.00  0.00    -0.122 C  
HETATM   53  H   UNL     1     -10.266   9.857  62.589  1.00  0.00     0.000 HD 
HETATM   54  O   UNL     1     -10.135  11.911  64.029  1.00  0.00    -0.299 OA 
HETATM   55  C   UNL     1      -8.035  11.906  65.268  1.00  0.00     1.526 C  
HETATM   56  N   UNL     1      -8.595  12.799  66.311  1.00  0.00     0.208 NA 
HETATM   57  H   UNL     1     -10.511  12.470  64.698  1.00  0.00     0.000 HD 
BRANCH  47  58
HETATM   58  C   UNL     1      -6.698   8.394  63.109  1.00  0.00    -0.086 C  
HETATM   59  H1  UNL     1      -7.137   6.878  61.711  1.00  0.00     0.000 HD 
HETATM   60  N   UNL     1      -7.598   7.483  62.392  1.00  0.00    -0.098 NA 
HETATM   61  H2  UNL     1      -8.352   8.007  61.948  1.00  0.00     0.000 HD 
ENDBRANCH  47  58
ENDBRANCH  44  45
ENDBRANCH  40  44
ENDBRANCH  29  30
ENDBRANCH  22  29
ENDBRANCH  18  19
ENDBRANCH   7  18
ENDBRANCH   2   5
TORSDOF 9
ENDMDL
MODEL      344
REMARK 921   NORMALIZED FREE ENERGY PREDICTED BY IDOCK:   36.57 KCAL/MOL
REMARK 922        TOTAL FREE ENERGY PREDICTED BY IDOCK:   53.00 KCAL/MOL
REMARK 923 INTER-LIGAND FREE ENERGY PREDICTED BY IDOCK:   10.50 KCAL/MOL
REMARK 924 INTRA-LIGAND FREE ENERGY PREDICTED BY IDOCK:   42.50 KCAL/MOL
REMARK 927      BINDING AFFINITY PREDICTED BY RF-SCORE:    0.00 PKD
ROOT
HETATM    1  N   UNL     1     -10.805  13.667  66.306  1.00  0.00    -0.282 NA 
HETATM    2  C   UNL     1     -10.216  12.688  65.388  1.00  0.00    -0.284 C  
HETATM    3  H1  UNL     1     -10.786  14.635  65.987  1.00  0.00     0.000 HD 
HETATM    4  H2  UNL     1     -10.365  13.594  67.224  1.00  0.00     0.000 HD 
ENDROOT
BRANCH   2   5
HETATM    5  C   UNL     1     -10.244  11.216  65.875  1.00  0.00    -0.251 C  
HETATM    6  O   UNL     1     -10.869  11.041  67.173  1.00  0.00    -0.253 OA 
HETATM    7  C   UNL     1     -10.972   9.643  67.498  1.00  0.00    -0.096 C  
HETATM    8  C   UNL     1      -9.550   9.004  67.616  1.00  0.00    -0.150 C  
HETATM    9  O   UNL     1      -8.020  11.527  66.823  1.00  0.00    -0.156 OA 
HETATM   10  H   UNL     1      -7.122  11.216  66.852  1.00  0.00     0.000 HD 
HETATM   11  N   UNL     1      -8.828   9.551  68.813  1.00  0.00    -0.130 NA 
HETATM   12  C   UNL     1      -8.746   9.232  66.337  1.00  0.00    -0.132 C  
HETATM   13  H2  UNL     1      -9.370   9.434  69.670  1.00  0.00     0.000 HD 
HETATM   14  O   UNL     1      -9.192   8.392  65.264  1.00  0.00    -0.413 OA 
HETATM   15  C   UNL     1      -8.781  10.708  65.922  1.00  0.00    -0.177 C  
HETATM   16  H1  UNL     1      -7.901   9.134  68.890  1.00  0.00     0.000 HD 
HETATM   17  H   UNL     1      -8.692   8.534  64.469  1.00  0.00     0.000 HD 
BRANCH   7  18
HETATM   18  O   UNL     1     -11.516   9.389  68.781  1.00  0.00     0.190 OA 
BRANCH  18  19
HETATM   19  C   UNL     1     -11.545  10.414  69.765  1.00  0.00    -0.269 C  
HETATM   20  O   UNL     1     -11.314  11.964  67.841  1.00  0.00    -0.248 OA 
HETATM   21  C   UNL     1     -12.964  10.267  70.327  1.00  0.00    -0.001 C  
HETATM   22  C   UNL     1     -12.865  12.468  69.665  1.00  0.00     0.881 C  
HETATM   23  H   UNL     1     -11.284  12.863  67.534  1.00  0.00     0.000 HD 
HETATM   24  O   UNL     1     -13.742  11.347  69.785  1.00  0.00     1.767 OA 
HETATM   25  C   UNL     1     -11.496  11.873  69.266  1.00  0.00    -0.306 C  
BRANCH  21  26
HETATM   26  C   UNL     1     -13.026  10.227  71.856  1.00  0.00    -0.449 C  
HETATM   27  H   UNL     1     -13.713  11.345  73.349  1.00  0.00     0.000 HD 
HETATM   28  O   UNL     1     -13.674  11.369  72.400  1.00  0.00    -0.050 OA 
ENDBRANCH  21  26
BRANCH  22  29
HETATM   29  O   UNL     1     -12.802  13.189  70.902  1.00  0.00    -0.257 OA 
BRANCH  29  30
HETATM   30  C   UNL     1     -11.540  13.865  71.226  1.00  0.00     0.602 C  
HETATM   31  C   UNL     1     -11.619  14.533  72.624  1.00  0.00     0.525 C  
HETATM   32  O   UNL     1     -11.170  13.586  73.619  1.00  0.00     3.729 OA 
HETATM   33  C   UNL     1     -10.845  15.839  72.865  1.00  0.00     1.814 C  
HETATM   34  C   UNL     1     -10.623  16.663  71.610  1.00  0.00     2.104 C  
HETATM   35  N   UNL     1     -11.572  16.677  73.852  1.00  0.00     0.261 NA 
HETATM   36  H   UNL     1     -11.219  13.996  74.474  1.00  0.00     0.000 HD 
HETATM   37  H1  UNL     1     -11.058  17.544  74.012  1.00  0.00     0.000 HD 
HETATM   38  H2  UNL     1     -11.757  16.175  74.721  1.00  0.00     0.000 HD 
HETATM   39  C   UNL     1      -9.990  15.800  70.519  1.00  0.00     0.526 C  
HETATM   40  C   UNL     1     -11.002  14.724  70.048  1.00  0.00    -0.156 C  
HETATM   41  N   UNL     1      -9.575  16.679  69.405  1.00  0.00    -0.131 NA 
HETATM   42  H2  UNL     1      -8.962  17.435  69.711  1.00  0.00     0.000 HD 
HETATM   43  H1  UNL     1      -9.153  16.102  68.677  1.00  0.00     0.000 HD 
BRANCH  40  44
HETATM   44  O   UNL     1     -10.327  13.915  69.054  1.00  0.00    -0.200 OA 
BRANCH  44  45
HETATM   45  C   UNL     1      -9.947  14.600  67.857  1.00  0.00    -0.221 C  
HETATM   46  O   UNL     1     -10.620  15.856  67.732  1.00  0.00    -0.286 OA 
HETATM   47  C   UNL     1     -10.268  16.798  68.754  1.00  0.00    -0.299 C  
HETATM   48  C   UNL     1      -8.759  17.083  68.768  1.00  0.00    -0.244 C  
HETATM   49  H1  UNL     1      -6.650  13.618  67.922  1.00  0.00     0.000 HD 
HETATM   50  O   UNL     1      -8.384  17.984  69.819  1.00  0.00     0.795 OA 
HETATM   51  H2  UNL     1      -7.966  12.838  67.231  1.00  0.00     0.000 HD 
HETATM   52  C   UNL     1      -7.983  15.767  68.927  1.00  0.00    -0.197 C  
HETATM   53  H   UNL     1      -7.451  18.160  69.828  1.00  0.00     0.000 HD 
HETATM   54  O   UNL     1      -6.571  16.025  68.838  1.00  0.00    -0.118 OA 
HETATM   55  C   UNL     1      -8.404  14.779  67.824  1.00  0.00    -0.159 C  
HETATM   56  N   UNL     1      -7.663  13.501  67.944  1.00  0.00    -0.136 NA 
HETATM   57  H   UNL     1      -6.091  15.211  68.936  1.00  0.00     0.000 HD 
BRANCH  47  58
HETATM   58  C   UNL     1     -11.128  18.068  68.561  1.00  0.00     0.551 C  
HETATM   59  H1  UNL     1     -13.069  18.654  67.981  1.00  0.00     0.000 HD 
HETATM   60  N   UNL     1     -12.501  17.815  68.109  1.00  0.00     2.806 NA 
HETATM   61  H2  UNL     1     -12.968  17.165  68.742  1.00  0.00     0.000 HD 
ENDBRANCH  47  58
ENDBRANCH  44  45
ENDBRANCH  40  44
ENDBRANCH  29  30
ENDBRANCH  22  29
ENDBRANCH  18  19
ENDBRANCH   7  18
ENDBRANCH   2   5
TORSDOF 9
ENDMDL
MODEL      345
REMARK 921   NORMALIZED FREE ENERGY PREDICTED BY IDOCK:   38.31 KCAL/MOL
REMARK 922        TOTAL FREE ENERGY PREDICTED BY IDOCK:   55.66 KCAL/MOL
REMARK 923 INTER-LIGAND FREE ENERGY PREDICTED BY IDOCK:   24.53 KCAL/MOL
REMARK 924 INTRA-LIGAND FREE ENERGY PREDICTED BY IDOCK:   31.13 KCAL/MOL
REMARK 927      BINDING AFFINITY PREDICTED BY RF-SCORE:    0.00 PKD
ROOT
HETATM    1  N   UNL     1     -13.810   5.391  70.730  1.00  0.00     6.667 NA 
HETATM    2  C   UNL     1     -12.809   6.461  70.710  1.00  0.00     0.781 C  
HETATM    3  H1  UNL     1     -13.494   4.488  70.378  1.00  0.00     0.000 HD 
HETATM    4  H2  UNL     1     -14.648   5.687  70.230  1.00  0.00     0.000 HD 
ENDROOT
BRANCH   2   5
HETATM    5  C   UNL     1     -13.290   7.835  71.246  1.00  0.00    -0.187 C  
HETATM    6  O   UNL     1     -13.055   8.935  70.330  1.00  0.00     0.777 OA 
HETATM    7  C   UNL     1     -13.639  10.147  70.839  1.00  0.00     0.046 C  
HETATM    8  C   UNL     1     -12.958  10.558  72.185  1.00  0.00    -0.263 C  
HETATM    9  O   UNL     1     -11.138   8.109  72.359  1.00  0.00    -0.315 OA 
HETATM   10  H   UNL     1     -10.688   8.272  73.180  1.00  0.00     0.000 HD 
HETATM   11  N   UNL     1     -11.536  10.972  71.947  1.00  0.00     1.631 NA 
HETATM   12  C   UNL     1     -13.037   9.419  73.201  1.00  0.00     1.087 C  
HETATM   13  H2  UNL     1     -11.466  11.709  71.246  1.00  0.00     0.000 HD 
HETATM   14  O   UNL     1     -14.356   9.274  73.745  1.00  0.00    -0.264 OA 
HETATM   15  C   UNL     1     -12.556   8.099  72.585  1.00  0.00    -0.071 C  
HETATM   16  H1  UNL     1     -11.091  11.240  72.825  1.00  0.00     0.000 HD 
HETATM   17  H   UNL     1     -14.405   8.566  74.377  1.00  0.00     0.000 HD 
BRANCH   7  18
HETATM   18  O   UNL     1     -13.400  11.285  70.030  1.00  0.00     0.461 OA 
BRANCH  18  19
HETATM   19  C   UNL     1     -12.146  11.458  69.385  1.00  0.00    -0.291 C  
HETATM   20  O   UNL     1     -13.490  12.289  67.472  1.00  0.00     4.577 OA 
HETATM   21  C   UNL     1     -11.495  12.541  70.254  1.00  0.00     0.211 C  
HETATM   22  C   UNL     1     -11.431  13.432  68.134  1.00  0.00    -0.304 C  
HETATM   23  H   UNL     1     -13.498  12.671  66.602  1.00  0.00     0.000 HD 
HETATM   24  O   UNL     1     -11.570  13.771  69.514  1.00  0.00    -0.269 OA 
HETATM   25  C   UNL     1     -12.157  12.078  67.972  1.00  0.00     0.043 C  
BRANCH  21  26
HETATM   26  C   UNL     1     -10.061  12.217  70.683  1.00  0.00     5.023 C  
HETATM   27  H   UNL     1      -8.584  11.003  70.142  1.00  0.00     0.000 HD 
HETATM   28  O   UNL     1      -9.473  11.204  69.877  1.00  0.00     0.633 OA 
ENDBRANCH  21  26
BRANCH  22  29
HETATM   29  O   UNL     1     -10.045  13.348  67.776  1.00  0.00    -0.223 OA 
BRANCH  29  30
HETATM   30  C   UNL     1      -9.688  12.466  66.658  1.00  0.00    -0.225 C  
HETATM   31  C   UNL     1     -10.716  12.601  65.504  1.00  0.00    -0.274 C  
HETATM   32  O   UNL     1     -10.271  13.639  64.603  1.00  0.00    -0.546 OA 
HETATM   33  C   UNL     1     -11.030  11.365  64.644  1.00  0.00    -0.255 C  
HETATM   34  C   UNL     1     -10.824  10.045  65.366  1.00  0.00     0.748 C  
HETATM   35  N   UNL     1     -12.437  11.427  64.174  1.00  0.00     0.050 NA 
HETATM   36  H   UNL     1     -10.900  13.721  63.896  1.00  0.00     0.000 HD 
HETATM   37  H1  UNL     1     -12.645  10.607  63.603  1.00  0.00     0.000 HD 
HETATM   38  H2  UNL     1     -12.640  12.297  63.683  1.00  0.00     0.000 HD 
HETATM   39  C   UNL     1      -9.425   9.994  65.978  1.00  0.00    -0.197 C  
HETATM   40  C   UNL     1      -9.314  11.032  67.124  1.00  0.00    -0.164 C  
HETATM   41  N   UNL     1      -9.176   8.619  66.465  1.00  0.00    -0.173 NA 
HETATM   42  H2  UNL     1      -9.312   7.916  65.738  1.00  0.00     0.000 HD 
HETATM   43  H1  UNL     1      -8.242   8.585  66.874  1.00  0.00     0.000 HD 
BRANCH  40  44
HETATM   44  O   UNL     1      -7.957  10.963  67.627  1.00  0.00    -0.111 OA 
BRANCH  44  45
HETATM   45  C   UNL     1      -6.964  11.581  66.804  1.00  0.00    -0.108 C  
HETATM   46  O   UNL     1      -7.453  11.832  65.484  1.00  0.00     0.847 OA 
HETATM   47  C   UNL     1      -8.526  12.784  65.442  1.00  0.00     1.982 C  
HETATM   48  C   UNL     1      -8.110  14.134  66.045  1.00  0.00     2.066 C  
HETATM   49  H1  UNL     1      -5.610  13.532  69.294  1.00  0.00     0.000 HD 
HETATM   50  O   UNL     1      -9.188  15.080  66.058  1.00  0.00    -0.411 OA 
HETATM   51  H2  UNL     1      -5.209  11.963  68.853  1.00  0.00     0.000 HD 
HETATM   52  C   UNL     1      -7.597  13.929  67.478  1.00  0.00    -0.176 C  
HETATM   53  H   UNL     1      -8.930  15.915  66.431  1.00  0.00     0.000 HD 
HETATM   54  O   UNL     1      -7.115  15.178  68.003  1.00  0.00    -0.106 OA 
HETATM   55  C   UNL     1      -6.463  12.888  67.480  1.00  0.00    -0.160 C  
HETATM   56  N   UNL     1      -5.939  12.675  68.851  1.00  0.00    -0.070 NA 
HETATM   57  H   UNL     1      -6.797  15.050  68.889  1.00  0.00     0.000 HD 
BRANCH  47  58
HETATM   58  C   UNL     1      -9.022  12.892  63.983  1.00  0.00     2.628 C  
HETATM   59  H1  UNL     1      -9.155  11.753  62.214  1.00  0.00     0.000 HD 
HETATM   60  N   UNL     1      -8.828  11.681  63.178  1.00  0.00    -0.568 NA 
HETATM   61  H2  UNL     1      -9.256  10.877  63.639  1.00  0.00     0.000 HD 
ENDBRANCH  47  58
ENDBRANCH  44  45
ENDBRANCH  40  44
ENDBRANCH  29  30
ENDBRANCH  22  29
ENDBRANCH  18  19
ENDBRANCH   7  18
ENDBRANCH   2   5
TORSDOF 9
ENDMDL
MODEL      346
REMARK 921   NORMALIZED FREE ENERGY PREDICTED BY IDOCK:   39.54 KCAL/MOL
REMARK 922        TOTAL FREE ENERGY PREDICTED BY IDOCK:   57.52 KCAL/MOL
REMARK 923 INTER-LIGAND FREE ENERGY PREDICTED BY IDOCK:   27.33 KCAL/MOL
REMARK 924 INTRA-LIGAND FREE ENERGY PREDICTED BY IDOCK:   30.20 KCAL/MOL
REMARK 927      BINDING AFFINITY PREDICTED BY RF-SCORE:    0.00 PKD
ROOT
HETATM    1  N   UNL     1      -9.151  11.600  71.770  1.00  0.00    12.466 NA 
HETATM    2  C   UNL     1     -10.482  11.056  71.483  1.00  0.00     4.869 C  
HETATM    3  H1  UNL     1      -8.770  11.365  72.685  1.00  0.00     0.000 HD 
HETATM    4  H2  UNL     1      -9.153  12.612  71.642  1.00  0.00     0.000 HD 
ENDROOT
BRANCH   2   5
HETATM    5  C   UNL     1     -11.063  11.415  70.090  1.00  0.00     0.146 C  
HETATM    6  O   UNL     1     -11.057  10.307  69.152  1.00  0.00    -0.224 OA 
HETATM    7  C   UNL     1     -11.723  10.678  67.932  1.00  0.00     0.143 C  
HETATM    8  C   UNL     1     -10.958  11.844  67.224  1.00  0.00    -0.268 C  
HETATM    9  O   UNL     1      -8.854  12.192  69.413  1.00  0.00     0.100 OA 
HETATM   10  H   UNL     1      -8.342  12.913  69.064  1.00  0.00     0.000 HD 
HETATM   11  N   UNL     1      -9.627  11.367  66.722  1.00  0.00    -0.185 NA 
HETATM   12  C   UNL     1     -10.795  13.035  68.168  1.00  0.00    -0.247 C  
HETATM   13  H2  UNL     1      -9.719  10.551  66.117  1.00  0.00     0.000 HD 
HETATM   14  O   UNL     1     -12.023  13.754  68.343  1.00  0.00    -0.355 OA 
HETATM   15  C   UNL     1     -10.229  12.590  69.522  1.00  0.00     0.817 C  
HETATM   16  H1  UNL     1      -9.128  12.127  66.261  1.00  0.00     0.000 HD 
HETATM   17  H   UNL     1     -11.922  14.495  68.929  1.00  0.00     0.000 HD 
BRANCH   7  18
HETATM   18  O   UNL     1     -11.706   9.669  66.938  1.00  0.00     1.163 OA 
BRANCH  18  19
HETATM   19  C   UNL     1     -10.910   8.505  67.109  1.00  0.00     0.008 C  
HETATM   20  O   UNL     1     -11.515   8.710  69.507  1.00  0.00    -0.419 OA 
HETATM   21  C   UNL     1     -11.706   7.463  66.314  1.00  0.00     4.295 C  
HETATM   22  C   UNL     1     -11.516   6.525  68.407  1.00  0.00     0.144 C  
HETATM   23  H   UNL     1     -11.468   8.341  70.381  1.00  0.00     0.000 HD 
HETATM   24  O   UNL     1     -12.380   6.631  67.274  1.00  0.00     2.596 OA 
HETATM   25  C   UNL     1     -10.832   7.905  68.529  1.00  0.00     0.082 C  
BRANCH  21  26
HETATM   26  C   UNL     1     -10.856   6.641  65.340  1.00  0.00     3.757 C  
HETATM   27  H   UNL     1     -10.673   4.752  64.752  1.00  0.00     0.000 HD 
HETATM   28  O   UNL     1     -11.200   5.262  65.355  1.00  0.00     0.377 OA 
ENDBRANCH  21  26
BRANCH  22  29
HETATM   29  O   UNL     1     -10.569   5.467  68.216  1.00  0.00    -0.160 OA 
BRANCH  29  30
HETATM   30  C   UNL     1      -9.154   5.840  68.092  1.00  0.00    -0.110 C  
HETATM   31  C   UNL     1      -8.246   4.783  68.772  1.00  0.00    -0.083 C  
HETATM   32  O   UNL     1      -7.890   3.779  67.797  1.00  0.00    -0.079 OA 
HETATM   33  C   UNL     1      -6.939   5.247  69.436  1.00  0.00    -0.055 C  
HETATM   34  C   UNL     1      -6.973   6.686  69.921  1.00  0.00    -0.063 C  
HETATM   35  N   UNL     1      -6.628   4.371  70.595  1.00  0.00    -0.034 NA 
HETATM   36  H   UNL     1      -7.333   3.131  68.214  1.00  0.00     0.000 HD 
HETATM   37  H1  UNL     1      -5.761   4.679  71.035  1.00  0.00     0.000 HD 
HETATM   38  H2  UNL     1      -6.596   3.386  70.333  1.00  0.00     0.000 HD 
HETATM   39  C   UNL     1      -7.415   7.611  68.789  1.00  0.00    -0.100 C  
HETATM   40  C   UNL     1      -8.899   7.335  68.433  1.00  0.00    -0.128 C  
HETATM   41  N   UNL     1      -7.212   9.011  69.219  1.00  0.00    -0.064 NA 
HETATM   42  H2  UNL     1      -6.255   9.193  69.522  1.00  0.00     0.000 HD 
HETATM   43  H1  UNL     1      -7.508   9.629  68.463  1.00  0.00     0.000 HD 
BRANCH  40  44
HETATM   44  O   UNL     1      -9.239   8.208  67.328  1.00  0.00    -0.134 OA 
BRANCH  44  45
HETATM   45  C   UNL     1      -8.922   7.706  66.027  1.00  0.00    -0.139 C  
HETATM   46  O   UNL     1      -9.041   8.720  65.026  1.00  0.00    -0.130 OA 
HETATM   47  C   UNL     1      -8.101   9.792  65.182  1.00  0.00    -0.132 C  
HETATM   48  C   UNL     1      -6.652   9.284  65.155  1.00  0.00    -0.074 C  
HETATM   49  H1  UNL     1      -6.392   5.617  67.066  1.00  0.00     0.000 HD 
HETATM   50  O   UNL     1      -5.701  10.338  65.362  1.00  0.00    -0.080 OA 
HETATM   51  H2  UNL     1      -8.036   5.299  66.947  1.00  0.00     0.000 HD 
HETATM   52  C   UNL     1      -6.457   8.206  66.231  1.00  0.00    -0.047 C  
HETATM   53  H   UNL     1      -4.804  10.024  65.344  1.00  0.00     0.000 HD 
HETATM   54  O   UNL     1      -5.130   7.661  66.135  1.00  0.00    -0.024 OA 
HETATM   55  C   UNL     1      -7.496   7.086  66.039  1.00  0.00    -0.080 C  
HETATM   56  N   UNL     1      -7.327   6.023  67.058  1.00  0.00    -0.075 NA 
HETATM   57  H   UNL     1      -5.010   6.994  66.801  1.00  0.00     0.000 HD 
BRANCH  47  58
HETATM   58  C   UNL     1      -8.396  10.858  64.103  1.00  0.00     0.174 C  
HETATM   59  H1  UNL     1      -9.863  11.380  62.681  1.00  0.00     0.000 HD 
HETATM   60  N   UNL     1      -9.668  10.677  63.395  1.00  0.00    -0.321 NA 
HETATM   61  H2  UNL     1     -10.440  10.624  64.060  1.00  0.00     0.000 HD 
ENDBRANCH  47  58
ENDBRANCH  44  45
ENDBRANCH  40  44
ENDBRANCH  29  30
ENDBRANCH  22  29
ENDBRANCH  18  19
ENDBRANCH   7  18
ENDBRANCH   2   5
TORSDOF 9
ENDMDL
MODEL      347
REMARK 921   NORMALIZED FREE ENERGY PREDICTED BY IDOCK:   43.13 KCAL/MOL
REMARK 922        TOTAL FREE ENERGY PREDICTED BY IDOCK:   63.00 KCAL/MOL
REMARK 923 INTER-LIGAND FREE ENERGY PREDICTED BY IDOCK:    5.78 KCAL/MOL
REMARK 924 INTRA-LIGAND FREE ENERGY PREDICTED BY IDOCK:   57.22 KCAL/MOL
REMARK 927      BINDING AFFINITY PREDICTED BY RF-SCORE:    0.00 PKD
ROOT
HETATM    1  N   UNL     1      -8.065   4.258  68.967  1.00  0.00    -0.071 NA 
HETATM    2  C   UNL     1      -8.148   5.047  67.735  1.00  0.00    -0.098 C  
HETATM    3  H1  UNL     1      -7.709   3.310  68.857  1.00  0.00     0.000 HD 
HETATM    4  H2  UNL     1      -8.974   4.238  69.430  1.00  0.00     0.000 HD 
ENDROOT
BRANCH   2   5
HETATM    5  C   UNL     1      -8.691   6.491  67.902  1.00  0.00    -0.116 C  
HETATM    6  O   UNL     1      -8.044   7.239  68.965  1.00  0.00    -0.120 OA 
HETATM    7  C   UNL     1      -8.509   8.600  68.976  1.00  0.00    -0.124 C  
HETATM    8  C   UNL     1     -10.041   8.653  69.285  1.00  0.00    -0.202 C  
HETATM    9  O   UNL     1     -10.431   5.623  69.372  1.00  0.00    -0.247 OA 
HETATM   10  H   UNL     1     -11.364   5.562  69.543  1.00  0.00     0.000 HD 
HETATM   11  N   UNL     1     -10.304   8.220  70.698  1.00  0.00    -0.197 NA 
HETATM   12  C   UNL     1     -10.823   7.793  68.292  1.00  0.00     0.062 C  
HETATM   13  H2  UNL     1      -9.762   8.765  71.369  1.00  0.00     0.000 HD 
HETATM   14  O   UNL     1     -10.916   8.412  67.002  1.00  0.00    -0.378 OA 
HETATM   15  C   UNL     1     -10.212   6.391  68.179  1.00  0.00    -0.167 C  
HETATM   16  H1  UNL     1     -11.303   8.254  70.900  1.00  0.00     0.000 HD 
HETATM   17  H   UNL     1     -11.402   7.878  66.385  1.00  0.00     0.000 HD 
BRANCH   7  18
HETATM   18  O   UNL     1      -7.970   9.384  70.026  1.00  0.00    -0.101 OA 
BRANCH  18  19
HETATM   19  C   UNL     1      -7.761  10.778  69.847  1.00  0.00     0.219 C  
HETATM   20  O   UNL     1      -5.423  10.137  69.317  1.00  0.00    -0.038 OA 
HETATM   21  C   UNL     1      -8.655  11.075  68.636  1.00  0.00    -0.157 C  
HETATM   22  C   UNL     1      -6.582  11.829  67.982  1.00  0.00    -0.060 C  
HETATM   23  H   UNL     1      -4.560  10.414  69.034  1.00  0.00     0.000 HD 
HETATM   24  O   UNL     1      -7.785  11.227  67.502  1.00  0.00    -0.113 OA 
HETATM   25  C   UNL     1      -6.358  11.229  69.389  1.00  0.00    -0.092 C  
BRANCH  21  26
HETATM   26  C   UNL     1      -9.571  12.288  68.822  1.00  0.00     0.062 C  
HETATM   27  H   UNL     1      -9.683  14.176  68.214  1.00  0.00     0.000 HD 
HETATM   28  O   UNL     1      -9.115  13.424  68.099  1.00  0.00    -0.197 OA 
ENDBRANCH  21  26
BRANCH  22  29
HETATM   29  O   UNL     1      -6.716  13.256  68.018  1.00  0.00    -0.095 OA 
BRANCH  29  30
HETATM   30  C   UNL     1      -8.050  13.815  67.765  1.00  0.00    -0.176 C  
HETATM   31  C   UNL     1      -8.634  13.261  66.440  1.00  0.00     0.338 C  
HETATM   32  O   UNL     1      -9.381  12.058  66.727  1.00  0.00    -0.193 OA 
HETATM   33  C   UNL     1      -9.549  14.166  65.598  1.00  0.00    -0.081 C  
HETATM   34  C   UNL     1      -9.285  15.649  65.782  1.00  0.00    -0.247 C  
HETATM   35  N   UNL     1      -9.390  13.838  64.158  1.00  0.00     0.946 NA 
HETATM   36  H   UNL     1      -9.739  11.718  65.915  1.00  0.00     0.000 HD 
HETATM   37  H1  UNL     1      -9.997  14.438  63.600  1.00  0.00     0.000 HD 
HETATM   38  H2  UNL     1      -9.551  12.848  63.969  1.00  0.00     0.000 HD 
HETATM   39  C   UNL     1      -9.312  16.007  67.267  1.00  0.00    -0.210 C  
HETATM   40  C   UNL     1      -8.106  15.352  67.988  1.00  0.00    -0.140 C  
HETATM   41  N   UNL     1      -9.286  17.480  67.396  1.00  0.00    -0.236 NA 
HETATM   42  H2  UNL     1     -10.035  17.932  66.871  1.00  0.00     0.000 HD 
HETATM   43  H1  UNL     1      -9.304  17.719  68.388  1.00  0.00     0.000 HD 
BRANCH  40  44
HETATM   44  O   UNL     1      -8.217  15.691  69.393  1.00  0.00    -0.240 OA 
BRANCH  44  45
HETATM   45  C   UNL     1      -9.522  15.546  69.959  1.00  0.00     0.102 C  
HETATM   46  O   UNL     1      -9.917  16.715  70.680  1.00  0.00     1.170 OA 
HETATM   47  C   UNL     1     -10.067  17.876  69.851  1.00  0.00     0.725 C  
HETATM   48  C   UNL     1     -11.101  17.648  68.738  1.00  0.00     0.466 C  
HETATM   49  H1  UNL     1     -10.846  13.758  67.334  1.00  0.00     0.000 HD 
HETATM   50  O   UNL     1     -11.223  18.782  67.869  1.00  0.00    -0.172 OA 
HETATM   51  H2  UNL     1     -10.035  13.190  68.689  1.00  0.00     0.000 HD 
HETATM   52  C   UNL     1     -10.712  16.414  67.911  1.00  0.00    -0.332 C  
HETATM   53  H   UNL     1     -11.863  18.641  67.180  1.00  0.00     0.000 HD 
HETATM   54  O   UNL     1     -11.733  16.144  66.935  1.00  0.00     0.443 OA 
HETATM   55  C   UNL     1     -10.542  15.198  68.840  1.00  0.00    -0.242 C  
HETATM   56  N   UNL     1     -10.176  13.986  68.068  1.00  0.00    -0.232 NA 
HETATM   57  H   UNL     1     -11.492  15.381  66.424  1.00  0.00     0.000 HD 
BRANCH  47  58
HETATM   58  C   UNL     1     -10.402  19.081  70.759  1.00  0.00     2.135 C  
HETATM   59  H1  UNL     1      -9.872  19.922  72.618  1.00  0.00     0.000 HD 
HETATM   60  N   UNL     1      -9.651  19.126  72.019  1.00  0.00     4.185 NA 
HETATM   61  H2  UNL     1      -8.648  19.088  71.835  1.00  0.00     0.000 HD 
ENDBRANCH  47  58
ENDBRANCH  44  45
ENDBRANCH  40  44
ENDBRANCH  29  30
ENDBRANCH  22  29
ENDBRANCH  18  19
ENDBRANCH   7  18
ENDBRANCH   2   5
TORSDOF 9
ENDMDL
MODEL      348
REMARK 921   NORMALIZED FREE ENERGY PREDICTED BY IDOCK:   43.15 KCAL/MOL
REMARK 922        TOTAL FREE ENERGY PREDICTED BY IDOCK:   63.03 KCAL/MOL
REMARK 923 INTER-LIGAND FREE ENERGY PREDICTED BY IDOCK:   19.96 KCAL/MOL
REMARK 924 INTRA-LIGAND FREE ENERGY PREDICTED BY IDOCK:   43.08 KCAL/MOL
REMARK 927      BINDING AFFINITY PREDICTED BY RF-SCORE:    0.00 PKD
ROOT
HETATM    1  N   UNL     1      -8.042  10.207  73.207  1.00  0.00     5.093 NA 
HETATM    2  C   UNL     1      -8.951   9.583  72.242  1.00  0.00     2.070 C  
HETATM    3  H1  UNL     1      -7.864   9.668  74.054  1.00  0.00     0.000 HD 
HETATM    4  H2  UNL     1      -8.378  11.138  73.451  1.00  0.00     0.000 HD 
ENDROOT
BRANCH   2   5
HETATM    5  C   UNL     1      -9.223  10.404  70.954  1.00  0.00     2.148 C  
HETATM    6  O   UNL     1      -9.391   9.589  69.765  1.00  0.00    -0.181 OA 
HETATM    7  C   UNL     1      -9.764  10.407  68.643  1.00  0.00    -0.175 C  
HETATM    8  C   UNL     1      -8.625  11.425  68.307  1.00  0.00    -0.156 C  
HETATM    9  O   UNL     1      -6.816  10.629  70.638  1.00  0.00    -0.447 OA 
HETATM   10  H   UNL     1      -6.087  11.227  70.518  1.00  0.00     0.000 HD 
HETATM   11  N   UNL     1      -7.418  10.705  67.782  1.00  0.00    -0.090 NA 
HETATM   12  C   UNL     1      -8.274  12.267  69.532  1.00  0.00     1.228 C  
HETATM   13  H2  UNL     1      -7.645  10.112  66.984  1.00  0.00     0.000 HD 
HETATM   14  O   UNL     1      -9.273  13.257  69.809  1.00  0.00     0.970 OA 
HETATM   15  C   UNL     1      -8.034  11.379  70.760  1.00  0.00     4.612 C  
HETATM   16  H1  UNL     1      -6.675  11.368  67.564  1.00  0.00     0.000 HD 
HETATM   17  H   UNL     1      -9.055  13.781  70.571  1.00  0.00     0.000 HD 
BRANCH   7  18
HETATM   18  O   UNL     1      -9.888   9.693  67.426  1.00  0.00    -0.157 OA 
BRANCH  18  19
HETATM   19  C   UNL     1      -9.391   8.366  67.318  1.00  0.00    -0.146 C  
HETATM   20  O   UNL     1     -11.733   7.687  67.782  1.00  0.00     0.521 OA 
HETATM   21  C   UNL     1      -8.967   8.310  65.845  1.00  0.00    -0.163 C  
HETATM   22  C   UNL     1     -10.424   6.541  66.061  1.00  0.00     0.721 C  
HETATM   23  H   UNL     1     -12.362   6.980  67.863  1.00  0.00     0.000 HD 
HETATM   24  O   UNL     1      -9.967   7.544  65.152  1.00  0.00     1.681 OA 
HETATM   25  C   UNL     1     -10.413   7.217  67.451  1.00  0.00    -0.284 C  
BRANCH  21  26
HETATM   26  C   UNL     1      -7.560   7.749  65.624  1.00  0.00    -0.085 C  
HETATM   27  H   UNL     1      -5.846   7.593  66.618  1.00  0.00     0.000 HD 
HETATM   28  O   UNL     1      -6.719   7.941  66.754  1.00  0.00    -0.060 OA 
ENDBRANCH  21  26
BRANCH  22  29
HETATM   29  O   UNL     1      -9.567   5.393  66.012  1.00  0.00    -0.158 OA 
BRANCH  29  30
HETATM   30  C   UNL     1      -8.119   5.631  65.967  1.00  0.00    -0.109 C  
HETATM   31  C   UNL     1      -7.775   6.717  64.914  1.00  0.00    -0.109 C  
HETATM   32  O   UNL     1      -7.796   8.011  65.555  1.00  0.00    -0.094 OA 
HETATM   33  C   UNL     1      -6.443   6.614  64.153  1.00  0.00    -0.038 C  
HETATM   34  C   UNL     1      -5.916   5.196  64.024  1.00  0.00    -0.021 C  
HETATM   35  N   UNL     1      -6.600   7.181  62.789  1.00  0.00    -0.052 NA 
HETATM   36  H   UNL     1      -7.585   8.676  64.910  1.00  0.00     0.000 HD 
HETATM   37  H1  UNL     1      -5.716   7.113  62.285  1.00  0.00     0.000 HD 
HETATM   38  H2  UNL     1      -6.958   8.136  62.809  1.00  0.00     0.000 HD 
HETATM   39  C   UNL     1      -5.860   4.529  65.397  1.00  0.00    -0.022 C  
HETATM   40  C   UNL     1      -7.297   4.313  65.936  1.00  0.00    -0.080 C  
HETATM   41  N   UNL     1      -5.130   3.249  65.269  1.00  0.00    -0.008 NA 
HETATM   42  H2  UNL     1      -4.206   3.366  64.852  1.00  0.00     0.000 HD 
HETATM   43  H1  UNL     1      -5.092   2.804  66.186  1.00  0.00     0.000 HD 
BRANCH  40  44
HETATM   44  O   UNL     1      -7.171   3.723  67.253  1.00  0.00    -0.062 OA 
BRANCH  44  45
HETATM   45  C   UNL     1      -8.062   2.639  67.530  1.00  0.00    -0.069 C  
HETATM   46  O   UNL     1      -9.102   3.027  68.431  1.00  0.00    -0.126 OA 
HETATM   47  C   UNL     1      -9.984   4.023  67.893  1.00  0.00     0.089 C  
HETATM   48  C   UNL     1     -10.652   3.547  66.594  1.00  0.00     2.077 C  
HETATM   49  H1  UNL     1      -7.980   1.302  64.360  1.00  0.00     0.000 HD 
HETATM   50  O   UNL     1     -11.496   4.552  66.016  1.00  0.00    -0.087 OA 
HETATM   51  H2  UNL     1      -6.964   0.990  65.660  1.00  0.00     0.000 HD 
HETATM   52  C   UNL     1      -9.577   3.140  65.575  1.00  0.00    -0.014 C  
HETATM   53  H   UNL     1     -11.909   4.258  65.212  1.00  0.00     0.000 HD 
HETATM   54  O   UNL     1     -10.205   2.601  64.399  1.00  0.00    -0.352 OA 
HETATM   55  C   UNL     1      -8.643   2.087  66.198  1.00  0.00    -0.112 C  
HETATM   56  N   UNL     1      -7.599   1.665  65.234  1.00  0.00    -0.058 NA 
HETATM   57  H   UNL     1      -9.540   2.348  63.769  1.00  0.00     0.000 HD 
BRANCH  47  58
HETATM   58  C   UNL     1     -10.996   4.419  68.991  1.00  0.00     2.588 C  
HETATM   59  H1  UNL     1     -11.260   5.827  70.539  1.00  0.00     0.000 HD 
HETATM   60  N   UNL     1     -10.591   5.565  69.813  1.00  0.00    -0.321 NA 
HETATM   61  H2  UNL     1     -10.379   6.368  69.221  1.00  0.00     0.000 HD 
ENDBRANCH  47  58
ENDBRANCH  44  45
ENDBRANCH  40  44
ENDBRANCH  29  30
ENDBRANCH  22  29
ENDBRANCH  18  19
ENDBRANCH   7  18
ENDBRANCH   2   5
TORSDOF 9
ENDMDL
MODEL      349
REMARK 921   NORMALIZED FREE ENERGY PREDICTED BY IDOCK:   43.32 KCAL/MOL
REMARK 922        TOTAL FREE ENERGY PREDICTED BY IDOCK:   63.30 KCAL/MOL
REMARK 923 INTER-LIGAND FREE ENERGY PREDICTED BY IDOCK:   -2.98 KCAL/MOL
REMARK 924 INTRA-LIGAND FREE ENERGY PREDICTED BY IDOCK:   66.29 KCAL/MOL
REMARK 927      BINDING AFFINITY PREDICTED BY RF-SCORE:    0.00 PKD
ROOT
HETATM    1  N   UNL     1     -11.784   7.234  68.423  1.00  0.00     0.367 NA 
HETATM    2  C   UNL     1     -10.746   7.451  69.436  1.00  0.00    -0.211 C  
HETATM    3  H1  UNL     1     -12.591   6.693  68.732  1.00  0.00     0.000 HD 
HETATM    4  H2  UNL     1     -11.376   6.808  67.591  1.00  0.00     0.000 HD 
ENDROOT
BRANCH   2   5
HETATM    5  C   UNL     1      -9.518   8.273  68.966  1.00  0.00    -0.155 C  
HETATM    6  O   UNL     1      -9.343   9.524  69.681  1.00  0.00    -0.173 OA 
HETATM    7  C   UNL     1      -8.121  10.166  69.280  1.00  0.00    -0.149 C  
HETATM    8  C   UNL     1      -8.173  10.544  67.764  1.00  0.00    -0.107 C  
HETATM    9  O   UNL     1     -10.908   9.286  67.238  1.00  0.00    -0.346 OA 
HETATM   10  H   UNL     1     -11.015   9.458  66.309  1.00  0.00     0.000 HD 
HETATM   11  N   UNL     1      -9.186  11.625  67.529  1.00  0.00    -0.169 NA 
HETATM   12  C   UNL     1      -8.474   9.313  66.910  1.00  0.00    -0.127 C  
HETATM   13  H2  UNL     1      -9.016  12.441  68.118  1.00  0.00     0.000 HD 
HETATM   14  O   UNL     1      -7.340   8.443  66.802  1.00  0.00    -0.081 OA 
HETATM   15  C   UNL     1      -9.692   8.553  67.452  1.00  0.00    -0.170 C  
HETATM   16  H1  UNL     1      -9.221  11.871  66.540  1.00  0.00     0.000 HD 
HETATM   17  H   UNL     1      -7.527   7.677  66.271  1.00  0.00     0.000 HD 
BRANCH   7  18
HETATM   18  O   UNL     1      -7.906  11.427  69.890  1.00  0.00     0.509 OA 
BRANCH  18  19
HETATM   19  C   UNL     1      -8.622  12.571  69.445  1.00  0.00     1.222 C  
HETATM   20  O   UNL     1      -7.312  12.307  67.354  1.00  0.00    -0.131 OA 
HETATM   21  C   UNL     1     -10.060  12.039  69.394  1.00  0.00     0.538 C  
HETATM   22  C   UNL     1      -9.698  12.838  67.267  1.00  0.00    -0.206 C  
HETATM   23  H   UNL     1      -7.148  12.604  66.466  1.00  0.00     0.000 HD 
HETATM   24  O   UNL     1     -10.376  11.823  68.009  1.00  0.00    -0.187 OA 
HETATM   25  C   UNL     1      -8.357  13.054  68.003  1.00  0.00    -0.169 C  
BRANCH  21  26
HETATM   26  C   UNL     1     -11.083  12.947  70.081  1.00  0.00     0.657 C  
HETATM   27  H   UNL     1     -12.617  14.107  69.581  1.00  0.00     0.000 HD 
HETATM   28  O   UNL     1     -11.982  13.544  69.156  1.00  0.00    -0.322 OA 
ENDBRANCH  21  26
BRANCH  22  29
HETATM   29  O   UNL     1     -10.487  14.033  67.218  1.00  0.00    -0.265 OA 
BRANCH  29  30
HETATM   30  C   UNL     1      -9.865  15.273  67.699  1.00  0.00    -0.217 C  
HETATM   31  C   UNL     1     -10.301  15.575  69.157  1.00  0.00    -0.237 C  
HETATM   32  O   UNL     1      -9.363  14.954  70.062  1.00  0.00    -0.432 OA 
HETATM   33  C   UNL     1     -10.447  17.041  69.597  1.00  0.00    -0.099 C  
HETATM   34  C   UNL     1     -10.776  17.995  68.463  1.00  0.00    -0.050 C  
HETATM   35  N   UNL     1     -11.513  17.152  70.626  1.00  0.00     0.347 NA 
HETATM   36  H   UNL     1      -9.630  15.139  70.955  1.00  0.00     0.000 HD 
HETATM   37  H1  UNL     1     -11.609  18.124  70.918  1.00  0.00     0.000 HD 
HETATM   38  H2  UNL     1     -11.350  16.528  71.416  1.00  0.00     0.000 HD 
HETATM   39  C   UNL     1      -9.773  17.822  67.323  1.00  0.00    -0.285 C  
HETATM   40  C   UNL     1      -9.959  16.430  66.666  1.00  0.00    -0.272 C  
HETATM   41  N   UNL     1      -9.978  18.914  66.347  1.00  0.00    -0.372 NA 
HETATM   42  H2  UNL     1      -9.926  19.838  66.777  1.00  0.00     0.000 HD 
HETATM   43  H1  UNL     1      -9.308  18.798  65.586  1.00  0.00     0.000 HD 
BRANCH  40  44
HETATM   44  O   UNL     1      -8.953  16.313  65.630  1.00  0.00    -0.403 OA 
BRANCH  44  45
HETATM   45  C   UNL     1      -7.597  16.351  66.082  1.00  0.00     0.148 C  
HETATM   46  O   UNL     1      -7.126  17.694  66.227  1.00  0.00    -0.245 OA 
HETATM   47  C   UNL     1      -7.814  18.434  67.246  1.00  0.00    -0.230 C  
HETATM   48  C   UNL     1      -7.698  17.754  68.618  1.00  0.00    -0.283 C  
HETATM   49  H1  UNL     1      -7.850  13.636  68.181  1.00  0.00     0.000 HD 
HETATM   50  O   UNL     1      -8.424  18.455  69.637  1.00  0.00     0.524 OA 
HETATM   51  H2  UNL     1      -7.461  13.670  66.548  1.00  0.00     0.000 HD 
HETATM   52  C   UNL     1      -8.215  16.310  68.528  1.00  0.00    -0.195 C  
HETATM   53  H   UNL     1      -8.353  18.034  70.486  1.00  0.00     0.000 HD 
HETATM   54  O   UNL     1      -8.012  15.644  69.787  1.00  0.00    -0.162 OA 
HETATM   55  C   UNL     1      -7.466  15.558  67.413  1.00  0.00    -0.204 C  
HETATM   56  N   UNL     1      -7.937  14.156  67.308  1.00  0.00    -0.177 NA 
HETATM   57  H   UNL     1      -8.332  14.752  69.731  1.00  0.00     0.000 HD 
BRANCH  47  58
HETATM   58  C   UNL     1      -7.280  19.884  67.236  1.00  0.00    -0.238 C  
HETATM   59  H1  UNL     1      -5.701  21.049  68.009  1.00  0.00     0.000 HD 
HETATM   60  N   UNL     1      -6.054  20.091  68.015  1.00  0.00    -0.226 NA 
HETATM   61  H2  UNL     1      -5.327  19.443  67.710  1.00  0.00     0.000 HD 
ENDBRANCH  47  58
ENDBRANCH  44  45
ENDBRANCH  40  44
ENDBRANCH  29  30
ENDBRANCH  22  29
ENDBRANCH  18  19
ENDBRANCH   7  18
ENDBRANCH   2   5
TORSDOF 9
ENDMDL
MODEL      350
REMARK 921   NORMALIZED FREE ENERGY PREDICTED BY IDOCK:   45.01 KCAL/MOL
REMARK 922        TOTAL FREE ENERGY PREDICTED BY IDOCK:   65.88 KCAL/MOL
REMARK 923 INTER-LIGAND FREE ENERGY PREDICTED BY IDOCK:    6.01 KCAL/MOL
REMARK 924 INTRA-LIGAND FREE ENERGY PREDICTED BY IDOCK:   59.87 KCAL/MOL
REMARK 927      BINDING AFFINITY PREDICTED BY RF-SCORE:    0.00 PKD
ROOT
HETATM    1  N   UNL     1     -11.785   7.250  68.431  1.00  0.00     0.367 NA 
HETATM    2  C   UNL     1     -10.791   7.441  69.491  1.00  0.00    -0.189 C  
HETATM    3  H1  UNL     1     -12.623   6.736  68.704  1.00  0.00     0.000 HD 
HETATM    4  H2  UNL     1     -11.352   6.806  67.622  1.00  0.00     0.000 HD 
ENDROOT
BRANCH   2   5
HETATM    5  C   UNL     1      -9.516   8.221  69.076  1.00  0.00    -0.155 C  
HETATM    6  O   UNL     1      -9.345   9.479  69.780  1.00  0.00    -0.181 OA 
HETATM    7  C   UNL     1      -8.084  10.080  69.436  1.00  0.00    -0.149 C  
HETATM    8  C   UNL     1      -8.043  10.432  67.913  1.00  0.00    -0.102 C  
HETATM    9  O   UNL     1     -10.780   9.241  67.258  1.00  0.00    -0.281 OA 
HETATM   10  H   UNL     1     -10.831   9.399  66.322  1.00  0.00     0.000 HD 
HETATM   11  N   UNL     1      -9.011  11.537  67.606  1.00  0.00    -0.156 NA 
HETATM   12  C   UNL     1      -8.332   9.195  67.064  1.00  0.00    -0.120 C  
HETATM   13  H2  UNL     1      -8.850  12.358  68.189  1.00  0.00     0.000 HD 
HETATM   14  O   UNL     1      -7.219   8.292  67.033  1.00  0.00    -0.081 OA 
HETATM   15  C   UNL     1      -9.599   8.479  67.550  1.00  0.00    -0.154 C  
HETATM   16  H1  UNL     1      -8.985  11.766  66.612  1.00  0.00     0.000 HD 
HETATM   17  H   UNL     1      -7.399   7.523  66.505  1.00  0.00     0.000 HD 
BRANCH   7  18
HETATM   18  O   UNL     1      -7.867  11.345  70.036  1.00  0.00     0.635 OA 
BRANCH  18  19
HETATM   19  C   UNL     1      -8.456  12.514  69.481  1.00  0.00     1.501 C  
HETATM   20  O   UNL     1      -6.998  12.053  67.526  1.00  0.00    -0.106 OA 
HETATM   21  C   UNL     1      -9.920  12.084  69.328  1.00  0.00     0.425 C  
HETATM   22  C   UNL     1      -9.323  12.747  67.207  1.00  0.00    -0.200 C  
HETATM   23  H   UNL     1      -6.739  12.292  66.644  1.00  0.00     0.000 HD 
HETATM   24  O   UNL     1     -10.135  11.821  67.931  1.00  0.00    -0.178 OA 
HETATM   25  C   UNL     1      -8.035  12.904  68.048  1.00  0.00    -0.158 C  
BRANCH  21  26
HETATM   26  C   UNL     1     -10.926  13.095  69.883  1.00  0.00     0.422 C  
HETATM   27  H   UNL     1     -12.309  14.349  69.200  1.00  0.00     0.000 HD 
HETATM   28  O   UNL     1     -11.684  13.721  68.856  1.00  0.00    -0.290 OA 
ENDBRANCH  21  26
BRANCH  22  29
HETATM   29  O   UNL     1     -10.012  13.992  67.038  1.00  0.00    -0.248 OA 
BRANCH  29  30
HETATM   30  C   UNL     1      -9.363  15.201  67.561  1.00  0.00    -0.198 C  
HETATM   31  C   UNL     1      -7.850  15.200  67.222  1.00  0.00    -0.211 C  
HETATM   32  O   UNL     1      -7.657  15.854  65.949  1.00  0.00     0.320 OA 
HETATM   33  C   UNL     1      -6.869  15.849  68.213  1.00  0.00    -0.117 C  
HETATM   34  C   UNL     1      -7.354  15.844  69.651  1.00  0.00    -0.082 C  
HETATM   35  N   UNL     1      -5.562  15.145  68.157  1.00  0.00    -0.117 NA 
HETATM   36  H   UNL     1      -6.730  15.854  65.741  1.00  0.00     0.000 HD 
HETATM   37  H1  UNL     1      -4.912  15.576  68.814  1.00  0.00     0.000 HD 
HETATM   38  H2  UNL     1      -5.184  15.111  67.210  1.00  0.00     0.000 HD 
HETATM   39  C   UNL     1      -8.756  16.445  69.735  1.00  0.00     0.626 C  
HETATM   40  C   UNL     1      -9.772  15.512  69.027  1.00  0.00    -0.237 C  
HETATM   41  N   UNL     1      -9.100  16.640  71.161  1.00  0.00     5.022 NA 
HETATM   42  H2  UNL     1      -8.404  17.196  71.658  1.00  0.00     0.000 HD 
HETATM   43  H1  UNL     1     -10.036  17.042  71.216  1.00  0.00     0.000 HD 
BRANCH  40  44
HETATM   44  O   UNL     1     -11.066  16.160  69.102  1.00  0.00    -0.288 OA 
BRANCH  44  45
HETATM   45  C   UNL     1     -11.211  17.337  68.304  1.00  0.00     0.098 C  
HETATM   46  O   UNL     1     -10.638  18.482  68.941  1.00  0.00    -0.073 OA 
HETATM   47  C   UNL     1      -9.216  18.393  69.106  1.00  0.00     0.036 C  
HETATM   48  C   UNL     1      -8.500  18.207  67.760  1.00  0.00    -0.248 C  
HETATM   49  H1  UNL     1     -10.747  15.767  65.277  1.00  0.00     0.000 HD 
HETATM   50  O   UNL     1      -7.081  18.065  67.913  1.00  0.00    -0.208 OA 
HETATM   51  H2  UNL     1     -12.172  15.996  66.135  1.00  0.00     0.000 HD 
HETATM   52  C   UNL     1      -9.059  16.972  67.039  1.00  0.00    -0.221 C  
HETATM   53  H   UNL     1      -6.638  17.950  67.080  1.00  0.00     0.000 HD 
HETATM   54  O   UNL     1      -8.459  16.859  65.737  1.00  0.00    -0.492 OA 
HETATM   55  C   UNL     1     -10.587  17.098  66.901  1.00  0.00    -0.209 C  
HETATM   56  N   UNL     1     -11.156  15.924  66.198  1.00  0.00    -0.113 NA 
HETATM   57  H   UNL     1      -8.805  16.095  65.291  1.00  0.00     0.000 HD 
BRANCH  47  58
HETATM   58  C   UNL     1      -8.739  19.640  69.885  1.00  0.00     0.859 C  
HETATM   59  H1  UNL     1      -8.183  21.649  69.570  1.00  0.00     0.000 HD 
HETATM   60  N   UNL     1      -8.498  20.826  69.055  1.00  0.00     1.258 NA 
HETATM   61  H2  UNL     1      -9.328  21.048  68.505  1.00  0.00     0.000 HD 
ENDBRANCH  47  58
ENDBRANCH  44  45
ENDBRANCH  40  44
ENDBRANCH  29  30
ENDBRANCH  22  29
ENDBRANCH  18  19
ENDBRANCH   7  18
ENDBRANCH   2   5
TORSDOF 9
ENDMDL
MODEL      351
REMARK 921   NORMALIZED FREE ENERGY PREDICTED BY IDOCK:   46.15 KCAL/MOL
REMARK 922        TOTAL FREE ENERGY PREDICTED BY IDOCK:   67.61 KCAL/MOL
REMARK 923 INTER-LIGAND FREE ENERGY PREDICTED BY IDOCK:   -1.93 KCAL/MOL
REMARK 924 INTRA-LIGAND FREE ENERGY PREDICTED BY IDOCK:   69.54 KCAL/MOL
REMARK 927      BINDING AFFINITY PREDICTED BY RF-SCORE:    0.00 PKD
ROOT
HETATM    1  N   UNL     1     -12.098  14.035  64.919  1.00  0.00    -0.398 NA 
HETATM    2  C   UNL     1     -10.665  13.914  65.204  1.00  0.00    -0.362 C  
HETATM    3  H1  UNL     1     -12.332  14.376  63.988  1.00  0.00     0.000 HD 
HETATM    4  H2  UNL     1     -12.547  14.616  65.627  1.00  0.00     0.000 HD 
ENDROOT
BRANCH   2   5
HETATM    5  C   UNL     1     -10.309  13.395  66.622  1.00  0.00    -0.269 C  
HETATM    6  O   UNL     1     -10.853  12.083  66.919  1.00  0.00    -0.238 OA 
HETATM    7  C   UNL     1     -10.378  11.617  68.194  1.00  0.00    -0.194 C  
HETATM    8  C   UNL     1     -10.877  12.557  69.339  1.00  0.00     0.096 C  
HETATM    9  O   UNL     1     -12.262  14.564  67.497  1.00  0.00    -0.598 OA 
HETATM   10  H   UNL     1     -12.588  15.198  68.126  1.00  0.00     0.000 HD 
HETATM   11  N   UNL     1     -12.365  12.442  69.499  1.00  0.00    -0.044 NA 
HETATM   12  C   UNL     1     -10.463  14.003  69.072  1.00  0.00    -0.156 C  
HETATM   13  H2  UNL     1     -12.658  11.476  69.645  1.00  0.00     0.000 HD 
HETATM   14  O   UNL     1      -9.065  14.215  69.312  1.00  0.00    -0.376 OA 
HETATM   15  C   UNL     1     -10.840  14.429  67.647  1.00  0.00    -0.273 C  
HETATM   16  H1  UNL     1     -12.691  13.055  70.246  1.00  0.00     0.000 HD 
HETATM   17  H   UNL     1      -8.808  15.115  69.146  1.00  0.00     0.000 HD 
BRANCH   7  18
HETATM   18  O   UNL     1     -10.913  10.366  68.586  1.00  0.00    -0.215 OA 
BRANCH  18  19
HETATM   19  C   UNL     1     -10.243   9.159  68.246  1.00  0.00    -0.206 C  
HETATM   20  O   UNL     1      -8.228  10.594  68.045  1.00  0.00    -0.110 OA 
HETATM   21  C   UNL     1     -10.357   8.361  69.550  1.00  0.00    -0.219 C  
HETATM   22  C   UNL     1      -8.094   8.408  69.136  1.00  0.00    -0.119 C  
HETATM   23  H   UNL     1      -7.291  10.645  67.892  1.00  0.00     0.000 HD 
HETATM   24  O   UNL     1      -9.066   8.406  70.182  1.00  0.00    -0.146 OA 
HETATM   25  C   UNL     1      -8.722   9.243  67.997  1.00  0.00    -0.125 C  
BRANCH  21  26
HETATM   26  C   UNL     1     -10.851   6.925  69.359  1.00  0.00    -0.249 C  
HETATM   27  H   UNL     1     -12.564   5.919  69.416  1.00  0.00     0.000 HD 
HETATM   28  O   UNL     1     -12.257   6.810  69.535  1.00  0.00     0.204 OA 
ENDBRANCH  21  26
BRANCH  22  29
HETATM   29  O   UNL     1      -7.800   7.067  68.724  1.00  0.00    -0.114 OA 
BRANCH  29  30
HETATM   30  C   UNL     1      -8.918   6.117  68.666  1.00  0.00    -0.126 C  
HETATM   31  C   UNL     1      -9.867   6.459  67.488  1.00  0.00    -0.123 C  
HETATM   32  O   UNL     1      -9.425   5.746  66.312  1.00  0.00    -0.157 OA 
HETATM   33  C   UNL     1     -11.371   6.178  67.643  1.00  0.00     0.226 C  
HETATM   34  C   UNL     1     -11.857   6.210  69.081  1.00  0.00     0.818 C  
HETATM   35  N   UNL     1     -12.150   7.175  66.864  1.00  0.00     1.694 NA 
HETATM   36  H   UNL     1     -10.006   5.956  65.590  1.00  0.00     0.000 HD 
HETATM   37  H1  UNL     1     -13.147   6.989  66.967  1.00  0.00     0.000 HD 
HETATM   38  H2  UNL     1     -11.864   7.205  65.885  1.00  0.00     0.000 HD 
HETATM   39  C   UNL     1     -10.997   5.291  69.947  1.00  0.00     0.241 C  
HETATM   40  C   UNL     1      -9.562   5.866  70.058  1.00  0.00    -0.163 C  
HETATM   41  N   UNL     1     -11.635   5.165  71.276  1.00  0.00     0.781 NA 
HETATM   42  H2  UNL     1     -12.605   4.852  71.216  1.00  0.00     0.000 HD 
HETATM   43  H1  UNL     1     -11.061   4.551  71.853  1.00  0.00     0.000 HD 
BRANCH  40  44
HETATM   44  O   UNL     1      -8.790   4.928  70.849  1.00  0.00    -0.122 OA 
BRANCH  44  45
HETATM   45  C   UNL     1      -8.220   3.835  70.124  1.00  0.00    -0.056 C  
HETATM   46  O   UNL     1      -8.914   3.595  68.898  1.00  0.00    -0.102 OA 
HETATM   47  C   UNL     1      -8.812   4.676  67.960  1.00  0.00    -0.106 C  
HETATM   48  C   UNL     1      -7.349   4.985  67.609  1.00  0.00    -0.078 C  
HETATM   49  H1  UNL     1      -4.954   4.527  70.960  1.00  0.00     0.000 HD 
HETATM   50  O   UNL     1      -7.227   6.098  66.713  1.00  0.00    -0.071 OA 
HETATM   51  H2  UNL     1      -6.074   3.587  71.785  1.00  0.00     0.000 HD 
HETATM   52  C   UNL     1      -6.556   5.278  68.892  1.00  0.00    -0.051 C  
HETATM   53  H   UNL     1      -6.322   6.289  66.496  1.00  0.00     0.000 HD 
HETATM   54  O   UNL     1      -5.167   5.467  68.570  1.00  0.00    -0.003 OA 
HETATM   55  C   UNL     1      -6.709   4.104  69.877  1.00  0.00    -0.034 C  
HETATM   56  N   UNL     1      -5.946   4.352  71.123  1.00  0.00    -0.016 NA 
HETATM   57  H   UNL     1      -4.677   5.647  69.364  1.00  0.00     0.000 HD 
BRANCH  47  58
HETATM   58  C   UNL     1      -9.677   4.333  66.726  1.00  0.00    -0.219 C  
HETATM   59  H1  UNL     1      -9.642   3.141  64.988  1.00  0.00     0.000 HD 
HETATM   60  N   UNL     1      -9.071   3.367  65.803  1.00  0.00    -0.147 NA 
HETATM   61  H2  UNL     1      -8.811   2.515  66.301  1.00  0.00     0.000 HD 
ENDBRANCH  47  58
ENDBRANCH  44  45
ENDBRANCH  40  44
ENDBRANCH  29  30
ENDBRANCH  22  29
ENDBRANCH  18  19
ENDBRANCH   7  18
ENDBRANCH   2   5
TORSDOF 9
ENDMDL
MODEL      352
REMARK 921   NORMALIZED FREE ENERGY PREDICTED BY IDOCK:   49.16 KCAL/MOL
REMARK 922        TOTAL FREE ENERGY PREDICTED BY IDOCK:   72.22 KCAL/MOL
REMARK 923 INTER-LIGAND FREE ENERGY PREDICTED BY IDOCK:    0.41 KCAL/MOL
REMARK 924 INTRA-LIGAND FREE ENERGY PREDICTED BY IDOCK:   71.81 KCAL/MOL
REMARK 927      BINDING AFFINITY PREDICTED BY RF-SCORE:    0.00 PKD
ROOT
HETATM    1  N   UNL     1      -8.009   5.495  69.205  1.00  0.00    -0.094 NA 
HETATM    2  C   UNL     1      -8.104   6.787  68.520  1.00  0.00    -0.120 C  
HETATM    3  H1  UNL     1      -8.383   5.473  70.153  1.00  0.00     0.000 HD 
HETATM    4  H2  UNL     1      -7.043   5.169  69.203  1.00  0.00     0.000 HD 
ENDROOT
BRANCH   2   5
HETATM    5  C   UNL     1      -7.534   6.820  67.077  1.00  0.00    -0.087 C  
HETATM    6  O   UNL     1      -7.533   8.143  66.479  1.00  0.00    -0.085 OA 
HETATM    7  C   UNL     1      -6.878   8.116  65.199  1.00  0.00    -0.058 C  
HETATM    8  C   UNL     1      -7.659   7.196  64.205  1.00  0.00    -0.109 C  
HETATM    9  O   UNL     1      -9.755   6.279  66.231  1.00  0.00    -0.300 OA 
HETATM   10  H   UNL     1     -10.276   5.685  65.702  1.00  0.00     0.000 HD 
HETATM   11  N   UNL     1      -8.988   7.804  63.864  1.00  0.00     0.299 NA 
HETATM   12  C   UNL     1      -7.830   5.793  64.786  1.00  0.00    -0.114 C  
HETATM   13  H2  UNL     1      -8.890   8.755  63.506  1.00  0.00     0.000 HD 
HETATM   14  O   UNL     1      -6.609   5.043  64.746  1.00  0.00    -0.038 OA 
HETATM   15  C   UNL     1      -8.384   5.853  66.215  1.00  0.00    -0.117 C  
HETATM   16  H1  UNL     1      -9.497   7.205  63.215  1.00  0.00     0.000 HD 
HETATM   17  H   UNL     1      -6.714   4.170  65.107  1.00  0.00     0.000 HD 
BRANCH   7  18
HETATM   18  O   UNL     1      -6.889   9.359  64.520  1.00  0.00    -0.087 OA 
BRANCH  18  19
HETATM   19  C   UNL     1      -7.236  10.552  65.211  1.00  0.00    -0.051 C  
HETATM   20  O   UNL     1      -9.469  10.242  64.172  1.00  0.00    -0.260 OA 
HETATM   21  C   UNL     1      -7.123  10.109  66.675  1.00  0.00    -0.101 C  
HETATM   22  C   UNL     1      -9.271  10.919  66.515  1.00  0.00    -0.171 C  
HETATM   23  H   UNL     1     -10.367  10.543  64.095  1.00  0.00     0.000 HD 
HETATM   24  O   UNL     1      -8.463   9.935  67.164  1.00  0.00    -0.121 OA 
HETATM   25  C   UNL     1      -8.695  11.041  65.086  1.00  0.00    -0.061 C  
BRANCH  21  26
HETATM   26  C   UNL     1      -6.312  11.067  67.552  1.00  0.00    -0.062 C  
HETATM   27  H   UNL     1      -4.702  11.018  68.717  1.00  0.00     0.000 HD 
HETATM   28  O   UNL     1      -5.206  10.424  68.172  1.00  0.00    -0.035 OA 
ENDBRANCH  21  26
BRANCH  22  29
HETATM   29  O   UNL     1      -9.215  12.161  67.228  1.00  0.00    -0.175 OA 
BRANCH  29  30
HETATM   30  C   UNL     1      -9.817  12.200  68.566  1.00  0.00    -0.162 C  
HETATM   31  C   UNL     1      -9.202  11.105  69.476  1.00  0.00     0.488 C  
HETATM   32  O   UNL     1      -8.057  11.658  70.162  1.00  0.00     0.851 OA 
HETATM   33  C   UNL     1     -10.090  10.445  70.544  1.00  0.00     0.500 C  
HETATM   34  C   UNL     1     -11.568  10.444  70.201  1.00  0.00    -0.392 C  
HETATM   35  N   UNL     1      -9.657   9.039  70.756  1.00  0.00    -0.227 NA 
HETATM   36  H   UNL     1      -7.681  10.987  70.719  1.00  0.00     0.000 HD 
HETATM   37  H1  UNL     1     -10.246   8.602  71.465  1.00  0.00     0.000 HD 
HETATM   38  H2  UNL     1      -8.666   8.973  70.986  1.00  0.00     0.000 HD 
HETATM   39  C   UNL     1     -12.027  11.858  69.850  1.00  0.00    -0.325 C  
HETATM   40  C   UNL     1     -11.367  12.311  68.522  1.00  0.00    -0.286 C  
HETATM   41  N   UNL     1     -13.503  11.863  69.751  1.00  0.00     1.957 NA 
HETATM   42  H2  UNL     1     -13.952  11.504  70.593  1.00  0.00     0.000 HD 
HETATM   43  H1  UNL     1     -13.808  12.808  69.517  1.00  0.00     0.000 HD 
BRANCH  40  44
HETATM   44  O   UNL     1     -11.805  13.669  68.272  1.00  0.00    -0.338 OA 
BRANCH  44  45
HETATM   45  C   UNL     1     -10.763  14.611  67.999  1.00  0.00    -0.246 C  
HETATM   46  O   UNL     1      -9.675  14.475  68.916  1.00  0.00    -0.213 OA 
HETATM   47  C   UNL     1      -8.991  13.218  68.811  1.00  0.00     0.145 C  
HETATM   48  C   UNL     1      -8.435  12.991  67.397  1.00  0.00    -0.200 C  
HETATM   49  H1  UNL     1     -11.072  14.490  64.574  1.00  0.00     0.000 HD 
HETATM   50  O   UNL     1      -7.794  11.715  67.262  1.00  0.00    -0.140 OA 
HETATM   51  H2  UNL     1     -11.877  15.476  65.668  1.00  0.00     0.000 HD 
HETATM   52  C   UNL     1      -9.570  13.100  66.368  1.00  0.00    -0.255 C  
HETATM   53  H   UNL     1      -7.450  11.575  66.388  1.00  0.00     0.000 HD 
HETATM   54  O   UNL     1      -9.031  12.988  65.039  1.00  0.00     0.375 OA 
HETATM   55  C   UNL     1     -10.288  14.453  66.528  1.00  0.00    -0.281 C  
HETATM   56  N   UNL     1     -11.384  14.593  65.539  1.00  0.00    -0.335 NA 
HETATM   57  H   UNL     1      -9.733  13.056  64.403  1.00  0.00     0.000 HD 
BRANCH  47  58
HETATM   58  C   UNL     1      -7.906  13.162  69.910  1.00  0.00     1.786 C  
HETATM   59  H1  UNL     1      -6.191  12.066  70.458  1.00  0.00     0.000 HD 
HETATM   60  N   UNL     1      -6.907  12.103  69.732  1.00  0.00    -0.343 NA 
HETATM   61  H2  UNL     1      -6.474  12.176  68.811  1.00  0.00     0.000 HD 
ENDBRANCH  47  58
ENDBRANCH  44  45
ENDBRANCH  40  44
ENDBRANCH  29  30
ENDBRANCH  22  29
ENDBRANCH  18  19
ENDBRANCH   7  18
ENDBRANCH   2   5
TORSDOF 9
ENDMDL
MODEL      353
REMARK 921   NORMALIZED FREE ENERGY PREDICTED BY IDOCK:   50.44 KCAL/MOL
REMARK 922        TOTAL FREE ENERGY PREDICTED BY IDOCK:   74.17 KCAL/MOL
REMARK 923 INTER-LIGAND FREE ENERGY PREDICTED BY IDOCK:   71.48 KCAL/MOL
REMARK 924 INTRA-LIGAND FREE ENERGY PREDICTED BY IDOCK:    2.69 KCAL/MOL
REMARK 927      BINDING AFFINITY PREDICTED BY RF-SCORE:    0.00 PKD
ROOT
HETATM    1  N   UNL     1      -6.794  19.525  64.021  1.00  0.00     0.501 NA 
HETATM    2  C   UNL     1      -7.904  18.811  63.383  1.00  0.00    11.875 C  
HETATM    3  H1  UNL     1      -6.331  20.223  63.439  1.00  0.00     0.000 HD 
HETATM    4  H2  UNL     1      -6.110  18.859  64.378  1.00  0.00     0.000 HD 
ENDROOT
BRANCH   2   5
HETATM    5  C   UNL     1      -8.609  17.749  64.267  1.00  0.00     9.345 C  
HETATM    6  O   UNL     1      -8.187  17.771  65.656  1.00  0.00    -0.490 OA 
HETATM    7  C   UNL     1      -8.971  16.850  66.434  1.00  0.00    -0.283 C  
HETATM    8  C   UNL     1      -8.743  15.384  65.940  1.00  0.00     0.293 C  
HETATM    9  O   UNL     1      -6.900  16.135  63.620  1.00  0.00    13.192 OA 
HETATM   10  H   UNL     1      -6.721  15.281  63.242  1.00  0.00     0.000 HD 
HETATM   11  N   UNL     1      -7.342  14.940  66.247  1.00  0.00     0.783 NA 
HETATM   12  C   UNL     1      -9.042  15.264  64.446  1.00  0.00     5.416 C  
HETATM   13  H2  UNL     1      -7.118  15.047  67.236  1.00  0.00     0.000 HD 
HETATM   14  O   UNL     1     -10.450  15.289  64.176  1.00  0.00    -0.241 OA 
HETATM   15  C   UNL     1      -8.318  16.357  63.651  1.00  0.00    17.304 C  
HETATM   16  H1  UNL     1      -7.193  13.985  65.924  1.00  0.00     0.000 HD 
HETATM   17  H   UNL     1     -10.637  15.214  63.248  1.00  0.00     0.000 HD 
BRANCH   7  18
HETATM   18  O   UNL     1      -8.579  16.765  67.793  1.00  0.00    -0.194 OA 
BRANCH  18  19
HETATM   19  C   UNL     1      -9.501  16.323  68.780  1.00  0.00    -0.237 C  
HETATM   20  O   UNL     1      -9.543  14.210  67.480  1.00  0.00    -0.215 OA 
HETATM   21  C   UNL     1      -8.626  16.306  70.039  1.00  0.00     1.107 C  
HETATM   22  C   UNL     1      -9.459  14.164  69.924  1.00  0.00     1.246 C  
HETATM   23  H   UNL     1      -9.858  13.316  67.411  1.00  0.00     0.000 HD 
HETATM   24  O   UNL     1      -8.318  14.930  70.315  1.00  0.00     0.436 OA 
HETATM   25  C   UNL     1     -10.014  14.872  68.668  1.00  0.00    -0.224 C  
BRANCH  21  26
HETATM   26  C   UNL     1      -9.259  17.004  71.246  1.00  0.00     6.897 C  
HETATM   27  H   UNL     1     -11.031  17.720  71.792  1.00  0.00     0.000 HD 
HETATM   28  O   UNL     1     -10.638  17.287  71.044  1.00  0.00     1.078 OA 
ENDBRANCH  21  26
BRANCH  22  29
HETATM   29  O   UNL     1     -10.419  14.120  70.988  1.00  0.00     1.540 OA 
BRANCH  29  30
HETATM   30  C   UNL     1     -11.766  13.638  70.662  1.00  0.00    -0.024 C  
HETATM   31  C   UNL     1     -12.767  14.002  71.790  1.00  0.00    -0.319 C  
HETATM   32  O   UNL     1     -13.344  15.294  71.501  1.00  0.00    -0.400 OA 
HETATM   33  C   UNL     1     -13.933  13.044  72.082  1.00  0.00    -0.243 C  
HETATM   34  C   UNL     1     -13.648  11.598  71.719  1.00  0.00     0.010 C  
HETATM   35  N   UNL     1     -14.281  13.104  73.525  1.00  0.00     2.207 NA 
HETATM   36  H   UNL     1     -13.957  15.516  72.192  1.00  0.00     0.000 HD 
HETATM   37  H1  UNL     1     -15.055  12.469  73.719  1.00  0.00     0.000 HD 
HETATM   38  H2  UNL     1     -14.480  14.056  73.833  1.00  0.00     0.000 HD 
HETATM   39  C   UNL     1     -13.162  11.505  70.274  1.00  0.00     0.708 C  
HETATM   40  C   UNL     1     -11.768  12.172  70.144  1.00  0.00    -0.218 C  
HETATM   41  N   UNL     1     -13.119  10.079  69.883  1.00  0.00    -0.246 NA 
HETATM   42  H2  UNL     1     -14.012   9.607  70.026  1.00  0.00     0.000 HD 
HETATM   43  H1  UNL     1     -12.794  10.018  68.918  1.00  0.00     0.000 HD 
BRANCH  40  44
HETATM   44  O   UNL     1     -11.389  12.092  68.748  1.00  0.00    -0.232 OA 
BRANCH  44  45
HETATM   45  C   UNL     1     -12.272  11.339  67.913  1.00  0.00     0.538 C  
HETATM   46  O   UNL     1     -12.951  12.176  66.973  1.00  0.00     1.785 OA 
HETATM   47  C   UNL     1     -12.074  12.794  66.019  1.00  0.00    -0.395 C  
HETATM   48  C   UNL     1     -11.280  11.750  65.220  1.00  0.00    -0.254 C  
HETATM   49  H1  UNL     1     -10.246   8.569  67.665  1.00  0.00     0.000 HD 
HETATM   50  O   UNL     1     -10.361  12.354  64.299  1.00  0.00    -0.325 OA 
HETATM   51  H2  UNL     1     -11.408   8.922  68.825  1.00  0.00     0.000 HD 
HETATM   52  C   UNL     1     -10.508  10.835  66.181  1.00  0.00    -0.214 C  
HETATM   53  H   UNL     1      -9.870  11.708  63.804  1.00  0.00     0.000 HD 
HETATM   54  O   UNL     1      -9.847   9.797  65.436  1.00  0.00    -0.306 OA 
HETATM   55  C   UNL     1     -11.481  10.209  67.197  1.00  0.00     0.707 C  
HETATM   56  N   UNL     1     -10.765   9.310  68.134  1.00  0.00    -0.190 NA 
HETATM   57  H   UNL     1      -9.370   9.231  66.031  1.00  0.00     0.000 HD 
BRANCH  47  58
HETATM   58  C   UNL     1     -12.913  13.737  65.128  1.00  0.00    -0.229 C  
HETATM   59  H1  UNL     1     -12.957  15.733  64.450  1.00  0.00     0.000 HD 
HETATM   60  N   UNL     1     -12.402  15.110  65.038  1.00  0.00    -0.004 NA 
HETATM   61  H2  UNL     1     -11.429  15.106  64.732  1.00  0.00     0.000 HD 
ENDBRANCH  47  58
ENDBRANCH  44  45
ENDBRANCH  40  44
ENDBRANCH  29  30
ENDBRANCH  22  29
ENDBRANCH  18  19
ENDBRANCH   7  18
ENDBRANCH   2   5
TORSDOF 9
ENDMDL
MODEL      354
REMARK 921   NORMALIZED FREE ENERGY PREDICTED BY IDOCK:   57.25 KCAL/MOL
REMARK 922        TOTAL FREE ENERGY PREDICTED BY IDOCK:   84.56 KCAL/MOL
REMARK 923 INTER-LIGAND FREE ENERGY PREDICTED BY IDOCK:   45.16 KCAL/MOL
REMARK 924 INTRA-LIGAND FREE ENERGY PREDICTED BY IDOCK:   39.40 KCAL/MOL
REMARK 927      BINDING AFFINITY PREDICTED BY RF-SCORE:    0.00 PKD
ROOT
HETATM    1  N   UNL     1     -12.417   7.977  63.371  1.00  0.00    22.383 NA 
HETATM    2  C   UNL     1     -11.152   7.453  63.893  1.00  0.00    16.478 C  
HETATM    3  H1  UNL     1     -12.969   7.320  62.820  1.00  0.00     0.000 HD 
HETATM    4  H2  UNL     1     -12.248   8.827  62.834  1.00  0.00     0.000 HD 
ENDROOT
BRANCH   2   5
HETATM    5  C   UNL     1     -10.312   8.453  64.730  1.00  0.00     4.453 C  
HETATM    6  O   UNL     1     -11.108   9.305  65.594  1.00  0.00     1.736 OA 
HETATM    7  C   UNL     1     -10.257  10.112  66.428  1.00  0.00    -0.221 C  
HETATM    8  C   UNL     1      -9.390  11.077  65.553  1.00  0.00    -0.215 C  
HETATM    9  O   UNL     1     -10.390  10.021  62.865  1.00  0.00    -0.166 OA 
HETATM   10  H   UNL     1      -9.888  10.554  62.259  1.00  0.00     0.000 HD 
HETATM   11  N   UNL     1     -10.259  12.110  64.899  1.00  0.00    -0.276 NA 
HETATM   12  C   UNL     1      -8.590  10.293  64.514  1.00  0.00    -0.186 C  
HETATM   13  H2  UNL     1     -10.824  12.619  65.579  1.00  0.00     0.000 HD 
HETATM   14  O   UNL     1      -7.482   9.597  65.101  1.00  0.00    -0.105 OA 
HETATM   15  C   UNL     1      -9.493   9.322  63.743  1.00  0.00     0.684 C  
HETATM   16  H1  UNL     1      -9.694  12.740  64.328  1.00  0.00     0.000 HD 
HETATM   17  H   UNL     1      -6.984   9.110  64.454  1.00  0.00     0.000 HD 
BRANCH   7  18
HETATM   18  O   UNL     1     -10.958  11.019  67.259  1.00  0.00    -0.267 OA 
BRANCH  18  19
HETATM   19  C   UNL     1     -10.250  11.872  68.149  1.00  0.00    -0.199 C  
HETATM   20  O   UNL     1      -8.215  10.860  67.151  1.00  0.00    -0.121 OA 
HETATM   21  C   UNL     1     -10.626  13.260  67.616  1.00  0.00    -0.236 C  
HETATM   22  C   UNL     1      -8.325  13.266  67.580  1.00  0.00    -0.186 C  
HETATM   23  H   UNL     1      -7.267  10.848  67.102  1.00  0.00     0.000 HD 
HETATM   24  O   UNL     1      -9.482  13.756  66.901  1.00  0.00    -0.244 OA 
HETATM   25  C   UNL     1      -8.709  11.852  68.070  1.00  0.00    -0.173 C  
BRANCH  21  26
HETATM   26  C   UNL     1     -11.092  14.236  68.700  1.00  0.00    -0.253 C  
HETATM   27  H   UNL     1     -12.597  14.430  69.982  1.00  0.00     0.000 HD 
HETATM   28  O   UNL     1     -12.308  13.824  69.310  1.00  0.00    -0.312 OA 
ENDBRANCH  21  26
BRANCH  22  29
HETATM   29  O   UNL     1      -7.974  14.137  68.663  1.00  0.00    -0.138 OA 
BRANCH  29  30
HETATM   30  C   UNL     1      -9.004  15.067  69.143  1.00  0.00    -0.186 C  
HETATM   31  C   UNL     1      -9.834  14.424  70.284  1.00  0.00     1.241 C  
HETATM   32  O   UNL     1      -9.207  14.734  71.548  1.00  0.00     2.281 OA 
HETATM   33  C   UNL     1     -11.320  14.794  70.418  1.00  0.00    -0.217 C  
HETATM   34  C   UNL     1     -11.970  15.213  69.111  1.00  0.00    -0.304 C  
HETATM   35  N   UNL     1     -12.076  13.640  70.967  1.00  0.00    -0.461 NA 
HETATM   36  H   UNL     1      -9.715  14.340  72.247  1.00  0.00     0.000 HD 
HETATM   37  H1  UNL     1     -13.062  13.885  71.056  1.00  0.00     0.000 HD 
HETATM   38  H2  UNL     1     -11.683  13.307  71.848  1.00  0.00     0.000 HD 
HETATM   39  C   UNL     1     -11.148  16.316  68.446  1.00  0.00    -0.362 C  
HETATM   40  C   UNL     1      -9.782  15.748  67.983  1.00  0.00    -0.212 C  
HETATM   41  N   UNL     1     -11.924  16.859  67.309  1.00  0.00     1.406 NA 
HETATM   42  H2  UNL     1     -12.853  17.175  67.585  1.00  0.00     0.000 HD 
HETATM   43  H1  UNL     1     -11.375  17.595  66.865  1.00  0.00     0.000 HD 
BRANCH  40  44
HETATM   44  O   UNL     1      -9.039  16.850  67.406  1.00  0.00    -0.215 OA 
BRANCH  44  45
HETATM   45  C   UNL     1      -8.020  17.408  68.240  1.00  0.00    -0.253 C  
HETATM   46  O   UNL     1      -6.866  17.783  67.485  1.00  0.00    -0.171 OA 
HETATM   47  C   UNL     1      -7.113  18.841  66.548  1.00  0.00    -0.218 C  
HETATM   48  C   UNL     1      -7.639  20.104  67.246  1.00  0.00    -0.298 C  
HETATM   49  H1  UNL     1     -10.169  19.064  70.358  1.00  0.00     0.000 HD 
HETATM   50  O   UNL     1      -7.940  21.154  66.316  1.00  0.00    -0.072 OA 
HETATM   51  H2  UNL     1      -9.596  17.489  70.462  1.00  0.00     0.000 HD 
HETATM   52  C   UNL     1      -8.899  19.766  68.056  1.00  0.00    -0.302 C  
HETATM   53  H   UNL     1      -8.265  21.936  66.748  1.00  0.00     0.000 HD 
HETATM   54  O   UNL     1      -9.330  20.926  68.788  1.00  0.00     0.816 OA 
HETATM   55  C   UNL     1      -8.595  18.615  69.033  1.00  0.00    -0.066 C  
HETATM   56  N   UNL     1      -9.792  18.272  69.838  1.00  0.00     0.669 NA 
HETATM   57  H   UNL     1     -10.109  20.717  69.289  1.00  0.00     0.000 HD 
BRANCH  47  58
HETATM   58  C   UNL     1      -5.820  19.083  65.737  1.00  0.00    -0.173 C  
HETATM   59  H1  UNL     1      -4.737  20.641  64.817  1.00  0.00     0.000 HD 
HETATM   60  N   UNL     1      -5.591  20.481  65.353  1.00  0.00    -0.184 NA 
HETATM   61  H2  UNL     1      -5.610  21.082  66.177  1.00  0.00     0.000 HD 
ENDBRANCH  47  58
ENDBRANCH  44  45
ENDBRANCH  40  44
ENDBRANCH  29  30
ENDBRANCH  22  29
ENDBRANCH  18  19
ENDBRANCH   7  18
ENDBRANCH   2   5
TORSDOF 9
ENDMDL
MODEL      355
REMARK 921   NORMALIZED FREE ENERGY PREDICTED BY IDOCK:   61.09 KCAL/MOL
REMARK 922        TOTAL FREE ENERGY PREDICTED BY IDOCK:   90.42 KCAL/MOL
REMARK 923 INTER-LIGAND FREE ENERGY PREDICTED BY IDOCK:   58.07 KCAL/MOL
REMARK 924 INTRA-LIGAND FREE ENERGY PREDICTED BY IDOCK:   32.35 KCAL/MOL
REMARK 927      BINDING AFFINITY PREDICTED BY RF-SCORE:    0.00 PKD
ROOT
HETATM    1  N   UNL     1     -10.212   8.754  63.131  1.00  0.00     3.279 NA 
HETATM    2  C   UNL     1      -9.011   8.180  63.743  1.00  0.00     0.903 C  
HETATM    3  H1  UNL     1     -10.048   9.518  62.476  1.00  0.00     0.000 HD 
HETATM    4  H2  UNL     1     -10.866   9.051  63.855  1.00  0.00     0.000 HD 
ENDROOT
BRANCH   2   5
HETATM    5  C   UNL     1      -9.261   7.019  64.741  1.00  0.00     1.193 C  
HETATM    6  O   UNL     1      -9.775   7.453  66.027  1.00  0.00     0.011 OA 
HETATM    7  C   UNL     1     -10.101   6.317  66.848  1.00  0.00    -0.183 C  
HETATM    8  C   UNL     1      -8.816   5.482  67.159  1.00  0.00    -0.106 C  
HETATM    9  O   UNL     1      -6.935   7.180  65.451  1.00  0.00    -0.054 OA 
HETATM   10  H   UNL     1      -6.111   6.721  65.571  1.00  0.00     0.000 HD 
HETATM   11  N   UNL     1      -7.891   6.258  68.050  1.00  0.00    -0.103 NA 
HETATM   12  C   UNL     1      -8.114   5.066  65.866  1.00  0.00    -0.108 C  
HETATM   13  H2  UNL     1      -8.357   6.570  68.902  1.00  0.00     0.000 HD 
HETATM   14  O   UNL     1      -8.812   4.011  65.192  1.00  0.00    -0.120 OA 
HETATM   15  C   UNL     1      -7.919   6.270  64.936  1.00  0.00    -0.124 C  
HETATM   16  H1  UNL     1      -7.053   5.713  68.253  1.00  0.00     0.000 HD 
HETATM   17  H   UNL     1      -8.376   3.752  64.388  1.00  0.00     0.000 HD 
BRANCH   7  18
HETATM   18  O   UNL     1     -10.552   6.656  68.147  1.00  0.00    -0.195 OA 
BRANCH  18  19
HETATM   19  C   UNL     1      -9.673   7.281  69.073  1.00  0.00    -0.152 C  
HETATM   20  O   UNL     1      -8.625   5.039  69.253  1.00  0.00    -0.087 OA 
HETATM   21  C   UNL     1      -8.937   8.284  68.176  1.00  0.00    -0.139 C  
HETATM   22  C   UNL     1      -7.241   7.052  69.126  1.00  0.00    -0.090 C  
HETATM   23  H   UNL     1      -7.928   4.506  69.618  1.00  0.00     0.000 HD 
HETATM   24  O   UNL     1      -7.625   7.745  67.938  1.00  0.00    -0.110 OA 
HETATM   25  C   UNL     1      -8.541   6.416  69.665  1.00  0.00    -0.134 C  
BRANCH  21  26
HETATM   26  C   UNL     1      -8.879   9.703  68.748  1.00  0.00    -0.130 C  
HETATM   27  H   UNL     1      -9.947  11.377  68.688  1.00  0.00     0.000 HD 
HETATM   28  O   UNL     1      -9.983  10.497  68.334  1.00  0.00    -0.155 OA 
ENDBRANCH  21  26
BRANCH  22  29
HETATM   29  O   UNL     1      -6.652   7.960  70.066  1.00  0.00    -0.036 OA 
BRANCH  29  30
HETATM   30  C   UNL     1      -7.119   7.889  71.456  1.00  0.00    -0.065 C  
HETATM   31  C   UNL     1      -6.272   6.875  72.268  1.00  0.00    -0.045 C  
HETATM   32  O   UNL     1      -5.153   7.571  72.859  1.00  0.00    -0.037 OA 
HETATM   33  C   UNL     1      -6.950   6.078  73.394  1.00  0.00    -0.080 C  
HETATM   34  C   UNL     1      -8.441   5.875  73.193  1.00  0.00    -0.116 C  
HETATM   35  N   UNL     1      -6.309   4.743  73.519  1.00  0.00    -0.048 NA 
HETATM   36  H   UNL     1      -4.634   6.950  73.357  1.00  0.00     0.000 HD 
HETATM   37  H1  UNL     1      -6.759   4.215  74.267  1.00  0.00     0.000 HD 
HETATM   38  H2  UNL     1      -5.301   4.813  73.652  1.00  0.00     0.000 HD 
HETATM   39  C   UNL     1      -9.123   7.217  72.932  1.00  0.00    -0.136 C  
HETATM   40  C   UNL     1      -8.666   7.782  71.563  1.00  0.00    -0.121 C  
HETATM   41  N   UNL     1     -10.588   7.016  72.974  1.00  0.00    -0.264 NA 
HETATM   42  H2  UNL     1     -10.898   6.581  73.844  1.00  0.00     0.000 HD 
HETATM   43  H1  UNL     1     -11.043   7.912  72.800  1.00  0.00     0.000 HD 
BRANCH  40  44
HETATM   44  O   UNL     1      -9.310   9.069  71.399  1.00  0.00    -0.251 OA 
BRANCH  44  45
HETATM   45  C   UNL     1      -8.512  10.205  71.747  1.00  0.00     3.945 C  
HETATM   46  O   UNL     1      -7.982  10.852  70.588  1.00  0.00     1.090 OA 
HETATM   47  C   UNL     1      -8.988  11.428  69.743  1.00  0.00     1.353 C  
HETATM   48  C   UNL     1      -9.841  12.458  70.498  1.00  0.00     5.321 C  
HETATM   49  H1  UNL     1     -10.464  11.206  74.398  1.00  0.00     0.000 HD 
HETATM   50  O   UNL     1     -10.886  13.005  69.680  1.00  0.00    -0.441 OA 
HETATM   51  H2  UNL     1      -9.181  10.124  74.387  1.00  0.00     0.000 HD 
HETATM   52  C   UNL     1     -10.460  11.809  71.745  1.00  0.00     9.275 C  
HETATM   53  H   UNL     1     -11.413  13.642  70.147  1.00  0.00     0.000 HD 
HETATM   54  O   UNL     1     -11.174  12.800  72.503  1.00  0.00     5.128 OA 
HETATM   55  C   UNL     1      -9.350  11.187  72.612  1.00  0.00    16.862 C  
HETATM   56  N   UNL     1      -9.915  10.561  73.830  1.00  0.00    13.682 NA 
HETATM   57  H   UNL     1     -11.556  12.398  73.274  1.00  0.00     0.000 HD 
BRANCH  47  58
HETATM   58  C   UNL     1      -8.296  12.008  68.489  1.00  0.00    -0.104 C  
HETATM   59  H1  UNL     1      -7.224  13.710  67.856  1.00  0.00     0.000 HD 
HETATM   60  N   UNL     1      -7.681  13.327  68.684  1.00  0.00    -0.235 NA 
HETATM   61  H2  UNL     1      -7.030  13.301  69.469  1.00  0.00     0.000 HD 
ENDBRANCH  47  58
ENDBRANCH  44  45
ENDBRANCH  40  44
ENDBRANCH  29  30
ENDBRANCH  22  29
ENDBRANCH  18  19
ENDBRANCH   7  18
ENDBRANCH   2   5
TORSDOF 9
ENDMDL
MODEL      356
REMARK 921   NORMALIZED FREE ENERGY PREDICTED BY IDOCK:   65.61 KCAL/MOL
REMARK 922        TOTAL FREE ENERGY PREDICTED BY IDOCK:   97.32 KCAL/MOL
REMARK 923 INTER-LIGAND FREE ENERGY PREDICTED BY IDOCK:   52.49 KCAL/MOL
REMARK 924 INTRA-LIGAND FREE ENERGY PREDICTED BY IDOCK:   44.83 KCAL/MOL
REMARK 927      BINDING AFFINITY PREDICTED BY RF-SCORE:    0.00 PKD
ROOT
HETATM    1  N   UNL     1      -6.499  13.007  72.522  1.00  0.00     2.064 NA 
HETATM    2  C   UNL     1      -7.751  12.310  72.212  1.00  0.00    14.342 C  
HETATM    3  H1  UNL     1      -6.498  14.010  72.336  1.00  0.00     0.000 HD 
HETATM    4  H2  UNL     1      -5.722  12.562  72.034  1.00  0.00     0.000 HD 
ENDROOT
BRANCH   2   5
HETATM    5  C   UNL     1      -7.752  10.785  72.494  1.00  0.00     9.045 C  
HETATM    6  O   UNL     1      -7.244   9.987  71.393  1.00  0.00    -0.003 OA 
HETATM    7  C   UNL     1      -7.158   8.602  71.774  1.00  0.00    -0.084 C  
HETATM    8  C   UNL     1      -8.579   8.034  72.096  1.00  0.00    -0.155 C  
HETATM    9  O   UNL     1     -10.055  10.681  71.701  1.00  0.00     2.292 OA 
HETATM   10  H   UNL     1     -10.948  10.425  71.900  1.00  0.00     0.000 HD 
HETATM   11  N   UNL     1      -9.409   7.965  70.849  1.00  0.00    -0.152 NA 
HETATM   12  C   UNL     1      -9.267   8.877  73.169  1.00  0.00     0.854 C  
HETATM   13  H2  UNL     1      -8.946   7.432  70.112  1.00  0.00     0.000 HD 
HETATM   14  O   UNL     1      -8.719   8.640  74.473  1.00  0.00    -0.092 OA 
HETATM   15  C   UNL     1      -9.208  10.369  72.818  1.00  0.00    10.088 C  
HETATM   16  H1  UNL     1     -10.336   7.594  71.059  1.00  0.00     0.000 HD 
HETATM   17  H   UNL     1      -9.147   9.164  75.140  1.00  0.00     0.000 HD 
BRANCH   7  18
HETATM   18  O   UNL     1      -6.728   7.744  70.732  1.00  0.00    -0.038 OA 
BRANCH  18  19
HETATM   19  C   UNL     1      -7.295   7.852  69.433  1.00  0.00    -0.081 C  
HETATM   20  O   UNL     1      -5.155   8.952  68.828  1.00  0.00    -0.033 OA 
HETATM   21  C   UNL     1      -7.419   6.379  69.024  1.00  0.00    -0.095 C  
HETATM   22  C   UNL     1      -6.179   7.314  67.327  1.00  0.00    -0.053 C  
HETATM   23  H   UNL     1      -4.612   9.332  68.147  1.00  0.00     0.000 HD 
HETATM   24  O   UNL     1      -6.364   6.117  68.083  1.00  0.00    -0.039 OA 
HETATM   25  C   UNL     1      -6.414   8.469  68.326  1.00  0.00    -0.060 C  
BRANCH  21  26
HETATM   26  C   UNL     1      -8.793   6.002  68.464  1.00  0.00    -0.112 C  
HETATM   27  H   UNL     1     -10.277   4.747  68.878  1.00  0.00     0.000 HD 
HETATM   28  O   UNL     1      -9.425   4.981  69.225  1.00  0.00    -0.116 OA 
ENDBRANCH  21  26
BRANCH  22  29
HETATM   29  O   UNL     1      -7.095   7.358  66.225  1.00  0.00    -0.067 OA 
BRANCH  29  30
HETATM   30  C   UNL     1      -7.643   8.668  65.853  1.00  0.00    -0.089 C  
HETATM   31  C   UNL     1      -6.503   9.696  65.634  1.00  0.00    -0.074 C  
HETATM   32  O   UNL     1      -6.102   9.660  64.247  1.00  0.00    -0.086 OA 
HETATM   33  C   UNL     1      -6.757  11.170  65.989  1.00  0.00     0.044 C  
HETATM   34  C   UNL     1      -7.801  11.371  67.073  1.00  0.00    -0.158 C  
HETATM   35  N   UNL     1      -5.489  11.803  66.437  1.00  0.00    -0.456 NA 
HETATM   36  H   UNL     1      -5.404  10.290  64.113  1.00  0.00     0.000 HD 
HETATM   37  H1  UNL     1      -5.658  12.781  66.673  1.00  0.00     0.000 HD 
HETATM   38  H2  UNL     1      -4.743  11.697  65.750  1.00  0.00     0.000 HD 
HETATM   39  C   UNL     1      -9.084  10.626  66.710  1.00  0.00    -0.152 C  
HETATM   40  C   UNL     1      -8.834   9.096  66.754  1.00  0.00    -0.127 C  
HETATM   41  N   UNL     1     -10.146  11.029  67.658  1.00  0.00    -0.179 NA 
HETATM   42  H2  UNL     1     -10.276  12.041  67.691  1.00  0.00     0.000 HD 
HETATM   43  H1  UNL     1     -11.002  10.532  67.415  1.00  0.00     0.000 HD 
BRANCH  40  44
HETATM   44  O   UNL     1     -10.071   8.454  66.357  1.00  0.00    -0.265 OA 
BRANCH  44  45
HETATM   45  C   UNL     1     -11.065   8.348  67.380  1.00  0.00     0.430 C  
HETATM   46  O   UNL     1     -11.993   7.296  67.107  1.00  0.00     1.626 OA 
HETATM   47  C   UNL     1     -11.399   5.990  67.117  1.00  0.00     0.256 C  
HETATM   48  C   UNL     1     -10.734   5.681  68.467  1.00  0.00    -0.162 C  
HETATM   49  H1  UNL     1      -8.958   9.098  69.995  1.00  0.00     0.000 HD 
HETATM   50  O   UNL     1     -10.089   4.399  68.475  1.00  0.00    -0.056 OA 
HETATM   51  H2  UNL     1      -9.851  10.143  69.032  1.00  0.00     0.000 HD 
HETATM   52  C   UNL     1      -9.703   6.769  68.801  1.00  0.00    -0.132 C  
HETATM   53  H   UNL     1      -9.678   4.208  69.310  1.00  0.00     0.000 HD 
HETATM   54  O   UNL     1      -9.156   6.532  70.110  1.00  0.00    -0.153 OA 
HETATM   55  C   UNL     1     -10.377   8.153  68.760  1.00  0.00    -0.202 C  
HETATM   56  N   UNL     1      -9.409   9.226  69.090  1.00  0.00    -0.154 NA 
HETATM   57  H   UNL     1      -8.519   7.205  70.316  1.00  0.00     0.000 HD 
BRANCH  47  58
HETATM   58  C   UNL     1     -12.480   4.961  66.718  1.00  0.00     9.461 C  
HETATM   59  H1  UNL     1     -13.995   4.656  65.284  1.00  0.00     0.000 HD 
HETATM   60  N   UNL     1     -13.281   5.336  65.547  1.00  0.00     5.613 NA 
HETATM   61  H2  UNL     1     -12.673   5.537  64.753  1.00  0.00     0.000 HD 
ENDBRANCH  47  58
ENDBRANCH  44  45
ENDBRANCH  40  44
ENDBRANCH  29  30
ENDBRANCH  22  29
ENDBRANCH  18  19
ENDBRANCH   7  18
ENDBRANCH   2   5
TORSDOF 9
ENDMDL
MODEL      357
REMARK 921   NORMALIZED FREE ENERGY PREDICTED BY IDOCK:   69.35 KCAL/MOL
REMARK 922        TOTAL FREE ENERGY PREDICTED BY IDOCK:  103.02 KCAL/MOL
REMARK 923 INTER-LIGAND FREE ENERGY PREDICTED BY IDOCK:   37.99 KCAL/MOL
REMARK 924 INTRA-LIGAND FREE ENERGY PREDICTED BY IDOCK:   65.03 KCAL/MOL
REMARK 927      BINDING AFFINITY PREDICTED BY RF-SCORE:    0.00 PKD
ROOT
HETATM    1  N   UNL     1     -10.531   8.762  63.227  1.00  0.00     4.802 NA 
HETATM    2  C   UNL     1      -9.814   8.046  64.286  1.00  0.00     3.790 C  
HETATM    3  H1  UNL     1      -9.943   9.204  62.522  1.00  0.00     0.000 HD 
HETATM    4  H2  UNL     1     -11.163   9.450  63.637  1.00  0.00     0.000 HD 
ENDROOT
BRANCH   2   5
HETATM    5  C   UNL     1     -10.709   7.373  65.360  1.00  0.00     4.491 C  
HETATM    6  O   UNL     1     -11.183   8.288  66.383  1.00  0.00     1.079 OA 
HETATM    7  C   UNL     1     -12.103   7.622  67.266  1.00  0.00     4.474 C  
HETATM    8  C   UNL     1     -11.387   6.460  68.028  1.00  0.00     0.028 C  
HETATM    9  O   UNL     1      -8.700   6.785  66.608  1.00  0.00    -0.118 OA 
HETATM   10  H   UNL     1      -8.194   6.086  67.009  1.00  0.00     0.000 HD 
HETATM   11  N   UNL     1     -10.374   7.010  68.989  1.00  0.00    -0.194 NA 
HETATM   12  C   UNL     1     -10.739   5.487  67.044  1.00  0.00    -0.204 C  
HETATM   13  H2  UNL     1     -10.788   7.687  69.630  1.00  0.00     0.000 HD 
HETATM   14  O   UNL     1     -11.708   4.655  66.392  1.00  0.00     1.295 OA 
HETATM   15  C   UNL     1      -9.885   6.235  66.012  1.00  0.00     0.181 C  
HETATM   16  H1  UNL     1      -9.907   6.253  69.485  1.00  0.00     0.000 HD 
HETATM   17  H   UNL     1     -11.305   4.050  65.781  1.00  0.00     0.000 HD 
BRANCH   7  18
HETATM   18  O   UNL     1     -12.565   8.432  68.332  1.00  0.00     4.919 OA 
BRANCH  18  19
HETATM   19  C   UNL     1     -11.653   8.937  69.298  1.00  0.00     0.696 C  
HETATM   20  O   UNL     1     -11.062   6.554  69.663  1.00  0.00    -0.309 OA 
HETATM   21  C   UNL     1     -10.679   9.732  68.422  1.00  0.00    -0.221 C  
HETATM   22  C   UNL     1      -9.318   8.267  69.560  1.00  0.00    -0.158 C  
HETATM   23  H   UNL     1     -10.506   5.924  70.106  1.00  0.00     0.000 HD 
HETATM   24  O   UNL     1      -9.478   8.948  68.315  1.00  0.00    -0.139 OA 
HETATM   25  C   UNL     1     -10.750   7.914  70.019  1.00  0.00    -0.244 C  
BRANCH  21  26
HETATM   26  C   UNL     1     -10.396  11.147  68.933  1.00  0.00    -0.201 C  
HETATM   27  H   UNL     1     -11.165  12.972  68.768  1.00  0.00     0.000 HD 
HETATM   28  O   UNL     1     -11.340  12.094  68.451  1.00  0.00    -0.239 OA 
ENDBRANCH  21  26
BRANCH  22  29
HETATM   29  O   UNL     1      -8.638   9.104  70.504  1.00  0.00    -0.178 OA 
BRANCH  29  30
HETATM   30  C   UNL     1      -9.167   9.146  71.873  1.00  0.00     0.166 C  
HETATM   31  C   UNL     1      -8.210   8.419  72.853  1.00  0.00    -0.114 C  
HETATM   32  O   UNL     1      -7.261   9.376  73.373  1.00  0.00     0.219 OA 
HETATM   33  C   UNL     1      -8.808   7.679  74.061  1.00  0.00    -0.252 C  
HETATM   34  C   UNL     1     -10.229   7.192  73.841  1.00  0.00    -0.358 C  
HETATM   35  N   UNL     1      -7.960   6.508  74.402  1.00  0.00    -0.111 NA 
HETATM   36  H   UNL     1      -6.675   8.930  73.973  1.00  0.00     0.000 HD 
HETATM   37  H1  UNL     1      -8.357   6.017  75.203  1.00  0.00     0.000 HD 
HETATM   38  H2  UNL     1      -6.987   6.771  74.557  1.00  0.00     0.000 HD 
HETATM   39  C   UNL     1     -11.112   8.343  73.363  1.00  0.00     1.210 C  
HETATM   40  C   UNL     1     -10.677   8.784  71.942  1.00  0.00    -0.359 C  
HETATM   41  N   UNL     1     -12.521   7.896  73.385  1.00  0.00     0.336 NA 
HETATM   42  H2  UNL     1     -12.804   7.539  74.298  1.00  0.00     0.000 HD 
HETATM   43  H1  UNL     1     -13.110   8.665  73.066  1.00  0.00     0.000 HD 
BRANCH  40  44
HETATM   44  O   UNL     1     -11.518   9.903  71.570  1.00  0.00    -0.365 OA 
BRANCH  44  45
HETATM   45  C   UNL     1     -10.914  11.194  71.691  1.00  0.00     3.866 C  
HETATM   46  O   UNL     1     -10.270  11.591  70.478  1.00  0.00     1.910 OA 
HETATM   47  C   UNL     1     -11.176  11.775  69.381  1.00  0.00    -0.234 C  
HETATM   48  C   UNL     1     -12.247  12.829  69.701  1.00  0.00    -0.126 C  
HETATM   49  H1  UNL     1     -13.376  12.548  73.678  1.00  0.00     0.000 HD 
HETATM   50  O   UNL     1     -13.192  12.986  68.633  1.00  0.00     1.702 OA 
HETATM   51  H2  UNL     1     -12.002  11.700  74.137  1.00  0.00     0.000 HD 
HETATM   52  C   UNL     1     -12.993  12.439  70.986  1.00  0.00    -0.064 C  
HETATM   53  H   UNL     1     -13.854  13.638  68.831  1.00  0.00     0.000 HD 
HETATM   54  O   UNL     1     -13.924  13.477  71.338  1.00  0.00    -0.054 OA 
HETATM   55  C   UNL     1     -11.983  12.233  72.130  1.00  0.00     2.476 C  
HETATM   56  N   UNL     1     -12.675  11.866  73.389  1.00  0.00     5.032 NA 
HETATM   57  H   UNL     1     -14.385  13.236  72.133  1.00  0.00     0.000 HD 
BRANCH  47  58
HETATM   58  C   UNL     1     -10.349  12.108  68.119  1.00  0.00    -0.207 C  
HETATM   59  H1  UNL     1      -9.356  13.722  67.195  1.00  0.00     0.000 HD 
HETATM   60  N   UNL     1      -9.902  13.503  68.029  1.00  0.00    -0.231 NA 
HETATM   61  H2  UNL     1      -9.386  13.764  68.869  1.00  0.00     0.000 HD 
ENDBRANCH  47  58
ENDBRANCH  44  45
ENDBRANCH  40  44
ENDBRANCH  29  30
ENDBRANCH  22  29
ENDBRANCH  18  19
ENDBRANCH   7  18
ENDBRANCH   2   5
TORSDOF 9
ENDMDL
MODEL      358
REMARK 921   NORMALIZED FREE ENERGY PREDICTED BY IDOCK:   70.54 KCAL/MOL
REMARK 922        TOTAL FREE ENERGY PREDICTED BY IDOCK:  104.83 KCAL/MOL
REMARK 923 INTER-LIGAND FREE ENERGY PREDICTED BY IDOCK:   42.30 KCAL/MOL
REMARK 924 INTRA-LIGAND FREE ENERGY PREDICTED BY IDOCK:   62.54 KCAL/MOL
REMARK 927      BINDING AFFINITY PREDICTED BY RF-SCORE:    0.00 PKD
ROOT
HETATM    1  N   UNL     1     -12.421   7.257  62.861  1.00  0.00    15.756 NA 
HETATM    2  C   UNL     1     -12.052   8.607  63.297  1.00  0.00    20.489 C  
HETATM    3  H1  UNL     1     -13.419   7.097  62.729  1.00  0.00     0.000 HD 
HETATM    4  H2  UNL     1     -12.039   6.566  63.506  1.00  0.00     0.000 HD 
ENDROOT
BRANCH   2   5
HETATM    5  C   UNL     1     -10.533   8.851  63.498  1.00  0.00     6.324 C  
HETATM    6  O   UNL     1      -9.951   8.061  64.568  1.00  0.00     2.720 OA 
HETATM    7  C   UNL     1      -8.525   8.246  64.611  1.00  0.00    -0.051 C  
HETATM    8  C   UNL     1      -8.176   9.734  64.938  1.00  0.00    -0.142 C  
HETATM    9  O   UNL     1     -11.069  10.719  64.970  1.00  0.00     0.012 OA 
HETATM   10  H   UNL     1     -10.947  11.644  65.150  1.00  0.00     0.000 HD 
HETATM   11  N   UNL     1      -8.577  10.069  66.345  1.00  0.00    -0.128 NA 
HETATM   12  C   UNL     1      -8.842  10.679  63.937  1.00  0.00    -0.163 C  
HETATM   13  H2  UNL     1      -8.166   9.425  67.021  1.00  0.00     0.000 HD 
HETATM   14  O   UNL     1      -8.189  10.656  62.661  1.00  0.00    -0.164 OA 
HETATM   15  C   UNL     1     -10.335  10.360  63.790  1.00  0.00     0.235 C  
HETATM   16  H1  UNL     1      -8.350  11.039  66.558  1.00  0.00     0.000 HD 
HETATM   17  H   UNL     1      -8.603  11.243  62.038  1.00  0.00     0.000 HD 
BRANCH   7  18
HETATM   18  O   UNL     1      -7.887   7.555  65.670  1.00  0.00    -0.097 OA 
BRANCH  18  19
HETATM   19  C   UNL     1      -8.350   7.702  67.006  1.00  0.00    -0.124 C  
HETATM   20  O   UNL     1     -10.206   6.216  66.293  1.00  0.00    -0.392 OA 
HETATM   21  C   UNL     1      -7.229   7.022  67.801  1.00  0.00    -0.091 C  
HETATM   22  C   UNL     1      -9.125   5.902  68.466  1.00  0.00    -0.111 C  
HETATM   23  H   UNL     1     -10.985   5.731  66.539  1.00  0.00     0.000 HD 
HETATM   24  O   UNL     1      -7.729   5.740  68.215  1.00  0.00    -0.090 OA 
HETATM   25  C   UNL     1      -9.615   6.914  67.405  1.00  0.00    -0.136 C  
BRANCH  21  26
HETATM   26  C   UNL     1      -6.718   7.847  68.985  1.00  0.00    -0.049 C  
HETATM   27  H   UNL     1      -6.560   9.757  69.511  1.00  0.00     0.000 HD 
HETATM   28  O   UNL     1      -6.877   9.245  68.777  1.00  0.00    -0.059 OA 
ENDBRANCH  21  26
BRANCH  22  29
HETATM   29  O   UNL     1      -9.342   6.373  69.802  1.00  0.00    -0.146 OA 
BRANCH  29  30
HETATM   30  C   UNL     1      -8.445   5.870  70.850  1.00  0.00    -0.127 C  
HETATM   31  C   UNL     1      -8.886   4.459  71.320  1.00  0.00    -0.116 C  
HETATM   32  O   UNL     1      -8.218   3.468  70.509  1.00  0.00    -0.052 OA 
HETATM   33  C   UNL     1      -8.661   4.064  72.788  1.00  0.00    -0.099 C  
HETATM   34  C   UNL     1      -8.638   5.242  73.746  1.00  0.00    -0.113 C  
HETATM   35  N   UNL     1      -9.729   3.128  73.224  1.00  0.00    -0.104 NA 
HETATM   36  H   UNL     1      -8.489   2.604  70.797  1.00  0.00     0.000 HD 
HETATM   37  H1  UNL     1      -9.579   2.866  74.199  1.00  0.00     0.000 HD 
HETATM   38  H2  UNL     1      -9.798   2.314  72.614  1.00  0.00     0.000 HD 
HETATM   39  C   UNL     1      -7.640   6.293  73.262  1.00  0.00    -0.095 C  
HETATM   40  C   UNL     1      -8.148   6.933  71.944  1.00  0.00    -0.100 C  
HETATM   41  N   UNL     1      -7.471   7.306  74.326  1.00  0.00    -0.110 NA 
HETATM   42  H2  UNL     1      -7.203   6.894  75.220  1.00  0.00     0.000 HD 
HETATM   43  H1  UNL     1      -6.805   8.007  74.003  1.00  0.00     0.000 HD 
BRANCH  40  44
HETATM   44  O   UNL     1      -7.139   7.881  71.517  1.00  0.00    -0.059 OA 
BRANCH  44  45
HETATM   45  C   UNL     1      -5.828   7.342  71.330  1.00  0.00    -0.036 C  
HETATM   46  O   UNL     1      -5.772   5.956  71.676  1.00  0.00    -0.021 OA 
HETATM   47  C   UNL     1      -6.574   5.121  70.828  1.00  0.00    -0.035 C  
HETATM   48  C   UNL     1      -6.160   5.246  69.355  1.00  0.00    -0.025 C  
HETATM   49  H1  UNL     1      -5.101   9.160  68.501  1.00  0.00     0.000 HD 
HETATM   50  O   UNL     1      -6.987   4.457  68.488  1.00  0.00    -0.050 OA 
HETATM   51  H2  UNL     1      -4.860   9.577  70.109  1.00  0.00     0.000 HD 
HETATM   52  C   UNL     1      -6.225   6.717  68.918  1.00  0.00    -0.027 C  
HETATM   53  H   UNL     1      -6.730   4.535  67.576  1.00  0.00     0.000 HD 
HETATM   54  O   UNL     1      -5.740   6.844  67.570  1.00  0.00    -0.018 OA 
HETATM   55  C   UNL     1      -5.368   7.579  69.865  1.00  0.00    -0.023 C  
HETATM   56  N   UNL     1      -5.403   9.005  69.462  1.00  0.00    -0.034 NA 
HETATM   57  H   UNL     1      -5.780   7.754  67.301  1.00  0.00     0.000 HD 
BRANCH  47  58
HETATM   58  C   UNL     1      -6.502   3.673  71.363  1.00  0.00    -0.018 C  
HETATM   59  H1  UNL     1      -6.702   1.679  70.710  1.00  0.00     0.000 HD 
HETATM   60  N   UNL     1      -6.750   2.635  70.356  1.00  0.00    -0.032 NA 
HETATM   61  H2  UNL     1      -6.118   2.752  69.564  1.00  0.00     0.000 HD 
ENDBRANCH  47  58
ENDBRANCH  44  45
ENDBRANCH  40  44
ENDBRANCH  29  30
ENDBRANCH  22  29
ENDBRANCH  18  19
ENDBRANCH   7  18
ENDBRANCH   2   5
TORSDOF 9
ENDMDL
MODEL      359
REMARK 921   NORMALIZED FREE ENERGY PREDICTED BY IDOCK:   72.06 KCAL/MOL
REMARK 922        TOTAL FREE ENERGY PREDICTED BY IDOCK:  107.16 KCAL/MOL
REMARK 923 INTER-LIGAND FREE ENERGY PREDICTED BY IDOCK:   55.12 KCAL/MOL
REMARK 924 INTRA-LIGAND FREE ENERGY PREDICTED BY IDOCK:   52.05 KCAL/MOL
REMARK 927      BINDING AFFINITY PREDICTED BY RF-SCORE:    0.00 PKD
ROOT
HETATM    1  N   UNL     1      -8.125  10.091  65.628  1.00  0.00    -0.132 NA 
HETATM    2  C   UNL     1      -7.923  10.770  66.911  1.00  0.00    -0.133 C  
HETATM    3  H1  UNL     1      -7.817  10.608  64.805  1.00  0.00     0.000 HD 
HETATM    4  H2  UNL     1      -9.104   9.824  65.525  1.00  0.00     0.000 HD 
ENDROOT
BRANCH   2   5
HETATM    5  C   UNL     1      -8.393   9.983  68.163  1.00  0.00    -0.113 C  
HETATM    6  O   UNL     1      -9.542  10.572  68.825  1.00  0.00    -0.163 OA 
HETATM    7  C   UNL     1      -9.995   9.723  69.895  1.00  0.00    -0.245 C  
HETATM    8  C   UNL     1      -8.889   9.590  70.992  1.00  0.00     0.160 C  
HETATM    9  O   UNL     1      -6.791  11.240  69.504  1.00  0.00    -0.118 OA 
HETATM   10  H   UNL     1      -6.059  11.195  70.108  1.00  0.00     0.000 HD 
HETATM   11  N   UNL     1      -8.689  10.900  71.695  1.00  0.00     6.318 NA 
HETATM   12  C   UNL     1      -7.581   9.087  70.383  1.00  0.00    -0.100 C  
HETATM   13  H2  UNL     1      -9.562  11.263  72.078  1.00  0.00     0.000 HD 
HETATM   14  O   UNL     1      -7.637   7.690  70.066  1.00  0.00    -0.083 OA 
HETATM   15  C   UNL     1      -7.198   9.910  69.147  1.00  0.00    -0.072 C  
HETATM   16  H1  UNL     1      -7.968  10.813  72.411  1.00  0.00     0.000 HD 
HETATM   17  H   UNL     1      -6.824   7.378  69.687  1.00  0.00     0.000 HD 
BRANCH   7  18
HETATM   18  O   UNL     1     -11.079  10.257  70.634  1.00  0.00    -0.315 OA 
BRANCH  18  19
HETATM   19  C   UNL     1     -11.402  11.638  70.538  1.00  0.00     0.488 C  
HETATM   20  O   UNL     1      -9.071  12.011  71.304  1.00  0.00     9.076 OA 
HETATM   21  C   UNL     1     -11.636  11.801  69.032  1.00  0.00    -0.311 C  
HETATM   22  C   UNL     1     -10.023  13.371  69.506  1.00  0.00     0.887 C  
HETATM   23  H   UNL     1      -8.379  12.634  71.494  1.00  0.00     0.000 HD 
HETATM   24  O   UNL     1     -10.479  12.467  68.499  1.00  0.00    -0.226 OA 
HETATM   25  C   UNL     1     -10.278  12.650  70.848  1.00  0.00     6.277 C  
BRANCH  21  26
HETATM   26  C   UNL     1     -12.933  12.535  68.680  1.00  0.00     2.400 C  
HETATM   27  H   UNL     1     -14.022  12.945  67.069  1.00  0.00     0.000 HD 
HETATM   28  O   UNL     1     -13.218  12.490  67.288  1.00  0.00     2.568 OA 
ENDBRANCH  21  26
BRANCH  22  29
HETATM   29  O   UNL     1     -10.728  14.616  69.418  1.00  0.00    -0.245 OA 
BRANCH  29  30
HETATM   30  C   UNL     1     -10.370  15.665  70.380  1.00  0.00    -0.087 C  
HETATM   31  C   UNL     1      -9.689  15.052  71.631  1.00  0.00     3.132 C  
HETATM   32  O   UNL     1      -8.262  15.006  71.409  1.00  0.00     1.997 OA 
HETATM   33  C   UNL     1      -9.909  15.722  72.997  1.00  0.00     7.410 C  
HETATM   34  C   UNL     1     -11.219  16.481  73.106  1.00  0.00     1.317 C  
HETATM   35  N   UNL     1      -9.872  14.696  74.071  1.00  0.00     6.261 NA 
HETATM   36  H   UNL     1      -7.845  14.630  72.176  1.00  0.00     0.000 HD 
HETATM   37  H1  UNL     1     -10.018  15.141  74.977  1.00  0.00     0.000 HD 
HETATM   38  H2  UNL     1      -9.013  14.146  74.047  1.00  0.00     0.000 HD 
HETATM   39  C   UNL     1     -11.357  17.461  71.943  1.00  0.00     1.641 C  
HETATM   40  C   UNL     1     -11.522  16.681  70.614  1.00  0.00     0.195 C  
HETATM   41  N   UNL     1     -12.518  18.340  72.204  1.00  0.00     7.709 NA 
HETATM   42  H2  UNL     1     -12.457  18.810  73.108  1.00  0.00     0.000 HD 
HETATM   43  H1  UNL     1     -12.609  18.995  71.427  1.00  0.00     0.000 HD 
BRANCH  40  44
HETATM   44  O   UNL     1     -11.600  17.664  69.552  1.00  0.00     1.665 OA 
BRANCH  44  45
HETATM   45  C   UNL     1     -11.464  17.148  68.225  1.00  0.00     0.401 C  
HETATM   46  O   UNL     1     -10.391  17.779  67.521  1.00  0.00    -0.340 OA 
HETATM   47  C   UNL     1      -9.100  17.516  68.089  1.00  0.00    -0.277 C  
HETATM   48  C   UNL     1      -8.799  16.011  68.139  1.00  0.00    -0.178 C  
HETATM   49  H1  UNL     1     -12.248  13.896  69.031  1.00  0.00     0.000 HD 
HETATM   50  O   UNL     1      -7.533  15.729  68.752  1.00  0.00    -0.139 OA 
HETATM   51  H2  UNL     1     -13.278  15.149  68.596  1.00  0.00     0.000 HD 
HETATM   52  C   UNL     1      -9.910  15.282  68.909  1.00  0.00    -0.221 C  
HETATM   53  H   UNL     1      -7.346  14.798  68.783  1.00  0.00     0.000 HD 
HETATM   54  O   UNL     1      -9.677  13.864  68.867  1.00  0.00    -0.389 OA 
HETATM   55  C   UNL     1     -11.277  15.606  68.280  1.00  0.00    -0.353 C  
HETATM   56  N   UNL     1     -12.371  14.908  68.996  1.00  0.00    -0.110 NA 
HETATM   57  H   UNL     1     -10.365  13.413  69.343  1.00  0.00     0.000 HD 
BRANCH  47  58
HETATM   58  C   UNL     1      -8.048  18.325  67.298  1.00  0.00    -0.229 C  
HETATM   59  H1  UNL     1      -5.991  18.788  67.318  1.00  0.00     0.000 HD 
HETATM   60  N   UNL     1      -6.686  18.253  67.840  1.00  0.00    -0.205 NA 
HETATM   61  H2  UNL     1      -6.391  17.281  67.930  1.00  0.00     0.000 HD 
ENDBRANCH  47  58
ENDBRANCH  44  45
ENDBRANCH  40  44
ENDBRANCH  29  30
ENDBRANCH  22  29
ENDBRANCH  18  19
ENDBRANCH   7  18
ENDBRANCH   2   5
TORSDOF 9
ENDMDL
MODEL      360
REMARK 921   NORMALIZED FREE ENERGY PREDICTED BY IDOCK:   95.48 KCAL/MOL
REMARK 922        TOTAL FREE ENERGY PREDICTED BY IDOCK:  142.91 KCAL/MOL
REMARK 923 INTER-LIGAND FREE ENERGY PREDICTED BY IDOCK:   56.74 KCAL/MOL
REMARK 924 INTRA-LIGAND FREE ENERGY PREDICTED BY IDOCK:   86.17 KCAL/MOL
REMARK 927      BINDING AFFINITY PREDICTED BY RF-SCORE:    0.00 PKD
ROOT
HETATM    1  N   UNL     1      -6.499  13.007  72.522  1.00  0.00     2.064 NA 
HETATM    2  C   UNL     1      -7.748  12.308  72.208  1.00  0.00    14.342 C  
HETATM    3  H1  UNL     1      -6.502  14.011  72.343  1.00  0.00     0.000 HD 
HETATM    4  H2  UNL     1      -5.720  12.568  72.031  1.00  0.00     0.000 HD 
ENDROOT
BRANCH   2   5
HETATM    5  C   UNL     1      -7.743  10.780  72.479  1.00  0.00     9.045 C  
HETATM    6  O   UNL     1      -7.233   9.992  71.372  1.00  0.00    -0.003 OA 
HETATM    7  C   UNL     1      -7.142   8.605  71.743  1.00  0.00    -0.084 C  
HETATM    8  C   UNL     1      -8.560   8.030  72.062  1.00  0.00    -0.146 C  
HETATM    9  O   UNL     1     -10.046  10.673  71.686  1.00  0.00     2.292 OA 
HETATM   10  H   UNL     1     -10.939  10.413  71.883  1.00  0.00     0.000 HD 
HETATM   11  N   UNL     1      -9.391   7.966  70.814  1.00  0.00    -0.157 NA 
HETATM   12  C   UNL     1      -9.251   8.862  73.141  1.00  0.00     0.854 C  
HETATM   13  H2  UNL     1      -8.926   7.440  70.074  1.00  0.00     0.000 HD 
HETATM   14  O   UNL     1      -8.702   8.618  74.443  1.00  0.00    -0.169 OA 
HETATM   15  C   UNL     1      -9.198  10.356  72.801  1.00  0.00    10.088 C  
HETATM   16  H1  UNL     1     -10.316   7.591  71.022  1.00  0.00     0.000 HD 
HETATM   17  H   UNL     1      -9.132   9.135  75.114  1.00  0.00     0.000 HD 
BRANCH   7  18
HETATM   18  O   UNL     1      -6.709   7.756  70.695  1.00  0.00    -0.038 OA 
BRANCH  18  19
HETATM   19  C   UNL     1      -7.611   7.364  69.669  1.00  0.00    -0.095 C  
HETATM   20  O   UNL     1      -6.386   9.006  68.267  1.00  0.00    -0.053 OA 
HETATM   21  C   UNL     1      -7.224   5.896  69.457  1.00  0.00    -0.070 C  
HETATM   22  C   UNL     1      -7.018   6.823  67.361  1.00  0.00    -0.082 C  
HETATM   23  H   UNL     1      -6.267   9.398  67.410  1.00  0.00     0.000 HD 
HETATM   24  O   UNL     1      -6.469   5.836  68.235  1.00  0.00    -0.042 OA 
HETATM   25  C   UNL     1      -7.418   8.002  68.277  1.00  0.00    -0.100 C  
BRANCH  21  26
HETATM   26  C   UNL     1      -8.416   4.934  69.443  1.00  0.00    -0.087 C  
HETATM   27  H   UNL     1      -8.866   3.132  68.738  1.00  0.00     0.000 HD 
HETATM   28  O   UNL     1      -8.128   3.728  68.747  1.00  0.00    -0.069 OA 
ENDBRANCH  21  26
BRANCH  22  29
HETATM   29  O   UNL     1      -8.141   6.290  66.646  1.00  0.00    -0.107 OA 
BRANCH  29  30
HETATM   30  C   UNL     1      -9.262   7.197  66.375  1.00  0.00    -0.157 C  
HETATM   31  C   UNL     1      -9.263   7.639  64.888  1.00  0.00     0.969 C  
HETATM   32  O   UNL     1     -10.058   6.704  64.125  1.00  0.00     3.372 OA 
HETATM   33  C   UNL     1      -9.766   9.048  64.535  1.00  0.00     1.048 C  
HETATM   34  C   UNL     1      -9.603  10.058  65.656  1.00  0.00    -0.313 C  
HETATM   35  N   UNL     1      -9.041   9.554  63.341  1.00  0.00    -0.404 NA 
HETATM   36  H   UNL     1     -10.058   6.975  63.215  1.00  0.00     0.000 HD 
HETATM   37  H1  UNL     1      -9.374  10.489  63.106  1.00  0.00     0.000 HD 
HETATM   38  H2  UNL     1      -9.108   8.913  62.550  1.00  0.00     0.000 HD 
HETATM   39  C   UNL     1     -10.226   9.520  66.943  1.00  0.00    -0.249 C  
HETATM   40  C   UNL     1      -9.409   8.306  67.454  1.00  0.00    -0.141 C  
HETATM   41  N   UNL     1     -10.260  10.611  67.941  1.00  0.00    -0.171 NA 
HETATM   42  H2  UNL     1     -10.736  11.444  67.595  1.00  0.00     0.000 HD 
HETATM   43  H1  UNL     1     -10.676  10.251  68.800  1.00  0.00     0.000 HD 
BRANCH  40  44
HETATM   44  O   UNL     1     -10.076   7.817  68.644  1.00  0.00    -0.188 OA 
BRANCH  44  45
HETATM   45  C   UNL     1      -9.357   6.832  69.392  1.00  0.00    -0.148 C  
HETATM   46  O   UNL     1     -10.231   6.042  70.202  1.00  0.00    -0.185 OA 
HETATM   47  C   UNL     1     -11.150   5.244  69.443  1.00  0.00     0.698 C  
HETATM   48  C   UNL     1     -10.418   4.290  68.487  1.00  0.00     0.793 C  
HETATM   49  H1  UNL     1      -7.051   6.140  66.934  1.00  0.00     0.000 HD 
HETATM   50  O   UNL     1     -11.324   3.523  67.683  1.00  0.00     4.842 OA 
HETATM   51  H2  UNL     1      -6.988   7.311  68.135  1.00  0.00     0.000 HD 
HETATM   52  C   UNL     1      -9.479   5.090  67.571  1.00  0.00    -0.135 C  
HETATM   53  H   UNL     1     -10.871   2.932  67.092  1.00  0.00     0.000 HD 
HETATM   54  O   UNL     1      -8.721   4.186  66.749  1.00  0.00    -0.111 OA 
HETATM   55  C   UNL     1      -8.525   5.945  68.425  1.00  0.00    -0.111 C  
HETATM   56  N   UNL     1      -7.598   6.722  67.568  1.00  0.00    -0.103 NA 
HETATM   57  H   UNL     1      -8.140   4.681  66.182  1.00  0.00     0.000 HD 
BRANCH  47  58
HETATM   58  C   UNL     1     -12.092   4.518  70.429  1.00  0.00     8.172 C  
HETATM   59  H1  UNL     1     -13.266   4.889  72.141  1.00  0.00     0.000 HD 
HETATM   60  N   UNL     1     -12.644   5.369  71.489  1.00  0.00     1.874 NA 
HETATM   61  H2  UNL     1     -13.112   6.180  71.085  1.00  0.00     0.000 HD 
ENDBRANCH  47  58
ENDBRANCH  44  45
ENDBRANCH  40  44
ENDBRANCH  29  30
ENDBRANCH  22  29
ENDBRANCH  18  19
ENDBRANCH   7  18
ENDBRANCH   2   5
TORSDOF 9
ENDMDL
MODEL      361
REMARK 921   NORMALIZED FREE ENERGY PREDICTED BY IDOCK:   97.11 KCAL/MOL
REMARK 922        TOTAL FREE ENERGY PREDICTED BY IDOCK:  145.40 KCAL/MOL
REMARK 923 INTER-LIGAND FREE ENERGY PREDICTED BY IDOCK:   99.14 KCAL/MOL
REMARK 924 INTRA-LIGAND FREE ENERGY PREDICTED BY IDOCK:   46.25 KCAL/MOL
REMARK 927      BINDING AFFINITY PREDICTED BY RF-SCORE:    0.00 PKD
ROOT
HETATM    1  N   UNL     1      -5.236  16.883  68.930  1.00  0.00    -0.130 NA 
HETATM    2  C   UNL     1      -5.885  18.107  69.407  1.00  0.00    -0.235 C  
HETATM    3  H1  UNL     1      -4.497  16.517  69.529  1.00  0.00     0.000 HD 
HETATM    4  H2  UNL     1      -4.882  17.022  67.984  1.00  0.00     0.000 HD 
ENDROOT
BRANCH   2   5
HETATM    5  C   UNL     1      -7.010  18.665  68.496  1.00  0.00    -0.266 C  
HETATM    6  O   UNL     1      -7.827  17.636  67.879  1.00  0.00    -0.212 OA 
HETATM    7  C   UNL     1      -8.920  18.228  67.155  1.00  0.00    -0.264 C  
HETATM    8  C   UNL     1      -8.383  19.110  65.981  1.00  0.00    -0.139 C  
HETATM    9  O   UNL     1      -5.425  18.722  66.644  1.00  0.00    -0.146 OA 
HETATM   10  H   UNL     1      -5.014  19.253  65.971  1.00  0.00     0.000 HD 
HETATM   11  N   UNL     1      -7.742  18.250  64.932  1.00  0.00     1.594 NA 
HETATM   12  C   UNL     1      -7.407  20.165  66.499  1.00  0.00    -0.273 C  
HETATM   13  H2  UNL     1      -8.373  17.520  64.601  1.00  0.00     0.000 HD 
HETATM   14  O   UNL     1      -8.079  21.231  67.183  1.00  0.00    -0.655 OA 
HETATM   15  C   UNL     1      -6.339  19.531  67.400  1.00  0.00    -0.191 C  
HETATM   16  H1  UNL     1      -7.392  18.825  64.166  1.00  0.00     0.000 HD 
HETATM   17  H   UNL     1      -7.472  21.887  67.505  1.00  0.00     0.000 HD 
BRANCH   7  18
HETATM   18  O   UNL     1      -9.732  17.291  66.471  1.00  0.00    -0.264 OA 
BRANCH  18  19
HETATM   19  C   UNL     1      -9.951  15.997  67.016  1.00  0.00    -0.257 C  
HETATM   20  O   UNL     1      -8.037  16.539  68.500  1.00  0.00    -0.196 OA 
HETATM   21  C   UNL     1     -11.340  16.154  67.647  1.00  0.00    -0.064 C  
HETATM   22  C   UNL     1     -10.027  15.430  69.392  1.00  0.00    -0.272 C  
HETATM   23  H   UNL     1      -7.486  16.275  69.228  1.00  0.00     0.000 HD 
HETATM   24  O   UNL     1     -11.144  16.258  69.067  1.00  0.00    -0.305 OA 
HETATM   25  C   UNL     1      -9.056  15.568  68.198  1.00  0.00    -0.184 C  
BRANCH  21  26
HETATM   26  C   UNL     1     -12.318  15.033  67.284  1.00  0.00     0.504 C  
HETATM   27  H   UNL     1     -13.973  14.208  68.010  1.00  0.00     0.000 HD 
HETATM   28  O   UNL     1     -13.366  14.903  68.235  1.00  0.00     2.469 OA 
ENDBRANCH  21  26
BRANCH  22  29
HETATM   29  O   UNL     1     -10.449  14.075  69.592  1.00  0.00     0.057 OA 
BRANCH  29  30
HETATM   30  C   UNL     1      -9.577  13.206  70.392  1.00  0.00     4.738 C  
HETATM   31  C   UNL     1      -9.420  11.818  69.718  1.00  0.00     1.712 C  
HETATM   32  O   UNL     1      -8.281  11.858  68.831  1.00  0.00    -0.339 OA 
HETATM   33  C   UNL     1      -9.251  10.577  70.610  1.00  0.00     1.807 C  
HETATM   34  C   UNL     1      -9.878  10.718  71.985  1.00  0.00     8.442 C  
HETATM   35  N   UNL     1      -9.852   9.394  69.941  1.00  0.00    -0.196 NA 
HETATM   36  H   UNL     1      -8.185  11.007  68.418  1.00  0.00     0.000 HD 
HETATM   37  H1  UNL     1      -9.740   8.571  70.533  1.00  0.00     0.000 HD 
HETATM   38  H2  UNL     1      -9.474   9.249  69.006  1.00  0.00     0.000 HD 
HETATM   39  C   UNL     1      -9.382  11.997  72.660  1.00  0.00    23.831 C  
HETATM   40  C   UNL     1      -9.929  13.235  71.905  1.00  0.00    11.799 C  
HETATM   41  N   UNL     1      -9.822  11.984  74.072  1.00  0.00    19.879 NA 
HETATM   42  H2  UNL     1      -9.527  11.141  74.566  1.00  0.00     0.000 HD 
HETATM   43  H1  UNL     1      -9.491  12.837  74.522  1.00  0.00     0.000 HD 
BRANCH  40  44
HETATM   44  O   UNL     1      -9.387  14.406  72.564  1.00  0.00     5.457 OA 
BRANCH  44  45
HETATM   45  C   UNL     1      -8.806  15.386  71.698  1.00  0.00     4.951 C  
HETATM   46  O   UNL     1      -7.615  15.944  72.257  1.00  0.00     6.746 OA 
HETATM   47  C   UNL     1      -6.551  14.992  72.406  1.00  0.00     1.946 C  
HETATM   48  C   UNL     1      -6.174  14.349  71.063  1.00  0.00    -0.012 C  
HETATM   49  H1  UNL     1      -9.571  13.758  68.765  1.00  0.00     0.000 HD 
HETATM   50  O   UNL     1      -5.148  13.357  71.203  1.00  0.00    -0.122 OA 
HETATM   51  H2  UNL     1     -10.498  14.858  69.629  1.00  0.00     0.000 HD 
HETATM   52  C   UNL     1      -7.416  13.708  70.425  1.00  0.00     1.833 C  
HETATM   53  H   UNL     1      -4.915  12.959  70.372  1.00  0.00     0.000 HD 
HETATM   54  O   UNL     1      -7.082  13.196  69.124  1.00  0.00    -0.230 OA 
HETATM   55  C   UNL     1      -8.537  14.757  70.303  1.00  0.00     1.119 C  
HETATM   56  N   UNL     1      -9.748  14.170  69.680  1.00  0.00     0.515 NA 
HETATM   57  H   UNL     1      -7.851  12.800  68.730  1.00  0.00     0.000 HD 
BRANCH  47  58
HETATM   58  C   UNL     1      -5.364  15.695  73.101  1.00  0.00     1.254 C  
HETATM   59  H1  UNL     1      -4.885  17.491  74.097  1.00  0.00     0.000 HD 
HETATM   60  N   UNL     1      -5.669  17.026  73.638  1.00  0.00     3.440 NA 
HETATM   61  H2  UNL     1      -6.471  16.979  74.268  1.00  0.00     0.000 HD 
ENDBRANCH  47  58
ENDBRANCH  44  45
ENDBRANCH  40  44
ENDBRANCH  29  30
ENDBRANCH  22  29
ENDBRANCH  18  19
ENDBRANCH   7  18
ENDBRANCH   2   5
TORSDOF 9
ENDMDL
MODEL      362
REMARK 921   NORMALIZED FREE ENERGY PREDICTED BY IDOCK:  101.49 KCAL/MOL
REMARK 922        TOTAL FREE ENERGY PREDICTED BY IDOCK:  152.08 KCAL/MOL
REMARK 923 INTER-LIGAND FREE ENERGY PREDICTED BY IDOCK:   50.77 KCAL/MOL
REMARK 924 INTRA-LIGAND FREE ENERGY PREDICTED BY IDOCK:  101.31 KCAL/MOL
REMARK 927      BINDING AFFINITY PREDICTED BY RF-SCORE:    0.00 PKD
ROOT
HETATM    1  N   UNL     1      -6.504  13.008  72.522  1.00  0.00     2.064 NA 
HETATM    2  C   UNL     1      -7.774  12.338  72.229  1.00  0.00    14.342 C  
HETATM    3  H1  UNL     1      -6.485  14.011  72.341  1.00  0.00     0.000 HD 
HETATM    4  H2  UNL     1      -5.744  12.548  72.022  1.00  0.00     0.000 HD 
ENDROOT
BRANCH   2   5
HETATM    5  C   UNL     1      -7.803  10.812  72.505  1.00  0.00     9.646 C  
HETATM    6  O   UNL     1      -7.347  10.007  71.386  1.00  0.00     0.103 OA 
HETATM    7  C   UNL     1      -7.282   8.619  71.759  1.00  0.00    -0.080 C  
HETATM    8  C   UNL     1      -8.706   8.083  72.121  1.00  0.00    -0.157 C  
HETATM    9  O   UNL     1     -10.130  10.765  71.780  1.00  0.00     3.315 OA 
HETATM   10  H   UNL     1     -11.023  10.530  72.004  1.00  0.00     0.000 HD 
HETATM   11  N   UNL     1      -9.574   8.039  70.898  1.00  0.00    -0.160 NA 
HETATM   12  C   UNL     1      -9.342   8.936  73.217  1.00  0.00     1.076 C  
HETATM   13  H2  UNL     1      -9.145   7.499  70.146  1.00  0.00     0.000 HD 
HETATM   14  O   UNL     1      -8.761   8.681  74.503  1.00  0.00    -0.092 OA 
HETATM   15  C   UNL     1      -9.259  10.428  72.871  1.00  0.00    10.546 C  
HETATM   16  H1  UNL     1     -10.503   7.689  71.135  1.00  0.00     0.000 HD 
HETATM   17  H   UNL     1      -9.157   9.212  75.185  1.00  0.00     0.000 HD 
BRANCH   7  18
HETATM   18  O   UNL     1      -6.904   7.756  70.701  1.00  0.00    -0.042 OA 
BRANCH  18  19
HETATM   19  C   UNL     1      -7.848   7.382  69.706  1.00  0.00    -0.116 C  
HETATM   20  O   UNL     1      -6.328   5.463  69.298  1.00  0.00    -0.031 OA 
HETATM   21  C   UNL     1      -9.088   7.073  70.554  1.00  0.00    -0.156 C  
HETATM   22  C   UNL     1      -8.752   5.139  69.353  1.00  0.00    -0.099 C  
HETATM   23  H   UNL     1      -6.166   4.653  68.829  1.00  0.00     0.000 HD 
HETATM   24  O   UNL     1      -9.210   5.642  70.609  1.00  0.00    -0.147 OA 
HETATM   25  C   UNL     1      -7.586   6.067  68.943  1.00  0.00    -0.091 C  
BRANCH  21  26
HETATM   26  C   UNL     1     -10.370   7.738  70.046  1.00  0.00    -0.221 C  
HETATM   27  H   UNL     1     -12.335   7.470  70.166  1.00  0.00     0.000 HD 
HETATM   28  O   UNL     1     -11.540   7.058  70.480  1.00  0.00    -0.308 OA 
ENDBRANCH  21  26
BRANCH  22  29
HETATM   29  O   UNL     1      -9.815   5.152  68.392  1.00  0.00    -0.140 OA 
BRANCH  29  30
HETATM   30  C   UNL     1      -9.467   5.475  67.003  1.00  0.00    -0.131 C  
HETATM   31  C   UNL     1      -9.467   4.196  66.125  1.00  0.00    -0.183 C  
HETATM   32  O   UNL     1     -10.789   4.013  65.571  1.00  0.00    -0.440 OA 
HETATM   33  C   UNL     1      -8.473   4.100  64.957  1.00  0.00    -0.115 C  
HETATM   34  C   UNL     1      -7.210   4.918  65.154  1.00  0.00    -0.064 C  
HETATM   35  N   UNL     1      -8.083   2.682  64.747  1.00  0.00    -0.085 NA 
HETATM   36  H   UNL     1     -10.789   3.229  65.034  1.00  0.00     0.000 HD 
HETATM   37  H1  UNL     1      -7.424   2.618  63.971  1.00  0.00     0.000 HD 
HETATM   38  H2  UNL     1      -8.893   2.077  64.612  1.00  0.00     0.000 HD 
HETATM   39  C   UNL     1      -7.569   6.363  65.501  1.00  0.00    -0.087 C  
HETATM   40  C   UNL     1      -8.235   6.418  66.899  1.00  0.00    -0.110 C  
HETATM   41  N   UNL     1      -6.335   7.177  65.455  1.00  0.00    -0.037 NA 
HETATM   42  H2  UNL     1      -5.847   7.099  64.562  1.00  0.00     0.000 HD 
HETATM   43  H1  UNL     1      -6.575   8.141  65.686  1.00  0.00     0.000 HD 
BRANCH  40  44
HETATM   44  O   UNL     1      -8.591   7.801  67.145  1.00  0.00    -0.125 OA 
BRANCH  44  45
HETATM   45  C   UNL     1      -9.017   8.099  68.477  1.00  0.00    -0.137 C  
HETATM   46  O   UNL     1      -9.824   9.279  68.521  1.00  0.00    -0.151 OA 
HETATM   47  C   UNL     1     -11.069   9.148  67.820  1.00  0.00     0.202 C  
HETATM   48  C   UNL     1     -11.912   7.989  68.374  1.00  0.00     2.834 C  
HETATM   49  H1  UNL     1      -9.459   4.827  69.445  1.00  0.00     0.000 HD 
HETATM   50  O   UNL     1     -13.137   7.813  67.649  1.00  0.00     9.137 OA 
HETATM   51  H2  UNL     1      -8.070   5.768  69.521  1.00  0.00     0.000 HD 
HETATM   52  C   UNL     1     -11.102   6.686  68.327  1.00  0.00    -0.198 C  
HETATM   53  H   UNL     1     -13.659   7.096  67.991  1.00  0.00     0.000 HD 
HETATM   54  O   UNL     1     -11.856   5.625  68.938  1.00  0.00     1.159 OA 
HETATM   55  C   UNL     1      -9.768   6.876  69.072  1.00  0.00    -0.150 C  
HETATM   56  N   UNL     1      -8.966   5.629  69.053  1.00  0.00    -0.112 NA 
HETATM   57  H   UNL     1     -11.354   4.819  68.909  1.00  0.00     0.000 HD 
BRANCH  47  58
HETATM   58  C   UNL     1     -11.797  10.510  67.864  1.00  0.00     0.552 C  
HETATM   59  H1  UNL     1     -11.434  12.566  67.573  1.00  0.00     0.000 HD 
HETATM   60  N   UNL     1     -10.953  11.666  67.544  1.00  0.00    -0.242 NA 
HETATM   61  H2  UNL     1     -10.502  11.535  66.638  1.00  0.00     0.000 HD 
ENDBRANCH  47  58
ENDBRANCH  44  45
ENDBRANCH  40  44
ENDBRANCH  29  30
ENDBRANCH  22  29
ENDBRANCH  18  19
ENDBRANCH   7  18
ENDBRANCH   2   5
TORSDOF 9
ENDMDL
MODEL      363
REMARK 921   NORMALIZED FREE ENERGY PREDICTED BY IDOCK:  104.20 KCAL/MOL
REMARK 922        TOTAL FREE ENERGY PREDICTED BY IDOCK:  156.21 KCAL/MOL
REMARK 923 INTER-LIGAND FREE ENERGY PREDICTED BY IDOCK:   82.35 KCAL/MOL
REMARK 924 INTRA-LIGAND FREE ENERGY PREDICTED BY IDOCK:   73.86 KCAL/MOL
REMARK 927      BINDING AFFINITY PREDICTED BY RF-SCORE:    0.00 PKD
ROOT
HETATM    1  N   UNL     1     -12.437   7.247  62.866  1.00  0.00    15.756 NA 
HETATM    2  C   UNL     1     -12.067   8.589  63.323  1.00  0.00    21.507 C  
HETATM    3  H1  UNL     1     -13.436   7.087  62.741  1.00  0.00     0.000 HD 
HETATM    4  H2  UNL     1     -12.048   6.545  63.494  1.00  0.00     0.000 HD 
ENDROOT
BRANCH   2   5
HETATM    5  C   UNL     1     -10.546   8.832  63.514  1.00  0.00     7.821 C  
HETATM    6  O   UNL     1      -9.951   8.018  64.558  1.00  0.00     2.720 OA 
HETATM    7  C   UNL     1      -8.525   8.206  64.589  1.00  0.00    -0.024 C  
HETATM    8  C   UNL     1      -8.176   9.687  64.949  1.00  0.00    -0.143 C  
HETATM    9  O   UNL     1     -11.071  10.662  65.037  1.00  0.00     0.103 OA 
HETATM   10  H   UNL     1     -10.949  11.583  65.238  1.00  0.00     0.000 HD 
HETATM   11  N   UNL     1      -8.562   9.986  66.368  1.00  0.00    -0.128 NA 
HETATM   12  C   UNL     1      -8.855  10.653  63.979  1.00  0.00    -0.164 C  
HETATM   13  H2  UNL     1      -8.142   9.326  67.023  1.00  0.00     0.000 HD 
HETATM   14  O   UNL     1      -8.217  10.664  62.695  1.00  0.00    -0.164 OA 
HETATM   15  C   UNL     1     -10.349  10.334  63.840  1.00  0.00     0.427 C  
HETATM   16  H1  UNL     1      -8.335  10.952  66.603  1.00  0.00     0.000 HD 
HETATM   17  H   UNL     1      -8.638  11.265  62.092  1.00  0.00     0.000 HD 
BRANCH   7  18
HETATM   18  O   UNL     1      -7.873   7.491  65.624  1.00  0.00    -0.097 OA 
BRANCH  18  19
HETATM   19  C   UNL     1      -8.319   7.607  66.969  1.00  0.00    -0.124 C  
HETATM   20  O   UNL     1     -10.189   6.145  66.244  1.00  0.00    -0.392 OA 
HETATM   21  C   UNL     1      -7.190   6.905  67.734  1.00  0.00    -0.091 C  
HETATM   22  C   UNL     1      -9.083   5.775  68.394  1.00  0.00    -0.118 C  
HETATM   23  H   UNL     1     -10.966   5.656  66.487  1.00  0.00     0.000 HD 
HETATM   24  O   UNL     1      -7.690   5.614  68.123  1.00  0.00    -0.087 OA 
HETATM   25  C   UNL     1      -9.582   6.814  67.365  1.00  0.00    -0.134 C  
BRANCH  21  26
HETATM   26  C   UNL     1      -6.662   7.700  68.931  1.00  0.00    -0.050 C  
HETATM   27  H   UNL     1      -5.035   8.722  69.439  1.00  0.00     0.000 HD 
HETATM   28  O   UNL     1      -5.364   8.229  68.696  1.00  0.00    -0.031 OA 
ENDBRANCH  21  26
BRANCH  22  29
HETATM   29  O   UNL     1      -9.282   6.214  69.745  1.00  0.00    -0.143 OA 
BRANCH  29  30
HETATM   30  C   UNL     1      -9.902   7.530  69.943  1.00  0.00    -0.187 C  
HETATM   31  C   UNL     1      -8.858   8.662  69.755  1.00  0.00    -0.137 C  
HETATM   32  O   UNL     1      -8.851   9.063  68.368  1.00  0.00    -0.133 OA 
HETATM   33  C   UNL     1      -8.997   9.943  70.593  1.00  0.00     0.328 C  
HETATM   34  C   UNL     1      -9.705   9.737  71.920  1.00  0.00     1.888 C  
HETATM   35  N   UNL     1      -7.652  10.513  70.864  1.00  0.00     0.215 NA 
HETATM   36  H   UNL     1      -8.212   9.757  68.253  1.00  0.00     0.000 HD 
HETATM   37  H1  UNL     1      -7.745  11.363  71.420  1.00  0.00     0.000 HD 
HETATM   38  H2  UNL     1      -7.122  10.670  70.007  1.00  0.00     0.000 HD 
HETATM   39  C   UNL     1     -11.044   9.034  71.698  1.00  0.00    -0.363 C  
HETATM   40  C   UNL     1     -10.800   7.583  71.210  1.00  0.00    -0.235 C  
HETATM   41  N   UNL     1     -11.805   9.060  72.966  1.00  0.00     0.620 NA 
HETATM   42  H2  UNL     1     -11.915  10.004  73.336  1.00  0.00     0.000 HD 
HETATM   43  H1  UNL     1     -12.698   8.590  72.817  1.00  0.00     0.000 HD 
BRANCH  40  44
HETATM   44  O   UNL     1     -12.102   6.991  70.975  1.00  0.00    -0.342 OA 
BRANCH  44  45
HETATM   45  C   UNL     1     -12.842   7.546  69.884  1.00  0.00     1.833 C  
HETATM   46  O   UNL     1     -12.148   8.638  69.277  1.00  0.00     1.341 OA 
HETATM   47  C   UNL     1     -10.915   8.256  68.651  1.00  0.00     0.212 C  
HETATM   48  C   UNL     1     -11.134   7.189  67.568  1.00  0.00    -0.100 C  
HETATM   49  H1  UNL     1     -14.100   4.549  68.754  1.00  0.00     0.000 HD 
HETATM   50  O   UNL     1      -9.904   6.759  66.970  1.00  0.00    -0.148 OA 
HETATM   51  H2  UNL     1     -14.738   5.589  69.907  1.00  0.00     0.000 HD 
HETATM   52  C   UNL     1     -11.857   5.976  68.172  1.00  0.00     2.114 C  
HETATM   53  H   UNL     1     -10.040   6.099  66.300  1.00  0.00     0.000 HD 
HETATM   54  O   UNL     1     -12.151   5.023  67.136  1.00  0.00     4.089 OA 
HETATM   55  C   UNL     1     -13.163   6.432  68.849  1.00  0.00     9.477 C  
HETATM   56  N   UNL     1     -13.889   5.279  69.433  1.00  0.00    15.763 NA 
HETATM   57  H   UNL     1     -12.598   4.273  67.510  1.00  0.00     0.000 HD 
BRANCH  47  58
HETATM   58  C   UNL     1     -10.224   9.533  68.120  1.00  0.00    -0.193 C  
HETATM   59  H1  UNL     1      -8.844  10.153  66.652  1.00  0.00     0.000 HD 
HETATM   60  N   UNL     1      -9.301   9.310  67.002  1.00  0.00    -0.140 NA 
HETATM   61  H2  UNL     1      -9.776   8.822  66.242  1.00  0.00     0.000 HD 
ENDBRANCH  47  58
ENDBRANCH  44  45
ENDBRANCH  40  44
ENDBRANCH  29  30
ENDBRANCH  22  29
ENDBRANCH  18  19
ENDBRANCH   7  18
ENDBRANCH   2   5
TORSDOF 9
ENDMDL
