MODEL        1
REMARK 921   NORMALIZED FREE ENERGY PREDICTED BY IDOCK:   -6.68 KCAL/MOL
REMARK 922        TOTAL FREE ENERGY PREDICTED BY IDOCK:   -7.58 KCAL/MOL
REMARK 923 INTER-LIGAND FREE ENERGY PREDICTED BY IDOCK:   -7.46 KCAL/MOL
REMARK 924 INTRA-LIGAND FREE ENERGY PREDICTED BY IDOCK:   -0.11 KCAL/MOL
REMARK 927      BINDING AFFINITY PREDICTED BY RF-SCORE:    0.00 PKD
ROOT
HETATM    1  C   UNL     1     -13.385   9.160  72.199  1.00  0.00    -0.463 C  
HETATM    2  N   UNL     1     -12.325   9.146  71.196  1.00  0.00    -0.379 NA 
HETATM    3  H   UNL     1     -12.598   8.592  70.385  1.00  0.00     0.000 HD 
ENDROOT
BRANCH   2   4
HETATM    4  C   UNL     1     -11.897  10.501  70.790  1.00  0.00    -0.365 C  
HETATM    5  C   UNL     1     -12.900  11.545  71.358  1.00  0.00    -0.489 C  
HETATM    6  C   UNL     1     -12.485  12.996  71.026  1.00  0.00    -0.385 C  
HETATM    7  C   UNL     1     -12.159  13.087  69.579  1.00  0.00    -0.230 A  
HETATM    8  C   UNL     1     -11.822  12.025  68.773  1.00  0.00    -0.358 A  
HETATM    9  C   UNL     1     -11.644  12.521  67.459  1.00  0.00    -0.424 A  
HETATM   10  C   UNL     1     -11.763  10.618  69.249  1.00  0.00    -0.336 C  
HETATM   11  C   UNL     1     -11.867  13.896  67.502  1.00  0.00    -0.396 A  
HETATM   12  N   UNL     1     -12.163  14.221  68.813  1.00  0.00    -0.562 NA 
HETATM   13  C   UNL     1     -11.793  14.696  66.358  1.00  0.00    -0.304 A  
HETATM   14  H   UNL     1     -12.355  15.162  69.157  1.00  0.00     0.000 HD 
HETATM   15  C   UNL     1     -11.489  14.060  65.143  1.00  0.00    -0.328 A  
HETATM   16  C   UNL     1     -11.262  12.679  65.069  1.00  0.00    -0.331 A  
HETATM   17  C   UNL     1     -11.336  11.904  66.232  1.00  0.00    -0.394 A  
BRANCH  16  18
HETATM   18  C   UNL     1     -10.955  12.086  63.735  1.00  0.00    -0.426 C  
HETATM   19  N   UNL     1     -11.972  11.520  63.016  1.00  0.00    -0.908 N  
HETATM   20  O   UNL     1      -9.819  12.097  63.275  1.00  0.00    -0.385 OA 
HETATM   21  H1  UNL     1     -11.763  11.114  62.104  1.00  0.00     0.000 HD 
HETATM   22  H2  UNL     1     -12.923  11.504  63.384  1.00  0.00     0.000 HD 
ENDBRANCH  16  18
ENDBRANCH   2   4
TORSDOF 2
ENDMDL
MODEL        2
REMARK 921   NORMALIZED FREE ENERGY PREDICTED BY IDOCK:   -6.66 KCAL/MOL
REMARK 922        TOTAL FREE ENERGY PREDICTED BY IDOCK:   -7.55 KCAL/MOL
REMARK 923 INTER-LIGAND FREE ENERGY PREDICTED BY IDOCK:   -7.43 KCAL/MOL
REMARK 924 INTRA-LIGAND FREE ENERGY PREDICTED BY IDOCK:   -0.13 KCAL/MOL
REMARK 927      BINDING AFFINITY PREDICTED BY RF-SCORE:    0.00 PKD
ROOT
HETATM    1  C   UNL     1     -10.970  17.176  65.156  1.00  0.00     0.048 C  
HETATM    2  N   UNL     1     -11.059  15.989  64.312  1.00  0.00    -1.044 NA 
HETATM    3  H   UNL     1     -10.464  16.082  63.489  1.00  0.00     0.000 HD 
ENDROOT
BRANCH   2   4
HETATM    4  C   UNL     1     -10.760  14.738  65.040  1.00  0.00    -0.433 C  
HETATM    5  C   UNL     1     -11.372  13.537  64.264  1.00  0.00    -0.402 C  
HETATM    6  C   UNL     1     -11.047  12.183  64.934  1.00  0.00    -0.367 C  
HETATM    7  C   UNL     1     -11.349  12.276  66.385  1.00  0.00    -0.354 A  
HETATM    8  C   UNL     1     -11.441  13.445  67.104  1.00  0.00    -0.373 A  
HETATM    9  C   UNL     1     -11.797  13.108  68.432  1.00  0.00    -0.386 A  
HETATM   10  C   UNL     1     -11.273  14.794  66.503  1.00  0.00    -0.342 C  
HETATM   11  C   UNL     1     -11.900  11.720  68.493  1.00  0.00    -0.303 A  
HETATM   12  N   UNL     1     -11.604  11.232  67.233  1.00  0.00    -0.543 NA 
HETATM   13  C   UNL     1     -12.262  11.053  69.667  1.00  0.00    -0.370 A  
HETATM   14  H   UNL     1     -11.579  10.246  66.975  1.00  0.00     0.000 HD 
HETATM   15  C   UNL     1     -12.529  11.839  70.800  1.00  0.00    -0.405 A  
HETATM   16  C   UNL     1     -12.436  13.237  70.768  1.00  0.00    -0.403 A  
HETATM   17  C   UNL     1     -12.065  13.877  69.580  1.00  0.00    -0.404 A  
BRANCH  16  18
HETATM   18  C   UNL     1     -12.747  13.993  72.015  1.00  0.00    -0.277 C  
HETATM   19  N   UNL     1     -11.931  15.030  72.380  1.00  0.00    -0.363 N  
HETATM   20  O   UNL     1     -13.714  13.708  72.713  1.00  0.00    -0.707 OA 
HETATM   21  H1  UNL     1     -12.144  15.547  73.232  1.00  0.00     0.000 HD 
HETATM   22  H2  UNL     1     -11.124  15.281  71.809  1.00  0.00     0.000 HD 
ENDBRANCH  16  18
ENDBRANCH   2   4
TORSDOF 2
ENDMDL
MODEL        3
REMARK 921   NORMALIZED FREE ENERGY PREDICTED BY IDOCK:   -6.62 KCAL/MOL
REMARK 922        TOTAL FREE ENERGY PREDICTED BY IDOCK:   -7.51 KCAL/MOL
REMARK 923 INTER-LIGAND FREE ENERGY PREDICTED BY IDOCK:   -7.36 KCAL/MOL
REMARK 924 INTRA-LIGAND FREE ENERGY PREDICTED BY IDOCK:   -0.15 KCAL/MOL
REMARK 927      BINDING AFFINITY PREDICTED BY RF-SCORE:    0.00 PKD
ROOT
HETATM    1  C   UNL     1     -10.633  14.464  64.839  1.00  0.00    -0.434 C  
HETATM    2  N   UNL     1     -10.005  13.168  64.602  1.00  0.00    -0.603 NA 
HETATM    3  H   UNL     1      -9.080  13.282  64.187  1.00  0.00     0.000 HD 
ENDROOT
BRANCH   2   4
HETATM    4  C   UNL     1      -9.938  12.328  65.816  1.00  0.00    -0.254 C  
HETATM    5  C   UNL     1     -10.455  10.901  65.479  1.00  0.00    -0.286 C  
HETATM    6  C   UNL     1     -10.357   9.943  66.688  1.00  0.00    -0.275 C  
HETATM    7  C   UNL     1     -10.939  10.609  67.881  1.00  0.00    -0.295 A  
HETATM    8  C   UNL     1     -11.102  11.966  68.033  1.00  0.00    -0.293 A  
HETATM    9  C   UNL     1     -11.740  12.188  69.277  1.00  0.00    -0.386 A  
HETATM   10  C   UNL     1     -10.732  12.960  66.991  1.00  0.00    -0.273 C  
HETATM   11  C   UNL     1     -11.939  10.942  69.868  1.00  0.00    -0.353 A  
HETATM   12  N   UNL     1     -11.426   9.993  69.003  1.00  0.00    -0.475 NA 
HETATM   13  C   UNL     1     -12.572  10.800  71.106  1.00  0.00    -0.532 A  
HETATM   14  H   UNL     1     -11.411   8.987  69.174  1.00  0.00     0.000 HD 
HETATM   15  C   UNL     1     -13.014  11.971  71.744  1.00  0.00    -0.445 A  
HETATM   16  C   UNL     1     -12.828  13.237  71.173  1.00  0.00    -0.363 A  
HETATM   17  C   UNL     1     -12.185  13.350  69.935  1.00  0.00    -0.337 A  
BRANCH  16  18
HETATM   18  C   UNL     1     -13.338  14.426  71.916  1.00  0.00    -0.374 C  
HETATM   19  N   UNL     1     -13.804  15.498  71.204  1.00  0.00    -0.762 N  
HETATM   20  O   UNL     1     -13.349  14.461  73.141  1.00  0.00    -0.626 OA 
HETATM   21  H1  UNL     1     -14.152  16.311  71.711  1.00  0.00     0.000 HD 
HETATM   22  H2  UNL     1     -13.804  15.485  70.184  1.00  0.00     0.000 HD 
ENDBRANCH  16  18
ENDBRANCH   2   4
TORSDOF 2
ENDMDL
MODEL        4
REMARK 921   NORMALIZED FREE ENERGY PREDICTED BY IDOCK:   -6.60 KCAL/MOL
REMARK 922        TOTAL FREE ENERGY PREDICTED BY IDOCK:   -7.49 KCAL/MOL
REMARK 923 INTER-LIGAND FREE ENERGY PREDICTED BY IDOCK:   -7.39 KCAL/MOL
REMARK 924 INTRA-LIGAND FREE ENERGY PREDICTED BY IDOCK:   -0.10 KCAL/MOL
REMARK 927      BINDING AFFINITY PREDICTED BY RF-SCORE:    0.00 PKD
ROOT
HETATM    1  C   UNL     1     -13.228  11.313  71.916  1.00  0.00    -0.386 C  
HETATM    2  N   UNL     1     -13.474  12.738  72.115  1.00  0.00    -0.542 NA 
HETATM    3  H   UNL     1     -13.600  12.950  73.105  1.00  0.00     0.000 HD 
ENDROOT
BRANCH   2   4
HETATM    4  C   UNL     1     -12.425  13.593  71.522  1.00  0.00    -0.238 C  
HETATM    5  C   UNL     1     -12.660  15.067  71.960  1.00  0.00    -0.405 C  
HETATM    6  C   UNL     1     -11.564  16.017  71.428  1.00  0.00    -0.520 C  
HETATM    7  C   UNL     1     -11.369  15.765  69.976  1.00  0.00    -0.351 A  
HETATM    8  C   UNL     1     -11.724  14.612  69.316  1.00  0.00    -0.348 A  
HETATM    9  C   UNL     1     -11.424  14.792  67.943  1.00  0.00    -0.361 A  
HETATM   10  C   UNL     1     -12.385  13.457  69.977  1.00  0.00    -0.294 C  
HETATM   11  C   UNL     1     -10.872  16.064  67.804  1.00  0.00    -0.324 A  
HETATM   12  N   UNL     1     -10.832  16.633  69.064  1.00  0.00    -0.322 NA 
HETATM   13  C   UNL     1     -10.483  16.571  66.561  1.00  0.00    -0.270 A  
HETATM   14  H   UNL     1     -10.460  17.557  69.280  1.00  0.00     0.000 HD 
HETATM   15  C   UNL     1     -10.674  15.749  65.439  1.00  0.00    -0.420 A  
HETATM   16  C   UNL     1     -11.229  14.467  65.549  1.00  0.00    -0.330 A  
HETATM   17  C   UNL     1     -11.603  13.982  66.807  1.00  0.00    -0.406 A  
BRANCH  16  18
HETATM   18  C   UNL     1     -11.405  13.666  64.302  1.00  0.00    -0.350 C  
HETATM   19  N   UNL     1     -12.370  14.043  63.408  1.00  0.00    -1.154 N  
HETATM   20  O   UNL     1     -10.707  12.687  64.066  1.00  0.00    -0.370 OA 
HETATM   21  H1  UNL     1     -12.491  13.495  62.556  1.00  0.00     0.000 HD 
HETATM   22  H2  UNL     1     -12.958  14.856  63.589  1.00  0.00     0.000 HD 
ENDBRANCH  16  18
ENDBRANCH   2   4
TORSDOF 2
ENDMDL
MODEL        5
REMARK 921   NORMALIZED FREE ENERGY PREDICTED BY IDOCK:   -6.60 KCAL/MOL
REMARK 922        TOTAL FREE ENERGY PREDICTED BY IDOCK:   -7.48 KCAL/MOL
REMARK 923 INTER-LIGAND FREE ENERGY PREDICTED BY IDOCK:   -7.36 KCAL/MOL
REMARK 924 INTRA-LIGAND FREE ENERGY PREDICTED BY IDOCK:   -0.12 KCAL/MOL
REMARK 927      BINDING AFFINITY PREDICTED BY RF-SCORE:    0.00 PKD
ROOT
HETATM    1  C   UNL     1     -12.526  15.889  74.065  1.00  0.00    -0.638 C  
HETATM    2  N   UNL     1     -13.608  15.989  73.090  1.00  0.00    -0.645 NA 
HETATM    3  H   UNL     1     -13.584  16.889  72.611  1.00  0.00     0.000 HD 
ENDROOT
BRANCH   2   4
HETATM    4  C   UNL     1     -13.616  14.875  72.120  1.00  0.00    -0.419 C  
HETATM    5  C   UNL     1     -12.936  13.633  72.764  1.00  0.00    -0.273 C  
HETATM    6  C   UNL     1     -12.961  12.402  71.829  1.00  0.00    -0.422 C  
HETATM    7  C   UNL     1     -12.490  12.810  70.480  1.00  0.00    -0.202 A  
HETATM    8  C   UNL     1     -12.482  14.097  69.997  1.00  0.00    -0.352 A  
HETATM    9  C   UNL     1     -11.909  14.069  68.703  1.00  0.00    -0.396 A  
HETATM   10  C   UNL     1     -12.930  15.274  70.787  1.00  0.00    -0.492 C  
HETATM   11  C   UNL     1     -11.589  12.742  68.421  1.00  0.00    -0.325 A  
HETATM   12  N   UNL     1     -11.971  11.988  69.516  1.00  0.00    -0.301 NA 
HETATM   13  C   UNL     1     -10.980  12.365  67.221  1.00  0.00    -0.302 A  
HETATM   14  H   UNL     1     -11.879  10.976  69.593  1.00  0.00     0.000 HD 
HETATM   15  C   UNL     1     -10.689  13.381  66.296  1.00  0.00    -0.290 A  
HETATM   16  C   UNL     1     -10.997  14.723  66.553  1.00  0.00    -0.325 A  
HETATM   17  C   UNL     1     -11.613  15.072  67.760  1.00  0.00    -0.336 A  
BRANCH  16  18
HETATM   18  C   UNL     1     -10.642  15.738  65.519  1.00  0.00    -0.406 C  
HETATM   19  N   UNL     1     -11.201  15.634  64.274  1.00  0.00    -0.754 N  
HETATM   20  O   UNL     1      -9.869  16.658  65.761  1.00  0.00    -0.482 OA 
HETATM   21  H1  UNL     1     -10.960  16.327  63.567  1.00  0.00     0.000 HD 
HETATM   22  H2  UNL     1     -11.848  14.876  64.057  1.00  0.00     0.000 HD 
ENDBRANCH  16  18
ENDBRANCH   2   4
TORSDOF 2
ENDMDL
MODEL        6
REMARK 921   NORMALIZED FREE ENERGY PREDICTED BY IDOCK:   -6.51 KCAL/MOL
REMARK 922        TOTAL FREE ENERGY PREDICTED BY IDOCK:   -7.39 KCAL/MOL
REMARK 923 INTER-LIGAND FREE ENERGY PREDICTED BY IDOCK:   -7.27 KCAL/MOL
REMARK 924 INTRA-LIGAND FREE ENERGY PREDICTED BY IDOCK:   -0.12 KCAL/MOL
REMARK 927      BINDING AFFINITY PREDICTED BY RF-SCORE:    0.00 PKD
ROOT
HETATM    1  C   UNL     1      -9.945  10.851  63.549  1.00  0.00    -0.363 C  
HETATM    2  N   UNL     1      -9.799  12.301  63.616  1.00  0.00    -0.613 NA 
HETATM    3  H   UNL     1      -9.870  12.718  62.687  1.00  0.00     0.000 HD 
ENDROOT
BRANCH   2   4
HETATM    4  C   UNL     1     -10.751  12.935  64.552  1.00  0.00    -0.371 C  
HETATM    5  C   UNL     1     -10.297  14.396  64.831  1.00  0.00    -0.419 C  
HETATM    6  C   UNL     1     -11.279  15.147  65.757  1.00  0.00    -0.287 C  
HETATM    7  C   UNL     1     -11.580  14.295  66.936  1.00  0.00    -0.387 A  
HETATM    8  C   UNL     1     -11.417  12.930  66.992  1.00  0.00    -0.390 A  
HETATM    9  C   UNL     1     -11.759  12.508  68.300  1.00  0.00    -0.390 A  
HETATM   10  C   UNL     1     -10.886  12.119  65.865  1.00  0.00    -0.316 C  
HETATM   11  C   UNL     1     -12.140  13.643  69.014  1.00  0.00    -0.309 A  
HETATM   12  N   UNL     1     -12.039  14.721  68.153  1.00  0.00    -0.573 NA 
HETATM   13  C   UNL     1     -12.519  13.581  70.358  1.00  0.00    -0.345 A  
HETATM   14  H   UNL     1     -12.271  15.685  68.390  1.00  0.00     0.000 HD 
HETATM   15  C   UNL     1     -12.497  12.321  70.978  1.00  0.00    -0.361 A  
HETATM   16  C   UNL     1     -12.117  11.163  70.285  1.00  0.00    -0.462 A  
HETATM   17  C   UNL     1     -11.749  11.254  68.938  1.00  0.00    -0.409 A  
BRANCH  16  18
HETATM   18  C   UNL     1     -12.114   9.868  71.025  1.00  0.00    -0.358 C  
HETATM   19  N   UNL     1     -13.265   9.128  71.065  1.00  0.00    -0.550 N  
HETATM   20  O   UNL     1     -11.108   9.456  71.592  1.00  0.00    -0.369 OA 
HETATM   21  H1  UNL     1     -13.262   8.243  71.571  1.00  0.00     0.000 HD 
HETATM   22  H2  UNL     1     -14.109   9.456  70.598  1.00  0.00     0.000 HD 
ENDBRANCH  16  18
ENDBRANCH   2   4
TORSDOF 2
ENDMDL
MODEL        7
REMARK 921   NORMALIZED FREE ENERGY PREDICTED BY IDOCK:   -6.43 KCAL/MOL
REMARK 922        TOTAL FREE ENERGY PREDICTED BY IDOCK:   -7.30 KCAL/MOL
REMARK 923 INTER-LIGAND FREE ENERGY PREDICTED BY IDOCK:   -7.19 KCAL/MOL
REMARK 924 INTRA-LIGAND FREE ENERGY PREDICTED BY IDOCK:   -0.11 KCAL/MOL
REMARK 927      BINDING AFFINITY PREDICTED BY RF-SCORE:    0.00 PKD
ROOT
HETATM    1  C   UNL     1     -10.232  11.775  63.485  1.00  0.00    -0.450 C  
HETATM    2  N   UNL     1      -9.665  12.183  64.766  1.00  0.00    -0.449 NA 
HETATM    3  H   UNL     1      -8.866  12.803  64.630  1.00  0.00     0.000 HD 
ENDROOT
BRANCH   2   4
HETATM    4  C   UNL     1     -10.660  12.796  65.670  1.00  0.00    -0.275 C  
HETATM    5  C   UNL     1     -10.158  14.203  66.104  1.00  0.00    -0.324 C  
HETATM    6  C   UNL     1     -11.179  14.936  67.004  1.00  0.00    -0.344 C  
HETATM    7  C   UNL     1     -11.624  14.013  68.080  1.00  0.00    -0.334 A  
HETATM    8  C   UNL     1     -11.536  12.642  68.038  1.00  0.00    -0.394 A  
HETATM    9  C   UNL     1     -12.012  12.140  69.274  1.00  0.00    -0.318 A  
HETATM   10  C   UNL     1     -10.951  11.891  66.896  1.00  0.00    -0.335 C  
HETATM   11  C   UNL     1     -12.395  13.236  70.045  1.00  0.00    -0.200 A  
HETATM   12  N   UNL     1     -12.165  14.370  69.286  1.00  0.00    -0.504 NA 
HETATM   13  C   UNL     1     -12.892  13.092  71.343  1.00  0.00    -0.401 A  
HETATM   14  H   UNL     1     -12.367  15.325  69.581  1.00  0.00     0.000 HD 
HETATM   15  C   UNL     1     -12.989  11.789  71.857  1.00  0.00    -0.435 A  
HETATM   16  C   UNL     1     -12.609  10.669  71.106  1.00  0.00    -0.526 A  
HETATM   17  C   UNL     1     -12.121  10.842  69.806  1.00  0.00    -0.409 A  
BRANCH  16  18
HETATM   18  C   UNL     1     -12.736   9.322  71.735  1.00  0.00    -0.381 C  
HETATM   19  N   UNL     1     -13.608   9.161  72.777  1.00  0.00    -0.823 N  
HETATM   20  O   UNL     1     -12.081   8.365  71.338  1.00  0.00    -0.291 OA 
HETATM   21  H1  UNL     1     -13.695   8.240  73.207  1.00  0.00     0.000 HD 
HETATM   22  H2  UNL     1     -14.162   9.947  73.118  1.00  0.00     0.000 HD 
ENDBRANCH  16  18
ENDBRANCH   2   4
TORSDOF 2
ENDMDL
MODEL        8
REMARK 921   NORMALIZED FREE ENERGY PREDICTED BY IDOCK:   -6.42 KCAL/MOL
REMARK 922        TOTAL FREE ENERGY PREDICTED BY IDOCK:   -7.29 KCAL/MOL
REMARK 923 INTER-LIGAND FREE ENERGY PREDICTED BY IDOCK:   -7.13 KCAL/MOL
REMARK 924 INTRA-LIGAND FREE ENERGY PREDICTED BY IDOCK:   -0.15 KCAL/MOL
REMARK 927      BINDING AFFINITY PREDICTED BY RF-SCORE:    0.00 PKD
ROOT
HETATM    1  C   UNL     1     -11.001   6.611  67.069  1.00  0.00    -0.393 C  
HETATM    2  N   UNL     1     -10.362   6.760  68.373  1.00  0.00    -0.178 NA 
HETATM    3  H   UNL     1      -9.465   6.277  68.396  1.00  0.00     0.000 HD 
ENDROOT
BRANCH   2   4
HETATM    4  C   UNL     1     -10.213   8.171  68.784  1.00  0.00    -0.207 C  
HETATM    5  C   UNL     1     -11.020   8.410  70.092  1.00  0.00    -0.216 C  
HETATM    6  C   UNL     1     -10.862   9.853  70.621  1.00  0.00    -0.400 C  
HETATM    7  C   UNL     1     -11.086  10.806  69.503  1.00  0.00    -0.278 A  
HETATM    8  C   UNL     1     -10.984  10.500  68.166  1.00  0.00    -0.330 A  
HETATM    9  C   UNL     1     -11.328  11.659  67.431  1.00  0.00    -0.367 A  
HETATM   10  C   UNL     1     -10.652   9.143  67.657  1.00  0.00    -0.307 C  
HETATM   11  C   UNL     1     -11.623  12.662  68.353  1.00  0.00    -0.328 A  
HETATM   12  N   UNL     1     -11.451  12.121  69.614  1.00  0.00    -0.452 NA 
HETATM   13  C   UNL     1     -12.026  13.940  67.956  1.00  0.00    -0.390 A  
HETATM   14  H   UNL     1     -11.577  12.624  70.492  1.00  0.00     0.000 HD 
HETATM   15  C   UNL     1     -12.133  14.185  66.577  1.00  0.00    -0.481 A  
HETATM   16  C   UNL     1     -11.845  13.196  65.627  1.00  0.00    -0.430 A  
HETATM   17  C   UNL     1     -11.437  11.927  66.053  1.00  0.00    -0.344 A  
BRANCH  16  18
HETATM   18  C   UNL     1     -11.995  13.540  64.183  1.00  0.00    -0.448 C  
HETATM   19  N   UNL     1     -12.409  14.800  63.845  1.00  0.00    -1.070 N  
HETATM   20  O   UNL     1     -11.755  12.723  63.301  1.00  0.00    -0.515 OA 
HETATM   21  H1  UNL     1     -12.512  15.035  62.859  1.00  0.00     0.000 HD 
HETATM   22  H2  UNL     1     -12.612  15.491  64.567  1.00  0.00     0.000 HD 
ENDBRANCH  16  18
ENDBRANCH   2   4
TORSDOF 2
ENDMDL
MODEL        9
REMARK 921   NORMALIZED FREE ENERGY PREDICTED BY IDOCK:   -6.36 KCAL/MOL
REMARK 922        TOTAL FREE ENERGY PREDICTED BY IDOCK:   -7.21 KCAL/MOL
REMARK 923 INTER-LIGAND FREE ENERGY PREDICTED BY IDOCK:   -7.09 KCAL/MOL
REMARK 924 INTRA-LIGAND FREE ENERGY PREDICTED BY IDOCK:   -0.13 KCAL/MOL
REMARK 927      BINDING AFFINITY PREDICTED BY RF-SCORE:    0.00 PKD
ROOT
HETATM    1  C   UNL     1     -11.438  11.981  63.438  1.00  0.00    -0.400 C  
HETATM    2  N   UNL     1     -12.596  12.500  64.159  1.00  0.00    -0.662 NA 
HETATM    3  H   UNL     1     -13.000  11.784  64.762  1.00  0.00     0.000 HD 
ENDROOT
BRANCH   2   4
HETATM    4  C   UNL     1     -12.297  13.728  64.926  1.00  0.00    -0.405 C  
HETATM    5  C   UNL     1     -10.844  14.185  64.611  1.00  0.00    -0.401 C  
HETATM    6  C   UNL     1     -10.477  15.502  65.330  1.00  0.00    -0.437 C  
HETATM    7  C   UNL     1     -10.857  15.394  66.762  1.00  0.00    -0.306 A  
HETATM    8  C   UNL     1     -11.779  14.511  67.274  1.00  0.00    -0.429 A  
HETATM    9  C   UNL     1     -11.811  14.687  68.679  1.00  0.00    -0.346 A  
HETATM   10  C   UNL     1     -12.511  13.516  66.448  1.00  0.00    -0.349 C  
HETATM   11  C   UNL     1     -10.902  15.697  68.990  1.00  0.00    -0.254 A  
HETATM   12  N   UNL     1     -10.344  16.126  67.799  1.00  0.00    -0.275 NA 
HETATM   13  C   UNL     1     -10.669  16.106  70.306  1.00  0.00    -0.235 A  
HETATM   14  H   UNL     1      -9.656  16.873  67.707  1.00  0.00     0.000 HD 
HETATM   15  C   UNL     1     -11.384  15.452  71.322  1.00  0.00    -0.441 A  
HETATM   16  C   UNL     1     -12.303  14.432  71.039  1.00  0.00    -0.427 A  
HETATM   17  C   UNL     1     -12.521  14.048  69.712  1.00  0.00    -0.255 A  
BRANCH  16  18
HETATM   18  C   UNL     1     -13.012  13.785  72.182  1.00  0.00    -0.343 C  
HETATM   19  N   UNL     1     -13.290  12.447  72.112  1.00  0.00    -0.498 N  
HETATM   20  O   UNL     1     -13.345  14.423  73.173  1.00  0.00    -0.626 OA 
HETATM   21  H1  UNL     1     -13.775  12.004  72.893  1.00  0.00     0.000 HD 
HETATM   22  H2  UNL     1     -13.018  11.901  71.295  1.00  0.00     0.000 HD 
ENDBRANCH  16  18
ENDBRANCH   2   4
TORSDOF 2
ENDMDL
MODEL       10
REMARK 921   NORMALIZED FREE ENERGY PREDICTED BY IDOCK:   -6.35 KCAL/MOL
REMARK 922        TOTAL FREE ENERGY PREDICTED BY IDOCK:   -7.21 KCAL/MOL
REMARK 923 INTER-LIGAND FREE ENERGY PREDICTED BY IDOCK:   -7.08 KCAL/MOL
REMARK 924 INTRA-LIGAND FREE ENERGY PREDICTED BY IDOCK:   -0.13 KCAL/MOL
REMARK 927      BINDING AFFINITY PREDICTED BY RF-SCORE:    0.00 PKD
ROOT
HETATM    1  C   UNL     1     -10.166  20.188  67.889  1.00  0.00    -0.360 C  
HETATM    2  N   UNL     1      -9.806  19.365  66.738  1.00  0.00    -0.336 NA 
HETATM    3  H   UNL     1      -8.927  19.679  66.327  1.00  0.00     0.000 HD 
ENDROOT
BRANCH   2   4
HETATM    4  C   UNL     1      -9.755  17.922  67.052  1.00  0.00    -0.298 C  
HETATM    5  C   UNL     1     -10.394  17.122  65.882  1.00  0.00    -0.294 C  
HETATM    6  C   UNL     1     -10.322  15.595  66.110  1.00  0.00    -0.329 C  
HETATM    7  C   UNL     1     -10.802  15.288  67.482  1.00  0.00    -0.304 A  
HETATM    8  C   UNL     1     -10.853  16.183  68.524  1.00  0.00    -0.313 A  
HETATM    9  C   UNL     1     -11.421  15.517  69.638  1.00  0.00    -0.337 A  
HETATM   10  C   UNL     1     -10.450  17.609  68.404  1.00  0.00    -0.360 C  
HETATM   11  C   UNL     1     -11.692  14.209  69.242  1.00  0.00    -0.323 A  
HETATM   12  N   UNL     1     -11.289  14.087  67.925  1.00  0.00    -0.276 NA 
HETATM   13  C   UNL     1     -12.284  13.280  70.104  1.00  0.00    -0.376 A  
HETATM   14  H   UNL     1     -11.345  13.235  67.368  1.00  0.00     0.000 HD 
HETATM   15  C   UNL     1     -12.607  13.716  71.399  1.00  0.00    -0.415 A  
HETATM   16  C   UNL     1     -12.348  15.026  71.824  1.00  0.00    -0.412 A  
HETATM   17  C   UNL     1     -11.749  15.932  70.941  1.00  0.00    -0.456 A  
BRANCH  16  18
HETATM   18  C   UNL     1     -12.733  15.406  73.214  1.00  0.00    -0.508 C  
HETATM   19  N   UNL     1     -13.888  16.116  73.407  1.00  0.00    -0.788 N  
HETATM   20  O   UNL     1     -12.044  15.096  74.178  1.00  0.00    -0.594 OA 
HETATM   21  H1  UNL     1     -14.151  16.376  74.357  1.00  0.00     0.000 HD 
HETATM   22  H2  UNL     1     -14.474  16.381  72.616  1.00  0.00     0.000 HD 
ENDBRANCH  16  18
ENDBRANCH   2   4
TORSDOF 2
ENDMDL
MODEL       11
REMARK 921   NORMALIZED FREE ENERGY PREDICTED BY IDOCK:   -6.35 KCAL/MOL
REMARK 922        TOTAL FREE ENERGY PREDICTED BY IDOCK:   -7.20 KCAL/MOL
REMARK 923 INTER-LIGAND FREE ENERGY PREDICTED BY IDOCK:   -7.09 KCAL/MOL
REMARK 924 INTRA-LIGAND FREE ENERGY PREDICTED BY IDOCK:   -0.11 KCAL/MOL
REMARK 927      BINDING AFFINITY PREDICTED BY RF-SCORE:    0.00 PKD
ROOT
HETATM    1  C   UNL     1     -10.868  16.397  68.479  1.00  0.00    -0.339 C  
HETATM    2  N   UNL     1     -11.283  16.510  69.874  1.00  0.00    -0.403 NA 
HETATM    3  H   UNL     1     -11.634  17.446  70.075  1.00  0.00     0.000 HD 
ENDROOT
BRANCH   2   4
HETATM    4  C   UNL     1     -12.268  15.481  70.268  1.00  0.00    -0.400 C  
HETATM    5  C   UNL     1     -12.682  15.712  71.750  1.00  0.00    -0.519 C  
HETATM    6  C   UNL     1     -13.761  14.710  72.218  1.00  0.00    -0.565 C  
HETATM    7  C   UNL     1     -13.342  13.336  71.838  1.00  0.00    -0.451 A  
HETATM    8  C   UNL     1     -12.431  13.026  70.855  1.00  0.00    -0.396 A  
HETATM    9  C   UNL     1     -12.269  11.620  70.845  1.00  0.00    -0.401 A  
HETATM   10  C   UNL     1     -11.716  14.048  70.047  1.00  0.00    -0.349 C  
HETATM   11  C   UNL     1     -13.108  11.099  71.828  1.00  0.00    -0.431 A  
HETATM   12  N   UNL     1     -13.768  12.167  72.410  1.00  0.00    -0.452 NA 
HETATM   13  C   UNL     1     -13.174   9.729  72.098  1.00  0.00    -0.530 A  
HETATM   14  H   UNL     1     -14.464  12.094  73.151  1.00  0.00     0.000 HD 
HETATM   15  C   UNL     1     -12.350   8.881  71.341  1.00  0.00    -0.368 A  
HETATM   16  C   UNL     1     -11.494   9.376  70.348  1.00  0.00    -0.272 A  
HETATM   17  C   UNL     1     -11.454  10.752  70.094  1.00  0.00    -0.415 A  
BRANCH  16  18
HETATM   18  C   UNL     1     -10.646   8.404  69.599  1.00  0.00    -0.219 C  
HETATM   19  N   UNL     1     -10.624   8.465  68.231  1.00  0.00    -0.391 N  
HETATM   20  O   UNL     1      -9.973   7.561  70.179  1.00  0.00    -0.190 OA 
HETATM   21  H1  UNL     1     -10.045   7.801  67.719  1.00  0.00     0.000 HD 
HETATM   22  H2  UNL     1     -11.177   9.162  67.733  1.00  0.00     0.000 HD 
ENDBRANCH  16  18
ENDBRANCH   2   4
TORSDOF 2
ENDMDL
MODEL       12
REMARK 921   NORMALIZED FREE ENERGY PREDICTED BY IDOCK:   -6.34 KCAL/MOL
REMARK 922        TOTAL FREE ENERGY PREDICTED BY IDOCK:   -7.20 KCAL/MOL
REMARK 923 INTER-LIGAND FREE ENERGY PREDICTED BY IDOCK:   -7.08 KCAL/MOL
REMARK 924 INTRA-LIGAND FREE ENERGY PREDICTED BY IDOCK:   -0.11 KCAL/MOL
REMARK 927      BINDING AFFINITY PREDICTED BY RF-SCORE:    0.00 PKD
ROOT
HETATM    1  C   UNL     1      -7.203  21.020  67.248  1.00  0.00    -0.301 C  
HETATM    2  N   UNL     1      -8.223  20.575  66.304  1.00  0.00    -0.532 NA 
HETATM    3  H   UNL     1      -7.804  20.057  65.532  1.00  0.00     0.000 HD 
ENDROOT
BRANCH   2   4
HETATM    4  C   UNL     1      -9.299  19.790  66.944  1.00  0.00    -0.366 C  
HETATM    5  C   UNL     1      -8.912  19.505  68.423  1.00  0.00    -0.397 C  
HETATM    6  C   UNL     1     -10.020  18.737  69.179  1.00  0.00    -0.257 C  
HETATM    7  C   UNL     1     -10.453  17.578  68.357  1.00  0.00    -0.372 A  
HETATM    8  C   UNL     1     -10.273  17.456  66.999  1.00  0.00    -0.323 A  
HETATM    9  C   UNL     1     -10.772  16.190  66.610  1.00  0.00    -0.226 A  
HETATM   10  C   UNL     1      -9.587  18.478  66.166  1.00  0.00    -0.203 C  
HETATM   11  C   UNL     1     -11.263  15.568  67.757  1.00  0.00    -0.302 A  
HETATM   12  N   UNL     1     -11.073  16.444  68.810  1.00  0.00    -0.342 NA 
HETATM   13  C   UNL     1     -11.810  14.282  67.727  1.00  0.00    -0.414 A  
HETATM   14  H   UNL     1     -11.351  16.272  69.775  1.00  0.00     0.000 HD 
HETATM   15  C   UNL     1     -11.845  13.623  66.488  1.00  0.00    -0.441 A  
HETATM   16  C   UNL     1     -11.357  14.222  65.319  1.00  0.00    -0.336 A  
HETATM   17  C   UNL     1     -10.820  15.513  65.377  1.00  0.00    -0.402 A  
BRANCH  16  18
HETATM   18  C   UNL     1     -11.424  13.445  64.047  1.00  0.00    -0.352 C  
HETATM   19  N   UNL     1     -12.400  13.750  63.138  1.00  0.00    -1.106 N  
HETATM   20  O   UNL     1     -10.627  12.547  63.802  1.00  0.00    -0.414 OA 
HETATM   21  H1  UNL     1     -12.446  13.219  62.269  1.00  0.00     0.000 HD 
HETATM   22  H2  UNL     1     -13.070  14.496  63.326  1.00  0.00     0.000 HD 
ENDBRANCH  16  18
ENDBRANCH   2   4
TORSDOF 2
ENDMDL
MODEL       13
REMARK 921   NORMALIZED FREE ENERGY PREDICTED BY IDOCK:   -6.23 KCAL/MOL
REMARK 922        TOTAL FREE ENERGY PREDICTED BY IDOCK:   -7.08 KCAL/MOL
REMARK 923 INTER-LIGAND FREE ENERGY PREDICTED BY IDOCK:   -6.97 KCAL/MOL
REMARK 924 INTRA-LIGAND FREE ENERGY PREDICTED BY IDOCK:   -0.11 KCAL/MOL
REMARK 927      BINDING AFFINITY PREDICTED BY RF-SCORE:    0.00 PKD
ROOT
HETATM    1  C   UNL     1     -11.148   6.351  70.509  1.00  0.00    -0.328 C  
HETATM    2  N   UNL     1     -11.236   7.682  69.918  1.00  0.00    -0.440 NA 
HETATM    3  H   UNL     1     -11.883   7.689  69.130  1.00  0.00     0.000 HD 
ENDROOT
BRANCH   2   4
HETATM    4  C   UNL     1     -11.592   8.728  70.900  1.00  0.00    -0.277 C  
HETATM    5  C   UNL     1     -13.016   8.442  71.457  1.00  0.00    -0.319 C  
HETATM    6  C   UNL     1     -13.435   9.461  72.540  1.00  0.00    -0.437 C  
HETATM    7  C   UNL     1     -13.166  10.835  72.042  1.00  0.00    -0.361 A  
HETATM    8  C   UNL     1     -12.287  11.156  71.034  1.00  0.00    -0.487 A  
HETATM    9  C   UNL     1     -12.363  12.554  70.824  1.00  0.00    -0.376 A  
HETATM   10  C   UNL     1     -11.495  10.147  70.282  1.00  0.00    -0.381 C  
HETATM   11  C   UNL     1     -13.292  13.059  71.733  1.00  0.00    -0.378 A  
HETATM   12  N   UNL     1     -13.756  11.990  72.479  1.00  0.00    -0.391 NA 
HETATM   13  C   UNL     1     -13.625  14.415  71.778  1.00  0.00    -0.479 A  
HETATM   14  H   UNL     1     -14.434  12.054  73.238  1.00  0.00     0.000 HD 
HETATM   15  C   UNL     1     -12.990  15.267  70.859  1.00  0.00    -0.522 A  
HETATM   16  C   UNL     1     -12.055  14.788  69.932  1.00  0.00    -0.381 A  
HETATM   17  C   UNL     1     -11.735  13.425  69.915  1.00  0.00    -0.337 A  
BRANCH  16  18
HETATM   18  C   UNL     1     -11.436  15.762  68.986  1.00  0.00    -0.391 C  
HETATM   19  N   UNL     1     -10.979  16.955  69.475  1.00  0.00    -0.357 N  
HETATM   20  O   UNL     1     -11.329  15.514  67.791  1.00  0.00    -0.330 OA 
HETATM   21  H1  UNL     1     -10.556  17.621  68.829  1.00  0.00     0.000 HD 
HETATM   22  H2  UNL     1     -11.058  17.176  70.468  1.00  0.00     0.000 HD 
ENDBRANCH  16  18
ENDBRANCH   2   4
TORSDOF 2
ENDMDL
MODEL       14
REMARK 921   NORMALIZED FREE ENERGY PREDICTED BY IDOCK:   -6.22 KCAL/MOL
REMARK 922        TOTAL FREE ENERGY PREDICTED BY IDOCK:   -7.07 KCAL/MOL
REMARK 923 INTER-LIGAND FREE ENERGY PREDICTED BY IDOCK:   -6.95 KCAL/MOL
REMARK 924 INTRA-LIGAND FREE ENERGY PREDICTED BY IDOCK:   -0.11 KCAL/MOL
REMARK 927      BINDING AFFINITY PREDICTED BY RF-SCORE:    0.00 PKD
ROOT
HETATM    1  C   UNL     1     -12.618  11.972  63.226  1.00  0.00    -0.385 C  
HETATM    2  N   UNL     1     -11.571  12.988  63.281  1.00  0.00    -0.782 NA 
HETATM    3  H   UNL     1     -11.880  13.854  62.842  1.00  0.00     0.000 HD 
ENDROOT
BRANCH   2   4
HETATM    4  C   UNL     1     -11.080  13.237  64.652  1.00  0.00    -0.357 C  
HETATM    5  C   UNL     1     -12.134  12.722  65.674  1.00  0.00    -0.514 C  
HETATM    6  C   UNL     1     -11.663  12.892  67.135  1.00  0.00    -0.437 C  
HETATM    7  C   UNL     1     -11.158  14.277  67.323  1.00  0.00    -0.306 A  
HETATM    8  C   UNL     1     -10.736  15.112  66.315  1.00  0.00    -0.320 A  
HETATM    9  C   UNL     1     -10.389  16.354  66.900  1.00  0.00    -0.300 A  
HETATM   10  C   UNL     1     -10.753  14.737  64.877  1.00  0.00    -0.438 C  
HETATM   11  C   UNL     1     -10.599  16.237  68.273  1.00  0.00    -0.300 A  
HETATM   12  N   UNL     1     -11.053  14.952  68.510  1.00  0.00    -0.255 NA 
HETATM   13  C   UNL     1     -10.374  17.301  69.151  1.00  0.00    -0.290 A  
HETATM   14  H   UNL     1     -11.275  14.567  69.427  1.00  0.00     0.000 HD 
HETATM   15  C   UNL     1      -9.929  18.512  68.598  1.00  0.00    -0.419 A  
HETATM   16  C   UNL     1      -9.710  18.659  67.221  1.00  0.00    -0.326 A  
HETATM   17  C   UNL     1      -9.938  17.575  66.366  1.00  0.00    -0.330 A  
BRANCH  16  18
HETATM   18  C   UNL     1      -9.246  19.985  66.719  1.00  0.00    -0.382 C  
HETATM   19  N   UNL     1      -8.201  20.026  65.835  1.00  0.00    -0.504 N  
HETATM   20  O   UNL     1      -9.779  21.029  67.077  1.00  0.00    -0.308 OA 
HETATM   21  H1  UNL     1      -7.884  20.932  65.491  1.00  0.00     0.000 HD 
HETATM   22  H2  UNL     1      -7.748  19.166  65.526  1.00  0.00     0.000 HD 
ENDBRANCH  16  18
ENDBRANCH   2   4
TORSDOF 2
ENDMDL
MODEL       15
REMARK 921   NORMALIZED FREE ENERGY PREDICTED BY IDOCK:   -6.17 KCAL/MOL
REMARK 922        TOTAL FREE ENERGY PREDICTED BY IDOCK:   -7.00 KCAL/MOL
REMARK 923 INTER-LIGAND FREE ENERGY PREDICTED BY IDOCK:   -6.88 KCAL/MOL
REMARK 924 INTRA-LIGAND FREE ENERGY PREDICTED BY IDOCK:   -0.13 KCAL/MOL
REMARK 927      BINDING AFFINITY PREDICTED BY RF-SCORE:    0.00 PKD
ROOT
HETATM    1  C   UNL     1      -8.072  15.950  66.460  1.00  0.00    -0.235 C  
HETATM    2  N   UNL     1      -9.007  14.838  66.319  1.00  0.00    -0.485 NA 
HETATM    3  H   UNL     1      -8.569  13.957  66.590  1.00  0.00     0.000 HD 
ENDROOT
BRANCH   2   4
HETATM    4  C   UNL     1     -10.270  15.047  67.057  1.00  0.00    -0.257 C  
HETATM    5  C   UNL     1     -10.177  16.376  67.860  1.00  0.00    -0.268 C  
HETATM    6  C   UNL     1     -11.489  16.697  68.612  1.00  0.00    -0.046 C  
HETATM    7  C   UNL     1     -11.930  15.487  69.353  1.00  0.00    -0.336 A  
HETATM    8  C   UNL     1     -11.543  14.198  69.071  1.00  0.00    -0.342 A  
HETATM    9  C   UNL     1     -12.135  13.349  70.037  1.00  0.00    -0.404 A  
HETATM   10  C   UNL     1     -10.596  13.844  67.981  1.00  0.00    -0.252 C  
HETATM   11  C   UNL     1     -12.889  14.154  70.888  1.00  0.00    -0.334 A  
HETATM   12  N   UNL     1     -12.763  15.456  70.439  1.00  0.00    -0.586 NA 
HETATM   13  C   UNL     1     -13.591  13.629  71.977  1.00  0.00    -0.585 A  
HETATM   14  H   UNL     1     -13.219  16.268  70.854  1.00  0.00     0.000 HD 
HETATM   15  C   UNL     1     -13.506  12.244  72.194  1.00  0.00    -0.431 A  
HETATM   16  C   UNL     1     -12.754  11.410  71.356  1.00  0.00    -0.489 A  
HETATM   17  C   UNL     1     -12.066  11.963  70.269  1.00  0.00    -0.409 A  
BRANCH  16  18
HETATM   18  C   UNL     1     -12.711   9.952  71.666  1.00  0.00    -0.429 C  
HETATM   19  N   UNL     1     -13.691   9.417  72.457  1.00  0.00    -0.691 N  
HETATM   20  O   UNL     1     -11.823   9.229  71.228  1.00  0.00    -0.297 OA 
HETATM   21  H1  UNL     1     -13.662   8.420  72.670  1.00  0.00     0.000 HD 
HETATM   22  H2  UNL     1     -14.438  10.004  72.828  1.00  0.00     0.000 HD 
ENDBRANCH  16  18
ENDBRANCH   2   4
TORSDOF 2
ENDMDL
MODEL       16
REMARK 921   NORMALIZED FREE ENERGY PREDICTED BY IDOCK:   -6.15 KCAL/MOL
REMARK 922        TOTAL FREE ENERGY PREDICTED BY IDOCK:   -6.98 KCAL/MOL
REMARK 923 INTER-LIGAND FREE ENERGY PREDICTED BY IDOCK:   -6.86 KCAL/MOL
REMARK 924 INTRA-LIGAND FREE ENERGY PREDICTED BY IDOCK:   -0.12 KCAL/MOL
REMARK 927      BINDING AFFINITY PREDICTED BY RF-SCORE:    0.00 PKD
ROOT
HETATM    1  C   UNL     1     -12.425  12.140  63.225  1.00  0.00    -0.411 C  
HETATM    2  N   UNL     1     -11.436  13.207  63.345  1.00  0.00    -0.645 NA 
HETATM    3  H   UNL     1     -11.732  14.037  62.832  1.00  0.00     0.000 HD 
ENDROOT
BRANCH   2   4
HETATM    4  C   UNL     1     -11.114  13.542  64.748  1.00  0.00    -0.359 C  
HETATM    5  C   UNL     1     -12.409  13.450  65.604  1.00  0.00    -0.521 C  
HETATM    6  C   UNL     1     -12.141  13.726  67.101  1.00  0.00    -0.416 C  
HETATM    7  C   UNL     1     -11.332  14.966  67.226  1.00  0.00    -0.349 A  
HETATM    8  C   UNL     1     -10.559  15.515  66.229  1.00  0.00    -0.310 A  
HETATM    9  C   UNL     1      -9.999  16.716  66.729  1.00  0.00    -0.284 A  
HETATM   10  C   UNL     1     -10.451  14.940  64.863  1.00  0.00    -0.389 C  
HETATM   11  C   UNL     1     -10.441  16.863  68.043  1.00  0.00    -0.347 A  
HETATM   12  N   UNL     1     -11.240  15.771  68.330  1.00  0.00    -0.345 NA 
HETATM   13  C   UNL     1     -10.087  17.965  68.825  1.00  0.00    -0.384 A  
HETATM   14  H   UNL     1     -11.692  15.593  69.227  1.00  0.00     0.000 HD 
HETATM   15  C   UNL     1      -9.266  18.940  68.235  1.00  0.00    -0.373 A  
HETATM   16  C   UNL     1      -8.808  18.819  66.916  1.00  0.00    -0.299 A  
HETATM   17  C   UNL     1      -9.173  17.701  66.158  1.00  0.00    -0.145 A  
BRANCH  16  18
HETATM   18  C   UNL     1      -7.948  19.907  66.366  1.00  0.00    -0.323 C  
HETATM   19  N   UNL     1      -7.855  21.087  67.054  1.00  0.00    -0.574 N  
HETATM   20  O   UNL     1      -7.325  19.765  65.320  1.00  0.00    -0.386 OA 
HETATM   21  H1  UNL     1      -7.267  21.830  66.679  1.00  0.00     0.000 HD 
HETATM   22  H2  UNL     1      -8.366  21.220  67.927  1.00  0.00     0.000 HD 
ENDBRANCH  16  18
ENDBRANCH   2   4
TORSDOF 2
ENDMDL
MODEL       17
REMARK 921   NORMALIZED FREE ENERGY PREDICTED BY IDOCK:   -6.13 KCAL/MOL
REMARK 922        TOTAL FREE ENERGY PREDICTED BY IDOCK:   -6.96 KCAL/MOL
REMARK 923 INTER-LIGAND FREE ENERGY PREDICTED BY IDOCK:   -6.82 KCAL/MOL
REMARK 924 INTRA-LIGAND FREE ENERGY PREDICTED BY IDOCK:   -0.14 KCAL/MOL
REMARK 927      BINDING AFFINITY PREDICTED BY RF-SCORE:    0.00 PKD
ROOT
HETATM    1  C   UNL     1     -10.523   6.947  73.652  1.00  0.00    -0.369 C  
HETATM    2  N   UNL     1     -11.687   6.596  72.844  1.00  0.00    -0.481 NA 
HETATM    3  H   UNL     1     -12.546   6.686  73.385  1.00  0.00     0.000 HD 
ENDROOT
BRANCH   2   4
HETATM    4  C   UNL     1     -11.771   7.368  71.587  1.00  0.00    -0.279 C  
HETATM    5  C   UNL     1     -10.412   7.273  70.837  1.00  0.00    -0.225 C  
HETATM    6  C   UNL     1     -10.442   8.007  69.478  1.00  0.00    -0.226 C  
HETATM    7  C   UNL     1     -11.014   9.364  69.673  1.00  0.00    -0.197 A  
HETATM    8  C   UNL     1     -11.805   9.748  70.731  1.00  0.00    -0.400 A  
HETATM    9  C   UNL     1     -12.094  11.126  70.577  1.00  0.00    -0.474 A  
HETATM   10  C   UNL     1     -12.176   8.843  71.850  1.00  0.00    -0.445 C  
HETATM   11  C   UNL     1     -11.473  11.549  69.403  1.00  0.00    -0.309 A  
HETATM   12  N   UNL     1     -10.834  10.450  68.859  1.00  0.00    -0.221 NA 
HETATM   13  C   UNL     1     -11.540  12.875  68.965  1.00  0.00    -0.372 A  
HETATM   14  H   UNL     1     -10.308  10.448  67.985  1.00  0.00     0.000 HD 
HETATM   15  C   UNL     1     -12.258  13.783  69.760  1.00  0.00    -0.368 A  
HETATM   16  C   UNL     1     -12.891  13.386  70.946  1.00  0.00    -0.279 A  
HETATM   17  C   UNL     1     -12.812  12.050  71.357  1.00  0.00    -0.391 A  
BRANCH  16  18
HETATM   18  C   UNL     1     -13.623  14.419  71.734  1.00  0.00    -0.395 C  
HETATM   19  N   UNL     1     -14.000  15.579  71.112  1.00  0.00    -0.778 N  
HETATM   20  O   UNL     1     -13.894  14.250  72.917  1.00  0.00    -0.615 OA 
HETATM   21  H1  UNL     1     -14.501  16.285  71.651  1.00  0.00     0.000 HD 
HETATM   22  H2  UNL     1     -13.784  15.734  70.128  1.00  0.00     0.000 HD 
ENDBRANCH  16  18
ENDBRANCH   2   4
TORSDOF 2
ENDMDL
MODEL       18
REMARK 921   NORMALIZED FREE ENERGY PREDICTED BY IDOCK:   -6.07 KCAL/MOL
REMARK 922        TOTAL FREE ENERGY PREDICTED BY IDOCK:   -6.89 KCAL/MOL
REMARK 923 INTER-LIGAND FREE ENERGY PREDICTED BY IDOCK:   -6.77 KCAL/MOL
REMARK 924 INTRA-LIGAND FREE ENERGY PREDICTED BY IDOCK:   -0.12 KCAL/MOL
REMARK 927      BINDING AFFINITY PREDICTED BY RF-SCORE:    0.00 PKD
ROOT
HETATM    1  C   UNL     1     -12.442  15.800  74.341  1.00  0.00    -0.638 C  
HETATM    2  N   UNL     1     -13.721  15.846  73.639  1.00  0.00    -0.722 NA 
HETATM    3  H   UNL     1     -14.014  16.810  73.481  1.00  0.00     0.000 HD 
ENDROOT
BRANCH   2   4
HETATM    4  C   UNL     1     -13.713  15.082  72.374  1.00  0.00    -0.480 C  
HETATM    5  C   UNL     1     -13.248  13.626  72.660  1.00  0.00    -0.533 C  
HETATM    6  C   UNL     1     -13.273  12.745  71.390  1.00  0.00    -0.240 C  
HETATM    7  C   UNL     1     -12.592  13.468  70.286  1.00  0.00    -0.152 A  
HETATM    8  C   UNL     1     -12.394  14.828  70.230  1.00  0.00    -0.400 A  
HETATM    9  C   UNL     1     -11.663  15.110  69.051  1.00  0.00    -0.358 A  
HETATM   10  C   UNL     1     -12.823  15.765  71.301  1.00  0.00    -0.486 C  
HETATM   11  C   UNL     1     -11.442  13.897  68.401  1.00  0.00    -0.311 A  
HETATM   12  N   UNL     1     -12.035  12.910  69.167  1.00  0.00    -0.287 NA 
HETATM   13  C   UNL     1     -10.722  13.816  67.206  1.00  0.00    -0.286 A  
HETATM   14  H   UNL     1     -12.055  11.917  68.933  1.00  0.00     0.000 HD 
HETATM   15  C   UNL     1     -10.214  15.013  66.675  1.00  0.00    -0.271 A  
HETATM   16  C   UNL     1     -10.419  16.246  67.307  1.00  0.00    -0.300 A  
HETATM   17  C   UNL     1     -11.149  16.299  68.500  1.00  0.00    -0.368 A  
BRANCH  16  18
HETATM   18  C   UNL     1      -9.835  17.466  66.678  1.00  0.00    -0.297 C  
HETATM   19  N   UNL     1     -10.656  18.528  66.410  1.00  0.00    -0.376 N  
HETATM   20  O   UNL     1      -8.643  17.536  66.400  1.00  0.00    -0.264 OA 
HETATM   21  H1  UNL     1     -10.257  19.362  65.980  1.00  0.00     0.000 HD 
HETATM   22  H2  UNL     1     -11.650  18.486  66.637  1.00  0.00     0.000 HD 
ENDBRANCH  16  18
ENDBRANCH   2   4
TORSDOF 2
ENDMDL
MODEL       19
REMARK 921   NORMALIZED FREE ENERGY PREDICTED BY IDOCK:   -6.07 KCAL/MOL
REMARK 922        TOTAL FREE ENERGY PREDICTED BY IDOCK:   -6.89 KCAL/MOL
REMARK 923 INTER-LIGAND FREE ENERGY PREDICTED BY IDOCK:   -6.78 KCAL/MOL
REMARK 924 INTRA-LIGAND FREE ENERGY PREDICTED BY IDOCK:   -0.10 KCAL/MOL
REMARK 927      BINDING AFFINITY PREDICTED BY RF-SCORE:    0.00 PKD
ROOT
HETATM    1  C   UNL     1     -11.964  15.224  64.336  1.00  0.00    -0.277 C  
HETATM    2  N   UNL     1     -12.195  13.793  64.166  1.00  0.00    -0.605 NA 
HETATM    3  H   UNL     1     -12.176  13.535  63.179  1.00  0.00     0.000 HD 
ENDROOT
BRANCH   2   4
HETATM    4  C   UNL     1     -11.256  12.960  64.946  1.00  0.00    -0.300 C  
HETATM    5  C   UNL     1     -10.923  11.673  64.139  1.00  0.00    -0.442 C  
HETATM    6  C   UNL     1      -9.895  10.777  64.865  1.00  0.00    -0.350 C  
HETATM    7  C   UNL     1     -10.320  10.599  66.278  1.00  0.00    -0.234 A  
HETATM    8  C   UNL     1     -11.179  11.430  66.959  1.00  0.00    -0.350 A  
HETATM    9  C   UNL     1     -11.370  10.887  68.252  1.00  0.00    -0.374 A  
HETATM   10  C   UNL     1     -11.824  12.622  66.350  1.00  0.00    -0.466 C  
HETATM   11  C   UNL     1     -10.600   9.728  68.332  1.00  0.00    -0.226 A  
HETATM   12  N   UNL     1      -9.953   9.583  67.118  1.00  0.00    -0.191 NA 
HETATM   13  C   UNL     1     -10.578   8.928  69.478  1.00  0.00    -0.233 A  
HETATM   14  H   UNL     1      -9.302   8.833  66.884  1.00  0.00     0.000 HD 
HETATM   15  C   UNL     1     -11.375   9.331  70.562  1.00  0.00    -0.306 A  
HETATM   16  C   UNL     1     -12.161  10.490  70.510  1.00  0.00    -0.437 A  
HETATM   17  C   UNL     1     -12.157  11.275  69.352  1.00  0.00    -0.384 A  
BRANCH  16  18
HETATM   18  C   UNL     1     -12.984  10.838  71.704  1.00  0.00    -0.476 C  
HETATM   19  N   UNL     1     -13.477   9.825  72.483  1.00  0.00    -0.633 N  
HETATM   20  O   UNL     1     -13.224  12.002  72.000  1.00  0.00    -0.499 OA 
HETATM   21  H1  UNL     1     -14.040  10.063  73.299  1.00  0.00     0.000 HD 
HETATM   22  H2  UNL     1     -13.285   8.851  72.251  1.00  0.00     0.000 HD 
ENDBRANCH  16  18
ENDBRANCH   2   4
TORSDOF 2
ENDMDL
MODEL       20
REMARK 921   NORMALIZED FREE ENERGY PREDICTED BY IDOCK:   -6.03 KCAL/MOL
REMARK 922        TOTAL FREE ENERGY PREDICTED BY IDOCK:   -6.85 KCAL/MOL
REMARK 923 INTER-LIGAND FREE ENERGY PREDICTED BY IDOCK:   -6.73 KCAL/MOL
REMARK 924 INTRA-LIGAND FREE ENERGY PREDICTED BY IDOCK:   -0.12 KCAL/MOL
REMARK 927      BINDING AFFINITY PREDICTED BY RF-SCORE:    0.00 PKD
ROOT
HETATM    1  C   UNL     1      -6.815  19.883  66.151  1.00  0.00    -0.238 C  
HETATM    2  N   UNL     1      -8.167  19.913  65.602  1.00  0.00    -0.473 NA 
HETATM    3  H   UNL     1      -8.218  19.386  64.731  1.00  0.00     0.000 HD 
ENDROOT
BRANCH   2   4
HETATM    4  C   UNL     1      -9.190  19.447  66.561  1.00  0.00    -0.356 C  
HETATM    5  C   UNL     1      -8.629  19.570  68.007  1.00  0.00    -0.365 C  
HETATM    6  C   UNL     1      -9.667  19.158  69.074  1.00  0.00    -0.420 C  
HETATM    7  C   UNL     1     -10.266  17.854  68.689  1.00  0.00    -0.385 A  
HETATM    8  C   UNL     1     -10.273  17.328  67.418  1.00  0.00    -0.325 A  
HETATM    9  C   UNL     1     -10.886  16.053  67.482  1.00  0.00    -0.292 A  
HETATM   10  C   UNL     1      -9.647  17.998  66.248  1.00  0.00    -0.246 C  
HETATM   11  C   UNL     1     -11.255  15.838  68.809  1.00  0.00    -0.342 A  
HETATM   12  N   UNL     1     -10.881  16.961  69.524  1.00  0.00    -0.370 NA 
HETATM   13  C   UNL     1     -11.870  14.654  69.225  1.00  0.00    -0.357 A  
HETATM   14  H   UNL     1     -11.040  17.103  70.522  1.00  0.00     0.000 HD 
HETATM   15  C   UNL     1     -12.101  13.669  68.251  1.00  0.00    -0.306 A  
HETATM   16  C   UNL     1     -11.739  13.857  66.911  1.00  0.00    -0.425 A  
HETATM   17  C   UNL     1     -11.131  15.055  66.521  1.00  0.00    -0.329 A  
BRANCH  16  18
HETATM   18  C   UNL     1     -12.014  12.753  65.945  1.00  0.00    -0.449 C  
HETATM   19  N   UNL     1     -11.192  11.659  65.943  1.00  0.00    -0.280 N  
HETATM   20  O   UNL     1     -12.955  12.806  65.162  1.00  0.00    -0.768 OA 
HETATM   21  H1  UNL     1     -11.380  10.905  65.283  1.00  0.00     0.000 HD 
HETATM   22  H2  UNL     1     -10.406  11.598  66.589  1.00  0.00     0.000 HD 
ENDBRANCH  16  18
ENDBRANCH   2   4
TORSDOF 2
ENDMDL
MODEL       21
REMARK 921   NORMALIZED FREE ENERGY PREDICTED BY IDOCK:   -5.99 KCAL/MOL
REMARK 922        TOTAL FREE ENERGY PREDICTED BY IDOCK:   -6.80 KCAL/MOL
REMARK 923 INTER-LIGAND FREE ENERGY PREDICTED BY IDOCK:   -6.68 KCAL/MOL
REMARK 924 INTRA-LIGAND FREE ENERGY PREDICTED BY IDOCK:   -0.12 KCAL/MOL
REMARK 927      BINDING AFFINITY PREDICTED BY RF-SCORE:    0.00 PKD
ROOT
HETATM    1  C   UNL     1     -10.303  19.710  66.177  1.00  0.00    -0.530 C  
HETATM    2  N   UNL     1     -10.708  18.984  67.377  1.00  0.00    -0.479 NA 
HETATM    3  H   UNL     1     -11.720  19.010  67.494  1.00  0.00     0.000 HD 
ENDROOT
BRANCH   2   4
HETATM    4  C   UNL     1     -10.209  17.594  67.406  1.00  0.00    -0.345 C  
HETATM    5  C   UNL     1     -10.302  16.988  65.977  1.00  0.00    -0.324 C  
HETATM    6  C   UNL     1      -9.739  15.550  65.913  1.00  0.00    -0.392 C  
HETATM    7  C   UNL     1     -10.318  14.754  67.026  1.00  0.00    -0.255 A  
HETATM    8  C   UNL     1     -10.868  15.276  68.173  1.00  0.00    -0.273 A  
HETATM    9  C   UNL     1     -11.355  14.195  68.949  1.00  0.00    -0.308 A  
HETATM   10  C   UNL     1     -10.979  16.733  68.442  1.00  0.00    -0.325 C  
HETATM   11  C   UNL     1     -11.071  13.024  68.249  1.00  0.00    -0.263 A  
HETATM   12  N   UNL     1     -10.421  13.390  67.084  1.00  0.00    -0.248 NA 
HETATM   13  C   UNL     1     -11.442  11.765  68.729  1.00  0.00    -0.350 A  
HETATM   14  H   UNL     1     -10.072  12.743  66.378  1.00  0.00     0.000 HD 
HETATM   15  C   UNL     1     -12.125  11.716  69.955  1.00  0.00    -0.395 A  
HETATM   16  C   UNL     1     -12.425  12.877  70.680  1.00  0.00    -0.333 A  
HETATM   17  C   UNL     1     -12.036  14.124  70.178  1.00  0.00    -0.411 A  
BRANCH  16  18
HETATM   18  C   UNL     1     -13.164  12.734  71.968  1.00  0.00    -0.436 C  
HETATM   19  N   UNL     1     -13.638  11.500  72.322  1.00  0.00    -0.453 N  
HETATM   20  O   UNL     1     -13.349  13.691  72.711  1.00  0.00    -0.557 OA 
HETATM   21  H1  UNL     1     -14.143  11.401  73.202  1.00  0.00     0.000 HD 
HETATM   22  H2  UNL     1     -13.491  10.693  71.716  1.00  0.00     0.000 HD 
ENDBRANCH  16  18
ENDBRANCH   2   4
TORSDOF 2
ENDMDL
MODEL       22
REMARK 921   NORMALIZED FREE ENERGY PREDICTED BY IDOCK:   -5.96 KCAL/MOL
REMARK 922        TOTAL FREE ENERGY PREDICTED BY IDOCK:   -6.77 KCAL/MOL
REMARK 923 INTER-LIGAND FREE ENERGY PREDICTED BY IDOCK:   -6.63 KCAL/MOL
REMARK 924 INTRA-LIGAND FREE ENERGY PREDICTED BY IDOCK:   -0.13 KCAL/MOL
REMARK 927      BINDING AFFINITY PREDICTED BY RF-SCORE:    0.00 PKD
ROOT
HETATM    1  C   UNL     1     -12.547  12.280  63.490  1.00  0.00    -0.476 C  
HETATM    2  N   UNL     1     -11.625  13.068  64.302  1.00  0.00    -0.362 NA 
HETATM    3  H   UNL     1     -12.125  13.780  64.834  1.00  0.00     0.000 HD 
ENDROOT
BRANCH   2   4
HETATM    4  C   UNL     1     -10.784  12.239  65.191  1.00  0.00    -0.293 C  
HETATM    5  C   UNL     1     -10.474  10.888  64.485  1.00  0.00    -0.393 C  
HETATM    6  C   UNL     1      -9.545   9.987  65.330  1.00  0.00    -0.355 C  
HETATM    7  C   UNL     1     -10.067   9.922  66.719  1.00  0.00    -0.230 A  
HETATM    8  C   UNL     1     -10.919  10.837  67.292  1.00  0.00    -0.359 A  
HETATM    9  C   UNL     1     -11.221  10.386  68.600  1.00  0.00    -0.305 A  
HETATM   10  C   UNL     1     -11.458  12.020  66.572  1.00  0.00    -0.413 C  
HETATM   11  C   UNL     1     -10.523   9.197  68.799  1.00  0.00    -0.212 A  
HETATM   12  N   UNL     1      -9.810   8.942  67.641  1.00  0.00    -0.172 NA 
HETATM   13  C   UNL     1     -10.618   8.471  69.989  1.00  0.00    -0.230 A  
HETATM   14  H   UNL     1      -9.189   8.147  67.496  1.00  0.00     0.000 HD 
HETATM   15  C   UNL     1     -11.458   8.982  70.992  1.00  0.00    -0.358 A  
HETATM   16  C   UNL     1     -12.173  10.174  70.820  1.00  0.00    -0.434 A  
HETATM   17  C   UNL     1     -12.053  10.884  69.620  1.00  0.00    -0.400 A  
BRANCH  16  18
HETATM   18  C   UNL     1     -13.049  10.639  71.934  1.00  0.00    -0.458 C  
HETATM   19  N   UNL     1     -13.710   9.705  72.686  1.00  0.00    -0.686 N  
HETATM   20  O   UNL     1     -13.185  11.830  72.189  1.00  0.00    -0.498 OA 
HETATM   21  H1  UNL     1     -14.309  10.022  73.448  1.00  0.00     0.000 HD 
HETATM   22  H2  UNL     1     -13.606   8.710  72.488  1.00  0.00     0.000 HD 
ENDBRANCH  16  18
ENDBRANCH   2   4
TORSDOF 2
ENDMDL
MODEL       23
REMARK 921   NORMALIZED FREE ENERGY PREDICTED BY IDOCK:   -5.95 KCAL/MOL
REMARK 922        TOTAL FREE ENERGY PREDICTED BY IDOCK:   -6.76 KCAL/MOL
REMARK 923 INTER-LIGAND FREE ENERGY PREDICTED BY IDOCK:   -6.64 KCAL/MOL
REMARK 924 INTRA-LIGAND FREE ENERGY PREDICTED BY IDOCK:   -0.12 KCAL/MOL
REMARK 927      BINDING AFFINITY PREDICTED BY RF-SCORE:    0.00 PKD
ROOT
HETATM    1  C   UNL     1     -12.994   7.838  71.639  1.00  0.00    -0.345 C  
HETATM    2  N   UNL     1     -12.259   8.591  70.628  1.00  0.00    -0.490 NA 
HETATM    3  H   UNL     1     -12.704   8.504  69.714  1.00  0.00     0.000 HD 
ENDROOT
BRANCH   2   4
HETATM    4  C   UNL     1     -12.070  10.011  70.989  1.00  0.00    -0.373 C  
HETATM    5  C   UNL     1     -13.395  10.568  71.583  1.00  0.00    -0.423 C  
HETATM    6  C   UNL     1     -13.258  12.036  72.045  1.00  0.00    -0.481 C  
HETATM    7  C   UNL     1     -12.617  12.826  70.962  1.00  0.00    -0.271 A  
HETATM    8  C   UNL     1     -11.857  12.303  69.942  1.00  0.00    -0.383 A  
HETATM    9  C   UNL     1     -11.481  13.373  69.093  1.00  0.00    -0.351 A  
HETATM   10  C   UNL     1     -11.592  10.850  69.775  1.00  0.00    -0.399 C  
HETATM   11  C   UNL     1     -12.019  14.539  69.634  1.00  0.00    -0.328 A  
HETATM   12  N   UNL     1     -12.695  14.181  70.786  1.00  0.00    -0.343 NA 
HETATM   13  C   UNL     1     -11.854  15.785  69.023  1.00  0.00    -0.367 A  
HETATM   14  H   UNL     1     -13.178  14.828  71.409  1.00  0.00     0.000 HD 
HETATM   15  C   UNL     1     -11.123  15.825  67.824  1.00  0.00    -0.313 A  
HETATM   16  C   UNL     1     -10.571  14.669  67.257  1.00  0.00    -0.284 A  
HETATM   17  C   UNL     1     -10.747  13.436  67.894  1.00  0.00    -0.259 A  
BRANCH  16  18
HETATM   18  C   UNL     1      -9.818  14.803  65.976  1.00  0.00    -0.324 C  
HETATM   19  N   UNL     1      -9.725  13.716  65.149  1.00  0.00    -0.567 N  
HETATM   20  O   UNL     1      -9.286  15.858  65.653  1.00  0.00    -0.333 OA 
HETATM   21  H1  UNL     1      -9.210  13.808  64.274  1.00  0.00     0.000 HD 
HETATM   22  H2  UNL     1     -10.164  12.831  65.402  1.00  0.00     0.000 HD 
ENDBRANCH  16  18
ENDBRANCH   2   4
TORSDOF 2
ENDMDL
MODEL       24
REMARK 921   NORMALIZED FREE ENERGY PREDICTED BY IDOCK:   -5.86 KCAL/MOL
REMARK 922        TOTAL FREE ENERGY PREDICTED BY IDOCK:   -6.65 KCAL/MOL
REMARK 923 INTER-LIGAND FREE ENERGY PREDICTED BY IDOCK:   -6.56 KCAL/MOL
REMARK 924 INTRA-LIGAND FREE ENERGY PREDICTED BY IDOCK:   -0.09 KCAL/MOL
REMARK 927      BINDING AFFINITY PREDICTED BY RF-SCORE:    0.00 PKD
ROOT
HETATM    1  C   UNL     1     -12.439   9.392  71.876  1.00  0.00    -0.390 C  
HETATM    2  N   UNL     1     -11.250   9.831  71.153  1.00  0.00    -0.370 NA 
HETATM    3  H   UNL     1     -10.403   9.475  71.594  1.00  0.00     0.000 HD 
ENDROOT
BRANCH   2   4
HETATM    4  C   UNL     1     -11.284   9.480  69.717  1.00  0.00    -0.144 C  
HETATM    5  C   UNL     1     -10.080   8.552  69.390  1.00  0.00    -0.205 C  
HETATM    6  C   UNL     1     -10.082   8.090  67.915  1.00  0.00    -0.243 C  
HETATM    7  C   UNL     1     -10.284   9.272  67.038  1.00  0.00    -0.262 A  
HETATM    8  C   UNL     1     -10.836  10.468  67.433  1.00  0.00    -0.349 A  
HETATM    9  C   UNL     1     -10.799  11.347  66.323  1.00  0.00    -0.318 A  
HETATM   10  C   UNL     1     -11.289  10.747  68.821  1.00  0.00    -0.352 C  
HETATM   11  C   UNL     1     -10.228  10.648  65.261  1.00  0.00    -0.282 A  
HETATM   12  N   UNL     1      -9.938   9.375  65.718  1.00  0.00    -0.381 NA 
HETATM   13  C   UNL     1     -10.021  11.238  64.011  1.00  0.00    -0.362 A  
HETATM   14  H   UNL     1      -9.529   8.628  65.157  1.00  0.00     0.000 HD 
HETATM   15  C   UNL     1     -10.405  12.580  63.858  1.00  0.00    -0.436 A  
HETATM   16  C   UNL     1     -10.979  13.308  64.908  1.00  0.00    -0.345 A  
HETATM   17  C   UNL     1     -11.181  12.690  66.147  1.00  0.00    -0.350 A  
BRANCH  16  18
HETATM   18  C   UNL     1     -11.348  14.732  64.660  1.00  0.00    -0.366 C  
HETATM   19  N   UNL     1     -12.514  15.005  63.996  1.00  0.00    -0.993 N  
HETATM   20  O   UNL     1     -10.635  15.654  65.038  1.00  0.00    -0.418 OA 
HETATM   21  H1  UNL     1     -12.766  15.978  63.826  1.00  0.00     0.000 HD 
HETATM   22  H2  UNL     1     -13.119  14.249  63.676  1.00  0.00     0.000 HD 
ENDBRANCH  16  18
ENDBRANCH   2   4
TORSDOF 2
ENDMDL
MODEL       25
REMARK 921   NORMALIZED FREE ENERGY PREDICTED BY IDOCK:   -5.84 KCAL/MOL
REMARK 922        TOTAL FREE ENERGY PREDICTED BY IDOCK:   -6.64 KCAL/MOL
REMARK 923 INTER-LIGAND FREE ENERGY PREDICTED BY IDOCK:   -6.50 KCAL/MOL
REMARK 924 INTRA-LIGAND FREE ENERGY PREDICTED BY IDOCK:   -0.13 KCAL/MOL
REMARK 927      BINDING AFFINITY PREDICTED BY RF-SCORE:    0.00 PKD
ROOT
HETATM    1  C   UNL     1     -12.073  13.201  63.379  1.00  0.00    -0.486 C  
HETATM    2  N   UNL     1     -12.345  14.301  64.299  1.00  0.00    -0.667 NA 
HETATM    3  H   UNL     1     -13.195  14.796  64.033  1.00  0.00     0.000 HD 
ENDROOT
BRANCH   2   4
HETATM    4  C   UNL     1     -12.405  13.870  65.712  1.00  0.00    -0.486 C  
HETATM    5  C   UNL     1     -11.601  14.875  66.586  1.00  0.00    -0.265 C  
HETATM    6  C   UNL     1     -11.669  14.525  68.090  1.00  0.00    -0.369 C  
HETATM    7  C   UNL     1     -11.366  13.081  68.265  1.00  0.00    -0.288 A  
HETATM    8  C   UNL     1     -11.471  12.123  67.284  1.00  0.00    -0.413 A  
HETATM    9  C   UNL     1     -11.039  10.892  67.835  1.00  0.00    -0.362 A  
HETATM   10  C   UNL     1     -11.886  12.419  65.888  1.00  0.00    -0.467 C  
HETATM   11  C   UNL     1     -10.690  11.133  69.163  1.00  0.00    -0.221 A  
HETATM   12  N   UNL     1     -10.916  12.476  69.407  1.00  0.00    -0.450 NA 
HETATM   13  C   UNL     1     -10.197  10.125  69.995  1.00  0.00    -0.271 A  
HETATM   14  H   UNL     1     -10.768  12.944  70.302  1.00  0.00     0.000 HD 
HETATM   15  C   UNL     1     -10.055   8.842  69.442  1.00  0.00    -0.202 A  
HETATM   16  C   UNL     1     -10.396   8.571  68.110  1.00  0.00    -0.258 A  
HETATM   17  C   UNL     1     -10.894   9.598  67.301  1.00  0.00    -0.212 A  
BRANCH  16  18
HETATM   18  C   UNL     1     -10.203   7.181  67.602  1.00  0.00    -0.198 C  
HETATM   19  N   UNL     1     -11.297   6.478  67.174  1.00  0.00    -0.771 N  
HETATM   20  O   UNL     1      -9.094   6.662  67.559  1.00  0.00    -0.117 OA 
HETATM   21  H1  UNL     1     -11.165   5.529  66.827  1.00  0.00     0.000 HD 
HETATM   22  H2  UNL     1     -12.227   6.896  67.201  1.00  0.00     0.000 HD 
ENDBRANCH  16  18
ENDBRANCH   2   4
TORSDOF 2
ENDMDL
MODEL       26
REMARK 921   NORMALIZED FREE ENERGY PREDICTED BY IDOCK:   -5.75 KCAL/MOL
REMARK 922        TOTAL FREE ENERGY PREDICTED BY IDOCK:   -6.54 KCAL/MOL
REMARK 923 INTER-LIGAND FREE ENERGY PREDICTED BY IDOCK:   -6.41 KCAL/MOL
REMARK 924 INTRA-LIGAND FREE ENERGY PREDICTED BY IDOCK:   -0.13 KCAL/MOL
REMARK 927      BINDING AFFINITY PREDICTED BY RF-SCORE:    0.00 PKD
ROOT
HETATM    1  C   UNL     1      -8.787   9.052  66.923  1.00  0.00    -0.116 C  
HETATM    2  N   UNL     1     -10.241   9.101  66.806  1.00  0.00    -0.262 NA 
HETATM    3  H   UNL     1     -10.686   8.625  67.590  1.00  0.00     0.000 HD 
ENDROOT
BRANCH   2   4
HETATM    4  C   UNL     1     -10.762  10.476  66.659  1.00  0.00    -0.155 C  
HETATM    5  C   UNL     1      -9.671  11.369  66.004  1.00  0.00    -0.253 C  
HETATM    6  C   UNL     1     -10.165  12.813  65.760  1.00  0.00    -0.302 C  
HETATM    7  C   UNL     1     -10.800  13.323  67.003  1.00  0.00    -0.269 A  
HETATM    8  C   UNL     1     -11.294  12.541  68.021  1.00  0.00    -0.339 A  
HETATM    9  C   UNL     1     -11.762  13.405  69.041  1.00  0.00    -0.368 A  
HETATM   10  C   UNL     1     -11.232  11.055  68.020  1.00  0.00    -0.372 C  
HETATM   11  C   UNL     1     -11.550  14.711  68.605  1.00  0.00    -0.314 A  
HETATM   12  N   UNL     1     -10.977  14.636  67.348  1.00  0.00    -0.299 NA 
HETATM   13  C   UNL     1     -11.881  15.818  69.391  1.00  0.00    -0.361 A  
HETATM   14  H   UNL     1     -10.725  15.435  66.768  1.00  0.00     0.000 HD 
HETATM   15  C   UNL     1     -12.436  15.569  70.657  1.00  0.00    -0.483 A  
HETATM   16  C   UNL     1     -12.659  14.266  71.122  1.00  0.00    -0.432 A  
HETATM   17  C   UNL     1     -12.324  13.177  70.310  1.00  0.00    -0.319 A  
BRANCH  16  18
HETATM   18  C   UNL     1     -13.244  14.094  72.483  1.00  0.00    -0.502 C  
HETATM   19  N   UNL     1     -12.778  14.876  73.505  1.00  0.00    -0.525 N  
HETATM   20  O   UNL     1     -14.128  13.274  72.702  1.00  0.00    -0.744 OA 
HETATM   21  H1  UNL     1     -13.178  14.759  74.435  1.00  0.00     0.000 HD 
HETATM   22  H2  UNL     1     -12.044  15.565  73.339  1.00  0.00     0.000 HD 
ENDBRANCH  16  18
ENDBRANCH   2   4
TORSDOF 2
ENDMDL
MODEL       27
REMARK 921   NORMALIZED FREE ENERGY PREDICTED BY IDOCK:   -5.74 KCAL/MOL
REMARK 922        TOTAL FREE ENERGY PREDICTED BY IDOCK:   -6.52 KCAL/MOL
REMARK 923 INTER-LIGAND FREE ENERGY PREDICTED BY IDOCK:   -6.40 KCAL/MOL
REMARK 924 INTRA-LIGAND FREE ENERGY PREDICTED BY IDOCK:   -0.12 KCAL/MOL
REMARK 927      BINDING AFFINITY PREDICTED BY RF-SCORE:    0.00 PKD
ROOT
HETATM    1  C   UNL     1      -8.360  15.689  66.598  1.00  0.00    -0.275 C  
HETATM    2  N   UNL     1      -9.228  14.577  66.225  1.00  0.00    -0.468 NA 
HETATM    3  H   UNL     1      -8.723  13.692  66.262  1.00  0.00     0.000 HD 
ENDROOT
BRANCH   2   4
HETATM    4  C   UNL     1     -10.464  14.514  67.033  1.00  0.00    -0.268 C  
HETATM    5  C   UNL     1     -10.537  15.765  67.953  1.00  0.00    -0.282 C  
HETATM    6  C   UNL     1     -11.837  15.803  68.788  1.00  0.00    -0.321 C  
HETATM    7  C   UNL     1     -12.038  14.478  69.430  1.00  0.00    -0.290 A  
HETATM    8  C   UNL     1     -11.469  13.298  69.010  1.00  0.00    -0.350 A  
HETATM    9  C   UNL     1     -11.862  12.283  69.916  1.00  0.00    -0.383 A  
HETATM   10  C   UNL     1     -10.542  13.198  67.852  1.00  0.00    -0.243 C  
HETATM   11  C   UNL     1     -12.685  12.878  70.871  1.00  0.00    -0.207 A  
HETATM   12  N   UNL     1     -12.791  14.217  70.543  1.00  0.00    -0.375 NA 
HETATM   13  C   UNL     1     -13.231  12.153  71.935  1.00  0.00    -0.474 A  
HETATM   14  H   UNL     1     -13.346  14.905  71.051  1.00  0.00     0.000 HD 
HETATM   15  C   UNL     1     -12.915  10.787  72.016  1.00  0.00    -0.444 A  
HETATM   16  C   UNL     1     -12.090  10.163  71.071  1.00  0.00    -0.476 A  
HETATM   17  C   UNL     1     -11.562  10.912  70.013  1.00  0.00    -0.424 A  
BRANCH  16  18
HETATM   18  C   UNL     1     -11.799   8.710  71.239  1.00  0.00    -0.295 C  
HETATM   19  N   UNL     1     -11.778   7.908  70.130  1.00  0.00    -0.466 N  
HETATM   20  O   UNL     1     -11.578   8.224  72.343  1.00  0.00    -0.359 OA 
HETATM   21  H1  UNL     1     -11.580   6.915  70.245  1.00  0.00     0.000 HD 
HETATM   22  H2  UNL     1     -11.958   8.297  69.205  1.00  0.00     0.000 HD 
ENDBRANCH  16  18
ENDBRANCH   2   4
TORSDOF 2
ENDMDL
MODEL       28
REMARK 921   NORMALIZED FREE ENERGY PREDICTED BY IDOCK:   -5.73 KCAL/MOL
REMARK 922        TOTAL FREE ENERGY PREDICTED BY IDOCK:   -6.51 KCAL/MOL
REMARK 923 INTER-LIGAND FREE ENERGY PREDICTED BY IDOCK:   -6.40 KCAL/MOL
REMARK 924 INTRA-LIGAND FREE ENERGY PREDICTED BY IDOCK:   -0.11 KCAL/MOL
REMARK 927      BINDING AFFINITY PREDICTED BY RF-SCORE:    0.00 PKD
ROOT
HETATM    1  C   UNL     1     -11.266  15.721  64.795  1.00  0.00    -0.366 C  
HETATM    2  N   UNL     1     -11.743  14.469  64.217  1.00  0.00    -0.644 NA 
HETATM    3  H   UNL     1     -11.880  14.561  63.211  1.00  0.00     0.000 HD 
ENDROOT
BRANCH   2   4
HETATM    4  C   UNL     1     -10.867  13.320  64.527  1.00  0.00    -0.394 C  
HETATM    5  C   UNL     1     -11.028  12.241  63.418  1.00  0.00    -0.467 C  
HETATM    6  C   UNL     1     -10.094  11.031  63.639  1.00  0.00    -0.428 C  
HETATM    7  C   UNL     1     -10.217  10.576  65.049  1.00  0.00    -0.295 A  
HETATM    8  C   UNL     1     -10.687  11.340  66.091  1.00  0.00    -0.307 A  
HETATM    9  C   UNL     1     -10.699  10.527  67.251  1.00  0.00    -0.333 A  
HETATM   10  C   UNL     1     -11.165  12.739  65.935  1.00  0.00    -0.334 C  
HETATM   11  C   UNL     1     -10.215   9.273  66.882  1.00  0.00    -0.256 A  
HETATM   12  N   UNL     1      -9.910   9.333  65.534  1.00  0.00    -0.452 NA 
HETATM   13  C   UNL     1     -10.118   8.218  67.793  1.00  0.00    -0.262 A  
HETATM   14  H   UNL     1      -9.518   8.568  64.985  1.00  0.00     0.000 HD 
HETATM   15  C   UNL     1     -10.536   8.462  69.111  1.00  0.00    -0.218 A  
HETATM   16  C   UNL     1     -11.028   9.712  69.510  1.00  0.00    -0.233 A  
HETATM   17  C   UNL     1     -11.108  10.752  68.578  1.00  0.00    -0.317 A  
BRANCH  16  18
HETATM   18  C   UNL     1     -11.458   9.880  70.929  1.00  0.00    -0.376 C  
HETATM   19  N   UNL     1     -10.890   9.087  71.889  1.00  0.00    -0.362 N  
HETATM   20  O   UNL     1     -12.302  10.709  71.249  1.00  0.00    -0.360 OA 
HETATM   21  H1  UNL     1     -11.184   9.201  72.858  1.00  0.00     0.000 HD 
HETATM   22  H2  UNL     1     -10.185   8.393  71.639  1.00  0.00     0.000 HD 
ENDBRANCH  16  18
ENDBRANCH   2   4
TORSDOF 2
ENDMDL
MODEL       29
REMARK 921   NORMALIZED FREE ENERGY PREDICTED BY IDOCK:   -5.71 KCAL/MOL
REMARK 922        TOTAL FREE ENERGY PREDICTED BY IDOCK:   -6.49 KCAL/MOL
REMARK 923 INTER-LIGAND FREE ENERGY PREDICTED BY IDOCK:   -6.39 KCAL/MOL
REMARK 924 INTRA-LIGAND FREE ENERGY PREDICTED BY IDOCK:   -0.10 KCAL/MOL
REMARK 927      BINDING AFFINITY PREDICTED BY RF-SCORE:    0.00 PKD
ROOT
HETATM    1  C   UNL     1      -6.498  19.578  68.865  1.00  0.00    -0.291 C  
HETATM    2  N   UNL     1      -7.955  19.498  68.869  1.00  0.00    -0.340 NA 
HETATM    3  H   UNL     1      -8.367  20.373  69.192  1.00  0.00     0.000 HD 
ENDROOT
BRANCH   2   4
HETATM    4  C   UNL     1      -8.516  19.104  67.560  1.00  0.00    -0.288 C  
HETATM    5  C   UNL     1      -9.865  19.845  67.338  1.00  0.00    -0.541 C  
HETATM    6  C   UNL     1     -10.484  19.531  65.957  1.00  0.00    -0.611 C  
HETATM    7  C   UNL     1     -10.477  18.060  65.748  1.00  0.00    -0.198 A  
HETATM    8  C   UNL     1      -9.664  17.167  66.406  1.00  0.00    -0.307 A  
HETATM    9  C   UNL     1     -10.005  15.866  65.965  1.00  0.00    -0.360 A  
HETATM   10  C   UNL     1      -8.686  17.565  67.452  1.00  0.00    -0.231 C  
HETATM   11  C   UNL     1     -11.023  16.002  65.023  1.00  0.00    -0.380 A  
HETATM   12  N   UNL     1     -11.282  17.355  64.894  1.00  0.00    -0.678 NA 
HETATM   13  C   UNL     1     -11.610  14.897  64.400  1.00  0.00    -0.296 A  
HETATM   14  H   UNL     1     -11.969  17.764  64.260  1.00  0.00     0.000 HD 
HETATM   15  C   UNL     1     -11.140  13.625  64.763  1.00  0.00    -0.375 A  
HETATM   16  C   UNL     1     -10.119  13.458  65.709  1.00  0.00    -0.297 A  
HETATM   17  C   UNL     1      -9.544  14.582  66.311  1.00  0.00    -0.328 A  
BRANCH  16  18
HETATM   18  C   UNL     1      -9.688  12.069  66.042  1.00  0.00    -0.239 C  
HETATM   19  N   UNL     1      -8.378  11.846  66.372  1.00  0.00    -0.376 N  
HETATM   20  O   UNL     1     -10.477  11.132  66.028  1.00  0.00    -0.251 OA 
HETATM   21  H1  UNL     1      -8.083  10.897  66.600  1.00  0.00     0.000 HD 
HETATM   22  H2  UNL     1      -7.709  12.616  66.391  1.00  0.00     0.000 HD 
ENDBRANCH  16  18
ENDBRANCH   2   4
TORSDOF 2
ENDMDL
MODEL       30
REMARK 921   NORMALIZED FREE ENERGY PREDICTED BY IDOCK:   -5.70 KCAL/MOL
REMARK 922        TOTAL FREE ENERGY PREDICTED BY IDOCK:   -6.48 KCAL/MOL
REMARK 923 INTER-LIGAND FREE ENERGY PREDICTED BY IDOCK:   -6.33 KCAL/MOL
REMARK 924 INTRA-LIGAND FREE ENERGY PREDICTED BY IDOCK:   -0.15 KCAL/MOL
REMARK 927      BINDING AFFINITY PREDICTED BY RF-SCORE:    0.00 PKD
ROOT
HETATM    1  C   UNL     1     -10.267   7.349  67.957  1.00  0.00    -0.191 C  
HETATM    2  N   UNL     1     -10.548   6.658  69.211  1.00  0.00    -0.219 NA 
HETATM    3  H   UNL     1      -9.768   6.056  69.477  1.00  0.00     0.000 HD 
ENDROOT
BRANCH   2   4
HETATM    4  C   UNL     1     -10.902   7.578  70.311  1.00  0.00    -0.246 C  
HETATM    5  C   UNL     1     -12.221   7.093  70.978  1.00  0.00    -0.384 C  
HETATM    6  C   UNL     1     -12.626   7.972  72.182  1.00  0.00    -0.316 C  
HETATM    7  C   UNL     1     -12.556   9.402  71.782  1.00  0.00    -0.387 A  
HETATM    8  C   UNL     1     -11.827   9.896  70.725  1.00  0.00    -0.415 A  
HETATM    9  C   UNL     1     -12.071  11.288  70.647  1.00  0.00    -0.480 A  
HETATM   10  C   UNL     1     -11.020   9.043  69.813  1.00  0.00    -0.177 C  
HETATM   11  C   UNL     1     -12.944  11.615  71.683  1.00  0.00    -0.378 A  
HETATM   12  N   UNL     1     -13.212  10.447  72.374  1.00  0.00    -0.531 NA 
HETATM   13  C   UNL     1     -13.409  12.918  71.879  1.00  0.00    -0.530 A  
HETATM   14  H   UNL     1     -13.808  10.375  73.199  1.00  0.00     0.000 HD 
HETATM   15  C   UNL     1     -12.968  13.903  70.980  1.00  0.00    -0.357 A  
HETATM   16  C   UNL     1     -12.092  13.604  69.928  1.00  0.00    -0.406 A  
HETATM   17  C   UNL     1     -11.637  12.292  69.760  1.00  0.00    -0.314 A  
BRANCH  16  18
HETATM   18  C   UNL     1     -11.683  14.711  69.015  1.00  0.00    -0.306 C  
HETATM   19  N   UNL     1     -12.296  15.928  69.139  1.00  0.00    -0.461 N  
HETATM   20  O   UNL     1     -10.815  14.553  68.165  1.00  0.00    -0.233 OA 
HETATM   21  H1  UNL     1     -12.016  16.685  68.516  1.00  0.00     0.000 HD 
HETATM   22  H2  UNL     1     -13.019  16.077  69.843  1.00  0.00     0.000 HD 
ENDBRANCH  16  18
ENDBRANCH   2   4
TORSDOF 2
ENDMDL
MODEL       31
REMARK 921   NORMALIZED FREE ENERGY PREDICTED BY IDOCK:   -5.69 KCAL/MOL
REMARK 922        TOTAL FREE ENERGY PREDICTED BY IDOCK:   -6.47 KCAL/MOL
REMARK 923 INTER-LIGAND FREE ENERGY PREDICTED BY IDOCK:   -6.37 KCAL/MOL
REMARK 924 INTRA-LIGAND FREE ENERGY PREDICTED BY IDOCK:   -0.10 KCAL/MOL
REMARK 927      BINDING AFFINITY PREDICTED BY RF-SCORE:    0.00 PKD
ROOT
HETATM    1  C   UNL     1     -13.517  15.584  72.020  1.00  0.00    -0.482 C  
HETATM    2  N   UNL     1     -13.378  15.536  70.568  1.00  0.00    -0.801 NA 
HETATM    3  H   UNL     1     -13.308  16.475  70.177  1.00  0.00     0.000 HD 
ENDROOT
BRANCH   2   4
HETATM    4  C   UNL     1     -12.247  14.695  70.124  1.00  0.00    -0.335 C  
HETATM    5  C   UNL     1     -12.134  14.767  68.575  1.00  0.00    -0.210 C  
HETATM    6  C   UNL     1     -10.931  13.959  68.038  1.00  0.00    -0.267 C  
HETATM    7  C   UNL     1     -10.942  12.607  68.654  1.00  0.00    -0.256 A  
HETATM    8  C   UNL     1     -11.589  12.271  69.821  1.00  0.00    -0.314 A  
HETATM    9  C   UNL     1     -11.405  10.883  70.033  1.00  0.00    -0.386 A  
HETATM   10  C   UNL     1     -12.397  13.231  70.618  1.00  0.00    -0.416 C  
HETATM   11  C   UNL     1     -10.626  10.404  68.981  1.00  0.00    -0.221 A  
HETATM   12  N   UNL     1     -10.341  11.481  68.160  1.00  0.00    -0.188 NA 
HETATM   13  C   UNL     1     -10.274   9.056  68.872  1.00  0.00    -0.223 A  
HETATM   14  H   UNL     1      -9.770  11.441  67.316  1.00  0.00     0.000 HD 
HETATM   15  C   UNL     1     -10.743   8.184  69.868  1.00  0.00    -0.241 A  
HETATM   16  C   UNL     1     -11.529   8.637  70.936  1.00  0.00    -0.315 A  
HETATM   17  C   UNL     1     -11.860   9.993  71.023  1.00  0.00    -0.476 A  
BRANCH  16  18
HETATM   18  C   UNL     1     -11.993   7.638  71.943  1.00  0.00    -0.295 C  
HETATM   19  N   UNL     1     -11.267   7.476  73.092  1.00  0.00    -0.584 N  
HETATM   20  O   UNL     1     -13.003   6.968  71.764  1.00  0.00    -0.359 OA 
HETATM   21  H1  UNL     1     -11.583   6.794  73.781  1.00  0.00     0.000 HD 
HETATM   22  H2  UNL     1     -10.425   8.028  73.258  1.00  0.00     0.000 HD 
ENDBRANCH  16  18
ENDBRANCH   2   4
TORSDOF 2
ENDMDL
MODEL       32
REMARK 921   NORMALIZED FREE ENERGY PREDICTED BY IDOCK:   -5.66 KCAL/MOL
REMARK 922        TOTAL FREE ENERGY PREDICTED BY IDOCK:   -6.44 KCAL/MOL
REMARK 923 INTER-LIGAND FREE ENERGY PREDICTED BY IDOCK:   -6.29 KCAL/MOL
REMARK 924 INTRA-LIGAND FREE ENERGY PREDICTED BY IDOCK:   -0.15 KCAL/MOL
REMARK 927      BINDING AFFINITY PREDICTED BY RF-SCORE:    0.00 PKD
ROOT
HETATM    1  C   UNL     1     -10.213  19.113  67.009  1.00  0.00    -0.393 C  
HETATM    2  N   UNL     1      -9.985  18.755  68.405  1.00  0.00    -0.374 NA 
HETATM    3  H   UNL     1     -10.697  19.166  69.008  1.00  0.00     0.000 HD 
ENDROOT
BRANCH   2   4
HETATM    4  C   UNL     1      -9.891  17.296  68.619  1.00  0.00    -0.313 C  
HETATM    5  C   UNL     1      -8.417  16.920  68.941  1.00  0.00    -0.202 C  
HETATM    6  C   UNL     1      -8.249  15.414  69.240  1.00  0.00    -0.252 C  
HETATM    7  C   UNL     1      -8.930  14.631  68.176  1.00  0.00    -0.179 A  
HETATM    8  C   UNL     1      -9.919  15.109  67.348  1.00  0.00    -0.226 A  
HETATM    9  C   UNL     1     -10.261  14.076  66.442  1.00  0.00    -0.293 A  
HETATM   10  C   UNL     1     -10.427  16.505  67.396  1.00  0.00    -0.310 C  
HETATM   11  C   UNL     1      -9.468  12.973  66.755  1.00  0.00    -0.250 A  
HETATM   12  N   UNL     1      -8.675  13.331  67.830  1.00  0.00    -0.180 NA 
HETATM   13  C   UNL     1      -9.538  11.779  66.031  1.00  0.00    -0.248 A  
HETATM   14  H   UNL     1      -8.003  12.721  68.295  1.00  0.00     0.000 HD 
HETATM   15  C   UNL     1     -10.441  11.727  64.957  1.00  0.00    -0.332 A  
HETATM   16  C   UNL     1     -11.249  12.821  64.618  1.00  0.00    -0.356 A  
HETATM   17  C   UNL     1     -11.163  14.001  65.365  1.00  0.00    -0.319 A  
BRANCH  16  18
HETATM   18  C   UNL     1     -12.173  12.681  63.455  1.00  0.00    -0.547 C  
HETATM   19  N   UNL     1     -12.362  11.440  62.909  1.00  0.00    -0.834 N  
HETATM   20  O   UNL     1     -12.763  13.647  62.986  1.00  0.00    -0.681 OA 
HETATM   21  H1  UNL     1     -12.994  11.345  62.114  1.00  0.00     0.000 HD 
HETATM   22  H2  UNL     1     -11.880  10.626  63.289  1.00  0.00     0.000 HD 
ENDBRANCH  16  18
ENDBRANCH   2   4
TORSDOF 2
ENDMDL
MODEL       33
REMARK 921   NORMALIZED FREE ENERGY PREDICTED BY IDOCK:   -5.65 KCAL/MOL
REMARK 922        TOTAL FREE ENERGY PREDICTED BY IDOCK:   -6.43 KCAL/MOL
REMARK 923 INTER-LIGAND FREE ENERGY PREDICTED BY IDOCK:   -6.31 KCAL/MOL
REMARK 924 INTRA-LIGAND FREE ENERGY PREDICTED BY IDOCK:   -0.11 KCAL/MOL
REMARK 927      BINDING AFFINITY PREDICTED BY RF-SCORE:    0.00 PKD
ROOT
HETATM    1  C   UNL     1      -9.913  15.763  69.286  1.00  0.00    -0.262 C  
HETATM    2  N   UNL     1     -10.448  14.663  68.490  1.00  0.00    -0.240 NA 
HETATM    3  H   UNL     1      -9.710  14.009  68.230  1.00  0.00     0.000 HD 
ENDROOT
BRANCH   2   4
HETATM    4  C   UNL     1     -11.566  13.961  69.153  1.00  0.00    -0.313 C  
HETATM    5  C   UNL     1     -11.878  14.662  70.506  1.00  0.00    -0.367 C  
HETATM    6  C   UNL     1     -13.081  14.020  71.233  1.00  0.00    -0.399 C  
HETATM    7  C   UNL     1     -12.899  12.545  71.260  1.00  0.00    -0.241 A  
HETATM    8  C   UNL     1     -12.089  11.829  70.410  1.00  0.00    -0.440 A  
HETATM    9  C   UNL     1     -12.151  10.469  70.799  1.00  0.00    -0.470 A  
HETATM   10  C   UNL     1     -11.255  12.453  69.350  1.00  0.00    -0.225 C  
HETATM   11  C   UNL     1     -13.021  10.389  71.884  1.00  0.00    -0.450 A  
HETATM   12  N   UNL     1     -13.480  11.669  72.137  1.00  0.00    -0.518 NA 
HETATM   13  C   UNL     1     -13.291   9.179  72.531  1.00  0.00    -0.481 A  
HETATM   14  H   UNL     1     -14.149  11.921  72.864  1.00  0.00     0.000 HD 
HETATM   15  C   UNL     1     -12.642   8.030  72.050  1.00  0.00    -0.346 A  
HETATM   16  C   UNL     1     -11.760   8.082  70.962  1.00  0.00    -0.295 A  
HETATM   17  C   UNL     1     -11.514   9.305  70.330  1.00  0.00    -0.198 A  
BRANCH  16  18
HETATM   18  C   UNL     1     -11.107   6.814  70.524  1.00  0.00    -0.298 C  
HETATM   19  N   UNL     1     -11.299   6.383  69.239  1.00  0.00    -0.564 N  
HETATM   20  O   UNL     1     -10.405   6.158  71.285  1.00  0.00    -0.205 OA 
HETATM   21  H1  UNL     1     -10.852   5.517  68.939  1.00  0.00     0.000 HD 
HETATM   22  H2  UNL     1     -11.878   6.919  68.593  1.00  0.00     0.000 HD 
ENDBRANCH  16  18
ENDBRANCH   2   4
TORSDOF 2
ENDMDL
MODEL       34
REMARK 921   NORMALIZED FREE ENERGY PREDICTED BY IDOCK:   -5.61 KCAL/MOL
REMARK 922        TOTAL FREE ENERGY PREDICTED BY IDOCK:   -6.38 KCAL/MOL
REMARK 923 INTER-LIGAND FREE ENERGY PREDICTED BY IDOCK:   -6.27 KCAL/MOL
REMARK 924 INTRA-LIGAND FREE ENERGY PREDICTED BY IDOCK:   -0.11 KCAL/MOL
REMARK 927      BINDING AFFINITY PREDICTED BY RF-SCORE:    0.00 PKD
ROOT
HETATM    1  C   UNL     1     -11.413  14.636  65.023  1.00  0.00    -0.386 C  
HETATM    2  N   UNL     1     -12.067  14.305  66.285  1.00  0.00    -0.424 NA 
HETATM    3  H   UNL     1     -12.863  13.687  66.132  1.00  0.00     0.000 HD 
ENDROOT
BRANCH   2   4
HETATM    4  C   UNL     1     -11.139  13.732  67.282  1.00  0.00    -0.304 C  
HETATM    5  C   UNL     1      -9.898  13.149  66.549  1.00  0.00    -0.265 C  
HETATM    6  C   UNL     1      -8.849  12.585  67.533  1.00  0.00    -0.184 C  
HETATM    7  C   UNL     1      -9.532  11.703  68.515  1.00  0.00    -0.173 A  
HETATM    8  C   UNL     1     -10.874  11.737  68.814  1.00  0.00    -0.268 A  
HETATM    9  C   UNL     1     -11.134  10.707  69.750  1.00  0.00    -0.358 A  
HETATM   10  C   UNL     1     -11.838  12.662  68.162  1.00  0.00    -0.366 C  
HETATM   11  C   UNL     1      -9.922  10.070  70.012  1.00  0.00    -0.222 A  
HETATM   12  N   UNL     1      -8.953  10.709  69.258  1.00  0.00    -0.339 NA 
HETATM   13  C   UNL     1      -9.828   8.982  70.884  1.00  0.00    -0.330 A  
HETATM   14  H   UNL     1      -7.961  10.476  69.256  1.00  0.00     0.000 HD 
HETATM   15  C   UNL     1     -11.013   8.539  71.493  1.00  0.00    -0.337 A  
HETATM   16  C   UNL     1     -12.246   9.157  71.247  1.00  0.00    -0.395 A  
HETATM   17  C   UNL     1     -12.309  10.249  70.374  1.00  0.00    -0.319 A  
BRANCH  16  18
HETATM   18  C   UNL     1     -13.456   8.614  71.930  1.00  0.00    -0.397 C  
HETATM   19  N   UNL     1     -14.000   9.320  72.968  1.00  0.00    -0.793 N  
HETATM   20  O   UNL     1     -13.969   7.557  71.580  1.00  0.00    -0.408 OA 
HETATM   21  H1  UNL     1     -14.827   8.948  73.435  1.00  0.00     0.000 HD 
HETATM   22  H2  UNL     1     -13.587  10.202  73.270  1.00  0.00     0.000 HD 
ENDBRANCH  16  18
ENDBRANCH   2   4
TORSDOF 2
ENDMDL
MODEL       35
REMARK 921   NORMALIZED FREE ENERGY PREDICTED BY IDOCK:   -5.59 KCAL/MOL
REMARK 922        TOTAL FREE ENERGY PREDICTED BY IDOCK:   -6.36 KCAL/MOL
REMARK 923 INTER-LIGAND FREE ENERGY PREDICTED BY IDOCK:   -6.22 KCAL/MOL
REMARK 924 INTRA-LIGAND FREE ENERGY PREDICTED BY IDOCK:   -0.14 KCAL/MOL
REMARK 927      BINDING AFFINITY PREDICTED BY RF-SCORE:    0.00 PKD
ROOT
HETATM    1  C   UNL     1     -11.701   6.673  71.446  1.00  0.00    -0.324 C  
HETATM    2  N   UNL     1     -12.137   7.714  72.371  1.00  0.00    -0.498 NA 
HETATM    3  H   UNL     1     -11.731   7.572  73.296  1.00  0.00     0.000 HD 
ENDROOT
BRANCH   2   4
HETATM    4  C   UNL     1     -11.860   9.079  71.878  1.00  0.00    -0.376 C  
HETATM    5  C   UNL     1     -13.130   9.957  72.065  1.00  0.00    -0.545 C  
HETATM    6  C   UNL     1     -12.898  11.421  71.627  1.00  0.00    -0.497 C  
HETATM    7  C   UNL     1     -12.261  11.429  70.285  1.00  0.00    -0.349 A  
HETATM    8  C   UNL     1     -11.569  10.379  69.728  1.00  0.00    -0.339 A  
HETATM    9  C   UNL     1     -11.172  10.767  68.425  1.00  0.00    -0.345 A  
HETATM   10  C   UNL     1     -11.388   9.066  70.400  1.00  0.00    -0.242 C  
HETATM   11  C   UNL     1     -11.627  12.069  68.225  1.00  0.00    -0.334 A  
HETATM   12  N   UNL     1     -12.275  12.459  69.383  1.00  0.00    -0.146 NA 
HETATM   13  C   UNL     1     -11.422  12.750  67.021  1.00  0.00    -0.397 A  
HETATM   14  H   UNL     1     -12.698  13.373  69.541  1.00  0.00     0.000 HD 
HETATM   15  C   UNL     1     -10.738  12.068  66.002  1.00  0.00    -0.317 A  
HETATM   16  C   UNL     1     -10.270  10.758  66.175  1.00  0.00    -0.308 A  
HETATM   17  C   UNL     1     -10.484  10.103  67.393  1.00  0.00    -0.310 A  
BRANCH  16  18
HETATM   18  C   UNL     1      -9.562  10.106  65.035  1.00  0.00    -0.299 C  
HETATM   19  N   UNL     1     -10.107  10.194  63.783  1.00  0.00    -0.467 N  
HETATM   20  O   UNL     1      -8.509   9.501  65.196  1.00  0.00    -0.133 OA 
HETATM   21  H1  UNL     1      -9.624   9.749  63.004  1.00  0.00     0.000 HD 
HETATM   22  H2  UNL     1     -10.982  10.696  63.631  1.00  0.00     0.000 HD 
ENDBRANCH  16  18
ENDBRANCH   2   4
TORSDOF 2
ENDMDL
MODEL       36
REMARK 921   NORMALIZED FREE ENERGY PREDICTED BY IDOCK:   -5.58 KCAL/MOL
REMARK 922        TOTAL FREE ENERGY PREDICTED BY IDOCK:   -6.34 KCAL/MOL
REMARK 923 INTER-LIGAND FREE ENERGY PREDICTED BY IDOCK:   -6.23 KCAL/MOL
REMARK 924 INTRA-LIGAND FREE ENERGY PREDICTED BY IDOCK:   -0.11 KCAL/MOL
REMARK 927      BINDING AFFINITY PREDICTED BY RF-SCORE:    0.00 PKD
ROOT
HETATM    1  C   UNL     1     -10.733   5.851  70.982  1.00  0.00    -0.267 C  
HETATM    2  N   UNL     1     -10.241   6.483  69.762  1.00  0.00    -0.181 NA 
HETATM    3  H   UNL     1     -10.776   6.174  68.950  1.00  0.00     0.000 HD 
ENDROOT
BRANCH   2   4
HETATM    4  C   UNL     1     -10.216   7.959  69.846  1.00  0.00    -0.210 C  
HETATM    5  C   UNL     1     -11.285   8.430  70.872  1.00  0.00    -0.294 C  
HETATM    6  C   UNL     1     -11.277   9.963  71.062  1.00  0.00    -0.435 C  
HETATM    7  C   UNL     1     -11.285  10.616  69.728  1.00  0.00    -0.297 A  
HETATM    8  C   UNL     1     -10.896  10.021  68.550  1.00  0.00    -0.270 A  
HETATM    9  C   UNL     1     -11.106  10.954  67.505  1.00  0.00    -0.375 A  
HETATM   10  C   UNL     1     -10.432   8.613  68.455  1.00  0.00    -0.209 C  
HETATM   11  C   UNL     1     -11.613  12.116  68.084  1.00  0.00    -0.337 A  
HETATM   12  N   UNL     1     -11.696  11.891  69.447  1.00  0.00    -0.316 NA 
HETATM   13  C   UNL     1     -11.955  13.237  67.322  1.00  0.00    -0.393 A  
HETATM   14  H   UNL     1     -12.016  12.571  70.136  1.00  0.00     0.000 HD 
HETATM   15  C   UNL     1     -11.776  13.151  65.932  1.00  0.00    -0.427 A  
HETATM   16  C   UNL     1     -11.270  11.995  65.322  1.00  0.00    -0.374 A  
HETATM   17  C   UNL     1     -10.930  10.891  66.111  1.00  0.00    -0.099 A  
BRANCH  16  18
HETATM   18  C   UNL     1     -11.122  11.989  63.838  1.00  0.00    -0.405 C  
HETATM   19  N   UNL     1     -12.217  11.705  63.067  1.00  0.00    -0.951 N  
HETATM   20  O   UNL     1     -10.048  12.233  63.300  1.00  0.00    -0.388 OA 
HETATM   21  H1  UNL     1     -12.116  11.701  62.052  1.00  0.00     0.000 HD 
HETATM   22  H2  UNL     1     -13.118  11.502  63.499  1.00  0.00     0.000 HD 
ENDBRANCH  16  18
ENDBRANCH   2   4
TORSDOF 2
ENDMDL
MODEL       37
REMARK 921   NORMALIZED FREE ENERGY PREDICTED BY IDOCK:   -5.57 KCAL/MOL
REMARK 922        TOTAL FREE ENERGY PREDICTED BY IDOCK:   -6.34 KCAL/MOL
REMARK 923 INTER-LIGAND FREE ENERGY PREDICTED BY IDOCK:   -6.21 KCAL/MOL
REMARK 924 INTRA-LIGAND FREE ENERGY PREDICTED BY IDOCK:   -0.13 KCAL/MOL
REMARK 927      BINDING AFFINITY PREDICTED BY RF-SCORE:    0.00 PKD
ROOT
HETATM    1  C   UNL     1     -13.120  14.476  72.949  1.00  0.00    -0.519 C  
HETATM    2  N   UNL     1     -13.304  13.162  72.340  1.00  0.00    -0.532 NA 
HETATM    3  H   UNL     1     -14.230  12.790  72.550  1.00  0.00     0.000 HD 
ENDROOT
BRANCH   2   4
HETATM    4  C   UNL     1     -13.052  13.160  70.884  1.00  0.00     0.031 C  
HETATM    5  C   UNL     1     -12.154  11.943  70.524  1.00  0.00    -0.422 C  
HETATM    6  C   UNL     1     -11.896  11.836  69.004  1.00  0.00    -0.379 C  
HETATM    7  C   UNL     1     -11.474  13.165  68.490  1.00  0.00    -0.303 A  
HETATM    8  C   UNL     1     -11.714  14.369  69.111  1.00  0.00    -0.354 A  
HETATM    9  C   UNL     1     -11.105  15.384  68.334  1.00  0.00    -0.301 A  
HETATM   10  C   UNL     1     -12.419  14.496  70.413  1.00  0.00    -0.407 C  
HETATM   11  C   UNL     1     -10.512  14.764  67.235  1.00  0.00    -0.264 A  
HETATM   12  N   UNL     1     -10.767  13.409  67.344  1.00  0.00    -0.260 NA 
HETATM   13  C   UNL     1      -9.799  15.484  66.272  1.00  0.00    -0.317 A  
HETATM   14  H   UNL     1     -10.472  12.700  66.673  1.00  0.00     0.000 HD 
HETATM   15  C   UNL     1      -9.692  16.873  66.452  1.00  0.00    -0.301 A  
HETATM   16  C   UNL     1     -10.276  17.523  67.547  1.00  0.00    -0.340 A  
HETATM   17  C   UNL     1     -10.990  16.777  68.493  1.00  0.00    -0.312 A  
BRANCH  16  18
HETATM   18  C   UNL     1     -10.103  19.000  67.665  1.00  0.00    -0.374 C  
HETATM   19  N   UNL     1     -10.595  19.802  66.671  1.00  0.00    -0.476 N  
HETATM   20  O   UNL     1      -9.536  19.505  68.627  1.00  0.00    -0.376 OA 
HETATM   21  H1  UNL     1     -10.477  20.812  66.751  1.00  0.00     0.000 HD 
HETATM   22  H2  UNL     1     -11.071  19.398  65.864  1.00  0.00     0.000 HD 
ENDBRANCH  16  18
ENDBRANCH   2   4
TORSDOF 2
ENDMDL
MODEL       38
REMARK 921   NORMALIZED FREE ENERGY PREDICTED BY IDOCK:   -5.54 KCAL/MOL
REMARK 922        TOTAL FREE ENERGY PREDICTED BY IDOCK:   -6.30 KCAL/MOL
REMARK 923 INTER-LIGAND FREE ENERGY PREDICTED BY IDOCK:   -6.18 KCAL/MOL
REMARK 924 INTRA-LIGAND FREE ENERGY PREDICTED BY IDOCK:   -0.12 KCAL/MOL
REMARK 927      BINDING AFFINITY PREDICTED BY RF-SCORE:    0.00 PKD
ROOT
HETATM    1  C   UNL     1     -11.873   9.823  71.316  1.00  0.00    -0.399 C  
HETATM    2  N   UNL     1     -12.005  11.265  71.132  1.00  0.00    -0.232 NA 
HETATM    3  H   UNL     1     -11.242  11.762  71.591  1.00  0.00     0.000 HD 
ENDROOT
BRANCH   2   4
HETATM    4  C   UNL     1     -12.113  11.658  69.712  1.00  0.00    -0.289 C  
HETATM    5  C   UNL     1     -11.223  10.717  68.852  1.00  0.00    -0.333 C  
HETATM    6  C   UNL     1     -11.332  11.027  67.342  1.00  0.00    -0.306 C  
HETATM    7  C   UNL     1     -11.167  12.489  67.136  1.00  0.00    -0.300 A  
HETATM    8  C   UNL     1     -11.357  13.453  68.098  1.00  0.00    -0.321 A  
HETATM    9  C   UNL     1     -11.047  14.708  67.520  1.00  0.00    -0.319 A  
HETATM   10  C   UNL     1     -11.736  13.149  69.503  1.00  0.00    -0.382 C  
HETATM   11  C   UNL     1     -10.684  14.474  66.195  1.00  0.00    -0.310 A  
HETATM   12  N   UNL     1     -10.782  13.111  65.979  1.00  0.00    -0.274 NA 
HETATM   13  C   UNL     1     -10.293  15.507  65.339  1.00  0.00    -0.422 A  
HETATM   14  H   UNL     1     -10.596  12.641  65.093  1.00  0.00     0.000 HD 
HETATM   15  C   UNL     1     -10.270  16.809  65.865  1.00  0.00    -0.345 A  
HETATM   16  C   UNL     1     -10.628  17.074  67.194  1.00  0.00    -0.245 A  
HETATM   17  C   UNL     1     -11.023  16.020  68.026  1.00  0.00    -0.341 A  
BRANCH  16  18
HETATM   18  C   UNL     1     -10.566  18.485  67.673  1.00  0.00    -0.414 C  
HETATM   19  N   UNL     1     -10.257  18.724  68.985  1.00  0.00    -0.493 N  
HETATM   20  O   UNL     1     -10.781  19.428  66.919  1.00  0.00    -0.457 OA 
HETATM   21  H1  UNL     1     -10.215  19.688  69.312  1.00  0.00     0.000 HD 
HETATM   22  H2  UNL     1     -10.074  17.951  69.624  1.00  0.00     0.000 HD 
ENDBRANCH  16  18
ENDBRANCH   2   4
TORSDOF 2
ENDMDL
MODEL       39
REMARK 921   NORMALIZED FREE ENERGY PREDICTED BY IDOCK:   -5.51 KCAL/MOL
REMARK 922        TOTAL FREE ENERGY PREDICTED BY IDOCK:   -6.27 KCAL/MOL
REMARK 923 INTER-LIGAND FREE ENERGY PREDICTED BY IDOCK:   -6.15 KCAL/MOL
REMARK 924 INTRA-LIGAND FREE ENERGY PREDICTED BY IDOCK:   -0.12 KCAL/MOL
REMARK 927      BINDING AFFINITY PREDICTED BY RF-SCORE:    0.00 PKD
ROOT
HETATM    1  C   UNL     1     -11.389  16.316  70.314  1.00  0.00    -0.287 C  
HETATM    2  N   UNL     1     -12.212  15.886  69.188  1.00  0.00    -0.485 NA 
HETATM    3  H   UNL     1     -11.805  16.189  68.303  1.00  0.00     0.000 HD 
ENDROOT
BRANCH   2   4
HETATM    4  C   UNL     1     -12.465  14.430  69.180  1.00  0.00     0.025 C  
HETATM    5  C   UNL     1     -12.038  13.831  70.551  1.00  0.00    -0.416 C  
HETATM    6  C   UNL     1     -12.331  12.316  70.643  1.00  0.00    -0.375 C  
HETATM    7  C   UNL     1     -11.813  11.648  69.421  1.00  0.00    -0.342 A  
HETATM    8  C   UNL     1     -11.553  12.273  68.224  1.00  0.00    -0.385 A  
HETATM    9  C   UNL     1     -11.022  11.305  67.337  1.00  0.00    -0.337 A  
HETATM   10  C   UNL     1     -11.738  13.731  68.001  1.00  0.00    -0.390 C  
HETATM   11  C   UNL     1     -10.984  10.093  68.024  1.00  0.00    -0.270 A  
HETATM   12  N   UNL     1     -11.489  10.324  69.291  1.00  0.00    -0.401 NA 
HETATM   13  C   UNL     1     -10.488   8.924  67.440  1.00  0.00    -0.347 A  
HETATM   14  H   UNL     1     -11.604   9.617  70.017  1.00  0.00     0.000 HD 
HETATM   15  C   UNL     1     -10.014   9.012  66.121  1.00  0.00    -0.311 A  
HETATM   16  C   UNL     1     -10.038  10.217  65.407  1.00  0.00    -0.354 A  
HETATM   17  C   UNL     1     -10.547  11.370  66.015  1.00  0.00    -0.319 A  
BRANCH  16  18
HETATM   18  C   UNL     1      -9.505  10.222  64.013  1.00  0.00    -0.300 C  
HETATM   19  N   UNL     1     -10.264  10.778  63.019  1.00  0.00    -0.710 N  
HETATM   20  O   UNL     1      -8.409   9.743  63.744  1.00  0.00    -0.144 OA 
HETATM   21  H1  UNL     1      -9.900  10.781  62.067  1.00  0.00     0.000 HD 
HETATM   22  H2  UNL     1     -11.177  11.182  63.226  1.00  0.00     0.000 HD 
ENDBRANCH  16  18
ENDBRANCH   2   4
TORSDOF 2
ENDMDL
MODEL       40
REMARK 921   NORMALIZED FREE ENERGY PREDICTED BY IDOCK:   -5.48 KCAL/MOL
REMARK 922        TOTAL FREE ENERGY PREDICTED BY IDOCK:   -6.23 KCAL/MOL
REMARK 923 INTER-LIGAND FREE ENERGY PREDICTED BY IDOCK:   -6.10 KCAL/MOL
REMARK 924 INTRA-LIGAND FREE ENERGY PREDICTED BY IDOCK:   -0.13 KCAL/MOL
REMARK 927      BINDING AFFINITY PREDICTED BY RF-SCORE:    0.00 PKD
ROOT
HETATM    1  C   UNL     1      -5.261  18.651  65.766  1.00  0.00    -0.148 C  
HETATM    2  N   UNL     1      -6.053  19.847  66.034  1.00  0.00    -0.173 NA 
HETATM    3  H   UNL     1      -6.179  20.398  65.185  1.00  0.00     0.000 HD 
ENDROOT
BRANCH   2   4
HETATM    4  C   UNL     1      -7.355  19.549  66.666  1.00  0.00    -0.240 C  
HETATM    5  C   UNL     1      -7.149  19.369  68.197  1.00  0.00    -0.310 C  
HETATM    6  C   UNL     1      -8.480  19.114  68.940  1.00  0.00    -0.318 C  
HETATM    7  C   UNL     1      -9.235  18.050  68.229  1.00  0.00    -0.293 A  
HETATM    8  C   UNL     1      -9.046  17.685  66.916  1.00  0.00    -0.262 A  
HETATM    9  C   UNL     1      -9.917  16.603  66.640  1.00  0.00    -0.290 A  
HETATM   10  C   UNL     1      -8.025  18.302  66.030  1.00  0.00    -0.145 C  
HETATM   11  C   UNL     1     -10.636  16.343  67.806  1.00  0.00    -0.321 A  
HETATM   12  N   UNL     1     -10.214  17.253  68.758  1.00  0.00    -0.336 NA 
HETATM   13  C   UNL     1     -11.575  15.311  67.884  1.00  0.00    -0.301 A  
HETATM   14  H   UNL     1     -10.576  17.319  69.709  1.00  0.00     0.000 HD 
HETATM   15  C   UNL     1     -11.771  14.527  66.735  1.00  0.00    -0.393 A  
HETATM   16  C   UNL     1     -11.061  14.764  65.550  1.00  0.00    -0.346 A  
HETATM   17  C   UNL     1     -10.132  15.809  65.498  1.00  0.00    -0.383 A  
BRANCH  16  18
HETATM   18  C   UNL     1     -11.325  13.876  64.380  1.00  0.00    -0.341 C  
HETATM   19  N   UNL     1     -12.302  14.232  63.490  1.00  0.00    -1.122 N  
HETATM   20  O   UNL     1     -10.688  12.844  64.202  1.00  0.00    -0.376 OA 
HETATM   21  H1  UNL     1     -12.482  13.625  62.690  1.00  0.00     0.000 HD 
HETATM   22  H2  UNL     1     -12.840  15.088  63.622  1.00  0.00     0.000 HD 
ENDBRANCH  16  18
ENDBRANCH   2   4
TORSDOF 2
ENDMDL
MODEL       41
REMARK 921   NORMALIZED FREE ENERGY PREDICTED BY IDOCK:   -5.47 KCAL/MOL
REMARK 922        TOTAL FREE ENERGY PREDICTED BY IDOCK:   -6.23 KCAL/MOL
REMARK 923 INTER-LIGAND FREE ENERGY PREDICTED BY IDOCK:   -6.09 KCAL/MOL
REMARK 924 INTRA-LIGAND FREE ENERGY PREDICTED BY IDOCK:   -0.13 KCAL/MOL
REMARK 927      BINDING AFFINITY PREDICTED BY RF-SCORE:    0.00 PKD
ROOT
HETATM    1  C   UNL     1     -10.272  14.775  65.513  1.00  0.00    -0.374 C  
HETATM    2  N   UNL     1     -11.685  14.934  65.843  1.00  0.00    -0.243 NA 
HETATM    3  H   UNL     1     -12.271  14.761  65.027  1.00  0.00     0.000 HD 
ENDROOT
BRANCH   2   4
HETATM    4  C   UNL     1     -12.109  14.098  66.985  1.00  0.00    -0.414 C  
HETATM    5  C   UNL     1     -11.642  14.767  68.309  1.00  0.00    -0.348 C  
HETATM    6  C   UNL     1     -12.103  13.980  69.556  1.00  0.00    -0.397 C  
HETATM    7  C   UNL     1     -11.775  12.543  69.371  1.00  0.00    -0.322 A  
HETATM    8  C   UNL     1     -11.545  11.931  68.161  1.00  0.00    -0.400 A  
HETATM    9  C   UNL     1     -11.211  10.579  68.418  1.00  0.00    -0.339 A  
HETATM   10  C   UNL     1     -11.573  12.647  66.859  1.00  0.00    -0.438 C  
HETATM   11  C   UNL     1     -11.259  10.397  69.799  1.00  0.00    -0.293 A  
HETATM   12  N   UNL     1     -11.624  11.608  70.359  1.00  0.00    -0.503 NA 
HETATM   13  C   UNL     1     -10.957   9.170  70.397  1.00  0.00    -0.290 A  
HETATM   14  H   UNL     1     -11.759  11.778  71.355  1.00  0.00     0.000 HD 
HETATM   15  C   UNL     1     -10.590   8.112  69.550  1.00  0.00    -0.215 A  
HETATM   16  C   UNL     1     -10.531   8.266  68.158  1.00  0.00    -0.226 A  
HETATM   17  C   UNL     1     -10.846   9.504  67.587  1.00  0.00    -0.253 A  
BRANCH  16  18
HETATM   18  C   UNL     1     -10.122   7.091  67.335  1.00  0.00    -0.195 C  
HETATM   19  N   UNL     1     -11.095   6.304  66.781  1.00  0.00    -0.732 N  
HETATM   20  O   UNL     1      -8.942   6.821  67.145  1.00  0.00    -0.114 OA 
HETATM   21  H1  UNL     1     -10.816   5.501  66.218  1.00  0.00     0.000 HD 
HETATM   22  H2  UNL     1     -12.082   6.516  66.927  1.00  0.00     0.000 HD 
ENDBRANCH  16  18
ENDBRANCH   2   4
TORSDOF 2
ENDMDL
MODEL       42
REMARK 921   NORMALIZED FREE ENERGY PREDICTED BY IDOCK:   -5.45 KCAL/MOL
REMARK 922        TOTAL FREE ENERGY PREDICTED BY IDOCK:   -6.21 KCAL/MOL
REMARK 923 INTER-LIGAND FREE ENERGY PREDICTED BY IDOCK:   -6.08 KCAL/MOL
REMARK 924 INTRA-LIGAND FREE ENERGY PREDICTED BY IDOCK:   -0.13 KCAL/MOL
REMARK 927      BINDING AFFINITY PREDICTED BY RF-SCORE:    0.00 PKD
ROOT
HETATM    1  C   UNL     1     -10.204   7.280  73.746  1.00  0.00    -0.323 C  
HETATM    2  N   UNL     1     -11.605   7.533  73.423  1.00  0.00    -0.533 NA 
HETATM    3  H   UNL     1     -11.982   8.282  74.002  1.00  0.00     0.000 HD 
ENDROOT
BRANCH   2   4
HETATM    4  C   UNL     1     -11.825   7.813  71.989  1.00  0.00    -0.307 C  
HETATM    5  C   UNL     1     -10.740   7.076  71.152  1.00  0.00    -0.253 C  
HETATM    6  C   UNL     1     -10.942   7.270  69.633  1.00  0.00    -0.204 C  
HETATM    7  C   UNL     1     -11.147   8.715  69.353  1.00  0.00     0.086 A  
HETATM    8  C   UNL     1     -11.557   9.652  70.273  1.00  0.00    -0.255 A  
HETATM    9  C   UNL     1     -11.574  10.912  69.627  1.00  0.00    -0.394 A  
HETATM   10  C   UNL     1     -11.830   9.337  71.700  1.00  0.00    -0.453 C  
HETATM   11  C   UNL     1     -11.181  10.705  68.306  1.00  0.00    -0.301 A  
HETATM   12  N   UNL     1     -10.942   9.350  68.158  1.00  0.00    -0.484 NA 
HETATM   13  C   UNL     1     -11.068  11.756  67.392  1.00  0.00    -0.338 A  
HETATM   14  H   UNL     1     -10.657   8.895  67.291  1.00  0.00     0.000 HD 
HETATM   15  C   UNL     1     -11.361  13.049  67.855  1.00  0.00    -0.327 A  
HETATM   16  C   UNL     1     -11.756  13.288  69.178  1.00  0.00    -0.379 A  
HETATM   17  C   UNL     1     -11.867  12.215  70.070  1.00  0.00    -0.383 A  
BRANCH  16  18
HETATM   18  C   UNL     1     -12.038  14.694  69.587  1.00  0.00    -0.311 C  
HETATM   19  N   UNL     1     -13.159  14.953  70.329  1.00  0.00    -0.625 N  
HETATM   20  O   UNL     1     -11.291  15.614  69.276  1.00  0.00    -0.296 OA 
HETATM   21  H1  UNL     1     -13.352  15.914  70.609  1.00  0.00     0.000 HD 
HETATM   22  H2  UNL     1     -13.790  14.198  70.598  1.00  0.00     0.000 HD 
ENDBRANCH  16  18
ENDBRANCH   2   4
TORSDOF 2
ENDMDL
MODEL       43
REMARK 921   NORMALIZED FREE ENERGY PREDICTED BY IDOCK:   -5.44 KCAL/MOL
REMARK 922        TOTAL FREE ENERGY PREDICTED BY IDOCK:   -6.19 KCAL/MOL
REMARK 923 INTER-LIGAND FREE ENERGY PREDICTED BY IDOCK:   -6.09 KCAL/MOL
REMARK 924 INTRA-LIGAND FREE ENERGY PREDICTED BY IDOCK:   -0.10 KCAL/MOL
REMARK 927      BINDING AFFINITY PREDICTED BY RF-SCORE:    0.00 PKD
ROOT
HETATM    1  C   UNL     1      -7.637  19.668  68.826  1.00  0.00    -0.316 C  
HETATM    2  N   UNL     1      -8.051  18.277  68.676  1.00  0.00    -0.306 NA 
HETATM    3  H   UNL     1      -8.697  18.007  69.417  1.00  0.00     0.000 HD 
ENDROOT
BRANCH   2   4
HETATM    4  C   UNL     1      -8.624  17.986  67.345  1.00  0.00    -0.244 C  
HETATM    5  C   UNL     1      -9.863  18.898  67.112  1.00  0.00    -0.368 C  
HETATM    6  C   UNL     1     -10.482  18.695  65.711  1.00  0.00    -0.294 C  
HETATM    7  C   UNL     1     -10.657  17.240  65.465  1.00  0.00    -0.127 A  
HETATM    8  C   UNL     1      -9.981  16.237  66.120  1.00  0.00    -0.355 A  
HETATM    9  C   UNL     1     -10.472  15.000  65.638  1.00  0.00    -0.368 A  
HETATM   10  C   UNL     1      -8.986  16.484  67.196  1.00  0.00    -0.221 C  
HETATM   11  C   UNL     1     -11.441  15.285  64.678  1.00  0.00    -0.354 A  
HETATM   12  N   UNL     1     -11.524  16.662  64.577  1.00  0.00    -0.909 NA 
HETATM   13  C   UNL     1     -12.148  14.278  64.015  1.00  0.00    -0.350 A  
HETATM   14  H   UNL     1     -12.136  17.169  63.938  1.00  0.00     0.000 HD 
HETATM   15  C   UNL     1     -11.853  12.949  64.358  1.00  0.00    -0.441 A  
HETATM   16  C   UNL     1     -10.885  12.632  65.321  1.00  0.00    -0.319 A  
HETATM   17  C   UNL     1     -10.188  13.661  65.963  1.00  0.00    -0.312 A  
BRANCH  16  18
HETATM   18  C   UNL     1     -10.643  11.193  65.629  1.00  0.00    -0.223 C  
HETATM   19  N   UNL     1     -10.759  10.767  66.925  1.00  0.00    -0.262 N  
HETATM   20  O   UNL     1     -10.346  10.390  64.752  1.00  0.00    -0.320 OA 
HETATM   21  H1  UNL     1     -10.593   9.784  67.136  1.00  0.00     0.000 HD 
HETATM   22  H2  UNL     1     -11.007  11.422  67.666  1.00  0.00     0.000 HD 
ENDBRANCH  16  18
ENDBRANCH   2   4
TORSDOF 2
ENDMDL
MODEL       44
REMARK 921   NORMALIZED FREE ENERGY PREDICTED BY IDOCK:   -5.44 KCAL/MOL
REMARK 922        TOTAL FREE ENERGY PREDICTED BY IDOCK:   -6.18 KCAL/MOL
REMARK 923 INTER-LIGAND FREE ENERGY PREDICTED BY IDOCK:   -6.07 KCAL/MOL
REMARK 924 INTRA-LIGAND FREE ENERGY PREDICTED BY IDOCK:   -0.12 KCAL/MOL
REMARK 927      BINDING AFFINITY PREDICTED BY RF-SCORE:    0.00 PKD
ROOT
HETATM    1  C   UNL     1      -9.750   9.129  66.285  1.00  0.00    -0.274 C  
HETATM    2  N   UNL     1      -9.746   9.831  65.005  1.00  0.00    -0.394 NA 
HETATM    3  H   UNL     1     -10.067   9.221  64.254  1.00  0.00     0.000 HD 
ENDROOT
BRANCH   2   4
HETATM    4  C   UNL     1     -10.524  11.087  65.033  1.00  0.00    -0.277 C  
HETATM    5  C   UNL     1     -10.803  11.547  63.574  1.00  0.00    -0.473 C  
HETATM    6  C   UNL     1     -11.669  12.826  63.520  1.00  0.00    -0.597 C  
HETATM    7  C   UNL     1     -11.100  13.834  64.451  1.00  0.00    -0.345 A  
HETATM    8  C   UNL     1     -10.267  13.557  65.510  1.00  0.00    -0.308 A  
HETATM    9  C   UNL     1      -9.906  14.789  66.109  1.00  0.00    -0.335 A  
HETATM   10  C   UNL     1      -9.799  12.188  65.850  1.00  0.00    -0.265 C  
HETATM   11  C   UNL     1     -10.550  15.799  65.397  1.00  0.00    -0.421 A  
HETATM   12  N   UNL     1     -11.289  15.190  64.399  1.00  0.00    -0.668 NA 
HETATM   13  C   UNL     1     -10.389  17.150  65.716  1.00  0.00    -0.253 A  
HETATM   14  H   UNL     1     -11.882  15.675  63.727  1.00  0.00     0.000 HD 
HETATM   15  C   UNL     1      -9.538  17.464  66.789  1.00  0.00    -0.283 A  
HETATM   16  C   UNL     1      -8.876  16.469  67.521  1.00  0.00    -0.198 A  
HETATM   17  C   UNL     1      -9.062  15.124  67.184  1.00  0.00    -0.226 A  
BRANCH  16  18
HETATM   18  C   UNL     1      -7.984  16.893  68.639  1.00  0.00    -0.256 C  
HETATM   19  N   UNL     1      -7.295  15.935  69.332  1.00  0.00    -0.224 N  
HETATM   20  O   UNL     1      -7.856  18.073  68.945  1.00  0.00    -0.272 OA 
HETATM   21  H1  UNL     1      -6.685  16.224  70.096  1.00  0.00     0.000 HD 
HETATM   22  H2  UNL     1      -7.389  14.949  69.089  1.00  0.00     0.000 HD 
ENDBRANCH  16  18
ENDBRANCH   2   4
TORSDOF 2
ENDMDL
MODEL       45
REMARK 921   NORMALIZED FREE ENERGY PREDICTED BY IDOCK:   -5.41 KCAL/MOL
REMARK 922        TOTAL FREE ENERGY PREDICTED BY IDOCK:   -6.15 KCAL/MOL
REMARK 923 INTER-LIGAND FREE ENERGY PREDICTED BY IDOCK:   -6.02 KCAL/MOL
REMARK 924 INTRA-LIGAND FREE ENERGY PREDICTED BY IDOCK:   -0.13 KCAL/MOL
REMARK 927      BINDING AFFINITY PREDICTED BY RF-SCORE:    0.00 PKD
ROOT
HETATM    1  C   UNL     1     -12.706  14.997  72.070  1.00  0.00    -0.333 C  
HETATM    2  N   UNL     1     -12.821  13.555  72.261  1.00  0.00    -0.247 NA 
HETATM    3  H   UNL     1     -13.603  13.330  72.875  1.00  0.00     0.000 HD 
ENDROOT
BRANCH   2   4
HETATM    4  C   UNL     1     -12.920  12.810  70.988  1.00  0.00    -0.083 C  
HETATM    5  C   UNL     1     -12.042  11.530  71.076  1.00  0.00    -0.258 C  
HETATM    6  C   UNL     1     -12.142  10.663  69.800  1.00  0.00    -0.343 C  
HETATM    7  C   UNL     1     -11.956  11.532  68.610  1.00  0.00    -0.246 A  
HETATM    8  C   UNL     1     -12.134  12.895  68.585  1.00  0.00    -0.171 A  
HETATM    9  C   UNL     1     -11.804  13.351  67.286  1.00  0.00    -0.422 A  
HETATM   10  C   UNL     1     -12.520  13.695  69.778  1.00  0.00    -0.193 C  
HETATM   11  C   UNL     1     -11.441  12.233  66.536  1.00  0.00    -0.381 A  
HETATM   12  N   UNL     1     -11.559  11.130  67.362  1.00  0.00    -0.537 NA 
HETATM   13  C   UNL     1     -11.032  12.335  65.203  1.00  0.00    -0.344 A  
HETATM   14  H   UNL     1     -11.377  10.166  67.085  1.00  0.00     0.000 HD 
HETATM   15  C   UNL     1     -10.992  13.619  64.636  1.00  0.00    -0.403 A  
HETATM   16  C   UNL     1     -11.349  14.760  65.366  1.00  0.00    -0.356 A  
HETATM   17  C   UNL     1     -11.761  14.628  66.697  1.00  0.00    -0.345 A  
BRANCH  16  18
HETATM   18  C   UNL     1     -11.267  16.086  64.687  1.00  0.00    -0.330 C  
HETATM   19  N   UNL     1     -10.608  17.109  65.314  1.00  0.00    -0.169 N  
HETATM   20  O   UNL     1     -11.772  16.275  63.587  1.00  0.00    -0.860 OA 
HETATM   21  H1  UNL     1     -10.551  18.015  64.850  1.00  0.00     0.000 HD 
HETATM   22  H2  UNL     1     -10.180  16.967  66.229  1.00  0.00     0.000 HD 
ENDBRANCH  16  18
ENDBRANCH   2   4
TORSDOF 2
ENDMDL
MODEL       46
REMARK 921   NORMALIZED FREE ENERGY PREDICTED BY IDOCK:   -5.39 KCAL/MOL
REMARK 922        TOTAL FREE ENERGY PREDICTED BY IDOCK:   -6.14 KCAL/MOL
REMARK 923 INTER-LIGAND FREE ENERGY PREDICTED BY IDOCK:   -5.99 KCAL/MOL
REMARK 924 INTRA-LIGAND FREE ENERGY PREDICTED BY IDOCK:   -0.15 KCAL/MOL
REMARK 927      BINDING AFFINITY PREDICTED BY RF-SCORE:    0.00 PKD
ROOT
HETATM    1  C   UNL     1     -11.850  16.132  71.653  1.00  0.00    -0.487 C  
HETATM    2  N   UNL     1     -13.207  15.601  71.747  1.00  0.00    -0.476 NA 
HETATM    3  H   UNL     1     -13.876  16.234  71.310  1.00  0.00     0.000 HD 
ENDROOT
BRANCH   2   4
HETATM    4  C   UNL     1     -13.332  14.237  71.195  1.00  0.00    -0.299 C  
HETATM    5  C   UNL     1     -12.789  13.214  72.233  1.00  0.00    -0.234 C  
HETATM    6  C   UNL     1     -12.944  11.754  71.752  1.00  0.00    -0.466 C  
HETATM    7  C   UNL     1     -12.430  11.646  70.362  1.00  0.00    -0.221 A  
HETATM    8  C   UNL     1     -12.284  12.695  69.485  1.00  0.00    -0.149 A  
HETATM    9  C   UNL     1     -11.715  12.186  68.293  1.00  0.00    -0.401 A  
HETATM   10  C   UNL     1     -12.606  14.105  69.830  1.00  0.00    -0.205 C  
HETATM   11  C   UNL     1     -11.539  10.815  68.472  1.00  0.00    -0.255 A  
HETATM   12  N   UNL     1     -12.000  10.505  69.739  1.00  0.00    -0.431 NA 
HETATM   13  C   UNL     1     -10.972  10.004  67.484  1.00  0.00    -0.276 A  
HETATM   14  H   UNL     1     -12.016   9.570  70.146  1.00  0.00     0.000 HD 
HETATM   15  C   UNL     1     -10.573  10.625  66.290  1.00  0.00    -0.229 A  
HETATM   16  C   UNL     1     -10.736  12.002  66.082  1.00  0.00    -0.312 A  
HETATM   17  C   UNL     1     -11.313  12.787  67.086  1.00  0.00    -0.365 A  
BRANCH  16  18
HETATM   18  C   UNL     1     -10.274  12.579  64.787  1.00  0.00    -0.280 C  
HETATM   19  N   UNL     1      -9.437  11.839  63.996  1.00  0.00    -0.477 N  
HETATM   20  O   UNL     1     -10.629  13.693  64.419  1.00  0.00    -0.423 OA 
HETATM   21  H1  UNL     1      -9.122  12.234  63.110  1.00  0.00     0.000 HD 
HETATM   22  H2  UNL     1      -9.134  10.910  64.287  1.00  0.00     0.000 HD 
ENDBRANCH  16  18
ENDBRANCH   2   4
TORSDOF 2
ENDMDL
MODEL       47
REMARK 921   NORMALIZED FREE ENERGY PREDICTED BY IDOCK:   -5.38 KCAL/MOL
REMARK 922        TOTAL FREE ENERGY PREDICTED BY IDOCK:   -6.12 KCAL/MOL
REMARK 923 INTER-LIGAND FREE ENERGY PREDICTED BY IDOCK:   -6.02 KCAL/MOL
REMARK 924 INTRA-LIGAND FREE ENERGY PREDICTED BY IDOCK:   -0.10 KCAL/MOL
REMARK 927      BINDING AFFINITY PREDICTED BY RF-SCORE:    0.00 PKD
ROOT
HETATM    1  C   UNL     1     -12.498  15.476  70.979  1.00  0.00    -0.436 C  
HETATM    2  N   UNL     1     -12.828  14.819  69.718  1.00  0.00    -0.572 NA 
HETATM    3  H   UNL     1     -13.393  15.428  69.128  1.00  0.00     0.000 HD 
ENDROOT
BRANCH   2   4
HETATM    4  C   UNL     1     -11.637  14.335  68.990  1.00  0.00    -0.305 C  
HETATM    5  C   UNL     1     -11.547  15.062  67.618  1.00  0.00    -0.327 C  
HETATM    6  C   UNL     1     -10.288  14.653  66.821  1.00  0.00    -0.268 C  
HETATM    7  C   UNL     1     -10.182  13.171  66.811  1.00  0.00    -0.252 A  
HETATM    8  C   UNL     1     -10.786  12.326  67.712  1.00  0.00    -0.246 A  
HETATM    9  C   UNL     1     -10.485  10.997  67.325  1.00  0.00    -0.270 A  
HETATM   10  C   UNL     1     -11.660  12.793  68.819  1.00  0.00    -0.353 C  
HETATM   11  C   UNL     1      -9.682  11.069  66.189  1.00  0.00    -0.217 A  
HETATM   12  N   UNL     1      -9.495  12.410  65.904  1.00  0.00    -0.397 NA 
HETATM   13  C   UNL     1      -9.222   9.925  65.531  1.00  0.00    -0.255 A  
HETATM   14  H   UNL     1      -8.933  12.775  65.136  1.00  0.00     0.000 HD 
HETATM   15  C   UNL     1      -9.606   8.680  66.056  1.00  0.00    -0.265 A  
HETATM   16  C   UNL     1     -10.415   8.577  67.196  1.00  0.00    -0.370 A  
HETATM   17  C   UNL     1     -10.855   9.740  67.837  1.00  0.00    -0.298 A  
BRANCH  16  18
HETATM   18  C   UNL     1     -10.783   7.214  67.678  1.00  0.00    -0.244 C  
HETATM   19  N   UNL     1     -11.149   6.267  66.761  1.00  0.00    -0.732 N  
HETATM   20  O   UNL     1     -10.762   6.929  68.870  1.00  0.00    -0.216 OA 
HETATM   21  H1  UNL     1     -11.401   5.335  67.090  1.00  0.00     0.000 HD 
HETATM   22  H2  UNL     1     -11.170   6.488  65.765  1.00  0.00     0.000 HD 
ENDBRANCH  16  18
ENDBRANCH   2   4
TORSDOF 2
ENDMDL
MODEL       48
REMARK 921   NORMALIZED FREE ENERGY PREDICTED BY IDOCK:   -5.37 KCAL/MOL
REMARK 922        TOTAL FREE ENERGY PREDICTED BY IDOCK:   -6.12 KCAL/MOL
REMARK 923 INTER-LIGAND FREE ENERGY PREDICTED BY IDOCK:   -5.99 KCAL/MOL
REMARK 924 INTRA-LIGAND FREE ENERGY PREDICTED BY IDOCK:   -0.13 KCAL/MOL
REMARK 927      BINDING AFFINITY PREDICTED BY RF-SCORE:    0.00 PKD
ROOT
HETATM    1  C   UNL     1     -13.978   8.891  72.206  1.00  0.00    -0.466 C  
HETATM    2  N   UNL     1     -12.728   8.272  72.637  1.00  0.00    -0.607 NA 
HETATM    3  H   UNL     1     -12.876   7.299  72.901  1.00  0.00     0.000 HD 
ENDROOT
BRANCH   2   4
HETATM    4  C   UNL     1     -11.651   8.389  71.633  1.00  0.00    -0.289 C  
HETATM    5  C   UNL     1     -10.300   8.646  72.361  1.00  0.00    -0.317 C  
HETATM    6  C   UNL     1      -9.111   8.718  71.377  1.00  0.00    -0.313 C  
HETATM    7  C   UNL     1      -9.462   9.632  70.260  1.00  0.00    -0.248 A  
HETATM    8  C   UNL     1     -10.740   9.981  69.891  1.00  0.00    -0.328 A  
HETATM    9  C   UNL     1     -10.644  10.908  68.825  1.00  0.00    -0.231 A  
HETATM   10  C   UNL     1     -11.958   9.499  70.593  1.00  0.00    -0.266 C  
HETATM   11  C   UNL     1      -9.288  11.093  68.559  1.00  0.00    -0.190 A  
HETATM   12  N   UNL     1      -8.586  10.288  69.437  1.00  0.00    -0.209 NA 
HETATM   13  C   UNL     1      -8.839  11.972  67.569  1.00  0.00    -0.172 A  
HETATM   14  H   UNL     1      -7.570  10.197  69.468  1.00  0.00     0.000 HD 
HETATM   15  C   UNL     1      -9.812  12.680  66.845  1.00  0.00    -0.234 A  
HETATM   16  C   UNL     1     -11.181  12.517  67.092  1.00  0.00    -0.352 A  
HETATM   17  C   UNL     1     -11.602  11.624  68.084  1.00  0.00    -0.389 A  
BRANCH  16  18
HETATM   18  C   UNL     1     -12.145  13.317  66.281  1.00  0.00    -0.414 C  
HETATM   19  N   UNL     1     -12.535  14.545  66.744  1.00  0.00    -0.457 N  
HETATM   20  O   UNL     1     -12.588  12.901  65.217  1.00  0.00    -0.506 OA 
HETATM   21  H1  UNL     1     -13.193  15.092  66.190  1.00  0.00     0.000 HD 
HETATM   22  H2  UNL     1     -12.174  14.907  67.626  1.00  0.00     0.000 HD 
ENDBRANCH  16  18
ENDBRANCH   2   4
TORSDOF 2
ENDMDL
MODEL       49
REMARK 921   NORMALIZED FREE ENERGY PREDICTED BY IDOCK:   -5.34 KCAL/MOL
REMARK 922        TOTAL FREE ENERGY PREDICTED BY IDOCK:   -6.08 KCAL/MOL
REMARK 923 INTER-LIGAND FREE ENERGY PREDICTED BY IDOCK:   -5.98 KCAL/MOL
REMARK 924 INTRA-LIGAND FREE ENERGY PREDICTED BY IDOCK:   -0.10 KCAL/MOL
REMARK 927      BINDING AFFINITY PREDICTED BY RF-SCORE:    0.00 PKD
ROOT
HETATM    1  C   UNL     1      -7.031  16.673  69.333  1.00  0.00    -0.194 C  
HETATM    2  N   UNL     1      -7.917  15.528  69.519  1.00  0.00    -0.222 NA 
HETATM    3  H   UNL     1      -8.187  15.431  70.498  1.00  0.00     0.000 HD 
ENDROOT
BRANCH   2   4
HETATM    4  C   UNL     1      -9.109  15.572  68.646  1.00  0.00    -0.202 C  
HETATM    5  C   UNL     1     -10.381  15.318  69.505  1.00  0.00    -0.267 C  
HETATM    6  C   UNL     1     -11.678  15.411  68.670  1.00  0.00    -0.371 C  
HETATM    7  C   UNL     1     -11.519  14.597  67.437  1.00  0.00    -0.369 A  
HETATM    8  C   UNL     1     -10.318  14.217  66.886  1.00  0.00    -0.269 A  
HETATM    9  C   UNL     1     -10.597  13.408  65.758  1.00  0.00    -0.286 A  
HETATM   10  C   UNL     1      -8.997  14.558  67.478  1.00  0.00    -0.191 C  
HETATM   11  C   UNL     1     -11.984  13.327  65.641  1.00  0.00    -0.412 A  
HETATM   12  N   UNL     1     -12.525  14.076  66.669  1.00  0.00    -0.523 NA 
HETATM   13  C   UNL     1     -12.601  12.578  64.635  1.00  0.00    -0.507 A  
HETATM   14  H   UNL     1     -13.522  14.219  66.831  1.00  0.00     0.000 HD 
HETATM   15  C   UNL     1     -11.767  11.893  63.735  1.00  0.00    -0.554 A  
HETATM   16  C   UNL     1     -10.371  11.956  63.830  1.00  0.00    -0.451 A  
HETATM   17  C   UNL     1      -9.780  12.719  64.843  1.00  0.00     0.057 A  
BRANCH  16  18
HETATM   18  C   UNL     1      -9.562  11.189  62.837  1.00  0.00    -0.348 C  
HETATM   19  N   UNL     1     -10.022   9.972  62.411  1.00  0.00    -0.654 N  
HETATM   20  O   UNL     1      -8.504  11.625  62.398  1.00  0.00    -0.216 OA 
HETATM   21  H1  UNL     1      -9.470   9.448  61.733  1.00  0.00     0.000 HD 
HETATM   22  H2  UNL     1     -10.901   9.596  62.765  1.00  0.00     0.000 HD 
ENDBRANCH  16  18
ENDBRANCH   2   4
TORSDOF 2
ENDMDL
MODEL       50
REMARK 921   NORMALIZED FREE ENERGY PREDICTED BY IDOCK:   -5.28 KCAL/MOL
REMARK 922        TOTAL FREE ENERGY PREDICTED BY IDOCK:   -6.01 KCAL/MOL
REMARK 923 INTER-LIGAND FREE ENERGY PREDICTED BY IDOCK:   -5.91 KCAL/MOL
REMARK 924 INTRA-LIGAND FREE ENERGY PREDICTED BY IDOCK:   -0.10 KCAL/MOL
REMARK 927      BINDING AFFINITY PREDICTED BY RF-SCORE:    0.00 PKD
ROOT
HETATM    1  C   UNL     1      -6.864   6.903  65.062  1.00  0.00    -0.051 C  
HETATM    2  N   UNL     1      -6.870   8.353  64.892  1.00  0.00    -0.070 NA 
HETATM    3  H   UNL     1      -6.094   8.654  64.303  1.00  0.00     0.000 HD 
ENDROOT
BRANCH   2   4
HETATM    4  C   UNL     1      -8.155   8.868  64.375  1.00  0.00    -0.153 C  
HETATM    5  C   UNL     1      -7.927   9.490  62.968  1.00  0.00    -0.135 C  
HETATM    6  C   UNL     1      -9.241   9.997  62.332  1.00  0.00    -0.319 C  
HETATM    7  C   UNL     1      -9.973  10.823  63.328  1.00  0.00    -0.315 A  
HETATM    8  C   UNL     1      -9.788  10.773  64.690  1.00  0.00    -0.366 A  
HETATM    9  C   UNL     1     -10.631  11.750  65.275  1.00  0.00    -0.327 A  
HETATM   10  C   UNL     1      -8.796   9.888  65.353  1.00  0.00    -0.196 C  
HETATM   11  C   UNL     1     -11.328  12.369  64.239  1.00  0.00    -0.360 A  
HETATM   12  N   UNL     1     -10.921  11.773  63.059  1.00  0.00    -0.668 NA 
HETATM   13  C   UNL     1     -12.235  13.406  64.471  1.00  0.00    -0.450 A  
HETATM   14  H   UNL     1     -11.274  12.005  62.130  1.00  0.00     0.000 HD 
HETATM   15  C   UNL     1     -12.421  13.816  65.801  1.00  0.00    -0.527 A  
HETATM   16  C   UNL     1     -11.733  13.214  66.863  1.00  0.00    -0.441 A  
HETATM   17  C   UNL     1     -10.835  12.173  66.601  1.00  0.00    -0.307 A  
BRANCH  16  18
HETATM   18  C   UNL     1     -11.984  13.719  68.243  1.00  0.00    -0.357 C  
HETATM   19  N   UNL     1     -12.208  15.058  68.425  1.00  0.00    -0.577 N  
HETATM   20  O   UNL     1     -11.997  12.966  69.210  1.00  0.00    -0.296 OA 
HETATM   21  H1  UNL     1     -12.380  15.403  69.369  1.00  0.00     0.000 HD 
HETATM   22  H2  UNL     1     -12.203  15.698  67.631  1.00  0.00     0.000 HD 
ENDBRANCH  16  18
ENDBRANCH   2   4
TORSDOF 2
ENDMDL
MODEL       51
REMARK 921   NORMALIZED FREE ENERGY PREDICTED BY IDOCK:   -5.27 KCAL/MOL
REMARK 922        TOTAL FREE ENERGY PREDICTED BY IDOCK:   -6.00 KCAL/MOL
REMARK 923 INTER-LIGAND FREE ENERGY PREDICTED BY IDOCK:   -5.87 KCAL/MOL
REMARK 924 INTRA-LIGAND FREE ENERGY PREDICTED BY IDOCK:   -0.12 KCAL/MOL
REMARK 927      BINDING AFFINITY PREDICTED BY RF-SCORE:    0.00 PKD
ROOT
HETATM    1  C   UNL     1      -6.537  19.962  69.448  1.00  0.00    -0.340 C  
HETATM    2  N   UNL     1      -6.617  18.508  69.545  1.00  0.00    -0.220 NA 
HETATM    3  H   UNL     1      -7.161  18.227  70.361  1.00  0.00     0.000 HD 
ENDROOT
BRANCH   2   4
HETATM    4  C   UNL     1      -7.140  17.875  68.317  1.00  0.00    -0.232 C  
HETATM    5  C   UNL     1      -7.839  18.956  67.444  1.00  0.00    -0.255 C  
HETATM    6  C   UNL     1      -8.360  18.380  66.108  1.00  0.00    -0.161 C  
HETATM    7  C   UNL     1      -9.122  17.134  66.383  1.00  0.00    -0.256 A  
HETATM    8  C   UNL     1      -9.004  16.364  67.516  1.00  0.00    -0.197 A  
HETATM    9  C   UNL     1      -9.937  15.304  67.417  1.00  0.00    -0.223 A  
HETATM   10  C   UNL     1      -8.098  16.700  68.646  1.00  0.00    -0.237 C  
HETATM   11  C   UNL     1     -10.600  15.449  66.200  1.00  0.00    -0.316 A  
HETATM   12  N   UNL     1     -10.072  16.565  65.577  1.00  0.00    -0.579 NA 
HETATM   13  C   UNL     1     -11.611  14.572  65.796  1.00  0.00    -0.347 A  
HETATM   14  H   UNL     1     -10.348  16.912  64.659  1.00  0.00     0.000 HD 
HETATM   15  C   UNL     1     -11.948  13.528  66.673  1.00  0.00    -0.452 A  
HETATM   16  C   UNL     1     -11.300  13.358  67.903  1.00  0.00    -0.322 A  
HETATM   17  C   UNL     1     -10.286  14.247  68.278  1.00  0.00    -0.242 A  
BRANCH  16  18
HETATM   18  C   UNL     1     -11.729  12.227  68.776  1.00  0.00    -0.340 C  
HETATM   19  N   UNL     1     -11.618  12.363  70.134  1.00  0.00    -0.539 N  
HETATM   20  O   UNL     1     -12.177  11.188  68.305  1.00  0.00    -0.613 OA 
HETATM   21  H1  UNL     1     -11.911  11.590  70.730  1.00  0.00     0.000 HD 
HETATM   22  H2  UNL     1     -11.248  13.221  70.541  1.00  0.00     0.000 HD 
ENDBRANCH  16  18
ENDBRANCH   2   4
TORSDOF 2
ENDMDL
MODEL       52
REMARK 921   NORMALIZED FREE ENERGY PREDICTED BY IDOCK:   -5.26 KCAL/MOL
REMARK 922        TOTAL FREE ENERGY PREDICTED BY IDOCK:   -5.99 KCAL/MOL
REMARK 923 INTER-LIGAND FREE ENERGY PREDICTED BY IDOCK:   -5.86 KCAL/MOL
REMARK 924 INTRA-LIGAND FREE ENERGY PREDICTED BY IDOCK:   -0.13 KCAL/MOL
REMARK 927      BINDING AFFINITY PREDICTED BY RF-SCORE:    0.00 PKD
ROOT
HETATM    1  C   UNL     1     -11.971  12.927  69.019  1.00  0.00    -0.251 C  
HETATM    2  N   UNL     1     -12.331  14.020  68.121  1.00  0.00    -0.508 NA 
HETATM    3  H   UNL     1     -12.153  14.924  68.559  1.00  0.00     0.000 HD 
ENDROOT
BRANCH   2   4
HETATM    4  C   UNL     1     -11.663  13.930  66.806  1.00  0.00    -0.399 C  
HETATM    5  C   UNL     1     -12.716  14.148  65.683  1.00  0.00    -0.469 C  
HETATM    6  C   UNL     1     -12.081  14.131  64.274  1.00  0.00    -0.471 C  
HETATM    7  C   UNL     1     -11.201  12.939  64.155  1.00  0.00    -0.389 A  
HETATM    8  C   UNL     1     -10.664  12.241  65.211  1.00  0.00    -0.329 A  
HETATM    9  C   UNL     1      -9.936  11.148  64.680  1.00  0.00    -0.345 A  
HETATM   10  C   UNL     1     -10.918  12.580  66.636  1.00  0.00    -0.303 C  
HETATM   11  C   UNL     1     -10.040  11.218  63.292  1.00  0.00    -0.386 A  
HETATM   12  N   UNL     1     -10.804  12.333  62.994  1.00  0.00    -0.608 NA 
HETATM   13  C   UNL     1      -9.450  10.267  62.455  1.00  0.00    -0.252 A  
HETATM   14  H   UNL     1     -11.035  12.653  62.054  1.00  0.00     0.000 HD 
HETATM   15  C   UNL     1      -8.744   9.218  63.065  1.00  0.00    -0.203 A  
HETATM   16  C   UNL     1      -8.625   9.121  64.458  1.00  0.00    -0.198 A  
HETATM   17  C   UNL     1      -9.220  10.091  65.272  1.00  0.00    -0.268 A  
BRANCH  16  18
HETATM   18  C   UNL     1      -7.866   7.967  65.022  1.00  0.00    -0.123 C  
HETATM   19  N   UNL     1      -8.372   6.705  64.867  1.00  0.00    -0.297 N  
HETATM   20  O   UNL     1      -6.805   8.126  65.615  1.00  0.00    -0.064 OA 
HETATM   21  H1  UNL     1      -7.853   5.917  65.252  1.00  0.00     0.000 HD 
HETATM   22  H2  UNL     1      -9.253   6.555  64.375  1.00  0.00     0.000 HD 
ENDBRANCH  16  18
ENDBRANCH   2   4
TORSDOF 2
ENDMDL
MODEL       53
REMARK 921   NORMALIZED FREE ENERGY PREDICTED BY IDOCK:   -5.24 KCAL/MOL
REMARK 922        TOTAL FREE ENERGY PREDICTED BY IDOCK:   -5.97 KCAL/MOL
REMARK 923 INTER-LIGAND FREE ENERGY PREDICTED BY IDOCK:   -5.83 KCAL/MOL
REMARK 924 INTRA-LIGAND FREE ENERGY PREDICTED BY IDOCK:   -0.14 KCAL/MOL
REMARK 927      BINDING AFFINITY PREDICTED BY RF-SCORE:    0.00 PKD
ROOT
HETATM    1  C   UNL     1      -6.690  16.445  67.036  1.00  0.00    -0.204 C  
HETATM    2  N   UNL     1      -7.889  16.641  66.229  1.00  0.00    -0.312 NA 
HETATM    3  H   UNL     1      -7.974  15.913  65.520  1.00  0.00     0.000 HD 
ENDROOT
BRANCH   2   4
HETATM    4  C   UNL     1      -9.122  16.736  67.038  1.00  0.00    -0.224 C  
HETATM    5  C   UNL     1      -8.889  17.734  68.208  1.00  0.00    -0.277 C  
HETATM    6  C   UNL     1     -10.158  17.935  69.067  1.00  0.00    -0.292 C  
HETATM    7  C   UNL     1     -10.721  16.604  69.414  1.00  0.00    -0.331 A  
HETATM    8  C   UNL     1     -10.473  15.435  68.735  1.00  0.00    -0.231 A  
HETATM    9  C   UNL     1     -11.148  14.390  69.413  1.00  0.00    -0.294 A  
HETATM   10  C   UNL     1      -9.570  15.344  67.557  1.00  0.00    -0.206 C  
HETATM   11  C   UNL     1     -11.812  14.962  70.496  1.00  0.00    -0.303 A  
HETATM   12  N   UNL     1     -11.551  16.320  70.466  1.00  0.00    -0.496 NA 
HETATM   13  C   UNL     1     -12.563  14.198  71.394  1.00  0.00    -0.445 A  
HETATM   14  H   UNL     1     -11.919  17.005  71.126  1.00  0.00     0.000 HD 
HETATM   15  C   UNL     1     -12.622  12.813  71.171  1.00  0.00    -0.365 A  
HETATM   16  C   UNL     1     -11.963  12.210  70.091  1.00  0.00    -0.394 A  
HETATM   17  C   UNL     1     -11.224  13.001  69.204  1.00  0.00    -0.297 A  
BRANCH  16  18
HETATM   18  C   UNL     1     -12.072  10.730  69.935  1.00  0.00    -0.337 C  
HETATM   19  N   UNL     1     -13.125  10.081  70.522  1.00  0.00    -0.599 N  
HETATM   20  O   UNL     1     -11.246  10.090  69.295  1.00  0.00    -0.222 OA 
HETATM   21  H1  UNL     1     -13.200   9.070  70.416  1.00  0.00     0.000 HD 
HETATM   22  H2  UNL     1     -13.822  10.600  71.057  1.00  0.00     0.000 HD 
ENDBRANCH  16  18
ENDBRANCH   2   4
TORSDOF 2
ENDMDL
MODEL       54
REMARK 921   NORMALIZED FREE ENERGY PREDICTED BY IDOCK:   -5.24 KCAL/MOL
REMARK 922        TOTAL FREE ENERGY PREDICTED BY IDOCK:   -5.97 KCAL/MOL
REMARK 923 INTER-LIGAND FREE ENERGY PREDICTED BY IDOCK:   -5.83 KCAL/MOL
REMARK 924 INTRA-LIGAND FREE ENERGY PREDICTED BY IDOCK:   -0.14 KCAL/MOL
REMARK 927      BINDING AFFINITY PREDICTED BY RF-SCORE:    0.00 PKD
ROOT
HETATM    1  C   UNL     1      -6.387  11.955  66.839  1.00  0.00    -0.107 C  
HETATM    2  N   UNL     1      -7.633  11.563  66.188  1.00  0.00    -0.369 NA 
HETATM    3  H   UNL     1      -7.768  10.553  66.238  1.00  0.00     0.000 HD 
ENDROOT
BRANCH   2   4
HETATM    4  C   UNL     1      -8.811  12.279  66.717  1.00  0.00    -0.195 C  
HETATM    5  C   UNL     1      -8.356  13.642  67.312  1.00  0.00    -0.182 C  
HETATM    6  C   UNL     1      -9.545  14.480  67.832  1.00  0.00    -0.217 C  
HETATM    7  C   UNL     1     -10.406  13.622  68.686  1.00  0.00    -0.219 A  
HETATM    8  C   UNL     1     -10.435  12.247  68.656  1.00  0.00    -0.228 A  
HETATM    9  C   UNL     1     -11.338  11.812  69.656  1.00  0.00    -0.287 A  
HETATM   10  C   UNL     1      -9.575  11.426  67.764  1.00  0.00    -0.177 C  
HETATM   11  C   UNL     1     -11.854  12.952  70.271  1.00  0.00    -0.213 A  
HETATM   12  N   UNL     1     -11.282  14.047  69.648  1.00  0.00    -0.405 NA 
HETATM   13  C   UNL     1     -12.765  12.877  71.328  1.00  0.00    -0.371 A  
HETATM   14  H   UNL     1     -11.482  15.021  69.872  1.00  0.00     0.000 HD 
HETATM   15  C   UNL     1     -13.147  11.597  71.763  1.00  0.00    -0.487 A  
HETATM   16  C   UNL     1     -12.643  10.434  71.165  1.00  0.00    -0.512 A  
HETATM   17  C   UNL     1     -11.737  10.539  70.104  1.00  0.00    -0.410 A  
BRANCH  16  18
HETATM   18  C   UNL     1     -13.095   9.116  71.697  1.00  0.00    -0.369 C  
HETATM   19  N   UNL     1     -14.070   9.091  72.657  1.00  0.00    -0.776 N  
HETATM   20  O   UNL     1     -12.615   8.063  71.294  1.00  0.00    -0.305 OA 
HETATM   21  H1  UNL     1     -14.379   8.191  73.021  1.00  0.00     0.000 HD 
HETATM   22  H2  UNL     1     -14.481   9.958  73.002  1.00  0.00     0.000 HD 
ENDBRANCH  16  18
ENDBRANCH   2   4
TORSDOF 2
ENDMDL
MODEL       55
REMARK 921   NORMALIZED FREE ENERGY PREDICTED BY IDOCK:   -5.23 KCAL/MOL
REMARK 922        TOTAL FREE ENERGY PREDICTED BY IDOCK:   -5.96 KCAL/MOL
REMARK 923 INTER-LIGAND FREE ENERGY PREDICTED BY IDOCK:   -5.83 KCAL/MOL
REMARK 924 INTRA-LIGAND FREE ENERGY PREDICTED BY IDOCK:   -0.13 KCAL/MOL
REMARK 927      BINDING AFFINITY PREDICTED BY RF-SCORE:    0.00 PKD
ROOT
HETATM    1  C   UNL     1      -8.567   6.633  66.870  1.00  0.00    -0.115 C  
HETATM    2  N   UNL     1      -9.639   7.304  67.599  1.00  0.00    -0.133 NA 
HETATM    3  H   UNL     1      -9.318   7.613  68.516  1.00  0.00     0.000 HD 
ENDROOT
BRANCH   2   4
HETATM    4  C   UNL     1     -10.236   8.426  66.844  1.00  0.00    -0.313 C  
HETATM    5  C   UNL     1      -9.229   8.905  65.760  1.00  0.00    -0.283 C  
HETATM    6  C   UNL     1      -9.808  10.040  64.885  1.00  0.00    -0.352 C  
HETATM    7  C   UNL     1     -10.397  11.079  65.769  1.00  0.00    -0.257 A  
HETATM    8  C   UNL     1     -10.793  10.883  67.071  1.00  0.00    -0.323 A  
HETATM    9  C   UNL     1     -11.244  12.126  67.577  1.00  0.00    -0.357 A  
HETATM   10  C   UNL     1     -10.656   9.586  67.785  1.00  0.00    -0.318 C  
HETATM   11  C   UNL     1     -11.123  13.059  66.549  1.00  0.00    -0.288 A  
HETATM   12  N   UNL     1     -10.620  12.391  65.447  1.00  0.00    -0.276 NA 
HETATM   13  C   UNL     1     -11.465  14.403  66.723  1.00  0.00    -0.381 A  
HETATM   14  H   UNL     1     -10.441  12.811  64.536  1.00  0.00     0.000 HD 
HETATM   15  C   UNL     1     -11.935  14.792  67.988  1.00  0.00    -0.261 A  
HETATM   16  C   UNL     1     -12.065  13.876  69.041  1.00  0.00    -0.365 A  
HETATM   17  C   UNL     1     -11.722  12.535  68.836  1.00  0.00    -0.367 A  
BRANCH  16  18
HETATM   18  C   UNL     1     -12.563  14.378  70.354  1.00  0.00    -0.345 C  
HETATM   19  N   UNL     1     -13.175  15.601  70.403  1.00  0.00    -0.748 N  
HETATM   20  O   UNL     1     -12.437  13.721  71.381  1.00  0.00    -0.351 OA 
HETATM   21  H1  UNL     1     -13.516  15.944  71.301  1.00  0.00     0.000 HD 
HETATM   22  H2  UNL     1     -13.289  16.159  69.558  1.00  0.00     0.000 HD 
ENDBRANCH  16  18
ENDBRANCH   2   4
TORSDOF 2
ENDMDL
MODEL       56
REMARK 921   NORMALIZED FREE ENERGY PREDICTED BY IDOCK:   -5.21 KCAL/MOL
REMARK 922        TOTAL FREE ENERGY PREDICTED BY IDOCK:   -5.93 KCAL/MOL
REMARK 923 INTER-LIGAND FREE ENERGY PREDICTED BY IDOCK:   -5.80 KCAL/MOL
REMARK 924 INTRA-LIGAND FREE ENERGY PREDICTED BY IDOCK:   -0.14 KCAL/MOL
REMARK 927      BINDING AFFINITY PREDICTED BY RF-SCORE:    0.00 PKD
ROOT
HETATM    1  C   UNL     1      -7.816   8.256  66.015  1.00  0.00    -0.095 C  
HETATM    2  N   UNL     1      -9.230   8.353  66.363  1.00  0.00    -0.187 NA 
HETATM    3  H   UNL     1      -9.356   8.378  67.374  1.00  0.00     0.000 HD 
ENDROOT
BRANCH   2   4
HETATM    4  C   UNL     1      -9.905   9.499  65.718  1.00  0.00    -0.293 C  
HETATM    5  C   UNL     1      -9.226   9.788  64.349  1.00  0.00    -0.301 C  
HETATM    6  C   UNL     1      -9.918  10.938  63.584  1.00  0.00    -0.415 C  
HETATM    7  C   UNL     1     -10.103  12.089  64.505  1.00  0.00    -0.265 A  
HETATM    8  C   UNL     1     -10.107  12.015  65.878  1.00  0.00    -0.264 A  
HETATM    9  C   UNL     1     -10.253  13.331  66.381  1.00  0.00    -0.292 A  
HETATM   10  C   UNL     1      -9.899  10.752  66.634  1.00  0.00    -0.241 C  
HETATM   11  C   UNL     1     -10.350  14.184  65.283  1.00  0.00    -0.388 A  
HETATM   12  N   UNL     1     -10.273  13.400  64.147  1.00  0.00    -0.757 NA 
HETATM   13  C   UNL     1     -10.480  15.568  65.429  1.00  0.00    -0.429 A  
HETATM   14  H   UNL     1     -10.333  13.744  63.189  1.00  0.00     0.000 HD 
HETATM   15  C   UNL     1     -10.505  16.081  66.736  1.00  0.00    -0.308 A  
HETATM   16  C   UNL     1     -10.408  15.247  67.858  1.00  0.00    -0.246 A  
HETATM   17  C   UNL     1     -10.285  13.864  67.682  1.00  0.00    -0.242 A  
BRANCH  16  18
HETATM   18  C   UNL     1     -10.433  15.878  69.210  1.00  0.00    -0.253 C  
HETATM   19  N   UNL     1     -10.157  15.104  70.304  1.00  0.00    -0.499 N  
HETATM   20  O   UNL     1     -10.692  17.067  69.357  1.00  0.00    -0.322 OA 
HETATM   21  H1  UNL     1     -10.174  15.535  71.228  1.00  0.00     0.000 HD 
HETATM   22  H2  UNL     1      -9.938  14.114  70.198  1.00  0.00     0.000 HD 
ENDBRANCH  16  18
ENDBRANCH   2   4
TORSDOF 2
ENDMDL
MODEL       57
REMARK 921   NORMALIZED FREE ENERGY PREDICTED BY IDOCK:   -5.17 KCAL/MOL
REMARK 922        TOTAL FREE ENERGY PREDICTED BY IDOCK:   -5.89 KCAL/MOL
REMARK 923 INTER-LIGAND FREE ENERGY PREDICTED BY IDOCK:   -5.76 KCAL/MOL
REMARK 924 INTRA-LIGAND FREE ENERGY PREDICTED BY IDOCK:   -0.13 KCAL/MOL
REMARK 927      BINDING AFFINITY PREDICTED BY RF-SCORE:    0.00 PKD
ROOT
HETATM    1  C   UNL     1      -8.090   8.545  64.766  1.00  0.00    -0.151 C  
HETATM    2  N   UNL     1      -8.887   9.462  63.957  1.00  0.00    -0.332 NA 
HETATM    3  H   UNL     1      -9.206   9.008  63.101  1.00  0.00     0.000 HD 
ENDROOT
BRANCH   2   4
HETATM    4  C   UNL     1     -10.024  10.047  64.698  1.00  0.00    -0.136 C  
HETATM    5  C   UNL     1      -9.988  11.595  64.548  1.00  0.00    -0.290 C  
HETATM    6  C   UNL     1     -11.185  12.277  65.247  1.00  0.00    -0.372 C  
HETATM    7  C   UNL     1     -11.316  11.733  66.624  1.00  0.00    -0.316 A  
HETATM    8  C   UNL     1     -10.803  10.532  67.055  1.00  0.00    -0.288 A  
HETATM    9  C   UNL     1     -11.094  10.409  68.435  1.00  0.00    -0.322 A  
HETATM   10  C   UNL     1     -10.013   9.617  66.189  1.00  0.00    -0.346 C  
HETATM   11  C   UNL     1     -11.801  11.550  68.812  1.00  0.00    -0.330 A  
HETATM   12  N   UNL     1     -11.940  12.336  67.682  1.00  0.00    -0.512 NA 
HETATM   13  C   UNL     1     -12.226  11.759  70.127  1.00  0.00    -0.342 A  
HETATM   14  H   UNL     1     -12.432  13.229  67.645  1.00  0.00     0.000 HD 
HETATM   15  C   UNL     1     -11.907  10.772  71.073  1.00  0.00    -0.349 A  
HETATM   16  C   UNL     1     -11.196   9.616  70.724  1.00  0.00    -0.403 A  
HETATM   17  C   UNL     1     -10.789   9.429  69.398  1.00  0.00    -0.208 A  
BRANCH  16  18
HETATM   18  C   UNL     1     -10.893   8.624  71.796  1.00  0.00    -0.325 C  
HETATM   19  N   UNL     1     -11.933   8.030  72.459  1.00  0.00    -0.520 N  
HETATM   20  O   UNL     1      -9.740   8.331  72.091  1.00  0.00    -0.218 OA 
HETATM   21  H1  UNL     1     -11.725   7.352  73.191  1.00  0.00     0.000 HD 
HETATM   22  H2  UNL     1     -12.898   8.261  72.224  1.00  0.00     0.000 HD 
ENDBRANCH  16  18
ENDBRANCH   2   4
TORSDOF 2
ENDMDL
MODEL       58
REMARK 921   NORMALIZED FREE ENERGY PREDICTED BY IDOCK:   -5.13 KCAL/MOL
REMARK 922        TOTAL FREE ENERGY PREDICTED BY IDOCK:   -5.85 KCAL/MOL
REMARK 923 INTER-LIGAND FREE ENERGY PREDICTED BY IDOCK:   -5.73 KCAL/MOL
REMARK 924 INTRA-LIGAND FREE ENERGY PREDICTED BY IDOCK:   -0.12 KCAL/MOL
REMARK 927      BINDING AFFINITY PREDICTED BY RF-SCORE:    0.00 PKD
ROOT
HETATM    1  C   UNL     1     -11.744   6.042  72.132  1.00  0.00    -0.279 C  
HETATM    2  N   UNL     1     -11.356   6.837  70.971  1.00  0.00    -0.290 NA 
HETATM    3  H   UNL     1     -11.936   6.609  70.164  1.00  0.00     0.000 HD 
ENDROOT
BRANCH   2   4
HETATM    4  C   UNL     1     -11.368   8.290  71.236  1.00  0.00    -0.267 C  
HETATM    5  C   UNL     1     -12.751   8.691  71.824  1.00  0.00    -0.401 C  
HETATM    6  C   UNL     1     -12.819  10.192  72.186  1.00  0.00    -0.381 C  
HETATM    7  C   UNL     1     -12.314  10.990  71.040  1.00  0.00    -0.385 A  
HETATM    8  C   UNL     1     -11.500  10.514  70.038  1.00  0.00    -0.393 A  
HETATM    9  C   UNL     1     -11.293  11.567  69.113  1.00  0.00    -0.351 A  
HETATM   10  C   UNL     1     -11.033   9.105  69.959  1.00  0.00    -0.240 C  
HETATM   11  C   UNL     1     -11.986  12.678  69.590  1.00  0.00    -0.286 A  
HETATM   12  N   UNL     1     -12.587  12.306  70.779  1.00  0.00    -0.268 NA 
HETATM   13  C   UNL     1     -12.010  13.891  68.897  1.00  0.00    -0.393 A  
HETATM   14  H   UNL     1     -13.149  12.918  71.371  1.00  0.00     0.000 HD 
HETATM   15  C   UNL     1     -11.309  13.955  67.681  1.00  0.00    -0.335 A  
HETATM   16  C   UNL     1     -10.605  12.853  67.176  1.00  0.00    -0.246 A  
HETATM   17  C   UNL     1     -10.593  11.653  67.896  1.00  0.00    -0.225 A  
BRANCH  16  18
HETATM   18  C   UNL     1      -9.897  13.006  65.873  1.00  0.00    -0.237 C  
HETATM   19  N   UNL     1      -8.993  12.050  65.497  1.00  0.00    -0.408 N  
HETATM   20  O   UNL     1     -10.108  13.963  65.137  1.00  0.00    -0.346 OA 
HETATM   21  H1  UNL     1      -8.508  12.154  64.606  1.00  0.00     0.000 HD 
HETATM   22  H2  UNL     1      -8.807  11.246  66.097  1.00  0.00     0.000 HD 
ENDBRANCH  16  18
ENDBRANCH   2   4
TORSDOF 2
ENDMDL
MODEL       59
REMARK 921   NORMALIZED FREE ENERGY PREDICTED BY IDOCK:   -5.11 KCAL/MOL
REMARK 922        TOTAL FREE ENERGY PREDICTED BY IDOCK:   -5.82 KCAL/MOL
REMARK 923 INTER-LIGAND FREE ENERGY PREDICTED BY IDOCK:   -5.68 KCAL/MOL
REMARK 924 INTRA-LIGAND FREE ENERGY PREDICTED BY IDOCK:   -0.14 KCAL/MOL
REMARK 927      BINDING AFFINITY PREDICTED BY RF-SCORE:    0.00 PKD
ROOT
HETATM    1  C   UNL     1     -12.165  13.004  63.367  1.00  0.00    -0.472 C  
HETATM    2  N   UNL     1     -12.493  13.907  64.465  1.00  0.00    -0.636 NA 
HETATM    3  H   UNL     1     -13.389  14.368  64.303  1.00  0.00     0.000 HD 
ENDROOT
BRANCH   2   4
HETATM    4  C   UNL     1     -12.473  13.242  65.785  1.00  0.00    -0.417 C  
HETATM    5  C   UNL     1     -11.993  14.258  66.861  1.00  0.00    -0.467 C  
HETATM    6  C   UNL     1     -12.005  13.652  68.282  1.00  0.00    -0.385 C  
HETATM    7  C   UNL     1     -11.329  12.329  68.250  1.00  0.00    -0.289 A  
HETATM    8  C   UNL     1     -11.147  11.558  67.126  1.00  0.00    -0.355 A  
HETATM    9  C   UNL     1     -10.415  10.407  67.507  1.00  0.00    -0.292 A  
HETATM   10  C   UNL     1     -11.588  11.968  65.768  1.00  0.00    -0.353 C  
HETATM   11  C   UNL     1     -10.179  10.502  68.878  1.00  0.00    -0.208 A  
HETATM   12  N   UNL     1     -10.764  11.677  69.313  1.00  0.00    -0.409 NA 
HETATM   13  C   UNL     1      -9.455   9.530  69.575  1.00  0.00    -0.195 A  
HETATM   14  H   UNL     1     -10.772  12.008  70.278  1.00  0.00     0.000 HD 
HETATM   15  C   UNL     1      -8.959   8.442  68.839  1.00  0.00    -0.146 A  
HETATM   16  C   UNL     1      -9.178   8.322  67.460  1.00  0.00    -0.155 A  
HETATM   17  C   UNL     1      -9.913   9.306  66.789  1.00  0.00    -0.312 A  
BRANCH  16  18
HETATM   18  C   UNL     1      -8.606   7.138  66.755  1.00  0.00    -0.124 C  
HETATM   19  N   UNL     1      -9.279   6.620  65.682  1.00  0.00    -0.376 N  
HETATM   20  O   UNL     1      -7.552   6.626  67.115  1.00  0.00    -0.092 OA 
HETATM   21  H1  UNL     1      -8.888   5.811  65.201  1.00  0.00     0.000 HD 
HETATM   22  H2  UNL     1     -10.157   7.035  65.370  1.00  0.00     0.000 HD 
ENDBRANCH  16  18
ENDBRANCH   2   4
TORSDOF 2
ENDMDL
MODEL       60
REMARK 921   NORMALIZED FREE ENERGY PREDICTED BY IDOCK:   -5.11 KCAL/MOL
REMARK 922        TOTAL FREE ENERGY PREDICTED BY IDOCK:   -5.82 KCAL/MOL
REMARK 923 INTER-LIGAND FREE ENERGY PREDICTED BY IDOCK:   -5.71 KCAL/MOL
REMARK 924 INTRA-LIGAND FREE ENERGY PREDICTED BY IDOCK:   -0.11 KCAL/MOL
REMARK 927      BINDING AFFINITY PREDICTED BY RF-SCORE:    0.00 PKD
ROOT
HETATM    1  C   UNL     1     -10.019   4.632  66.205  1.00  0.00    -0.247 C  
HETATM    2  N   UNL     1      -9.648   5.962  65.732  1.00  0.00    -0.370 NA 
HETATM    3  H   UNL     1     -10.286   6.280  65.003  1.00  0.00     0.000 HD 
ENDROOT
BRANCH   2   4
HETATM    4  C   UNL     1      -9.554   6.957  66.821  1.00  0.00    -0.168 C  
HETATM    5  C   UNL     1     -10.291   6.410  68.077  1.00  0.00    -0.234 C  
HETATM    6  C   UNL     1     -10.182   7.370  69.283  1.00  0.00    -0.199 C  
HETATM    7  C   UNL     1     -10.530   8.745  68.839  1.00  0.00    -0.197 A  
HETATM    8  C   UNL     1     -10.493   9.193  67.539  1.00  0.00    -0.335 A  
HETATM    9  C   UNL     1     -10.948  10.534  67.532  1.00  0.00    -0.365 A  
HETATM   10  C   UNL     1     -10.117   8.335  66.385  1.00  0.00    -0.222 C  
HETATM   11  C   UNL     1     -11.242  10.878  68.850  1.00  0.00    -0.267 A  
HETATM   12  N   UNL     1     -10.961   9.773  69.634  1.00  0.00    -0.240 NA 
HETATM   13  C   UNL     1     -11.741  12.137  69.195  1.00  0.00    -0.384 A  
HETATM   14  H   UNL     1     -11.060   9.731  70.648  1.00  0.00     0.000 HD 
HETATM   15  C   UNL     1     -11.947  13.057  68.154  1.00  0.00    -0.322 A  
HETATM   16  C   UNL     1     -11.662  12.738  66.819  1.00  0.00    -0.459 A  
HETATM   17  C   UNL     1     -11.157  11.472  66.504  1.00  0.00    -0.341 A  
BRANCH  16  18
HETATM   18  C   UNL     1     -11.921  13.774  65.777  1.00  0.00    -0.399 C  
HETATM   19  N   UNL     1     -13.207  14.193  65.569  1.00  0.00    -0.638 N  
HETATM   20  O   UNL     1     -11.011  14.253  65.110  1.00  0.00    -0.324 OA 
HETATM   21  H1  UNL     1     -13.384  14.901  64.856  1.00  0.00     0.000 HD 
HETATM   22  H2  UNL     1     -13.975  13.806  66.117  1.00  0.00     0.000 HD 
ENDBRANCH  16  18
ENDBRANCH   2   4
TORSDOF 2
ENDMDL
MODEL       61
REMARK 921   NORMALIZED FREE ENERGY PREDICTED BY IDOCK:   -5.11 KCAL/MOL
REMARK 922        TOTAL FREE ENERGY PREDICTED BY IDOCK:   -5.82 KCAL/MOL
REMARK 923 INTER-LIGAND FREE ENERGY PREDICTED BY IDOCK:   -5.72 KCAL/MOL
REMARK 924 INTRA-LIGAND FREE ENERGY PREDICTED BY IDOCK:   -0.10 KCAL/MOL
REMARK 927      BINDING AFFINITY PREDICTED BY RF-SCORE:    0.00 PKD
ROOT
HETATM    1  C   UNL     1      -9.792  10.551  63.212  1.00  0.00    -0.253 C  
HETATM    2  N   UNL     1     -10.539  11.805  63.226  1.00  0.00    -0.627 NA 
HETATM    3  H   UNL     1     -11.453  11.689  62.789  1.00  0.00     0.000 HD 
ENDROOT
BRANCH   2   4
HETATM    4  C   UNL     1     -10.671  12.383  64.580  1.00  0.00    -0.321 C  
HETATM    5  C   UNL     1     -12.176  12.637  64.882  1.00  0.00    -0.531 C  
HETATM    6  C   UNL     1     -12.401  13.185  66.309  1.00  0.00    -0.346 C  
HETATM    7  C   UNL     1     -11.463  14.312  66.547  1.00  0.00    -0.360 A  
HETATM    8  C   UNL     1     -10.299  14.538  65.851  1.00  0.00    -0.332 A  
HETATM    9  C   UNL     1      -9.727  15.736  66.342  1.00  0.00    -0.305 A  
HETATM   10  C   UNL     1      -9.833  13.680  64.730  1.00  0.00     0.017 C  
HETATM   11  C   UNL     1     -10.564  16.210  67.351  1.00  0.00    -0.311 A  
HETATM   12  N   UNL     1     -11.610  15.313  67.470  1.00  0.00    -0.275 NA 
HETATM   13  C   UNL     1     -10.300  17.399  68.036  1.00  0.00    -0.362 A  
HETATM   14  H   UNL     1     -12.373  15.385  68.143  1.00  0.00     0.000 HD 
HETATM   15  C   UNL     1      -9.151  18.117  67.666  1.00  0.00    -0.260 A  
HETATM   16  C   UNL     1      -8.293  17.666  66.655  1.00  0.00    -0.288 A  
HETATM   17  C   UNL     1      -8.578  16.468  65.990  1.00  0.00    -0.241 A  
BRANCH  16  18
HETATM   18  C   UNL     1      -7.100  18.497  66.320  1.00  0.00    -0.250 C  
HETATM   19  N   UNL     1      -6.546  19.280  67.297  1.00  0.00    -0.193 N  
HETATM   20  O   UNL     1      -6.609  18.490  65.197  1.00  0.00    -0.479 OA 
HETATM   21  H1  UNL     1      -5.731  19.847  67.068  1.00  0.00     0.000 HD 
HETATM   22  H2  UNL     1      -6.942  19.295  68.237  1.00  0.00     0.000 HD 
ENDBRANCH  16  18
ENDBRANCH   2   4
TORSDOF 2
ENDMDL
MODEL       62
REMARK 921   NORMALIZED FREE ENERGY PREDICTED BY IDOCK:   -5.10 KCAL/MOL
REMARK 922        TOTAL FREE ENERGY PREDICTED BY IDOCK:   -5.81 KCAL/MOL
REMARK 923 INTER-LIGAND FREE ENERGY PREDICTED BY IDOCK:   -5.66 KCAL/MOL
REMARK 924 INTRA-LIGAND FREE ENERGY PREDICTED BY IDOCK:   -0.15 KCAL/MOL
REMARK 927      BINDING AFFINITY PREDICTED BY RF-SCORE:    0.00 PKD
ROOT
HETATM    1  C   UNL     1      -7.566  16.838  66.276  1.00  0.00    -0.240 C  
HETATM    2  N   UNL     1      -8.885  17.313  65.869  1.00  0.00    -0.541 NA 
HETATM    3  H   UNL     1      -8.966  17.338  64.853  1.00  0.00     0.000 HD 
ENDROOT
BRANCH   2   4
HETATM    4  C   UNL     1      -9.989  16.532  66.467  1.00  0.00    -0.285 C  
HETATM    5  C   UNL     1     -10.141  16.927  67.963  1.00  0.00    -0.293 C  
HETATM    6  C   UNL     1     -11.321  16.196  68.643  1.00  0.00    -0.365 C  
HETATM    7  C   UNL     1     -11.236  14.746  68.330  1.00  0.00    -0.284 A  
HETATM    8  C   UNL     1     -10.548  14.201  67.271  1.00  0.00    -0.277 A  
HETATM    9  C   UNL     1     -10.668  12.792  67.358  1.00  0.00    -0.248 A  
HETATM   10  C   UNL     1      -9.765  15.006  66.298  1.00  0.00    -0.316 C  
HETATM   11  C   UNL     1     -11.450  12.512  68.477  1.00  0.00    -0.305 A  
HETATM   12  N   UNL     1     -11.800  13.723  69.045  1.00  0.00    -0.338 NA 
HETATM   13  C   UNL     1     -11.745  11.203  68.866  1.00  0.00    -0.406 A  
HETATM   14  H   UNL     1     -12.388  13.838  69.870  1.00  0.00     0.000 HD 
HETATM   15  C   UNL     1     -11.216  10.161  68.087  1.00  0.00    -0.245 A  
HETATM   16  C   UNL     1     -10.425  10.413  66.957  1.00  0.00    -0.309 A  
HETATM   17  C   UNL     1     -10.151  11.735  66.587  1.00  0.00    -0.231 A  
BRANCH  16  18
HETATM   18  C   UNL     1      -9.896   9.247  66.193  1.00  0.00    -0.293 C  
HETATM   19  N   UNL     1      -9.427   9.449  64.923  1.00  0.00    -0.451 N  
HETATM   20  O   UNL     1      -9.871   8.121  66.677  1.00  0.00    -0.228 OA 
HETATM   21  H1  UNL     1      -9.066   8.652  64.400  1.00  0.00     0.000 HD 
HETATM   22  H2  UNL     1      -9.439  10.380  64.506  1.00  0.00     0.000 HD 
ENDBRANCH  16  18
ENDBRANCH   2   4
TORSDOF 2
ENDMDL
MODEL       63
REMARK 921   NORMALIZED FREE ENERGY PREDICTED BY IDOCK:   -5.08 KCAL/MOL
REMARK 922        TOTAL FREE ENERGY PREDICTED BY IDOCK:   -5.79 KCAL/MOL
REMARK 923 INTER-LIGAND FREE ENERGY PREDICTED BY IDOCK:   -5.66 KCAL/MOL
REMARK 924 INTRA-LIGAND FREE ENERGY PREDICTED BY IDOCK:   -0.13 KCAL/MOL
REMARK 927      BINDING AFFINITY PREDICTED BY RF-SCORE:    0.00 PKD
ROOT
HETATM    1  C   UNL     1      -5.800  16.656  69.738  1.00  0.00    -0.206 C  
HETATM    2  N   UNL     1      -6.423  17.965  69.576  1.00  0.00    -0.230 NA 
HETATM    3  H   UNL     1      -5.741  18.712  69.704  1.00  0.00     0.000 HD 
ENDROOT
BRANCH   2   4
HETATM    4  C   UNL     1      -7.130  18.113  68.287  1.00  0.00    -0.247 C  
HETATM    5  C   UNL     1      -8.186  19.248  68.411  1.00  0.00    -0.383 C  
HETATM    6  C   UNL     1      -8.927  19.505  67.079  1.00  0.00    -0.365 C  
HETATM    7  C   UNL     1      -9.391  18.207  66.525  1.00  0.00    -0.295 A  
HETATM    8  C   UNL     1      -8.874  16.975  66.850  1.00  0.00    -0.251 A  
HETATM    9  C   UNL     1      -9.623  15.995  66.154  1.00  0.00    -0.366 A  
HETATM   10  C   UNL     1      -7.779  16.777  67.836  1.00  0.00    -0.178 C  
HETATM   11  C   UNL     1     -10.583  16.667  65.400  1.00  0.00    -0.237 A  
HETATM   12  N   UNL     1     -10.410  18.020  65.630  1.00  0.00    -0.615 NA 
HETATM   13  C   UNL     1     -11.512  15.989  64.606  1.00  0.00    -0.252 A  
HETATM   14  H   UNL     1     -10.957  18.765  65.198  1.00  0.00     0.000 HD 
HETATM   15  C   UNL     1     -11.451  14.585  64.597  1.00  0.00    -0.389 A  
HETATM   16  C   UNL     1     -10.498  13.883  65.347  1.00  0.00    -0.357 A  
HETATM   17  C   UNL     1      -9.576  14.589  66.127  1.00  0.00    -0.325 A  
BRANCH  16  18
HETATM   18  C   UNL     1     -10.512  12.392  65.285  1.00  0.00    -0.286 C  
HETATM   19  N   UNL     1      -9.324  11.727  65.144  1.00  0.00    -0.424 N  
HETATM   20  O   UNL     1     -11.557  11.758  65.360  1.00  0.00    -0.256 OA 
HETATM   21  H1  UNL     1      -9.333  10.708  65.102  1.00  0.00     0.000 HD 
HETATM   22  H2  UNL     1      -8.445  12.240  65.082  1.00  0.00     0.000 HD 
ENDBRANCH  16  18
ENDBRANCH   2   4
TORSDOF 2
ENDMDL
MODEL       64
REMARK 921   NORMALIZED FREE ENERGY PREDICTED BY IDOCK:   -5.08 KCAL/MOL
REMARK 922        TOTAL FREE ENERGY PREDICTED BY IDOCK:   -5.79 KCAL/MOL
REMARK 923 INTER-LIGAND FREE ENERGY PREDICTED BY IDOCK:   -5.66 KCAL/MOL
REMARK 924 INTRA-LIGAND FREE ENERGY PREDICTED BY IDOCK:   -0.13 KCAL/MOL
REMARK 927      BINDING AFFINITY PREDICTED BY RF-SCORE:    0.00 PKD
ROOT
HETATM    1  C   UNL     1     -11.265  16.255  71.137  1.00  0.00    -0.132 C  
HETATM    2  N   UNL     1     -12.658  16.056  70.746  1.00  0.00    -0.532 NA 
HETATM    3  H   UNL     1     -12.836  16.448  69.822  1.00  0.00     0.000 HD 
ENDROOT
BRANCH   2   4
HETATM    4  C   UNL     1     -13.079  14.641  70.810  1.00  0.00    -0.323 C  
HETATM    5  C   UNL     1     -13.174  14.204  72.300  1.00  0.00    -0.540 C  
HETATM    6  C   UNL     1     -13.671  12.748  72.451  1.00  0.00    -0.457 C  
HETATM    7  C   UNL     1     -12.892  11.874  71.536  1.00  0.00    -0.316 A  
HETATM    8  C   UNL     1     -12.199  12.301  70.427  1.00  0.00    -0.371 A  
HETATM    9  C   UNL     1     -11.550  11.176  69.865  1.00  0.00    -0.416 A  
HETATM   10  C   UNL     1     -12.120  13.724  70.006  1.00  0.00    -0.416 C  
HETATM   11  C   UNL     1     -11.879  10.072  70.650  1.00  0.00    -0.325 A  
HETATM   12  N   UNL     1     -12.716  10.522  71.656  1.00  0.00    -0.436 NA 
HETATM   13  C   UNL     1     -11.380   8.795  70.382  1.00  0.00    -0.213 A  
HETATM   14  H   UNL     1     -13.136   9.935  72.377  1.00  0.00     0.000 HD 
HETATM   15  C   UNL     1     -10.516   8.656  69.283  1.00  0.00    -0.226 A  
HETATM   16  C   UNL     1     -10.166   9.748  68.477  1.00  0.00    -0.209 A  
HETATM   17  C   UNL     1     -10.687  11.014  68.765  1.00  0.00    -0.240 A  
BRANCH  16  18
HETATM   18  C   UNL     1      -9.235   9.511  67.336  1.00  0.00    -0.133 C  
HETATM   19  N   UNL     1      -9.743   9.034  66.158  1.00  0.00    -0.274 N  
HETATM   20  O   UNL     1      -8.034   9.736  67.431  1.00  0.00    -0.102 OA 
HETATM   21  H1  UNL     1      -9.107   8.873  65.378  1.00  0.00     0.000 HD 
HETATM   22  H2  UNL     1     -10.740   8.844  66.061  1.00  0.00     0.000 HD 
ENDBRANCH  16  18
ENDBRANCH   2   4
TORSDOF 2
ENDMDL
MODEL       65
REMARK 921   NORMALIZED FREE ENERGY PREDICTED BY IDOCK:   -5.07 KCAL/MOL
REMARK 922        TOTAL FREE ENERGY PREDICTED BY IDOCK:   -5.78 KCAL/MOL
REMARK 923 INTER-LIGAND FREE ENERGY PREDICTED BY IDOCK:   -5.63 KCAL/MOL
REMARK 924 INTRA-LIGAND FREE ENERGY PREDICTED BY IDOCK:   -0.15 KCAL/MOL
REMARK 927      BINDING AFFINITY PREDICTED BY RF-SCORE:    0.00 PKD
ROOT
HETATM    1  C   UNL     1     -11.820  13.545  67.584  1.00  0.00    -0.363 C  
HETATM    2  N   UNL     1     -10.518  13.458  66.931  1.00  0.00    -0.271 NA 
HETATM    3  H   UNL     1      -9.835  14.052  67.400  1.00  0.00     0.000 HD 
ENDROOT
BRANCH   2   4
HETATM    4  C   UNL     1     -10.022  12.071  66.816  1.00  0.00    -0.201 C  
HETATM    5  C   UNL     1     -10.495  11.470  65.461  1.00  0.00    -0.327 C  
HETATM    6  C   UNL     1      -9.961  10.037  65.239  1.00  0.00    -0.368 C  
HETATM    7  C   UNL     1     -10.213   9.232  66.462  1.00  0.00    -0.246 A  
HETATM    8  C   UNL     1     -10.435   9.745  67.719  1.00  0.00    -0.297 A  
HETATM    9  C   UNL     1     -10.687   8.658  68.591  1.00  0.00    -0.092 A  
HETATM   10  C   UNL     1     -10.477  11.201  68.016  1.00  0.00    -0.217 C  
HETATM   11  C   UNL     1     -10.596   7.491  67.833  1.00  0.00    -0.185 A  
HETATM   12  N   UNL     1     -10.288   7.867  66.538  1.00  0.00    -0.483 NA 
HETATM   13  C   UNL     1     -10.815   6.227  68.388  1.00  0.00    -0.394 A  
HETATM   14  H   UNL     1     -10.139   7.226  65.760  1.00  0.00     0.000 HD 
HETATM   15  C   UNL     1     -11.142   6.169  69.753  1.00  0.00    -0.486 A  
HETATM   16  C   UNL     1     -11.241   7.325  70.539  1.00  0.00    -0.305 A  
HETATM   17  C   UNL     1     -11.010   8.577  69.958  1.00  0.00    -0.197 A  
BRANCH  16  18
HETATM   18  C   UNL     1     -11.602   7.170  71.978  1.00  0.00    -0.280 C  
HETATM   19  N   UNL     1     -12.423   6.138  72.345  1.00  0.00    -0.524 N  
HETATM   20  O   UNL     1     -11.180   7.942  72.831  1.00  0.00    -0.398 OA 
HETATM   21  H1  UNL     1     -12.670   6.032  73.328  1.00  0.00     0.000 HD 
HETATM   22  H2  UNL     1     -12.781   5.486  71.647  1.00  0.00     0.000 HD 
ENDBRANCH  16  18
ENDBRANCH   2   4
TORSDOF 2
ENDMDL
MODEL       66
REMARK 921   NORMALIZED FREE ENERGY PREDICTED BY IDOCK:   -5.07 KCAL/MOL
REMARK 922        TOTAL FREE ENERGY PREDICTED BY IDOCK:   -5.78 KCAL/MOL
REMARK 923 INTER-LIGAND FREE ENERGY PREDICTED BY IDOCK:   -5.66 KCAL/MOL
REMARK 924 INTRA-LIGAND FREE ENERGY PREDICTED BY IDOCK:   -0.11 KCAL/MOL
REMARK 927      BINDING AFFINITY PREDICTED BY RF-SCORE:    0.00 PKD
ROOT
HETATM    1  C   UNL     1     -11.202  11.957  68.459  1.00  0.00    -0.256 C  
HETATM    2  N   UNL     1     -10.234  13.014  68.733  1.00  0.00    -0.413 NA 
HETATM    3  H   UNL     1      -9.294  12.726  68.461  1.00  0.00     0.000 HD 
ENDROOT
BRANCH   2   4
HETATM    4  C   UNL     1     -10.593  14.302  68.105  1.00  0.00    -0.245 C  
HETATM    5  C   UNL     1     -10.713  14.104  66.567  1.00  0.00    -0.289 C  
HETATM    6  C   UNL     1     -11.149  15.398  65.843  1.00  0.00    -0.247 C  
HETATM    7  C   UNL     1     -10.304  16.525  66.317  1.00  0.00    -0.320 A  
HETATM    8  C   UNL     1      -9.598  16.547  67.497  1.00  0.00    -0.231 A  
HETATM    9  C   UNL     1      -8.881  17.767  67.548  1.00  0.00    -0.243 A  
HETATM   10  C   UNL     1      -9.569  15.414  68.458  1.00  0.00    -0.201 C  
HETATM   11  C   UNL     1      -9.185  18.475  66.387  1.00  0.00    -0.277 A  
HETATM   12  N   UNL     1     -10.071  17.702  65.657  1.00  0.00    -0.583 NA 
HETATM   13  C   UNL     1      -8.621  19.723  66.109  1.00  0.00    -0.367 A  
HETATM   14  H   UNL     1     -10.486  17.968  64.765  1.00  0.00     0.000 HD 
HETATM   15  C   UNL     1      -7.719  20.248  67.049  1.00  0.00    -0.360 A  
HETATM   16  C   UNL     1      -7.394  19.558  68.225  1.00  0.00    -0.346 A  
HETATM   17  C   UNL     1      -7.979  18.313  68.480  1.00  0.00    -0.324 A  
BRANCH  16  18
HETATM   18  C   UNL     1      -6.419  20.186  69.163  1.00  0.00    -0.306 C  
HETATM   19  N   UNL     1      -5.588  21.167  68.692  1.00  0.00    -0.331 N  
HETATM   20  O   UNL     1      -6.349  19.845  70.338  1.00  0.00    -0.323 OA 
HETATM   21  H1  UNL     1      -4.921  21.596  69.333  1.00  0.00     0.000 HD 
HETATM   22  H2  UNL     1      -5.634  21.463  67.717  1.00  0.00     0.000 HD 
ENDBRANCH  16  18
ENDBRANCH   2   4
TORSDOF 2
ENDMDL
MODEL       67
REMARK 921   NORMALIZED FREE ENERGY PREDICTED BY IDOCK:   -5.06 KCAL/MOL
REMARK 922        TOTAL FREE ENERGY PREDICTED BY IDOCK:   -5.77 KCAL/MOL
REMARK 923 INTER-LIGAND FREE ENERGY PREDICTED BY IDOCK:   -5.66 KCAL/MOL
REMARK 924 INTRA-LIGAND FREE ENERGY PREDICTED BY IDOCK:   -0.11 KCAL/MOL
REMARK 927      BINDING AFFINITY PREDICTED BY RF-SCORE:    0.00 PKD
ROOT
HETATM    1  C   UNL     1     -12.528  12.675  63.405  1.00  0.00    -0.372 C  
HETATM    2  N   UNL     1     -12.364  13.631  64.495  1.00  0.00    -0.571 NA 
HETATM    3  H   UNL     1     -12.991  13.413  65.269  1.00  0.00     0.000 HD 
ENDROOT
BRANCH   2   4
HETATM    4  C   UNL     1     -10.966  13.737  64.964  1.00  0.00    -0.357 C  
HETATM    5  C   UNL     1     -10.758  12.776  66.170  1.00  0.00    -0.297 C  
HETATM    6  C   UNL     1      -9.299  12.784  66.678  1.00  0.00    -0.242 C  
HETATM    7  C   UNL     1      -8.854  14.192  66.849  1.00  0.00    -0.203 A  
HETATM    8  C   UNL     1      -9.423  15.284  66.238  1.00  0.00    -0.341 A  
HETATM    9  C   UNL     1      -8.750  16.439  66.704  1.00  0.00    -0.291 A  
HETATM   10  C   UNL     1     -10.597  15.199  65.329  1.00  0.00    -0.432 C  
HETATM   11  C   UNL     1      -7.762  16.013  67.590  1.00  0.00    -0.145 A  
HETATM   12  N   UNL     1      -7.834  14.632  67.649  1.00  0.00    -0.165 NA 
HETATM   13  C   UNL     1      -6.922  16.911  68.254  1.00  0.00    -0.170 A  
HETATM   14  H   UNL     1      -7.221  14.035  68.203  1.00  0.00     0.000 HD 
HETATM   15  C   UNL     1      -7.111  18.279  68.001  1.00  0.00    -0.230 A  
HETATM   16  C   UNL     1      -8.097  18.738  67.117  1.00  0.00    -0.259 A  
HETATM   17  C   UNL     1      -8.919  17.815  66.461  1.00  0.00    -0.280 A  
BRANCH  16  18
HETATM   18  C   UNL     1      -8.234  20.209  66.915  1.00  0.00    -0.316 C  
HETATM   19  N   UNL     1      -9.429  20.705  66.466  1.00  0.00    -0.649 N  
HETATM   20  O   UNL     1      -7.307  20.977  67.145  1.00  0.00    -0.340 OA 
HETATM   21  H1  UNL     1      -9.523  21.711  66.329  1.00  0.00     0.000 HD 
HETATM   22  H2  UNL     1     -10.211  20.080  66.273  1.00  0.00     0.000 HD 
ENDBRANCH  16  18
ENDBRANCH   2   4
TORSDOF 2
ENDMDL
MODEL       68
REMARK 921   NORMALIZED FREE ENERGY PREDICTED BY IDOCK:   -5.03 KCAL/MOL
REMARK 922        TOTAL FREE ENERGY PREDICTED BY IDOCK:   -5.73 KCAL/MOL
REMARK 923 INTER-LIGAND FREE ENERGY PREDICTED BY IDOCK:   -5.63 KCAL/MOL
REMARK 924 INTRA-LIGAND FREE ENERGY PREDICTED BY IDOCK:   -0.11 KCAL/MOL
REMARK 927      BINDING AFFINITY PREDICTED BY RF-SCORE:    0.00 PKD
ROOT
HETATM    1  C   UNL     1      -9.681   8.022  72.404  1.00  0.00    -0.240 C  
HETATM    2  N   UNL     1     -10.284   9.083  71.602  1.00  0.00    -0.343 NA 
HETATM    3  H   UNL     1      -9.767   9.956  71.706  1.00  0.00     0.000 HD 
ENDROOT
BRANCH   2   4
HETATM    4  C   UNL     1     -10.426   8.720  70.177  1.00  0.00    -0.213 C  
HETATM    5  C   UNL     1      -9.128   8.010  69.699  1.00  0.00    -0.152 C  
HETATM    6  C   UNL     1      -9.224   7.542  68.229  1.00  0.00    -0.138 C  
HETATM    7  C   UNL     1      -9.728   8.665  67.397  1.00  0.00    -0.175 A  
HETATM    8  C   UNL     1     -10.427   9.752  67.868  1.00  0.00    -0.288 A  
HETATM    9  C   UNL     1     -10.672  10.615  66.773  1.00  0.00    -0.272 A  
HETATM   10  C   UNL     1     -10.754   9.959  69.303  1.00  0.00    -0.247 C  
HETATM   11  C   UNL     1     -10.119  10.016  65.642  1.00  0.00    -0.251 A  
HETATM   12  N   UNL     1      -9.563   8.816  66.046  1.00  0.00    -0.361 NA 
HETATM   13  C   UNL     1     -10.165  10.622  64.384  1.00  0.00    -0.400 A  
HETATM   14  H   UNL     1      -9.100   8.146  65.432  1.00  0.00     0.000 HD 
HETATM   15  C   UNL     1     -10.789  11.877  64.293  1.00  0.00    -0.396 A  
HETATM   16  C   UNL     1     -11.352  12.504  65.413  1.00  0.00    -0.363 A  
HETATM   17  C   UNL     1     -11.297  11.871  66.660  1.00  0.00    -0.400 A  
BRANCH  16  18
HETATM   18  C   UNL     1     -11.987  13.841  65.228  1.00  0.00    -0.374 C  
HETATM   19  N   UNL     1     -13.254  14.041  65.703  1.00  0.00    -0.624 N  
HETATM   20  O   UNL     1     -11.399  14.757  64.664  1.00  0.00    -0.389 OA 
HETATM   21  H1  UNL     1     -13.688  14.955  65.577  1.00  0.00     0.000 HD 
HETATM   22  H2  UNL     1     -13.756  13.290  66.176  1.00  0.00     0.000 HD 
ENDBRANCH  16  18
ENDBRANCH   2   4
TORSDOF 2
ENDMDL
MODEL       69
REMARK 921   NORMALIZED FREE ENERGY PREDICTED BY IDOCK:   -5.03 KCAL/MOL
REMARK 922        TOTAL FREE ENERGY PREDICTED BY IDOCK:   -5.73 KCAL/MOL
REMARK 923 INTER-LIGAND FREE ENERGY PREDICTED BY IDOCK:   -5.64 KCAL/MOL
REMARK 924 INTRA-LIGAND FREE ENERGY PREDICTED BY IDOCK:   -0.09 KCAL/MOL
REMARK 927      BINDING AFFINITY PREDICTED BY RF-SCORE:    0.00 PKD
ROOT
HETATM    1  C   UNL     1      -9.427  10.210  63.853  1.00  0.00    -0.275 C  
HETATM    2  N   UNL     1     -10.522  10.952  64.470  1.00  0.00    -0.349 NA 
HETATM    3  H   UNL     1     -11.359  10.374  64.540  1.00  0.00     0.000 HD 
ENDROOT
BRANCH   2   4
HETATM    4  C   UNL     1     -10.163  11.523  65.785  1.00  0.00    -0.249 C  
HETATM    5  C   UNL     1     -11.144  10.979  66.862  1.00  0.00    -0.280 C  
HETATM    6  C   UNL     1     -10.794  11.485  68.280  1.00  0.00    -0.257 C  
HETATM    7  C   UNL     1     -10.588  12.956  68.232  1.00  0.00    -0.246 A  
HETATM    8  C   UNL     1     -10.290  13.679  67.101  1.00  0.00    -0.250 A  
HETATM    9  C   UNL     1     -10.231  15.046  67.466  1.00  0.00    -0.234 A  
HETATM   10  C   UNL     1     -10.157  13.074  65.750  1.00  0.00    -0.294 C  
HETATM   11  C   UNL     1     -10.485  15.120  68.835  1.00  0.00    -0.241 A  
HETATM   12  N   UNL     1     -10.682  13.826  69.284  1.00  0.00    -0.429 NA 
HETATM   13  C   UNL     1     -10.524  16.338  69.518  1.00  0.00    -0.299 A  
HETATM   14  H   UNL     1     -10.870  13.562  70.251  1.00  0.00     0.000 HD 
HETATM   15  C   UNL     1     -10.303  17.506  68.769  1.00  0.00    -0.358 A  
HETATM   16  C   UNL     1     -10.047  17.463  67.392  1.00  0.00    -0.321 A  
HETATM   17  C   UNL     1     -10.007  16.228  66.736  1.00  0.00    -0.268 A  
BRANCH  16  18
HETATM   18  C   UNL     1      -9.833  18.753  66.674  1.00  0.00    -0.356 C  
HETATM   19  N   UNL     1     -10.763  19.748  66.815  1.00  0.00    -0.466 N  
HETATM   20  O   UNL     1      -8.849  18.938  65.968  1.00  0.00    -0.464 OA 
HETATM   21  H1  UNL     1     -10.617  20.629  66.324  1.00  0.00     0.000 HD 
HETATM   22  H2  UNL     1     -11.587  19.610  67.400  1.00  0.00     0.000 HD 
ENDBRANCH  16  18
ENDBRANCH   2   4
TORSDOF 2
ENDMDL
MODEL       70
REMARK 921   NORMALIZED FREE ENERGY PREDICTED BY IDOCK:   -5.03 KCAL/MOL
REMARK 922        TOTAL FREE ENERGY PREDICTED BY IDOCK:   -5.73 KCAL/MOL
REMARK 923 INTER-LIGAND FREE ENERGY PREDICTED BY IDOCK:   -5.60 KCAL/MOL
REMARK 924 INTRA-LIGAND FREE ENERGY PREDICTED BY IDOCK:   -0.13 KCAL/MOL
REMARK 927      BINDING AFFINITY PREDICTED BY RF-SCORE:    0.00 PKD
ROOT
HETATM    1  C   UNL     1     -12.721  13.225  71.086  1.00  0.00    -0.320 C  
HETATM    2  N   UNL     1     -13.037  14.357  70.221  1.00  0.00    -0.461 NA 
HETATM    3  H   UNL     1     -12.962  15.237  70.731  1.00  0.00     0.000 HD 
ENDROOT
BRANCH   2   4
HETATM    4  C   UNL     1     -12.219  14.390  68.991  1.00  0.00    -0.198 C  
HETATM    5  C   UNL     1     -11.167  13.245  69.047  1.00  0.00    -0.320 C  
HETATM    6  C   UNL     1     -10.311  13.174  67.763  1.00  0.00    -0.230 C  
HETATM    7  C   UNL     1      -9.812  14.536  67.439  1.00  0.00    -0.227 A  
HETATM    8  C   UNL     1     -10.367  15.712  67.887  1.00  0.00    -0.259 A  
HETATM    9  C   UNL     1      -9.569  16.777  67.403  1.00  0.00    -0.236 A  
HETATM   10  C   UNL     1     -11.545  15.773  68.791  1.00  0.00    -0.401 C  
HETATM   11  C   UNL     1      -8.540  16.214  66.650  1.00  0.00    -0.276 A  
HETATM   12  N   UNL     1      -8.721  14.843  66.671  1.00  0.00    -0.390 NA 
HETATM   13  C   UNL     1      -7.552  16.994  66.043  1.00  0.00    -0.138 A  
HETATM   14  H   UNL     1      -8.131  14.164  66.190  1.00  0.00     0.000 HD 
HETATM   15  C   UNL     1      -7.624  18.385  66.225  1.00  0.00    -0.289 A  
HETATM   16  C   UNL     1      -8.646  18.979  66.978  1.00  0.00    -0.308 A  
HETATM   17  C   UNL     1      -9.626  18.173  67.569  1.00  0.00    -0.280 A  
BRANCH  16  18
HETATM   18  C   UNL     1      -8.640  20.463  67.128  1.00  0.00    -0.316 C  
HETATM   19  N   UNL     1      -7.477  21.145  66.892  1.00  0.00    -0.558 N  
HETATM   20  O   UNL     1      -9.648  21.079  67.453  1.00  0.00    -0.395 OA 
HETATM   21  H1  UNL     1      -7.472  22.159  66.994  1.00  0.00     0.000 HD 
HETATM   22  H2  UNL     1      -6.629  20.648  66.619  1.00  0.00     0.000 HD 
ENDBRANCH  16  18
ENDBRANCH   2   4
TORSDOF 2
ENDMDL
MODEL       71
REMARK 921   NORMALIZED FREE ENERGY PREDICTED BY IDOCK:   -5.00 KCAL/MOL
REMARK 922        TOTAL FREE ENERGY PREDICTED BY IDOCK:   -5.70 KCAL/MOL
REMARK 923 INTER-LIGAND FREE ENERGY PREDICTED BY IDOCK:   -5.57 KCAL/MOL
REMARK 924 INTRA-LIGAND FREE ENERGY PREDICTED BY IDOCK:   -0.13 KCAL/MOL
REMARK 927      BINDING AFFINITY PREDICTED BY RF-SCORE:    0.00 PKD
ROOT
HETATM    1  C   UNL     1      -9.484  17.688  68.121  1.00  0.00    -0.286 C  
HETATM    2  N   UNL     1     -10.869  17.770  68.575  1.00  0.00    -0.268 NA 
HETATM    3  H   UNL     1     -11.418  18.372  67.961  1.00  0.00     0.000 HD 
ENDROOT
BRANCH   2   4
HETATM    4  C   UNL     1     -11.506  16.445  68.723  1.00  0.00    -0.222 C  
HETATM    5  C   UNL     1     -11.185  15.878  70.135  1.00  0.00    -0.368 C  
HETATM    6  C   UNL     1     -11.871  14.518  70.389  1.00  0.00    -0.378 C  
HETATM    7  C   UNL     1     -11.621  13.625  69.228  1.00  0.00    -0.311 A  
HETATM    8  C   UNL     1     -11.267  14.043  67.967  1.00  0.00    -0.302 A  
HETATM    9  C   UNL     1     -11.067  12.890  67.170  1.00  0.00    -0.309 A  
HETATM   10  C   UNL     1     -11.061  15.469  67.601  1.00  0.00    -0.311 C  
HETATM   11  C   UNL     1     -11.322  11.781  67.976  1.00  0.00    -0.288 A  
HETATM   12  N   UNL     1     -11.676  12.257  69.226  1.00  0.00    -0.315 NA 
HETATM   13  C   UNL     1     -11.193  10.473  67.501  1.00  0.00    -0.299 A  
HETATM   14  H   UNL     1     -11.938  11.677  70.023  1.00  0.00     0.000 HD 
HETATM   15  C   UNL     1     -10.785  10.308  66.167  1.00  0.00    -0.042 A  
HETATM   16  C   UNL     1     -10.520  11.403  65.334  1.00  0.00    -0.336 A  
HETATM   17  C   UNL     1     -10.664  12.702  65.835  1.00  0.00    -0.293 A  
BRANCH  16  18
HETATM   18  C   UNL     1     -10.083  11.134  63.934  1.00  0.00    -0.348 C  
HETATM   19  N   UNL     1     -11.036  10.990  62.961  1.00  0.00    -0.764 N  
HETATM   20  O   UNL     1      -8.897  11.043  63.639  1.00  0.00    -0.129 OA 
HETATM   21  H1  UNL     1     -10.737  10.806  62.004  1.00  0.00     0.000 HD 
HETATM   22  H2  UNL     1     -12.027  11.065  63.190  1.00  0.00     0.000 HD 
ENDBRANCH  16  18
ENDBRANCH   2   4
TORSDOF 2
ENDMDL
MODEL       72
REMARK 921   NORMALIZED FREE ENERGY PREDICTED BY IDOCK:   -4.98 KCAL/MOL
REMARK 922        TOTAL FREE ENERGY PREDICTED BY IDOCK:   -5.68 KCAL/MOL
REMARK 923 INTER-LIGAND FREE ENERGY PREDICTED BY IDOCK:   -5.55 KCAL/MOL
REMARK 924 INTRA-LIGAND FREE ENERGY PREDICTED BY IDOCK:   -0.12 KCAL/MOL
REMARK 927      BINDING AFFINITY PREDICTED BY RF-SCORE:    0.00 PKD
ROOT
HETATM    1  C   UNL     1     -10.858  11.582  63.809  1.00  0.00    -0.416 C  
HETATM    2  N   UNL     1     -11.080  12.805  64.574  1.00  0.00    -0.312 NA 
HETATM    3  H   UNL     1     -11.642  13.470  64.043  1.00  0.00     0.000 HD 
ENDROOT
BRANCH   2   4
HETATM    4  C   UNL     1     -11.675  12.554  65.903  1.00  0.00    -0.426 C  
HETATM    5  C   UNL     1     -11.383  13.768  66.831  1.00  0.00    -0.345 C  
HETATM    6  C   UNL     1     -12.030  13.608  68.225  1.00  0.00    -0.385 C  
HETATM    7  C   UNL     1     -11.708  12.258  68.755  1.00  0.00    -0.340 A  
HETATM    8  C   UNL     1     -11.325  11.177  67.995  1.00  0.00    -0.380 A  
HETATM    9  C   UNL     1     -11.057  10.102  68.878  1.00  0.00    -0.251 A  
HETATM   10  C   UNL     1     -11.157  11.228  66.519  1.00  0.00    -0.280 C  
HETATM   11  C   UNL     1     -11.300  10.559  70.172  1.00  0.00    -0.323 A  
HETATM   12  N   UNL     1     -11.715  11.875  70.069  1.00  0.00    -0.462 NA 
HETATM   13  C   UNL     1     -11.109   9.748  71.294  1.00  0.00    -0.375 A  
HETATM   14  H   UNL     1     -11.984  12.470  70.853  1.00  0.00     0.000 HD 
HETATM   15  C   UNL     1     -10.649   8.440  71.074  1.00  0.00    -0.258 A  
HETATM   16  C   UNL     1     -10.394   7.953  69.785  1.00  0.00    -0.219 A  
HETATM   17  C   UNL     1     -10.601   8.786  68.679  1.00  0.00    -0.174 A  
BRANCH  16  18
HETATM   18  C   UNL     1      -9.898   6.553  69.644  1.00  0.00    -0.159 C  
HETATM   19  N   UNL     1     -10.770   5.521  69.860  1.00  0.00    -0.323 N  
HETATM   20  O   UNL     1      -8.736   6.312  69.340  1.00  0.00    -0.126 OA 
HETATM   21  H1  UNL     1     -10.432   4.564  69.765  1.00  0.00     0.000 HD 
HETATM   22  H2  UNL     1     -11.741   5.704  70.113  1.00  0.00     0.000 HD 
ENDBRANCH  16  18
ENDBRANCH   2   4
TORSDOF 2
ENDMDL
MODEL       73
REMARK 921   NORMALIZED FREE ENERGY PREDICTED BY IDOCK:   -4.97 KCAL/MOL
REMARK 922        TOTAL FREE ENERGY PREDICTED BY IDOCK:   -5.66 KCAL/MOL
REMARK 923 INTER-LIGAND FREE ENERGY PREDICTED BY IDOCK:   -5.52 KCAL/MOL
REMARK 924 INTRA-LIGAND FREE ENERGY PREDICTED BY IDOCK:   -0.14 KCAL/MOL
REMARK 927      BINDING AFFINITY PREDICTED BY RF-SCORE:    0.00 PKD
ROOT
HETATM    1  C   UNL     1     -10.707  15.309  70.276  1.00  0.00    -0.258 C  
HETATM    2  N   UNL     1     -10.076  16.375  69.505  1.00  0.00    -0.234 NA 
HETATM    3  H   UNL     1      -9.265  16.750  69.998  1.00  0.00     0.000 HD 
ENDROOT
BRANCH   2   4
HETATM    4  C   UNL     1      -9.714  15.959  68.134  1.00  0.00    -0.212 C  
HETATM    5  C   UNL     1     -10.613  16.718  67.117  1.00  0.00    -0.256 C  
HETATM    6  C   UNL     1     -10.251  16.382  65.652  1.00  0.00    -0.349 C  
HETATM    7  C   UNL     1     -10.157  14.906  65.504  1.00  0.00    -0.370 A  
HETATM    8  C   UNL     1      -9.954  14.016  66.533  1.00  0.00    -0.289 A  
HETATM    9  C   UNL     1      -9.983  12.711  65.986  1.00  0.00    -0.267 A  
HETATM   10  C   UNL     1      -9.824  14.422  67.957  1.00  0.00    -0.221 C  
HETATM   11  C   UNL     1     -10.193  12.842  64.614  1.00  0.00    -0.297 A  
HETATM   12  N   UNL     1     -10.278  14.195  64.341  1.00  0.00    -0.676 NA 
HETATM   13  C   UNL     1     -10.298  11.733  63.770  1.00  0.00    -0.451 A  
HETATM   14  H   UNL     1     -10.412  14.601  63.415  1.00  0.00     0.000 HD 
HETATM   15  C   UNL     1     -10.191  10.461  64.357  1.00  0.00    -0.245 A  
HETATM   16  C   UNL     1      -9.982  10.299  65.733  1.00  0.00    -0.337 A  
HETATM   17  C   UNL     1      -9.874  11.428  66.553  1.00  0.00    -0.237 A  
BRANCH  16  18
HETATM   18  C   UNL     1      -9.891   8.911  66.274  1.00  0.00    -0.285 C  
HETATM   19  N   UNL     1     -10.615   8.589  67.389  1.00  0.00    -0.414 N  
HETATM   20  O   UNL     1      -9.187   8.061  65.741  1.00  0.00    -0.124 OA 
HETATM   21  H1  UNL     1     -10.552   7.641  67.759  1.00  0.00     0.000 HD 
HETATM   22  H2  UNL     1     -11.207   9.284  67.844  1.00  0.00     0.000 HD 
ENDBRANCH  16  18
ENDBRANCH   2   4
TORSDOF 2
ENDMDL
MODEL       74
REMARK 921   NORMALIZED FREE ENERGY PREDICTED BY IDOCK:   -4.97 KCAL/MOL
REMARK 922        TOTAL FREE ENERGY PREDICTED BY IDOCK:   -5.66 KCAL/MOL
REMARK 923 INTER-LIGAND FREE ENERGY PREDICTED BY IDOCK:   -5.57 KCAL/MOL
REMARK 924 INTRA-LIGAND FREE ENERGY PREDICTED BY IDOCK:   -0.09 KCAL/MOL
REMARK 927      BINDING AFFINITY PREDICTED BY RF-SCORE:    0.00 PKD
ROOT
HETATM    1  C   UNL     1      -7.013   9.249  66.308  1.00  0.00    -0.087 C  
HETATM    2  N   UNL     1      -8.427   9.597  66.411  1.00  0.00    -0.122 NA 
HETATM    3  H   UNL     1      -8.979   9.083  65.725  1.00  0.00     0.000 HD 
ENDROOT
BRANCH   2   4
HETATM    4  C   UNL     1      -8.969   9.411  67.772  1.00  0.00    -0.122 C  
HETATM    5  C   UNL     1      -9.894   8.160  67.786  1.00  0.00    -0.209 C  
HETATM    6  C   UNL     1     -10.452   7.862  69.196  1.00  0.00    -0.218 C  
HETATM    7  C   UNL     1     -11.001   9.116  69.774  1.00  0.00    -0.181 A  
HETATM    8  C   UNL     1     -10.668  10.388  69.372  1.00  0.00    -0.277 A  
HETATM    9  C   UNL     1     -11.446  11.298  70.128  1.00  0.00    -0.336 A  
HETATM   10  C   UNL     1      -9.716  10.678  68.267  1.00  0.00    -0.169 C  
HETATM   11  C   UNL     1     -12.235  10.545  70.995  1.00  0.00    -0.400 A  
HETATM   12  N   UNL     1     -11.932   9.214  70.773  1.00  0.00    -0.430 NA 
HETATM   13  C   UNL     1     -13.145  11.139  71.875  1.00  0.00    -0.513 A  
HETATM   14  H   UNL     1     -12.340   8.426  71.275  1.00  0.00     0.000 HD 
HETATM   15  C   UNL     1     -13.246  12.539  71.852  1.00  0.00    -0.495 A  
HETATM   16  C   UNL     1     -12.467  13.322  70.989  1.00  0.00    -0.422 A  
HETATM   17  C   UNL     1     -11.559  12.701  70.124  1.00  0.00    -0.141 A  
BRANCH  16  18
HETATM   18  C   UNL     1     -12.646  14.802  71.025  1.00  0.00    -0.333 C  
HETATM   19  N   UNL     1     -13.897  15.320  70.824  1.00  0.00    -0.789 N  
HETATM   20  O   UNL     1     -11.703  15.557  71.230  1.00  0.00    -0.323 OA 
HETATM   21  H1  UNL     1     -14.020  16.332  70.848  1.00  0.00     0.000 HD 
HETATM   22  H2  UNL     1     -14.693  14.705  70.653  1.00  0.00     0.000 HD 
ENDBRANCH  16  18
ENDBRANCH   2   4
TORSDOF 2
ENDMDL
MODEL       75
REMARK 921   NORMALIZED FREE ENERGY PREDICTED BY IDOCK:   -4.95 KCAL/MOL
REMARK 922        TOTAL FREE ENERGY PREDICTED BY IDOCK:   -5.64 KCAL/MOL
REMARK 923 INTER-LIGAND FREE ENERGY PREDICTED BY IDOCK:   -5.52 KCAL/MOL
REMARK 924 INTRA-LIGAND FREE ENERGY PREDICTED BY IDOCK:   -0.12 KCAL/MOL
REMARK 927      BINDING AFFINITY PREDICTED BY RF-SCORE:    0.00 PKD
ROOT
HETATM    1  C   UNL     1     -12.304   7.094  71.272  1.00  0.00    -0.379 C  
HETATM    2  N   UNL     1     -11.661   6.678  70.030  1.00  0.00    -0.610 NA 
HETATM    3  H   UNL     1     -12.353   6.521  69.297  1.00  0.00     0.000 HD 
ENDROOT
BRANCH   2   4
HETATM    4  C   UNL     1     -10.617   7.621  69.576  1.00  0.00    -0.227 C  
HETATM    5  C   UNL     1     -10.110   8.445  70.794  1.00  0.00    -0.226 C  
HETATM    6  C   UNL     1      -8.969   9.414  70.409  1.00  0.00    -0.294 C  
HETATM    7  C   UNL     1      -9.366  10.173  69.196  1.00  0.00    -0.197 A  
HETATM    8  C   UNL     1     -10.332   9.784  68.296  1.00  0.00    -0.231 A  
HETATM    9  C   UNL     1     -10.447  10.803  67.320  1.00  0.00    -0.282 A  
HETATM   10  C   UNL     1     -11.135   8.541  68.439  1.00  0.00     0.308 C  
HETATM   11  C   UNL     1      -9.525  11.795  67.646  1.00  0.00    -0.180 A  
HETATM   12  N   UNL     1      -8.863  11.379  68.788  1.00  0.00    -0.322 NA 
HETATM   13  C   UNL     1      -9.394  12.964  66.892  1.00  0.00    -0.240 A  
HETATM   14  H   UNL     1      -8.115  11.892  69.254  1.00  0.00     0.000 HD 
HETATM   15  C   UNL     1     -10.240  13.114  65.781  1.00  0.00    -0.294 A  
HETATM   16  C   UNL     1     -11.178  12.133  65.429  1.00  0.00    -0.381 A  
HETATM   17  C   UNL     1     -11.282  10.970  66.199  1.00  0.00     0.024 A  
BRANCH  16  18
HETATM   18  C   UNL     1     -12.042  12.379  64.238  1.00  0.00    -0.433 C  
HETATM   19  N   UNL     1     -11.981  11.505  63.187  1.00  0.00    -0.917 N  
HETATM   20  O   UNL     1     -12.801  13.340  64.185  1.00  0.00    -0.640 OA 
HETATM   21  H1  UNL     1     -12.572  11.673  62.374  1.00  0.00     0.000 HD 
HETATM   22  H2  UNL     1     -11.356  10.699  63.217  1.00  0.00     0.000 HD 
ENDBRANCH  16  18
ENDBRANCH   2   4
TORSDOF 2
ENDMDL
MODEL       76
REMARK 921   NORMALIZED FREE ENERGY PREDICTED BY IDOCK:   -4.94 KCAL/MOL
REMARK 922        TOTAL FREE ENERGY PREDICTED BY IDOCK:   -5.63 KCAL/MOL
REMARK 923 INTER-LIGAND FREE ENERGY PREDICTED BY IDOCK:   -5.54 KCAL/MOL
REMARK 924 INTRA-LIGAND FREE ENERGY PREDICTED BY IDOCK:   -0.10 KCAL/MOL
REMARK 927      BINDING AFFINITY PREDICTED BY RF-SCORE:    0.00 PKD
ROOT
HETATM    1  C   UNL     1     -12.121  15.544  70.732  1.00  0.00    -0.390 C  
HETATM    2  N   UNL     1     -12.676  14.951  69.520  1.00  0.00    -0.570 NA 
HETATM    3  H   UNL     1     -13.022  15.671  68.887  1.00  0.00     0.000 HD 
ENDROOT
BRANCH   2   4
HETATM    4  C   UNL     1     -11.727  14.053  68.830  1.00  0.00    -0.353 C  
HETATM    5  C   UNL     1     -12.060  14.029  67.311  1.00  0.00    -0.405 C  
HETATM    6  C   UNL     1     -11.068  13.157  66.509  1.00  0.00    -0.317 C  
HETATM    7  C   UNL     1     -10.917  11.845  67.190  1.00  0.00    -0.269 A  
HETATM    8  C   UNL     1     -11.207  11.598  68.511  1.00  0.00    -0.312 A  
HETATM    9  C   UNL     1     -10.983  10.221  68.753  1.00  0.00    -0.285 A  
HETATM   10  C   UNL     1     -11.744  12.627  69.441  1.00  0.00    -0.387 C  
HETATM   11  C   UNL     1     -10.542   9.658  67.557  1.00  0.00    -0.277 A  
HETATM   12  N   UNL     1     -10.492  10.675  66.620  1.00  0.00    -0.244 NA 
HETATM   13  C   UNL     1     -10.249   8.297  67.441  1.00  0.00    -0.326 A  
HETATM   14  H   UNL     1     -10.187  10.569  65.653  1.00  0.00     0.000 HD 
HETATM   15  C   UNL     1     -10.423   7.499  68.583  1.00  0.00    -0.207 A  
HETATM   16  C   UNL     1     -10.867   8.037  69.799  1.00  0.00    -0.194 A  
HETATM   17  C   UNL     1     -11.146   9.405  69.887  1.00  0.00    -0.223 A  
BRANCH  16  18
HETATM   18  C   UNL     1     -11.033   7.114  70.959  1.00  0.00    -0.252 C  
HETATM   19  N   UNL     1      -9.982   6.940  71.819  1.00  0.00    -0.174 N  
HETATM   20  O   UNL     1     -12.084   6.516  71.157  1.00  0.00    -0.350 OA 
HETATM   21  H1  UNL     1     -10.095   6.310  72.612  1.00  0.00     0.000 HD 
HETATM   22  H2  UNL     1      -9.101   7.432  71.669  1.00  0.00     0.000 HD 
ENDBRANCH  16  18
ENDBRANCH   2   4
TORSDOF 2
ENDMDL
MODEL       77
REMARK 921   NORMALIZED FREE ENERGY PREDICTED BY IDOCK:   -4.94 KCAL/MOL
REMARK 922        TOTAL FREE ENERGY PREDICTED BY IDOCK:   -5.63 KCAL/MOL
REMARK 923 INTER-LIGAND FREE ENERGY PREDICTED BY IDOCK:   -5.52 KCAL/MOL
REMARK 924 INTRA-LIGAND FREE ENERGY PREDICTED BY IDOCK:   -0.11 KCAL/MOL
REMARK 927      BINDING AFFINITY PREDICTED BY RF-SCORE:    0.00 PKD
ROOT
HETATM    1  C   UNL     1      -7.952   3.827  70.510  1.00  0.00    -0.054 C  
HETATM    2  N   UNL     1      -7.787   5.277  70.475  1.00  0.00    -0.082 NA 
HETATM    3  H   UNL     1      -7.900   5.634  69.527  1.00  0.00     0.000 HD 
ENDROOT
BRANCH   2   4
HETATM    4  C   UNL     1      -8.682   5.983  71.416  1.00  0.00    -0.132 C  
HETATM    5  C   UNL     1      -9.825   5.022  71.851  1.00  0.00    -0.236 C  
HETATM    6  C   UNL     1     -10.771   5.670  72.886  1.00  0.00    -0.286 C  
HETATM    7  C   UNL     1     -11.167   7.018  72.403  1.00  0.00    -0.268 A  
HETATM    8  C   UNL     1     -10.480   7.761  71.471  1.00  0.00    -0.239 A  
HETATM    9  C   UNL     1     -11.211   8.952  71.245  1.00  0.00    -0.368 A  
HETATM   10  C   UNL     1      -9.241   7.291  70.797  1.00  0.00    -0.156 C  
HETATM   11  C   UNL     1     -12.335   8.910  72.067  1.00  0.00    -0.390 A  
HETATM   12  N   UNL     1     -12.277   7.725  72.779  1.00  0.00    -0.591 NA 
HETATM   13  C   UNL     1     -13.289   9.931  72.073  1.00  0.00    -0.532 A  
HETATM   14  H   UNL     1     -12.957   7.425  73.477  1.00  0.00     0.000 HD 
HETATM   15  C   UNL     1     -13.080  11.015  71.205  1.00  0.00    -0.381 A  
HETATM   16  C   UNL     1     -11.960  11.084  70.366  1.00  0.00    -0.459 A  
HETATM   17  C   UNL     1     -11.017  10.050  70.386  1.00  0.00    -0.384 A  
BRANCH  16  18
HETATM   18  C   UNL     1     -11.823  12.268  69.469  1.00  0.00    -0.315 C  
HETATM   19  N   UNL     1     -11.670  12.062  68.124  1.00  0.00    -0.336 N  
HETATM   20  O   UNL     1     -11.846  13.412  69.909  1.00  0.00    -0.309 OA 
HETATM   21  H1  UNL     1     -11.576  12.872  67.511  1.00  0.00     0.000 HD 
HETATM   22  H2  UNL     1     -11.650  11.117  67.742  1.00  0.00     0.000 HD 
ENDBRANCH  16  18
ENDBRANCH   2   4
TORSDOF 2
ENDMDL
MODEL       78
REMARK 921   NORMALIZED FREE ENERGY PREDICTED BY IDOCK:   -4.93 KCAL/MOL
REMARK 922        TOTAL FREE ENERGY PREDICTED BY IDOCK:   -5.63 KCAL/MOL
REMARK 923 INTER-LIGAND FREE ENERGY PREDICTED BY IDOCK:   -5.50 KCAL/MOL
REMARK 924 INTRA-LIGAND FREE ENERGY PREDICTED BY IDOCK:   -0.12 KCAL/MOL
REMARK 927      BINDING AFFINITY PREDICTED BY RF-SCORE:    0.00 PKD
ROOT
HETATM    1  C   UNL     1      -7.564   9.346  65.193  1.00  0.00    -0.108 C  
HETATM    2  N   UNL     1      -8.667   9.455  66.142  1.00  0.00    -0.142 NA 
HETATM    3  H   UNL     1      -8.322   9.659  67.080  1.00  0.00     0.000 HD 
ENDROOT
BRANCH   2   4
HETATM    4  C   UNL     1      -9.688  10.440  65.730  1.00  0.00    -0.228 C  
HETATM    5  C   UNL     1      -9.743  10.500  64.177  1.00  0.00    -0.388 C  
HETATM    6  C   UNL     1     -10.835  11.466  63.667  1.00  0.00    -0.459 C  
HETATM    7  C   UNL     1     -10.714  12.758  64.391  1.00  0.00    -0.376 A  
HETATM    8  C   UNL     1     -10.086  12.934  65.602  1.00  0.00    -0.282 A  
HETATM    9  C   UNL     1     -10.140  14.313  65.919  1.00  0.00    -0.344 A  
HETATM   10  C   UNL     1      -9.414  11.837  66.346  1.00  0.00    -0.234 C  
HETATM   11  C   UNL     1     -10.822  14.950  64.883  1.00  0.00    -0.413 A  
HETATM   12  N   UNL     1     -11.178  13.975  63.969  1.00  0.00    -0.559 NA 
HETATM   13  C   UNL     1     -11.032  16.331  64.872  1.00  0.00    -0.321 A  
HETATM   14  H   UNL     1     -11.706  14.138  63.112  1.00  0.00     0.000 HD 
HETATM   15  C   UNL     1     -10.520  17.071  65.950  1.00  0.00    -0.282 A  
HETATM   16  C   UNL     1      -9.829  16.459  67.005  1.00  0.00    -0.253 A  
HETATM   17  C   UNL     1      -9.640  15.072  66.993  1.00  0.00    -0.233 A  
BRANCH  16  18
HETATM   18  C   UNL     1      -9.311  17.323  68.105  1.00  0.00    -0.274 C  
HETATM   19  N   UNL     1      -7.962  17.536  68.197  1.00  0.00    -0.241 N  
HETATM   20  O   UNL     1     -10.065  17.844  68.919  1.00  0.00    -0.368 OA 
HETATM   21  H1  UNL     1      -7.608  18.127  68.949  1.00  0.00     0.000 HD 
HETATM   22  H2  UNL     1      -7.322  17.111  67.526  1.00  0.00     0.000 HD 
ENDBRANCH  16  18
ENDBRANCH   2   4
TORSDOF 2
ENDMDL
MODEL       79
REMARK 921   NORMALIZED FREE ENERGY PREDICTED BY IDOCK:   -4.90 KCAL/MOL
REMARK 922        TOTAL FREE ENERGY PREDICTED BY IDOCK:   -5.59 KCAL/MOL
REMARK 923 INTER-LIGAND FREE ENERGY PREDICTED BY IDOCK:   -5.48 KCAL/MOL
REMARK 924 INTRA-LIGAND FREE ENERGY PREDICTED BY IDOCK:   -0.11 KCAL/MOL
REMARK 927      BINDING AFFINITY PREDICTED BY RF-SCORE:    0.00 PKD
ROOT
HETATM    1  C   UNL     1     -12.175  13.571  70.663  1.00  0.00    -0.358 C  
HETATM    2  N   UNL     1     -11.490  12.458  70.013  1.00  0.00    -0.526 NA 
HETATM    3  H   UNL     1     -10.493  12.469  70.227  1.00  0.00     0.000 HD 
ENDROOT
BRANCH   2   4
HETATM    4  C   UNL     1     -12.084  11.145  70.338  1.00  0.00    -0.385 C  
HETATM    5  C   UNL     1     -12.831  11.245  71.699  1.00  0.00    -0.510 C  
HETATM    6  C   UNL     1     -13.535   9.923  72.079  1.00  0.00    -0.478 C  
HETATM    7  C   UNL     1     -12.576   8.800  71.914  1.00  0.00    -0.371 A  
HETATM    8  C   UNL     1     -11.444   8.830  71.133  1.00  0.00    -0.344 A  
HETATM    9  C   UNL     1     -10.778   7.591  71.292  1.00  0.00    -0.242 A  
HETATM   10  C   UNL     1     -11.013  10.023  70.357  1.00  0.00    -0.384 C  
HETATM   11  C   UNL     1     -11.540   6.821  72.168  1.00  0.00    -0.288 A  
HETATM   12  N   UNL     1     -12.644   7.575  72.521  1.00  0.00    -0.508 NA 
HETATM   13  C   UNL     1     -11.149   5.537  72.559  1.00  0.00    -0.324 A  
HETATM   14  H   UNL     1     -13.394   7.266  73.139  1.00  0.00     0.000 HD 
HETATM   15  C   UNL     1      -9.941   5.043  72.040  1.00  0.00    -0.239 A  
HETATM   16  C   UNL     1      -9.153   5.796  71.159  1.00  0.00    -0.157 A  
HETATM   17  C   UNL     1      -9.573   7.075  70.779  1.00  0.00    -0.164 A  
BRANCH  16  18
HETATM   18  C   UNL     1      -7.880   5.196  70.664  1.00  0.00    -0.080 C  
HETATM   19  N   UNL     1      -7.666   5.125  69.314  1.00  0.00    -0.075 N  
HETATM   20  O   UNL     1      -7.029   4.771  71.436  1.00  0.00    -0.043 OA 
HETATM   21  H1  UNL     1      -6.796   4.715  68.975  1.00  0.00     0.000 HD 
HETATM   22  H2  UNL     1      -8.364   5.475  68.658  1.00  0.00     0.000 HD 
ENDBRANCH  16  18
ENDBRANCH   2   4
TORSDOF 2
ENDMDL
MODEL       80
REMARK 921   NORMALIZED FREE ENERGY PREDICTED BY IDOCK:   -4.81 KCAL/MOL
REMARK 922        TOTAL FREE ENERGY PREDICTED BY IDOCK:   -5.49 KCAL/MOL
REMARK 923 INTER-LIGAND FREE ENERGY PREDICTED BY IDOCK:   -5.38 KCAL/MOL
REMARK 924 INTRA-LIGAND FREE ENERGY PREDICTED BY IDOCK:   -0.11 KCAL/MOL
REMARK 927      BINDING AFFINITY PREDICTED BY RF-SCORE:    0.00 PKD
ROOT
HETATM    1  C   UNL     1      -6.158  12.054  66.957  1.00  0.00    -0.132 C  
HETATM    2  N   UNL     1      -7.016  10.890  66.756  1.00  0.00    -0.117 NA 
HETATM    3  H   UNL     1      -6.675  10.090  67.289  1.00  0.00     0.000 HD 
ENDROOT
BRANCH   2   4
HETATM    4  C   UNL     1      -8.436  11.161  67.059  1.00  0.00    -0.146 C  
HETATM    5  C   UNL     1      -8.619  12.680  67.336  1.00  0.00    -0.189 C  
HETATM    6  C   UNL     1     -10.095  13.053  67.601  1.00  0.00    -0.217 C  
HETATM    7  C   UNL     1     -10.660  12.110  68.601  1.00  0.00    -0.223 A  
HETATM    8  C   UNL     1     -10.154  10.865  68.892  1.00  0.00    -0.211 A  
HETATM    9  C   UNL     1     -10.939  10.313  69.933  1.00  0.00    -0.358 A  
HETATM   10  C   UNL     1      -8.939  10.300  68.249  1.00  0.00    -0.132 C  
HETATM   11  C   UNL     1     -11.927  11.246  70.245  1.00  0.00    -0.379 A  
HETATM   12  N   UNL     1     -11.746  12.329  69.404  1.00  0.00    -0.316 NA 
HETATM   13  C   UNL     1     -12.866  11.022  71.256  1.00  0.00    -0.528 A  
HETATM   14  H   UNL     1     -12.332  13.163  69.386  1.00  0.00     0.000 HD 
HETATM   15  C   UNL     1     -12.777   9.813  71.964  1.00  0.00    -0.463 A  
HETATM   16  C   UNL     1     -11.794   8.858  71.674  1.00  0.00    -0.415 A  
HETATM   17  C   UNL     1     -10.871   9.105  70.652  1.00  0.00    -0.321 A  
BRANCH  16  18
HETATM   18  C   UNL     1     -11.767   7.605  72.484  1.00  0.00    -0.301 C  
HETATM   19  N   UNL     1     -12.617   6.586  72.149  1.00  0.00    -0.550 N  
HETATM   20  O   UNL     1     -11.004   7.471  73.433  1.00  0.00    -0.380 OA 
HETATM   21  H1  UNL     1     -12.599   5.729  72.702  1.00  0.00     0.000 HD 
HETATM   22  H2  UNL     1     -13.257   6.680  71.361  1.00  0.00     0.000 HD 
ENDBRANCH  16  18
ENDBRANCH   2   4
TORSDOF 2
ENDMDL
MODEL       81
REMARK 921   NORMALIZED FREE ENERGY PREDICTED BY IDOCK:   -4.76 KCAL/MOL
REMARK 922        TOTAL FREE ENERGY PREDICTED BY IDOCK:   -5.43 KCAL/MOL
REMARK 923 INTER-LIGAND FREE ENERGY PREDICTED BY IDOCK:   -5.32 KCAL/MOL
REMARK 924 INTRA-LIGAND FREE ENERGY PREDICTED BY IDOCK:   -0.12 KCAL/MOL
REMARK 927      BINDING AFFINITY PREDICTED BY RF-SCORE:    0.00 PKD
ROOT
HETATM    1  C   UNL     1      -8.841   5.980  67.000  1.00  0.00    -0.113 C  
HETATM    2  N   UNL     1      -9.921   5.627  67.916  1.00  0.00    -0.134 NA 
HETATM    3  H   UNL     1      -9.813   4.671  68.254  1.00  0.00     0.000 HD 
ENDROOT
BRANCH   2   4
HETATM    4  C   UNL     1     -10.055   6.573  69.044  1.00  0.00    -0.165 C  
HETATM    5  C   UNL     1     -11.171   6.069  70.002  1.00  0.00    -0.425 C  
HETATM    6  C   UNL     1     -11.329   6.976  71.243  1.00  0.00    -0.309 C  
HETATM    7  C   UNL     1     -11.404   8.393  70.801  1.00  0.00    -0.265 A  
HETATM    8  C   UNL     1     -10.950   8.873  69.595  1.00  0.00    -0.132 A  
HETATM    9  C   UNL     1     -11.257  10.254  69.537  1.00  0.00    -0.314 A  
HETATM   10  C   UNL     1     -10.336   8.015  68.547  1.00  0.00    -0.229 C  
HETATM   11  C   UNL     1     -11.887  10.588  70.735  1.00  0.00    -0.365 A  
HETATM   12  N   UNL     1     -11.950   9.436  71.499  1.00  0.00    -0.356 NA 
HETATM   13  C   UNL     1     -12.346  11.882  70.996  1.00  0.00    -0.362 A  
HETATM   14  H   UNL     1     -12.342   9.375  72.438  1.00  0.00     0.000 HD 
HETATM   15  C   UNL     1     -12.156  12.849  69.996  1.00  0.00    -0.357 A  
HETATM   16  C   UNL     1     -11.527  12.542  68.782  1.00  0.00    -0.353 A  
HETATM   17  C   UNL     1     -11.072  11.240  68.550  1.00  0.00    -0.288 A  
BRANCH  16  18
HETATM   18  C   UNL     1     -11.375  13.630  67.772  1.00  0.00    -0.306 C  
HETATM   19  N   UNL     1     -12.387  14.540  67.626  1.00  0.00    -0.585 N  
HETATM   20  O   UNL     1     -10.370  13.724  67.078  1.00  0.00    -0.257 OA 
HETATM   21  H1  UNL     1     -12.283  15.283  66.936  1.00  0.00     0.000 HD 
HETATM   22  H2  UNL     1     -13.229  14.477  68.198  1.00  0.00     0.000 HD 
ENDBRANCH  16  18
ENDBRANCH   2   4
TORSDOF 2
ENDMDL
MODEL       82
REMARK 921   NORMALIZED FREE ENERGY PREDICTED BY IDOCK:   -4.75 KCAL/MOL
REMARK 922        TOTAL FREE ENERGY PREDICTED BY IDOCK:   -5.42 KCAL/MOL
REMARK 923 INTER-LIGAND FREE ENERGY PREDICTED BY IDOCK:   -5.28 KCAL/MOL
REMARK 924 INTRA-LIGAND FREE ENERGY PREDICTED BY IDOCK:   -0.15 KCAL/MOL
REMARK 927      BINDING AFFINITY PREDICTED BY RF-SCORE:    0.00 PKD
ROOT
HETATM    1  C   UNL     1      -9.673   7.711  73.521  1.00  0.00    -0.299 C  
HETATM    2  N   UNL     1     -11.104   7.556  73.279  1.00  0.00    -0.556 NA 
HETATM    3  H   UNL     1     -11.635   8.280  73.762  1.00  0.00     0.000 HD 
ENDROOT
BRANCH   2   4
HETATM    4  C   UNL     1     -11.445   7.523  71.841  1.00  0.00    -0.270 C  
HETATM    5  C   UNL     1     -10.816   6.254  71.197  1.00  0.00    -0.320 C  
HETATM    6  C   UNL     1     -11.183   6.116  69.702  1.00  0.00    -0.488 C  
HETATM    7  C   UNL     1     -10.938   7.414  69.022  1.00  0.00    -0.005 A  
HETATM    8  C   UNL     1     -10.861   8.636  69.647  1.00  0.00    -0.163 A  
HETATM    9  C   UNL     1     -10.562   9.607  68.661  1.00  0.00    -0.246 A  
HETATM   10  C   UNL     1     -10.990   8.817  71.117  1.00  0.00    -0.334 C  
HETATM   11  C   UNL     1     -10.477   8.943  67.439  1.00  0.00    -0.277 A  
HETATM   12  N   UNL     1     -10.729   7.605  67.682  1.00  0.00    -0.456 NA 
HETATM   13  C   UNL     1     -10.169   9.612  66.250  1.00  0.00    -0.286 A  
HETATM   14  H   UNL     1     -10.754   6.873  66.973  1.00  0.00     0.000 HD 
HETATM   15  C   UNL     1      -9.938  10.995  66.329  1.00  0.00    -0.269 A  
HETATM   16  C   UNL     1     -10.015  11.689  67.544  1.00  0.00    -0.202 A  
HETATM   17  C   UNL     1     -10.331  10.994  68.717  1.00  0.00    -0.217 A  
BRANCH  16  18
HETATM   18  C   UNL     1      -9.744  13.156  67.536  1.00  0.00    -0.213 C  
HETATM   19  N   UNL     1      -9.745  13.833  68.725  1.00  0.00    -0.400 N  
HETATM   20  O   UNL     1      -9.521  13.761  66.494  1.00  0.00    -0.276 OA 
HETATM   21  H1  UNL     1      -9.560  14.835  68.720  1.00  0.00     0.000 HD 
HETATM   22  H2  UNL     1      -9.927  13.343  69.602  1.00  0.00     0.000 HD 
ENDBRANCH  16  18
ENDBRANCH   2   4
TORSDOF 2
ENDMDL
MODEL       83
REMARK 921   NORMALIZED FREE ENERGY PREDICTED BY IDOCK:   -4.74 KCAL/MOL
REMARK 922        TOTAL FREE ENERGY PREDICTED BY IDOCK:   -5.41 KCAL/MOL
REMARK 923 INTER-LIGAND FREE ENERGY PREDICTED BY IDOCK:   -5.29 KCAL/MOL
REMARK 924 INTRA-LIGAND FREE ENERGY PREDICTED BY IDOCK:   -0.12 KCAL/MOL
REMARK 927      BINDING AFFINITY PREDICTED BY RF-SCORE:    0.00 PKD
ROOT
HETATM    1  C   UNL     1     -11.311   6.439  69.712  1.00  0.00    -0.427 C  
HETATM    2  N   UNL     1     -11.122   6.880  68.334  1.00  0.00    -0.496 NA 
HETATM    3  H   UNL     1     -12.011   7.147  67.912  1.00  0.00     0.000 HD 
ENDROOT
BRANCH   2   4
HETATM    4  C   UNL     1     -10.130   7.968  68.206  1.00  0.00    -0.196 C  
HETATM    5  C   UNL     1      -9.504   8.253  69.601  1.00  0.00    -0.163 C  
HETATM    6  C   UNL     1      -8.407   9.340  69.538  1.00  0.00    -0.131 C  
HETATM    7  C   UNL     1      -8.925  10.506  68.777  1.00  0.00    -0.166 A  
HETATM    8  C   UNL     1      -9.976  10.472  67.890  1.00  0.00    -0.193 A  
HETATM    9  C   UNL     1     -10.190  11.792  67.423  1.00  0.00    -0.220 A  
HETATM   10  C   UNL     1     -10.760   9.245  67.591  1.00  0.00    -0.276 C  
HETATM   11  C   UNL     1      -9.240  12.607  68.037  1.00  0.00    -0.208 A  
HETATM   12  N   UNL     1      -8.467  11.794  68.847  1.00  0.00    -0.368 NA 
HETATM   13  C   UNL     1      -9.187  13.985  67.811  1.00  0.00    -0.195 A  
HETATM   14  H   UNL     1      -7.676  12.107  69.410  1.00  0.00     0.000 HD 
HETATM   15  C   UNL     1     -10.140  14.534  66.938  1.00  0.00    -0.257 A  
HETATM   16  C   UNL     1     -11.108  13.740  66.308  1.00  0.00    -0.302 A  
HETATM   17  C   UNL     1     -11.133  12.361  66.548  1.00  0.00    -0.346 A  
BRANCH  16  18
HETATM   18  C   UNL     1     -12.088  14.408  65.403  1.00  0.00    -0.364 C  
HETATM   19  N   UNL     1     -13.410  14.066  65.496  1.00  0.00    -0.592 N  
HETATM   20  O   UNL     1     -11.735  15.251  64.587  1.00  0.00    -0.392 OA 
HETATM   21  H1  UNL     1     -14.080  14.523  64.878  1.00  0.00     0.000 HD 
HETATM   22  H2  UNL     1     -13.721  13.368  66.172  1.00  0.00     0.000 HD 
ENDBRANCH  16  18
ENDBRANCH   2   4
TORSDOF 2
ENDMDL
MODEL       84
REMARK 921   NORMALIZED FREE ENERGY PREDICTED BY IDOCK:   -4.74 KCAL/MOL
REMARK 922        TOTAL FREE ENERGY PREDICTED BY IDOCK:   -5.41 KCAL/MOL
REMARK 923 INTER-LIGAND FREE ENERGY PREDICTED BY IDOCK:   -5.28 KCAL/MOL
REMARK 924 INTRA-LIGAND FREE ENERGY PREDICTED BY IDOCK:   -0.13 KCAL/MOL
REMARK 927      BINDING AFFINITY PREDICTED BY RF-SCORE:    0.00 PKD
ROOT
HETATM    1  C   UNL     1      -8.256   7.890  71.155  1.00  0.00    -0.107 C  
HETATM    2  N   UNL     1      -9.651   7.469  71.061  1.00  0.00    -0.161 NA 
HETATM    3  H   UNL     1     -10.133   7.605  71.949  1.00  0.00     0.000 HD 
ENDROOT
BRANCH   2   4
HETATM    4  C   UNL     1     -10.379   8.130  69.958  1.00  0.00    -0.215 C  
HETATM    5  C   UNL     1      -9.531   8.035  68.657  1.00  0.00    -0.147 C  
HETATM    6  C   UNL     1     -10.257   8.652  67.440  1.00  0.00    -0.329 C  
HETATM    7  C   UNL     1     -10.776   9.993  67.815  1.00  0.00    -0.280 A  
HETATM    8  C   UNL     1     -11.003  10.426  69.100  1.00  0.00    -0.285 A  
HETATM    9  C   UNL     1     -11.440  11.771  69.032  1.00  0.00    -0.358 A  
HETATM   10  C   UNL     1     -10.729   9.601  70.306  1.00  0.00    -0.335 C  
HETATM   11  C   UNL     1     -11.482  12.124  67.684  1.00  0.00    -0.331 A  
HETATM   12  N   UNL     1     -11.089  11.014  66.958  1.00  0.00    -0.279 NA 
HETATM   13  C   UNL     1     -11.854  13.404  67.263  1.00  0.00    -0.422 A  
HETATM   14  H   UNL     1     -11.039  10.964  65.941  1.00  0.00     0.000 HD 
HETATM   15  C   UNL     1     -12.182  14.341  68.257  1.00  0.00    -0.181 A  
HETATM   16  C   UNL     1     -12.147  14.015  69.619  1.00  0.00    -0.408 A  
HETATM   17  C   UNL     1     -11.777  12.723  70.011  1.00  0.00    -0.282 A  
BRANCH  16  18
HETATM   18  C   UNL     1     -12.501  15.075  70.607  1.00  0.00    -0.365 C  
HETATM   19  N   UNL     1     -13.552  15.908  70.332  1.00  0.00    -0.460 N  
HETATM   20  O   UNL     1     -11.877  15.212  71.653  1.00  0.00    -0.333 OA 
HETATM   21  H1  UNL     1     -13.795  16.632  71.007  1.00  0.00     0.000 HD 
HETATM   22  H2  UNL     1     -14.083  15.806  69.467  1.00  0.00     0.000 HD 
ENDBRANCH  16  18
ENDBRANCH   2   4
TORSDOF 2
ENDMDL
MODEL       85
REMARK 921   NORMALIZED FREE ENERGY PREDICTED BY IDOCK:   -4.73 KCAL/MOL
REMARK 922        TOTAL FREE ENERGY PREDICTED BY IDOCK:   -5.40 KCAL/MOL
REMARK 923 INTER-LIGAND FREE ENERGY PREDICTED BY IDOCK:   -5.28 KCAL/MOL
REMARK 924 INTRA-LIGAND FREE ENERGY PREDICTED BY IDOCK:   -0.13 KCAL/MOL
REMARK 927      BINDING AFFINITY PREDICTED BY RF-SCORE:    0.00 PKD
ROOT
HETATM    1  C   UNL     1     -12.077  14.392  64.381  1.00  0.00    -0.470 C  
HETATM    2  N   UNL     1     -11.664  13.921  65.699  1.00  0.00    -0.341 NA 
HETATM    3  H   UNL     1     -12.474  13.677  66.269  1.00  0.00     0.000 HD 
ENDROOT
BRANCH   2   4
HETATM    4  C   UNL     1     -10.705  12.799  65.638  1.00  0.00    -0.273 C  
HETATM    5  C   UNL     1     -10.844  12.083  64.264  1.00  0.00    -0.389 C  
HETATM    6  C   UNL     1      -9.827  10.932  64.099  1.00  0.00    -0.369 C  
HETATM    7  C   UNL     1      -9.861  10.078  65.315  1.00  0.00    -0.318 A  
HETATM    8  C   UNL     1     -10.334  10.468  66.546  1.00  0.00    -0.294 A  
HETATM    9  C   UNL     1     -10.245   9.353  67.415  1.00  0.00    -0.298 A  
HETATM   10  C   UNL     1     -10.905  11.812  66.819  1.00  0.00    -0.312 C  
HETATM   11  C   UNL     1      -9.700   8.300  66.682  1.00  0.00    -0.251 A  
HETATM   12  N   UNL     1      -9.457   8.773  65.405  1.00  0.00    -0.449 NA 
HETATM   13  C   UNL     1      -9.497   7.035  67.240  1.00  0.00    -0.165 A  
HETATM   14  H   UNL     1      -9.040   8.233  64.648  1.00  0.00     0.000 HD 
HETATM   15  C   UNL     1      -9.873   6.852  68.581  1.00  0.00    -0.145 A  
HETATM   16  C   UNL     1     -10.426   7.892  69.341  1.00  0.00    -0.222 A  
HETATM   17  C   UNL     1     -10.611   9.150  68.758  1.00  0.00    -0.208 A  
BRANCH  16  18
HETATM   18  C   UNL     1     -10.805   7.606  70.755  1.00  0.00    -0.239 C  
HETATM   19  N   UNL     1     -10.964   8.655  71.620  1.00  0.00    -0.283 N  
HETATM   20  O   UNL     1     -10.978   6.460  71.154  1.00  0.00    -0.251 OA 
HETATM   21  H1  UNL     1     -11.224   8.460  72.586  1.00  0.00     0.000 HD 
HETATM   22  H2  UNL     1     -10.826   9.615  71.304  1.00  0.00     0.000 HD 
ENDBRANCH  16  18
ENDBRANCH   2   4
TORSDOF 2
ENDMDL
MODEL       86
REMARK 921   NORMALIZED FREE ENERGY PREDICTED BY IDOCK:   -4.73 KCAL/MOL
REMARK 922        TOTAL FREE ENERGY PREDICTED BY IDOCK:   -5.39 KCAL/MOL
REMARK 923 INTER-LIGAND FREE ENERGY PREDICTED BY IDOCK:   -5.30 KCAL/MOL
REMARK 924 INTRA-LIGAND FREE ENERGY PREDICTED BY IDOCK:   -0.10 KCAL/MOL
REMARK 927      BINDING AFFINITY PREDICTED BY RF-SCORE:    0.00 PKD
ROOT
HETATM    1  C   UNL     1     -14.023   9.024  71.863  1.00  0.00    -0.387 C  
HETATM    2  N   UNL     1     -12.580   8.908  72.049  1.00  0.00    -0.366 NA 
HETATM    3  H   UNL     1     -12.285   9.374  72.907  1.00  0.00     0.000 HD 
ENDROOT
BRANCH   2   4
HETATM    4  C   UNL     1     -12.105   7.509  72.017  1.00  0.00    -0.291 C  
HETATM    5  C   UNL     1     -10.914   7.352  73.006  1.00  0.00    -0.422 C  
HETATM    6  C   UNL     1     -10.400   5.897  73.075  1.00  0.00    -0.225 C  
HETATM    7  C   UNL     1     -10.205   5.386  71.693  1.00  0.00    -0.209 A  
HETATM    8  C   UNL     1     -10.801   5.901  70.565  1.00  0.00    -0.366 A  
HETATM    9  C   UNL     1     -10.314   5.175  69.451  1.00  0.00    -0.265 A  
HETATM   10  C   UNL     1     -11.715   7.072  70.580  1.00  0.00    -0.384 C  
HETATM   11  C   UNL     1      -9.431   4.212  69.938  1.00  0.00    -0.195 A  
HETATM   12  N   UNL     1      -9.395   4.350  71.314  1.00  0.00    -0.137 NA 
HETATM   13  C   UNL     1      -8.751   3.333  69.091  1.00  0.00    -0.134 A  
HETATM   14  H   UNL     1      -8.848   3.768  71.949  1.00  0.00     0.000 HD 
HETATM   15  C   UNL     1      -8.982   3.456  67.711  1.00  0.00    -0.177 A  
HETATM   16  C   UNL     1      -9.862   4.415  67.193  1.00  0.00    -0.217 A  
HETATM   17  C   UNL     1     -10.536   5.278  68.065  1.00  0.00    -0.143 A  
BRANCH  16  18
HETATM   18  C   UNL     1     -10.040   4.482  65.713  1.00  0.00    -0.255 C  
HETATM   19  N   UNL     1     -11.307   4.598  65.206  1.00  0.00    -0.982 N  
HETATM   20  O   UNL     1      -9.083   4.437  64.950  1.00  0.00    -0.140 OA 
HETATM   21  H1  UNL     1     -11.428   4.644  64.195  1.00  0.00     0.000 HD 
HETATM   22  H2  UNL     1     -12.114   4.638  65.828  1.00  0.00     0.000 HD 
ENDBRANCH  16  18
ENDBRANCH   2   4
TORSDOF 2
ENDMDL
MODEL       87
REMARK 921   NORMALIZED FREE ENERGY PREDICTED BY IDOCK:   -4.73 KCAL/MOL
REMARK 922        TOTAL FREE ENERGY PREDICTED BY IDOCK:   -5.39 KCAL/MOL
REMARK 923 INTER-LIGAND FREE ENERGY PREDICTED BY IDOCK:   -5.28 KCAL/MOL
REMARK 924 INTRA-LIGAND FREE ENERGY PREDICTED BY IDOCK:   -0.12 KCAL/MOL
REMARK 927      BINDING AFFINITY PREDICTED BY RF-SCORE:    0.00 PKD
ROOT
HETATM    1  C   UNL     1      -9.768   4.581  70.814  1.00  0.00    -0.197 C  
HETATM    2  N   UNL     1     -10.107   5.992  70.662  1.00  0.00    -0.187 NA 
HETATM    3  H   UNL     1      -9.413   6.584  71.118  1.00  0.00     0.000 HD 
ENDROOT
BRANCH   2   4
HETATM    4  C   UNL     1     -10.295   6.392  69.252  1.00  0.00    -0.207 C  
HETATM    5  C   UNL     1      -9.023   6.016  68.440  1.00  0.00    -0.114 C  
HETATM    6  C   UNL     1      -9.169   6.348  66.938  1.00  0.00    -0.144 C  
HETATM    7  C   UNL     1      -9.677   7.737  66.796  1.00  0.00    -0.227 A  
HETATM    8  C   UNL     1     -10.344   8.442  67.771  1.00  0.00    -0.297 A  
HETATM    9  C   UNL     1     -10.605   9.738  67.264  1.00  0.00    -0.320 A  
HETATM   10  C   UNL     1     -10.626   7.903  69.127  1.00  0.00    -0.184 C  
HETATM   11  C   UNL     1     -10.095   9.785  65.968  1.00  0.00    -0.251 A  
HETATM   12  N   UNL     1      -9.548   8.544  65.698  1.00  0.00    -0.444 NA 
HETATM   13  C   UNL     1     -10.166  10.941  65.184  1.00  0.00    -0.360 A  
HETATM   14  H   UNL     1      -9.115   8.271  64.816  1.00  0.00     0.000 HD 
HETATM   15  C   UNL     1     -10.771  12.072  65.755  1.00  0.00    -0.319 A  
HETATM   16  C   UNL     1     -11.291  12.054  67.056  1.00  0.00    -0.396 A  
HETATM   17  C   UNL     1     -11.212  10.882  67.815  1.00  0.00    -0.384 A  
BRANCH  16  18
HETATM   18  C   UNL     1     -11.907  13.305  67.586  1.00  0.00    -0.357 C  
HETATM   19  N   UNL     1     -12.338  14.255  66.700  1.00  0.00    -0.541 N  
HETATM   20  O   UNL     1     -12.037  13.496  68.790  1.00  0.00    -0.344 OA 
HETATM   21  H1  UNL     1     -12.759  15.110  67.062  1.00  0.00     0.000 HD 
HETATM   22  H2  UNL     1     -12.239  14.111  65.695  1.00  0.00     0.000 HD 
ENDBRANCH  16  18
ENDBRANCH   2   4
TORSDOF 2
ENDMDL
MODEL       88
REMARK 921   NORMALIZED FREE ENERGY PREDICTED BY IDOCK:   -4.72 KCAL/MOL
REMARK 922        TOTAL FREE ENERGY PREDICTED BY IDOCK:   -5.38 KCAL/MOL
REMARK 923 INTER-LIGAND FREE ENERGY PREDICTED BY IDOCK:   -5.25 KCAL/MOL
REMARK 924 INTRA-LIGAND FREE ENERGY PREDICTED BY IDOCK:   -0.13 KCAL/MOL
REMARK 927      BINDING AFFINITY PREDICTED BY RF-SCORE:    0.00 PKD
ROOT
HETATM    1  C   UNL     1      -9.106  16.259  65.841  1.00  0.00    -0.211 C  
HETATM    2  N   UNL     1     -10.445  16.149  65.270  1.00  0.00    -0.572 NA 
HETATM    3  H   UNL     1     -10.418  16.252  64.255  1.00  0.00     0.000 HD 
ENDROOT
BRANCH   2   4
HETATM    4  C   UNL     1     -11.136  14.901  65.655  1.00  0.00    -0.348 C  
HETATM    5  C   UNL     1     -11.482  14.956  67.170  1.00  0.00    -0.344 C  
HETATM    6  C   UNL     1     -12.265  13.708  67.637  1.00  0.00    -0.224 C  
HETATM    7  C   UNL     1     -11.571  12.490  67.144  1.00  0.00    -0.368 A  
HETATM    8  C   UNL     1     -10.689  12.450  66.090  1.00  0.00    -0.292 A  
HETATM    9  C   UNL     1     -10.209  11.122  65.978  1.00  0.00    -0.300 A  
HETATM   10  C   UNL     1     -10.288  13.649  65.308  1.00  0.00    -0.362 C  
HETATM   11  C   UNL     1     -10.833  10.373  66.974  1.00  0.00    -0.203 A  
HETATM   12  N   UNL     1     -11.675  11.227  67.663  1.00  0.00    -0.605 NA 
HETATM   13  C   UNL     1     -10.563   9.014  67.159  1.00  0.00    -0.291 A  
HETATM   14  H   UNL     1     -12.279  10.958  68.439  1.00  0.00     0.000 HD 
HETATM   15  C   UNL     1      -9.624   8.419  66.300  1.00  0.00    -0.286 A  
HETATM   16  C   UNL     1      -8.980   9.148  65.291  1.00  0.00    -0.246 A  
HETATM   17  C   UNL     1      -9.275  10.506  65.125  1.00  0.00    -0.243 A  
BRANCH  16  18
HETATM   18  C   UNL     1      -7.990   8.439  64.431  1.00  0.00    -0.148 C  
HETATM   19  N   UNL     1      -6.894   7.868  65.020  1.00  0.00    -0.051 N  
HETATM   20  O   UNL     1      -8.138   8.356  63.217  1.00  0.00    -0.159 OA 
HETATM   21  H1  UNL     1      -6.217   7.383  64.432  1.00  0.00     0.000 HD 
HETATM   22  H2  UNL     1      -6.757   7.927  66.029  1.00  0.00     0.000 HD 
ENDBRANCH  16  18
ENDBRANCH   2   4
TORSDOF 2
ENDMDL
MODEL       89
REMARK 921   NORMALIZED FREE ENERGY PREDICTED BY IDOCK:   -4.68 KCAL/MOL
REMARK 922        TOTAL FREE ENERGY PREDICTED BY IDOCK:   -5.34 KCAL/MOL
REMARK 923 INTER-LIGAND FREE ENERGY PREDICTED BY IDOCK:   -5.21 KCAL/MOL
REMARK 924 INTRA-LIGAND FREE ENERGY PREDICTED BY IDOCK:   -0.14 KCAL/MOL
REMARK 927      BINDING AFFINITY PREDICTED BY RF-SCORE:    0.00 PKD
ROOT
HETATM    1  C   UNL     1      -9.932  11.221  66.096  1.00  0.00    -0.228 C  
HETATM    2  N   UNL     1      -8.701  11.803  66.624  1.00  0.00    -0.187 NA 
HETATM    3  H   UNL     1      -8.689  12.813  66.488  1.00  0.00     0.000 HD 
ENDROOT
BRANCH   2   4
HETATM    4  C   UNL     1      -8.461  11.457  68.040  1.00  0.00    -0.145 C  
HETATM    5  C   UNL     1      -7.212  10.535  68.136  1.00  0.00    -0.087 C  
HETATM    6  C   UNL     1      -6.858  10.180  69.597  1.00  0.00    -0.087 C  
HETATM    7  C   UNL     1      -8.089   9.728  70.297  1.00  0.00    -0.154 A  
HETATM    8  C   UNL     1      -9.375  10.010  69.902  1.00  0.00    -0.207 A  
HETATM    9  C   UNL     1     -10.255   9.353  70.796  1.00  0.00    -0.368 A  
HETATM   10  C   UNL     1      -9.708  10.798  68.686  1.00  0.00    -0.187 C  
HETATM   11  C   UNL     1      -9.469   8.689  71.736  1.00  0.00    -0.284 A  
HETATM   12  N   UNL     1      -8.147   8.948  71.420  1.00  0.00    -0.265 NA 
HETATM   13  C   UNL     1     -10.028   7.917  72.759  1.00  0.00    -0.348 A  
HETATM   14  H   UNL     1      -7.341   8.610  71.944  1.00  0.00     0.000 HD 
HETATM   15  C   UNL     1     -11.428   7.824  72.806  1.00  0.00    -0.415 A  
HETATM   16  C   UNL     1     -12.244   8.479  71.873  1.00  0.00    -0.411 A  
HETATM   17  C   UNL     1     -11.657   9.251  70.864  1.00  0.00    -0.364 A  
BRANCH  16  18
HETATM   18  C   UNL     1     -13.722   8.317  71.993  1.00  0.00    -0.337 C  
HETATM   19  N   UNL     1     -14.334   7.314  71.291  1.00  0.00    -0.530 N  
HETATM   20  O   UNL     1     -14.393   9.057  72.702  1.00  0.00    -0.603 OA 
HETATM   21  H1  UNL     1     -15.344   7.203  71.372  1.00  0.00     0.000 HD 
HETATM   22  H2  UNL     1     -13.790   6.688  70.697  1.00  0.00     0.000 HD 
ENDBRANCH  16  18
ENDBRANCH   2   4
TORSDOF 2
ENDMDL
MODEL       90
REMARK 921   NORMALIZED FREE ENERGY PREDICTED BY IDOCK:   -4.67 KCAL/MOL
REMARK 922        TOTAL FREE ENERGY PREDICTED BY IDOCK:   -5.33 KCAL/MOL
REMARK 923 INTER-LIGAND FREE ENERGY PREDICTED BY IDOCK:   -5.18 KCAL/MOL
REMARK 924 INTRA-LIGAND FREE ENERGY PREDICTED BY IDOCK:   -0.15 KCAL/MOL
REMARK 927      BINDING AFFINITY PREDICTED BY RF-SCORE:    0.00 PKD
ROOT
HETATM    1  C   UNL     1     -10.803   8.140  70.786  1.00  0.00    -0.228 C  
HETATM    2  N   UNL     1     -11.176   9.281  71.616  1.00  0.00    -0.370 NA 
HETATM    3  H   UNL     1     -10.638   9.293  72.482  1.00  0.00     0.000 HD 
ENDROOT
BRANCH   2   4
HETATM    4  C   UNL     1     -11.062  10.573  70.907  1.00  0.00     0.158 C  
HETATM    5  C   UNL     1     -12.406  11.345  71.034  1.00  0.00    -0.448 C  
HETATM    6  C   UNL     1     -12.345  12.738  70.368  1.00  0.00    -0.324 C  
HETATM    7  C   UNL     1     -11.770  12.598  69.005  1.00  0.00    -0.318 A  
HETATM    8  C   UNL     1     -10.999  11.544  68.573  1.00  0.00    -0.268 A  
HETATM    9  C   UNL     1     -10.700  11.761  67.206  1.00  0.00    -0.279 A  
HETATM   10  C   UNL     1     -10.655  10.375  69.423  1.00  0.00    -0.267 C  
HETATM   11  C   UNL     1     -11.295  12.967  66.838  1.00  0.00    -0.312 A  
HETATM   12  N   UNL     1     -11.929  13.469  67.961  1.00  0.00    -0.356 NA 
HETATM   13  C   UNL     1     -11.212  13.468  65.536  1.00  0.00    -0.304 A  
HETATM   14  H   UNL     1     -12.436  14.352  68.003  1.00  0.00     0.000 HD 
HETATM   15  C   UNL     1     -10.506  12.704  64.593  1.00  0.00    -0.361 A  
HETATM   16  C   UNL     1      -9.900  11.487  64.933  1.00  0.00    -0.289 A  
HETATM   17  C   UNL     1      -9.993  11.013  66.247  1.00  0.00    -0.269 A  
BRANCH  16  18
HETATM   18  C   UNL     1      -9.178  10.736  63.866  1.00  0.00    -0.235 C  
HETATM   19  N   UNL     1      -8.913  11.367  62.680  1.00  0.00    -0.490 N  
HETATM   20  O   UNL     1      -8.818   9.576  64.029  1.00  0.00    -0.216 OA 
HETATM   21  H1  UNL     1      -8.420  10.854  61.950  1.00  0.00     0.000 HD 
HETATM   22  H2  UNL     1      -9.204  12.333  62.529  1.00  0.00     0.000 HD 
ENDBRANCH  16  18
ENDBRANCH   2   4
TORSDOF 2
ENDMDL
MODEL       91
REMARK 921   NORMALIZED FREE ENERGY PREDICTED BY IDOCK:   -4.65 KCAL/MOL
REMARK 922        TOTAL FREE ENERGY PREDICTED BY IDOCK:   -5.31 KCAL/MOL
REMARK 923 INTER-LIGAND FREE ENERGY PREDICTED BY IDOCK:   -5.16 KCAL/MOL
REMARK 924 INTRA-LIGAND FREE ENERGY PREDICTED BY IDOCK:   -0.14 KCAL/MOL
REMARK 927      BINDING AFFINITY PREDICTED BY RF-SCORE:    0.00 PKD
ROOT
HETATM    1  C   UNL     1     -10.491   4.649  65.672  1.00  0.00    -0.227 C  
HETATM    2  N   UNL     1      -9.784   3.573  66.360  1.00  0.00    -0.402 NA 
HETATM    3  H   UNL     1      -9.002   3.235  65.800  1.00  0.00     0.000 HD 
ENDROOT
BRANCH   2   4
HETATM    4  C   UNL     1      -9.338   3.951  67.717  1.00  0.00    -0.183 C  
HETATM    5  C   UNL     1      -9.509   2.732  68.668  1.00  0.00    -0.191 C  
HETATM    6  C   UNL     1      -9.003   3.031  70.098  1.00  0.00    -0.170 C  
HETATM    7  C   UNL     1      -9.570   4.328  70.550  1.00  0.00    -0.197 A  
HETATM    8  C   UNL     1     -10.056   5.314  69.723  1.00  0.00    -0.334 A  
HETATM    9  C   UNL     1     -10.554   6.357  70.542  1.00  0.00    -0.291 A  
HETATM   10  C   UNL     1     -10.101   5.196  68.242  1.00  0.00    -0.199 C  
HETATM   11  C   UNL     1     -10.342   5.980  71.867  1.00  0.00    -0.209 A  
HETATM   12  N   UNL     1      -9.723   4.743  71.846  1.00  0.00    -0.156 NA 
HETATM   13  C   UNL     1     -10.742   6.781  72.939  1.00  0.00    -0.291 A  
HETATM   14  H   UNL     1      -9.426   4.220  72.669  1.00  0.00     0.000 HD 
HETATM   15  C   UNL     1     -11.380   7.995  72.636  1.00  0.00    -0.469 A  
HETATM   16  C   UNL     1     -11.608   8.399  71.314  1.00  0.00    -0.326 A  
HETATM   17  C   UNL     1     -11.191   7.579  70.259  1.00  0.00    -0.253 A  
BRANCH  16  18
HETATM   18  C   UNL     1     -12.302   9.700  71.083  1.00  0.00    -0.339 C  
HETATM   19  N   UNL     1     -12.167  10.312  69.867  1.00  0.00    -0.497 N  
HETATM   20  O   UNL     1     -12.985  10.224  71.955  1.00  0.00    -0.427 OA 
HETATM   21  H1  UNL     1     -12.641  11.201  69.710  1.00  0.00     0.000 HD 
HETATM   22  H2  UNL     1     -11.603   9.888  69.131  1.00  0.00     0.000 HD 
ENDBRANCH  16  18
ENDBRANCH   2   4
TORSDOF 2
ENDMDL
MODEL       92
REMARK 921   NORMALIZED FREE ENERGY PREDICTED BY IDOCK:   -4.59 KCAL/MOL
REMARK 922        TOTAL FREE ENERGY PREDICTED BY IDOCK:   -5.24 KCAL/MOL
REMARK 923 INTER-LIGAND FREE ENERGY PREDICTED BY IDOCK:   -5.14 KCAL/MOL
REMARK 924 INTRA-LIGAND FREE ENERGY PREDICTED BY IDOCK:   -0.10 KCAL/MOL
REMARK 927      BINDING AFFINITY PREDICTED BY RF-SCORE:    0.00 PKD
ROOT
HETATM    1  C   UNL     1     -13.319  12.130  72.218  1.00  0.00    -0.211 C  
HETATM    2  N   UNL     1     -12.406  12.289  71.090  1.00  0.00    -0.308 NA 
HETATM    3  H   UNL     1     -11.522  12.698  71.392  1.00  0.00     0.000 HD 
ENDROOT
BRANCH   2   4
HETATM    4  C   UNL     1     -12.179  11.031  70.349  1.00  0.00    -0.373 C  
HETATM    5  C   UNL     1     -11.224  10.119  71.171  1.00  0.00    -0.244 C  
HETATM    6  C   UNL     1     -10.987   8.753  70.488  1.00  0.00    -0.272 C  
HETATM    7  C   UNL     1     -10.644   8.980  69.060  1.00  0.00    -0.190 A  
HETATM    8  C   UNL     1     -10.936  10.117  68.344  1.00  0.00    -0.293 A  
HETATM    9  C   UNL     1     -10.394   9.961  67.045  1.00  0.00    -0.303 A  
HETATM   10  C   UNL     1     -11.625  11.300  68.925  1.00  0.00    -0.386 C  
HETATM   11  C   UNL     1      -9.788   8.707  66.999  1.00  0.00    -0.220 A  
HETATM   12  N   UNL     1      -9.970   8.118  68.238  1.00  0.00    -0.180 NA 
HETATM   13  C   UNL     1      -9.130   8.242  65.856  1.00  0.00    -0.203 A  
HETATM   14  H   UNL     1      -9.650   7.186  68.498  1.00  0.00     0.000 HD 
HETATM   15  C   UNL     1      -9.092   9.095  64.741  1.00  0.00    -0.157 A  
HETATM   16  C   UNL     1      -9.691  10.362  64.760  1.00  0.00    -0.383 A  
HETATM   17  C   UNL     1     -10.349  10.798  65.915  1.00  0.00    -0.302 A  
BRANCH  16  18
HETATM   18  C   UNL     1      -9.594  11.205  63.533  1.00  0.00    -0.315 C  
HETATM   19  N   UNL     1     -10.691  11.922  63.138  1.00  0.00    -0.680 N  
HETATM   20  O   UNL     1      -8.559  11.270  62.880  1.00  0.00    -0.124 OA 
HETATM   21  H1  UNL     1     -10.625  12.499  62.299  1.00  0.00     0.000 HD 
HETATM   22  H2  UNL     1     -11.559  11.881  63.671  1.00  0.00     0.000 HD 
ENDBRANCH  16  18
ENDBRANCH   2   4
TORSDOF 2
ENDMDL
MODEL       93
REMARK 921   NORMALIZED FREE ENERGY PREDICTED BY IDOCK:   -4.57 KCAL/MOL
REMARK 922        TOTAL FREE ENERGY PREDICTED BY IDOCK:   -5.22 KCAL/MOL
REMARK 923 INTER-LIGAND FREE ENERGY PREDICTED BY IDOCK:   -5.10 KCAL/MOL
REMARK 924 INTRA-LIGAND FREE ENERGY PREDICTED BY IDOCK:   -0.12 KCAL/MOL
REMARK 927      BINDING AFFINITY PREDICTED BY RF-SCORE:    0.00 PKD
ROOT
HETATM    1  C   UNL     1      -6.697   9.271  68.773  1.00  0.00    -0.053 C  
HETATM    2  N   UNL     1      -6.369  10.462  69.551  1.00  0.00    -0.052 NA 
HETATM    3  H   UNL     1      -5.494  10.335  70.059  1.00  0.00     0.000 HD 
ENDROOT
BRANCH   2   4
HETATM    4  C   UNL     1      -6.331  11.692  68.734  1.00  0.00    -0.056 C  
HETATM    5  C   UNL     1      -6.012  12.906  69.653  1.00  0.00    -0.120 C  
HETATM    6  C   UNL     1      -5.894  14.226  68.859  1.00  0.00    -0.086 C  
HETATM    7  C   UNL     1      -7.065  14.352  67.952  1.00  0.00    -0.159 A  
HETATM    8  C   UNL     1      -7.857  13.310  67.530  1.00  0.00    -0.173 A  
HETATM    9  C   UNL     1      -8.892  13.853  66.729  1.00  0.00    -0.170 A  
HETATM   10  C   UNL     1      -7.656  11.900  67.954  1.00  0.00    -0.128 C  
HETATM   11  C   UNL     1      -8.691  15.231  66.672  1.00  0.00    -0.291 A  
HETATM   12  N   UNL     1      -7.557  15.510  67.413  1.00  0.00    -0.182 NA 
HETATM   13  C   UNL     1      -9.556  16.079  65.975  1.00  0.00    -0.385 A  
HETATM   14  H   UNL     1      -7.150  16.437  67.539  1.00  0.00     0.000 HD 
HETATM   15  C   UNL     1     -10.655  15.490  65.328  1.00  0.00    -0.446 A  
HETATM   16  C   UNL     1     -10.883  14.108  65.370  1.00  0.00    -0.341 A  
HETATM   17  C   UNL     1      -9.997  13.283  66.070  1.00  0.00    -0.297 A  
BRANCH  16  18
HETATM   18  C   UNL     1     -12.081  13.570  64.663  1.00  0.00    -0.409 C  
HETATM   19  N   UNL     1     -12.511  14.195  63.523  1.00  0.00    -1.106 N  
HETATM   20  O   UNL     1     -12.683  12.586  65.078  1.00  0.00    -0.649 OA 
HETATM   21  H1  UNL     1     -13.330  13.827  63.040  1.00  0.00     0.000 HD 
HETATM   22  H2  UNL     1     -12.021  15.013  63.163  1.00  0.00     0.000 HD 
ENDBRANCH  16  18
ENDBRANCH   2   4
TORSDOF 2
ENDMDL
MODEL       94
REMARK 921   NORMALIZED FREE ENERGY PREDICTED BY IDOCK:   -4.56 KCAL/MOL
REMARK 922        TOTAL FREE ENERGY PREDICTED BY IDOCK:   -5.21 KCAL/MOL
REMARK 923 INTER-LIGAND FREE ENERGY PREDICTED BY IDOCK:   -5.09 KCAL/MOL
REMARK 924 INTRA-LIGAND FREE ENERGY PREDICTED BY IDOCK:   -0.11 KCAL/MOL
REMARK 927      BINDING AFFINITY PREDICTED BY RF-SCORE:    0.00 PKD
ROOT
HETATM    1  C   UNL     1     -10.044  14.984  65.359  1.00  0.00    -0.362 C  
HETATM    2  N   UNL     1     -10.373  13.594  65.060  1.00  0.00    -0.426 NA 
HETATM    3  H   UNL     1      -9.546  13.082  64.756  1.00  0.00     0.000 HD 
ENDROOT
BRANCH   2   4
HETATM    4  C   UNL     1     -11.038  12.904  66.184  1.00  0.00    -0.286 C  
HETATM    5  C   UNL     1     -10.604  13.570  67.521  1.00  0.00    -0.247 C  
HETATM    6  C   UNL     1     -11.308  12.940  68.744  1.00  0.00    -0.333 C  
HETATM    7  C   UNL     1     -11.198  11.461  68.657  1.00  0.00    -0.243 A  
HETATM    8  C   UNL     1     -10.951  10.749  67.507  1.00  0.00    -0.372 A  
HETATM    9  C   UNL     1     -10.866   9.380  67.857  1.00  0.00    -0.215 A  
HETATM   10  C   UNL     1     -10.733  11.382  66.180  1.00  0.00    -0.320 C  
HETATM   11  C   UNL     1     -11.080   9.290  69.231  1.00  0.00    -0.009 A  
HETATM   12  N   UNL     1     -11.299  10.574  69.695  1.00  0.00    -0.261 NA 
HETATM   13  C   UNL     1     -11.040   8.069  69.910  1.00  0.00    -0.108 A  
HETATM   14  H   UNL     1     -11.504  10.823  70.663  1.00  0.00     0.000 HD 
HETATM   15  C   UNL     1     -10.766   6.918  69.153  1.00  0.00    -0.262 A  
HETATM   16  C   UNL     1     -10.544   6.978  67.771  1.00  0.00    -0.298 A  
HETATM   17  C   UNL     1     -10.597   8.214  67.116  1.00  0.00    -0.355 A  
BRANCH  16  18
HETATM   18  C   UNL     1     -10.250   5.707  67.048  1.00  0.00    -0.222 C  
HETATM   19  N   UNL     1     -10.862   5.475  65.846  1.00  0.00    -0.644 N  
HETATM   20  O   UNL     1      -9.475   4.874  67.505  1.00  0.00    -0.127 OA 
HETATM   21  H1  UNL     1     -10.660   4.606  65.352  1.00  0.00     0.000 HD 
HETATM   22  H2  UNL     1     -11.507   6.158  65.451  1.00  0.00     0.000 HD 
ENDBRANCH  16  18
ENDBRANCH   2   4
TORSDOF 2
ENDMDL
MODEL       95
REMARK 921   NORMALIZED FREE ENERGY PREDICTED BY IDOCK:   -4.52 KCAL/MOL
REMARK 922        TOTAL FREE ENERGY PREDICTED BY IDOCK:   -5.17 KCAL/MOL
REMARK 923 INTER-LIGAND FREE ENERGY PREDICTED BY IDOCK:   -5.04 KCAL/MOL
REMARK 924 INTRA-LIGAND FREE ENERGY PREDICTED BY IDOCK:   -0.12 KCAL/MOL
REMARK 927      BINDING AFFINITY PREDICTED BY RF-SCORE:    0.00 PKD
ROOT
HETATM    1  C   UNL     1      -9.681  20.553  67.002  1.00  0.00    -0.408 C  
HETATM    2  N   UNL     1     -10.169  20.050  68.283  1.00  0.00    -0.430 NA 
HETATM    3  H   UNL     1     -11.166  19.840  68.236  1.00  0.00     0.000 HD 
ENDROOT
BRANCH   2   4
HETATM    4  C   UNL     1      -9.407  18.882  68.772  1.00  0.00    -0.336 C  
HETATM    5  C   UNL     1      -7.898  19.089  68.458  1.00  0.00    -0.375 C  
HETATM    6  C   UNL     1      -7.025  17.934  68.997  1.00  0.00    -0.243 C  
HETATM    7  C   UNL     1      -7.630  16.639  68.589  1.00  0.00    -0.214 A  
HETATM    8  C   UNL     1      -8.943  16.457  68.224  1.00  0.00    -0.206 A  
HETATM    9  C   UNL     1      -9.104  15.099  67.855  1.00  0.00    -0.179 A  
HETATM   10  C   UNL     1      -9.940  17.558  68.164  1.00  0.00    -0.321 C  
HETATM   11  C   UNL     1      -7.868  14.477  68.021  1.00  0.00    -0.137 A  
HETATM   12  N   UNL     1      -6.987  15.435  68.488  1.00  0.00    -0.110 NA 
HETATM   13  C   UNL     1      -7.671  13.126  67.721  1.00  0.00    -0.153 A  
HETATM   14  H   UNL     1      -6.008  15.270  68.721  1.00  0.00     0.000 HD 
HETATM   15  C   UNL     1      -8.773  12.406  67.232  1.00  0.00    -0.191 A  
HETATM   16  C   UNL     1     -10.027  13.006  67.053  1.00  0.00    -0.242 A  
HETATM   17  C   UNL     1     -10.196  14.358  67.368  1.00  0.00    -0.247 A  
BRANCH  16  18
HETATM   18  C   UNL     1     -11.140  12.168  66.519  1.00  0.00    -0.307 C  
HETATM   19  N   UNL     1     -11.250  12.002  65.165  1.00  0.00    -0.318 N  
HETATM   20  O   UNL     1     -11.949  11.627  67.264  1.00  0.00    -0.627 OA 
HETATM   21  H1  UNL     1     -12.010  11.430  64.800  1.00  0.00     0.000 HD 
HETATM   22  H2  UNL     1     -10.583  12.444  64.531  1.00  0.00     0.000 HD 
ENDBRANCH  16  18
ENDBRANCH   2   4
TORSDOF 2
ENDMDL
MODEL       96
REMARK 921   NORMALIZED FREE ENERGY PREDICTED BY IDOCK:   -4.50 KCAL/MOL
REMARK 922        TOTAL FREE ENERGY PREDICTED BY IDOCK:   -5.14 KCAL/MOL
REMARK 923 INTER-LIGAND FREE ENERGY PREDICTED BY IDOCK:   -5.04 KCAL/MOL
REMARK 924 INTRA-LIGAND FREE ENERGY PREDICTED BY IDOCK:   -0.10 KCAL/MOL
REMARK 927      BINDING AFFINITY PREDICTED BY RF-SCORE:    0.00 PKD
ROOT
HETATM    1  C   UNL     1      -6.661  19.952  68.692  1.00  0.00    -0.299 C  
HETATM    2  N   UNL     1      -7.241  18.682  69.115  1.00  0.00    -0.243 NA 
HETATM    3  H   UNL     1      -7.912  18.822  69.870  1.00  0.00     0.000 HD 
ENDROOT
BRANCH   2   4
HETATM    4  C   UNL     1      -7.850  17.925  68.002  1.00  0.00    -0.251 C  
HETATM    5  C   UNL     1      -8.922  18.813  67.307  1.00  0.00    -0.287 C  
HETATM    6  C   UNL     1      -9.562  18.111  66.089  1.00  0.00    -0.180 C  
HETATM    7  C   UNL     1      -9.971  16.738  66.481  1.00  0.00    -0.298 A  
HETATM    8  C   UNL     1      -9.469  16.035  67.552  1.00  0.00    -0.223 A  
HETATM    9  C   UNL     1     -10.154  14.798  67.616  1.00  0.00    -0.227 A  
HETATM   10  C   UNL     1      -8.450  16.580  68.487  1.00  0.00    -0.226 C  
HETATM   11  C   UNL     1     -11.061  14.772  66.557  1.00  0.00    -0.334 A  
HETATM   12  N   UNL     1     -10.917  15.962  65.867  1.00  0.00    -0.214 NA 
HETATM   13  C   UNL     1     -11.921  13.692  66.342  1.00  0.00    -0.466 A  
HETATM   14  H   UNL     1     -11.437  16.223  65.029  1.00  0.00     0.000 HD 
HETATM   15  C   UNL     1     -11.847  12.618  67.245  1.00  0.00    -0.395 A  
HETATM   16  C   UNL     1     -10.947  12.617  68.319  1.00  0.00    -0.275 A  
HETATM   17  C   UNL     1     -10.093  13.710  68.506  1.00  0.00    -0.219 A  
BRANCH  16  18
HETATM   18  C   UNL     1     -10.943  11.439  69.234  1.00  0.00    -0.229 C  
HETATM   19  N   UNL     1     -11.678  11.497  70.387  1.00  0.00    -0.486 N  
HETATM   20  O   UNL     1     -10.301  10.428  68.975  1.00  0.00    -0.189 OA 
HETATM   21  H1  UNL     1     -11.676  10.692  71.013  1.00  0.00     0.000 HD 
HETATM   22  H2  UNL     1     -12.219  12.331  70.617  1.00  0.00     0.000 HD 
ENDBRANCH  16  18
ENDBRANCH   2   4
TORSDOF 2
ENDMDL
MODEL       97
REMARK 921   NORMALIZED FREE ENERGY PREDICTED BY IDOCK:   -4.50 KCAL/MOL
REMARK 922        TOTAL FREE ENERGY PREDICTED BY IDOCK:   -5.14 KCAL/MOL
REMARK 923 INTER-LIGAND FREE ENERGY PREDICTED BY IDOCK:   -5.03 KCAL/MOL
REMARK 924 INTRA-LIGAND FREE ENERGY PREDICTED BY IDOCK:   -0.11 KCAL/MOL
REMARK 927      BINDING AFFINITY PREDICTED BY RF-SCORE:    0.00 PKD
ROOT
HETATM    1  C   UNL     1      -9.555  10.719  62.837  1.00  0.00    -0.338 C  
HETATM    2  N   UNL     1     -10.694  11.628  62.755  1.00  0.00    -0.467 NA 
HETATM    3  H   UNL     1     -11.436  11.230  62.180  1.00  0.00     0.000 HD 
ENDROOT
BRANCH   2   4
HETATM    4  C   UNL     1     -11.210  12.028  64.080  1.00  0.00    -0.373 C  
HETATM    5  C   UNL     1     -12.322  13.100  63.893  1.00  0.00    -0.439 C  
HETATM    6  C   UNL     1     -12.956  13.525  65.236  1.00  0.00    -0.290 C  
HETATM    7  C   UNL     1     -11.874  13.834  66.206  1.00  0.00    -0.398 A  
HETATM    8  C   UNL     1     -10.576  13.388  66.117  1.00  0.00    -0.294 A  
HETATM    9  C   UNL     1      -9.852  13.948  67.197  1.00  0.00    -0.241 A  
HETATM   10  C   UNL     1     -10.073  12.541  65.003  1.00  0.00    -0.258 C  
HETATM   11  C   UNL     1     -10.745  14.722  67.936  1.00  0.00    -0.259 A  
HETATM   12  N   UNL     1     -11.979  14.623  67.320  1.00  0.00    -0.497 NA 
HETATM   13  C   UNL     1     -10.345  15.439  69.067  1.00  0.00    -0.243 A  
HETATM   14  H   UNL     1     -12.837  15.069  67.646  1.00  0.00     0.000 HD 
HETATM   15  C   UNL     1      -8.993  15.360  69.438  1.00  0.00    -0.258 A  
HETATM   16  C   UNL     1      -8.072  14.591  68.713  1.00  0.00    -0.146 A  
HETATM   17  C   UNL     1      -8.502  13.878  67.589  1.00  0.00    -0.193 A  
BRANCH  16  18
HETATM   18  C   UNL     1      -6.653  14.571  69.173  1.00  0.00    -0.111 C  
HETATM   19  N   UNL     1      -5.731  15.323  68.497  1.00  0.00    -0.090 N  
HETATM   20  O   UNL     1      -6.301  13.902  70.138  1.00  0.00    -0.139 OA 
HETATM   21  H1  UNL     1      -4.761  15.310  68.811  1.00  0.00     0.000 HD 
HETATM   22  H2  UNL     1      -6.008  15.887  67.694  1.00  0.00     0.000 HD 
ENDBRANCH  16  18
ENDBRANCH   2   4
TORSDOF 2
ENDMDL
MODEL       98
REMARK 921   NORMALIZED FREE ENERGY PREDICTED BY IDOCK:   -4.47 KCAL/MOL
REMARK 922        TOTAL FREE ENERGY PREDICTED BY IDOCK:   -5.11 KCAL/MOL
REMARK 923 INTER-LIGAND FREE ENERGY PREDICTED BY IDOCK:   -4.97 KCAL/MOL
REMARK 924 INTRA-LIGAND FREE ENERGY PREDICTED BY IDOCK:   -0.14 KCAL/MOL
REMARK 927      BINDING AFFINITY PREDICTED BY RF-SCORE:    0.00 PKD
ROOT
HETATM    1  C   UNL     1     -11.831  12.477  63.254  1.00  0.00    -0.413 C  
HETATM    2  N   UNL     1     -11.069  13.551  63.885  1.00  0.00    -0.556 NA 
HETATM    3  H   UNL     1     -11.438  14.464  63.619  1.00  0.00     0.000 HD 
ENDROOT
BRANCH   2   4
HETATM    4  C   UNL     1     -10.996  13.419  65.355  1.00  0.00    -0.286 C  
HETATM    5  C   UNL     1      -9.768  14.218  65.878  1.00  0.00    -0.289 C  
HETATM    6  C   UNL     1      -9.659  14.180  67.419  1.00  0.00    -0.229 C  
HETATM    7  C   UNL     1      -9.798  12.774  67.879  1.00  0.00    -0.223 A  
HETATM    8  C   UNL     1     -10.382  11.757  67.160  1.00  0.00    -0.242 A  
HETATM    9  C   UNL     1     -10.265  10.569  67.921  1.00  0.00    -0.213 A  
HETATM   10  C   UNL     1     -10.937  11.932  65.792  1.00  0.00    -0.359 C  
HETATM   11  C   UNL     1      -9.615  10.900  69.108  1.00  0.00    -0.106 A  
HETATM   12  N   UNL     1      -9.355  12.258  69.067  1.00  0.00    -0.323 NA 
HETATM   13  C   UNL     1      -9.317   9.944  70.083  1.00  0.00    -0.200 A  
HETATM   14  H   UNL     1      -8.903  12.793  69.809  1.00  0.00     0.000 HD 
HETATM   15  C   UNL     1      -9.693   8.616  69.821  1.00  0.00    -0.176 A  
HETATM   16  C   UNL     1     -10.345   8.253  68.635  1.00  0.00    -0.225 A  
HETATM   17  C   UNL     1     -10.637   9.233  67.680  1.00  0.00    -0.324 A  
BRANCH  16  18
HETATM   18  C   UNL     1     -10.699   6.818  68.436  1.00  0.00    -0.232 C  
HETATM   19  N   UNL     1     -10.385   5.918  69.419  1.00  0.00    -0.221 N  
HETATM   20  O   UNL     1     -11.264   6.432  67.419  1.00  0.00    -0.352 OA 
HETATM   21  H1  UNL     1     -10.626   4.937  69.283  1.00  0.00     0.000 HD 
HETATM   22  H2  UNL     1      -9.917   6.224  70.272  1.00  0.00     0.000 HD 
ENDBRANCH  16  18
ENDBRANCH   2   4
TORSDOF 2
ENDMDL
MODEL       99
REMARK 921   NORMALIZED FREE ENERGY PREDICTED BY IDOCK:   -4.38 KCAL/MOL
REMARK 922        TOTAL FREE ENERGY PREDICTED BY IDOCK:   -5.00 KCAL/MOL
REMARK 923 INTER-LIGAND FREE ENERGY PREDICTED BY IDOCK:   -4.89 KCAL/MOL
REMARK 924 INTRA-LIGAND FREE ENERGY PREDICTED BY IDOCK:   -0.11 KCAL/MOL
REMARK 927      BINDING AFFINITY PREDICTED BY RF-SCORE:    0.00 PKD
ROOT
HETATM    1  C   UNL     1     -10.047  19.498  67.378  1.00  0.00    -0.406 C  
HETATM    2  N   UNL     1      -9.222  18.353  67.749  1.00  0.00    -0.274 NA 
HETATM    3  H   UNL     1      -9.413  18.061  68.707  1.00  0.00     0.000 HD 
ENDROOT
BRANCH   2   4
HETATM    4  C   UNL     1      -9.360  17.216  66.815  1.00  0.00    -0.254 C  
HETATM    5  C   UNL     1     -10.598  17.451  65.903  1.00  0.00    -0.201 C  
HETATM    6  C   UNL     1     -10.773  16.331  64.854  1.00  0.00    -0.256 C  
HETATM    7  C   UNL     1     -10.671  15.012  65.532  1.00  0.00    -0.359 A  
HETATM    8  C   UNL     1     -10.071  14.790  66.749  1.00  0.00    -0.258 A  
HETATM    9  C   UNL     1     -10.236  13.420  67.068  1.00  0.00    -0.249 A  
HETATM   10  C   UNL     1      -9.456  15.865  67.571  1.00  0.00    -0.219 C  
HETATM   11  C   UNL     1     -10.932  12.831  66.013  1.00  0.00    -0.278 A  
HETATM   12  N   UNL     1     -11.171  13.822  65.077  1.00  0.00    -0.322 NA 
HETATM   13  C   UNL     1     -11.283  11.478  66.019  1.00  0.00    -0.240 A  
HETATM   14  H   UNL     1     -11.647  13.686  64.186  1.00  0.00     0.000 HD 
HETATM   15  C   UNL     1     -10.914  10.720  67.142  1.00  0.00    -0.324 A  
HETATM   16  C   UNL     1     -10.216  11.285  68.218  1.00  0.00    -0.198 A  
HETATM   17  C   UNL     1      -9.872  12.641  68.181  1.00  0.00    -0.226 A  
BRANCH  16  18
HETATM   18  C   UNL     1      -9.873  10.408  69.375  1.00  0.00    -0.213 C  
HETATM   19  N   UNL     1      -8.579  10.380  69.820  1.00  0.00    -0.382 N  
HETATM   20  O   UNL     1     -10.721   9.719  69.930  1.00  0.00    -0.231 OA 
HETATM   21  H1  UNL     1      -8.345   9.781  70.611  1.00  0.00     0.000 HD 
HETATM   22  H2  UNL     1      -7.862  10.949  69.370  1.00  0.00     0.000 HD 
ENDBRANCH  16  18
ENDBRANCH   2   4
TORSDOF 2
ENDMDL
MODEL      100
REMARK 921   NORMALIZED FREE ENERGY PREDICTED BY IDOCK:   -4.36 KCAL/MOL
REMARK 922        TOTAL FREE ENERGY PREDICTED BY IDOCK:   -4.98 KCAL/MOL
REMARK 923 INTER-LIGAND FREE ENERGY PREDICTED BY IDOCK:   -4.85 KCAL/MOL
REMARK 924 INTRA-LIGAND FREE ENERGY PREDICTED BY IDOCK:   -0.13 KCAL/MOL
REMARK 927      BINDING AFFINITY PREDICTED BY RF-SCORE:    0.00 PKD
ROOT
HETATM    1  C   UNL     1     -13.557   8.235  71.721  1.00  0.00    -0.361 C  
HETATM    2  N   UNL     1     -12.479   7.705  72.550  1.00  0.00    -0.539 NA 
HETATM    3  H   UNL     1     -12.702   6.766  72.880  1.00  0.00     0.000 HD 
ENDROOT
BRANCH   2   4
HETATM    4  C   UNL     1     -11.165   7.729  71.875  1.00  0.00    -0.265 C  
HETATM    5  C   UNL     1     -10.722   9.207  71.673  1.00  0.00    -0.441 C  
HETATM    6  C   UNL     1      -9.323   9.314  71.026  1.00  0.00    -0.298 C  
HETATM    7  C   UNL     1      -9.270   8.424  69.838  1.00  0.00    -0.151 A  
HETATM    8  C   UNL     1     -10.103   7.353  69.610  1.00  0.00    -0.186 A  
HETATM    9  C   UNL     1      -9.765   6.804  68.349  1.00  0.00    -0.128 A  
HETATM   10  C   UNL     1     -11.202   6.956  70.530  1.00  0.00    -0.353 C  
HETATM   11  C   UNL     1      -8.710   7.558  67.840  1.00  0.00    -0.124 A  
HETATM   12  N   UNL     1      -8.413   8.531  68.776  1.00  0.00    -0.122 NA 
HETATM   13  C   UNL     1      -8.146   7.294  66.588  1.00  0.00    -0.113 A  
HETATM   14  H   UNL     1      -7.669   9.224  68.689  1.00  0.00     0.000 HD 
HETATM   15  C   UNL     1      -8.689   6.233  65.846  1.00  0.00    -0.154 A  
HETATM   16  C   UNL     1      -9.751   5.459  66.332  1.00  0.00    -0.183 A  
HETATM   17  C   UNL     1     -10.292   5.742  67.591  1.00  0.00    -0.270 A  
BRANCH  16  18
HETATM   18  C   UNL     1     -10.273   4.358  65.471  1.00  0.00    -0.241 C  
HETATM   19  N   UNL     1     -11.527   4.476  64.937  1.00  0.00    -0.766 N  
HETATM   20  O   UNL     1      -9.604   3.358  65.234  1.00  0.00    -0.161 OA 
HETATM   21  H1  UNL     1     -11.884   3.723  64.349  1.00  0.00     0.000 HD 
HETATM   22  H2  UNL     1     -12.096   5.302  65.123  1.00  0.00     0.000 HD 
ENDBRANCH  16  18
ENDBRANCH   2   4
TORSDOF 2
ENDMDL
MODEL      101
REMARK 921   NORMALIZED FREE ENERGY PREDICTED BY IDOCK:   -4.33 KCAL/MOL
REMARK 922        TOTAL FREE ENERGY PREDICTED BY IDOCK:   -4.96 KCAL/MOL
REMARK 923 INTER-LIGAND FREE ENERGY PREDICTED BY IDOCK:   -4.80 KCAL/MOL
REMARK 924 INTRA-LIGAND FREE ENERGY PREDICTED BY IDOCK:   -0.15 KCAL/MOL
REMARK 927      BINDING AFFINITY PREDICTED BY RF-SCORE:    0.00 PKD
ROOT
HETATM    1  C   UNL     1     -12.657  13.886  65.088  1.00  0.00    -0.434 C  
HETATM    2  N   UNL     1     -12.511  14.318  66.475  1.00  0.00    -0.528 NA 
HETATM    3  H   UNL     1     -13.367  14.144  67.002  1.00  0.00     0.000 HD 
ENDROOT
BRANCH   2   4
HETATM    4  C   UNL     1     -11.344  13.713  67.148  1.00  0.00    -0.319 C  
HETATM    5  C   UNL     1     -10.043  14.374  66.608  1.00  0.00    -0.276 C  
HETATM    6  C   UNL     1      -8.778  13.836  67.312  1.00  0.00    -0.226 C  
HETATM    7  C   UNL     1      -8.827  12.351  67.327  1.00  0.00    -0.192 A  
HETATM    8  C   UNL     1      -9.965  11.593  67.185  1.00  0.00    -0.219 A  
HETATM    9  C   UNL     1      -9.581  10.230  67.199  1.00  0.00    -0.199 A  
HETATM   10  C   UNL     1     -11.317  12.172  66.970  1.00  0.00    -0.398 C  
HETATM   11  C   UNL     1      -8.198  10.192  67.365  1.00  0.00    -0.114 A  
HETATM   12  N   UNL     1      -7.761  11.502  67.459  1.00  0.00    -0.125 NA 
HETATM   13  C   UNL     1      -7.487   8.990  67.398  1.00  0.00    -0.085 A  
HETATM   14  H   UNL     1      -6.794  11.790  67.604  1.00  0.00     0.000 HD 
HETATM   15  C   UNL     1      -8.220   7.801  67.250  1.00  0.00    -0.119 A  
HETATM   16  C   UNL     1      -9.611   7.808  67.079  1.00  0.00    -0.238 A  
HETATM   17  C   UNL     1     -10.298   9.027  67.057  1.00  0.00    -0.339 A  
BRANCH  16  18
HETATM   18  C   UNL     1     -10.309   6.499  66.919  1.00  0.00    -0.243 C  
HETATM   19  N   UNL     1     -11.661   6.494  66.706  1.00  0.00    -0.621 N  
HETATM   20  O   UNL     1      -9.699   5.438  66.973  1.00  0.00    -0.129 OA 
HETATM   21  H1  UNL     1     -12.137   5.600  66.596  1.00  0.00     0.000 HD 
HETATM   22  H2  UNL     1     -12.182   7.369  66.657  1.00  0.00     0.000 HD 
ENDBRANCH  16  18
ENDBRANCH   2   4
TORSDOF 2
ENDMDL
MODEL      102
REMARK 921   NORMALIZED FREE ENERGY PREDICTED BY IDOCK:   -4.32 KCAL/MOL
REMARK 922        TOTAL FREE ENERGY PREDICTED BY IDOCK:   -4.93 KCAL/MOL
REMARK 923 INTER-LIGAND FREE ENERGY PREDICTED BY IDOCK:   -4.83 KCAL/MOL
REMARK 924 INTRA-LIGAND FREE ENERGY PREDICTED BY IDOCK:   -0.10 KCAL/MOL
REMARK 927      BINDING AFFINITY PREDICTED BY RF-SCORE:    0.00 PKD
ROOT
HETATM    1  C   UNL     1     -10.647  11.162  66.764  1.00  0.00    -0.263 C  
HETATM    2  N   UNL     1      -9.916  11.876  67.806  1.00  0.00    -0.182 NA 
HETATM    3  H   UNL     1      -9.576  11.232  68.519  1.00  0.00     0.000 HD 
ENDROOT
BRANCH   2   4
HETATM    4  C   UNL     1      -8.812  12.702  67.273  1.00  0.00    -0.196 C  
HETATM    5  C   UNL     1      -7.555  12.513  68.168  1.00  0.00    -0.127 C  
HETATM    6  C   UNL     1      -6.336  13.300  67.637  1.00  0.00    -0.161 C  
HETATM    7  C   UNL     1      -6.752  14.695  67.340  1.00  0.00    -0.009 A  
HETATM    8  C   UNL     1      -8.045  15.107  67.116  1.00  0.00    -0.245 A  
HETATM    9  C   UNL     1      -8.025  16.511  66.928  1.00  0.00    -0.260 A  
HETATM   10  C   UNL     1      -9.219  14.196  67.167  1.00  0.00    -0.237 C  
HETATM   11  C   UNL     1      -6.697  16.922  67.031  1.00  0.00    -0.207 A  
HETATM   12  N   UNL     1      -5.935  15.791  67.265  1.00  0.00    -0.333 NA 
HETATM   13  C   UNL     1      -6.325  18.264  66.916  1.00  0.00    -0.198 A  
HETATM   14  H   UNL     1      -4.921  15.776  67.366  1.00  0.00     0.000 HD 
HETATM   15  C   UNL     1      -7.348  19.202  66.699  1.00  0.00    -0.234 A  
HETATM   16  C   UNL     1      -8.691  18.818  66.594  1.00  0.00    -0.306 A  
HETATM   17  C   UNL     1      -9.034  17.465  66.705  1.00  0.00    -0.272 A  
BRANCH  16  18
HETATM   18  C   UNL     1      -9.714  19.881  66.372  1.00  0.00    -0.447 C  
HETATM   19  N   UNL     1      -9.585  21.069  67.041  1.00  0.00    -0.651 N  
HETATM   20  O   UNL     1     -10.657  19.715  65.608  1.00  0.00    -0.503 OA 
HETATM   21  H1  UNL     1     -10.284  21.796  66.890  1.00  0.00     0.000 HD 
HETATM   22  H2  UNL     1      -8.805  21.224  67.679  1.00  0.00     0.000 HD 
ENDBRANCH  16  18
ENDBRANCH   2   4
TORSDOF 2
ENDMDL
MODEL      103
REMARK 921   NORMALIZED FREE ENERGY PREDICTED BY IDOCK:   -4.25 KCAL/MOL
REMARK 922        TOTAL FREE ENERGY PREDICTED BY IDOCK:   -4.86 KCAL/MOL
REMARK 923 INTER-LIGAND FREE ENERGY PREDICTED BY IDOCK:   -4.77 KCAL/MOL
REMARK 924 INTRA-LIGAND FREE ENERGY PREDICTED BY IDOCK:   -0.10 KCAL/MOL
REMARK 927      BINDING AFFINITY PREDICTED BY RF-SCORE:    0.00 PKD
ROOT
HETATM    1  C   UNL     1     -12.868  13.725  65.322  1.00  0.00    -0.384 C  
HETATM    2  N   UNL     1     -12.426  14.441  66.515  1.00  0.00    -0.490 NA 
HETATM    3  H   UNL     1     -13.016  14.213  67.315  1.00  0.00     0.000 HD 
ENDROOT
BRANCH   2   4
HETATM    4  C   UNL     1     -11.000  14.216  66.829  1.00  0.00    -0.300 C  
HETATM    5  C   UNL     1     -10.886  13.116  67.923  1.00  0.00    -0.260 C  
HETATM    6  C   UNL     1      -9.417  12.779  68.262  1.00  0.00    -0.203 C  
HETATM    7  C   UNL     1      -8.671  14.043  68.492  1.00  0.00    -0.156 A  
HETATM    8  C   UNL     1      -9.053  15.284  68.038  1.00  0.00    -0.176 A  
HETATM    9  C   UNL     1      -8.110  16.227  68.515  1.00  0.00    -0.193 A  
HETATM   10  C   UNL     1     -10.298  15.529  67.265  1.00  0.00    -0.267 C  
HETATM   11  C   UNL     1      -7.155  15.523  69.247  1.00  0.00    -0.186 A  
HETATM   12  N   UNL     1      -7.510  14.187  69.203  1.00  0.00    -0.269 NA 
HETATM   13  C   UNL     1      -6.085  16.162  69.880  1.00  0.00    -0.172 A  
HETATM   14  H   UNL     1      -6.987  13.425  69.635  1.00  0.00     0.000 HD 
HETATM   15  C   UNL     1      -6.005  17.559  69.760  1.00  0.00    -0.245 A  
HETATM   16  C   UNL     1      -6.951  18.293  69.032  1.00  0.00    -0.266 A  
HETATM   17  C   UNL     1      -8.008  17.626  68.403  1.00  0.00    -0.270 A  
BRANCH  16  18
HETATM   18  C   UNL     1      -6.794  19.775  68.965  1.00  0.00    -0.337 C  
HETATM   19  N   UNL     1      -6.993  20.406  67.767  1.00  0.00    -0.298 N  
HETATM   20  O   UNL     1      -6.494  20.433  69.954  1.00  0.00    -0.293 OA 
HETATM   21  H1  UNL     1      -6.886  21.419  67.721  1.00  0.00     0.000 HD 
HETATM   22  H2  UNL     1      -7.245  19.873  66.935  1.00  0.00     0.000 HD 
ENDBRANCH  16  18
ENDBRANCH   2   4
TORSDOF 2
ENDMDL
MODEL      104
REMARK 921   NORMALIZED FREE ENERGY PREDICTED BY IDOCK:   -4.20 KCAL/MOL
REMARK 922        TOTAL FREE ENERGY PREDICTED BY IDOCK:   -4.81 KCAL/MOL
REMARK 923 INTER-LIGAND FREE ENERGY PREDICTED BY IDOCK:   -4.71 KCAL/MOL
REMARK 924 INTRA-LIGAND FREE ENERGY PREDICTED BY IDOCK:   -0.10 KCAL/MOL
REMARK 927      BINDING AFFINITY PREDICTED BY RF-SCORE:    0.00 PKD
ROOT
HETATM    1  C   UNL     1     -13.873   8.695  72.146  1.00  0.00    -0.429 C  
HETATM    2  N   UNL     1     -12.676   7.944  72.511  1.00  0.00    -0.553 NA 
HETATM    3  H   UNL     1     -12.861   7.327  73.302  1.00  0.00     0.000 HD 
ENDROOT
BRANCH   2   4
HETATM    4  C   UNL     1     -12.099   7.192  71.378  1.00  0.00    -0.344 C  
HETATM    5  C   UNL     1     -10.915   6.323  71.892  1.00  0.00    -0.302 C  
HETATM    6  C   UNL     1     -10.297   5.456  70.772  1.00  0.00    -0.322 C  
HETATM    7  C   UNL     1     -10.044   6.310  69.583  1.00  0.00    -0.174 A  
HETATM    8  C   UNL     1     -10.658   7.513  69.324  1.00  0.00    -0.215 A  
HETATM    9  C   UNL     1     -10.102   8.034  68.130  1.00  0.00    -0.234 A  
HETATM   10  C   UNL     1     -11.656   8.138  70.231  1.00  0.00     0.011 C  
HETATM   11  C   UNL     1      -9.159   7.113  67.678  1.00  0.00    -0.127 A  
HETATM   12  N   UNL     1      -9.154   6.059  68.574  1.00  0.00    -0.113 NA 
HETATM   13  C   UNL     1      -8.402   7.332  66.523  1.00  0.00    -0.121 A  
HETATM   14  H   UNL     1      -8.576   5.222  68.495  1.00  0.00     0.000 HD 
HETATM   15  C   UNL     1      -8.621   8.531  65.826  1.00  0.00    -0.190 A  
HETATM   16  C   UNL     1      -9.561   9.476  66.258  1.00  0.00    -0.287 A  
HETATM   17  C   UNL     1     -10.309   9.227  67.414  1.00  0.00    -0.327 A  
BRANCH  16  18
HETATM   18  C   UNL     1      -9.721  10.727  65.461  1.00  0.00    -0.239 C  
HETATM   19  N   UNL     1      -8.807  11.733  65.622  1.00  0.00    -0.408 N  
HETATM   20  O   UNL     1     -10.646  10.869  64.670  1.00  0.00    -0.334 OA 
HETATM   21  H1  UNL     1      -8.916  12.588  65.078  1.00  0.00     0.000 HD 
HETATM   22  H2  UNL     1      -8.030  11.629  66.275  1.00  0.00     0.000 HD 
ENDBRANCH  16  18
ENDBRANCH   2   4
TORSDOF 2
ENDMDL
MODEL      105
REMARK 921   NORMALIZED FREE ENERGY PREDICTED BY IDOCK:   -4.18 KCAL/MOL
REMARK 922        TOTAL FREE ENERGY PREDICTED BY IDOCK:   -4.78 KCAL/MOL
REMARK 923 INTER-LIGAND FREE ENERGY PREDICTED BY IDOCK:   -4.67 KCAL/MOL
REMARK 924 INTRA-LIGAND FREE ENERGY PREDICTED BY IDOCK:   -0.11 KCAL/MOL
REMARK 927      BINDING AFFINITY PREDICTED BY RF-SCORE:    0.00 PKD
ROOT
HETATM    1  C   UNL     1      -5.503  11.680  70.240  1.00  0.00    -0.125 C  
HETATM    2  N   UNL     1      -5.966  10.796  69.175  1.00  0.00    -0.041 NA 
HETATM    3  H   UNL     1      -5.217  10.605  68.510  1.00  0.00     0.000 HD 
ENDROOT
BRANCH   2   4
HETATM    4  C   UNL     1      -6.553   9.538  69.684  1.00  0.00    -0.046 C  
HETATM    5  C   UNL     1      -6.477   8.454  68.571  1.00  0.00    -0.055 C  
HETATM    6  C   UNL     1      -7.018   7.087  69.050  1.00  0.00    -0.078 C  
HETATM    7  C   UNL     1      -8.333   7.291  69.709  1.00  0.00    -0.135 A  
HETATM    8  C   UNL     1      -8.784   8.481  70.231  1.00  0.00    -0.144 A  
HETATM    9  C   UNL     1     -10.098   8.270  70.715  1.00  0.00    -0.218 A  
HETATM   10  C   UNL     1      -8.008   9.748  70.179  1.00  0.00    -0.201 C  
HETATM   11  C   UNL     1     -10.414   6.932  70.484  1.00  0.00    -0.211 A  
HETATM   12  N   UNL     1      -9.312   6.350  69.884  1.00  0.00    -0.151 NA 
HETATM   13  C   UNL     1     -11.658   6.394  70.825  1.00  0.00    -0.402 A  
HETATM   14  H   UNL     1      -9.239   5.369  69.614  1.00  0.00     0.000 HD 
HETATM   15  C   UNL     1     -12.597   7.258  71.410  1.00  0.00    -0.423 A  
HETATM   16  C   UNL     1     -12.309   8.608  71.652  1.00  0.00    -0.384 A  
HETATM   17  C   UNL     1     -11.052   9.118  71.306  1.00  0.00    -0.405 A  
BRANCH  16  18
HETATM   18  C   UNL     1     -13.370   9.456  72.268  1.00  0.00    -0.461 C  
HETATM   19  N   UNL     1     -13.248  10.818  72.200  1.00  0.00    -0.591 N  
HETATM   20  O   UNL     1     -14.342   8.962  72.827  1.00  0.00    -0.600 OA 
HETATM   21  H1  UNL     1     -13.973  11.398  72.621  1.00  0.00     0.000 HD 
HETATM   22  H2  UNL     1     -12.446  11.245  71.737  1.00  0.00     0.000 HD 
ENDBRANCH  16  18
ENDBRANCH   2   4
TORSDOF 2
ENDMDL
MODEL      106
REMARK 921   NORMALIZED FREE ENERGY PREDICTED BY IDOCK:   -4.14 KCAL/MOL
REMARK 922        TOTAL FREE ENERGY PREDICTED BY IDOCK:   -4.73 KCAL/MOL
REMARK 923 INTER-LIGAND FREE ENERGY PREDICTED BY IDOCK:   -4.60 KCAL/MOL
REMARK 924 INTRA-LIGAND FREE ENERGY PREDICTED BY IDOCK:   -0.14 KCAL/MOL
REMARK 927      BINDING AFFINITY PREDICTED BY RF-SCORE:    0.00 PKD
ROOT
HETATM    1  C   UNL     1     -10.789   6.317  68.543  1.00  0.00    -0.323 C  
HETATM    2  N   UNL     1     -11.298   7.024  67.373  1.00  0.00    -0.607 NA 
HETATM    3  H   UNL     1     -12.233   7.393  67.548  1.00  0.00     0.000 HD 
ENDROOT
BRANCH   2   4
HETATM    4  C   UNL     1     -10.390   8.091  66.903  1.00  0.00    -0.338 C  
HETATM    5  C   UNL     1      -8.933   7.741  67.318  1.00  0.00    -0.136 C  
HETATM    6  C   UNL     1      -7.913   8.782  66.806  1.00  0.00    -0.097 C  
HETATM    7  C   UNL     1      -8.403  10.144  67.140  1.00  0.00    -0.125 A  
HETATM    8  C   UNL     1      -9.710  10.472  67.416  1.00  0.00    -0.190 A  
HETATM    9  C   UNL     1      -9.750  11.851  67.738  1.00  0.00    -0.189 A  
HETATM   10  C   UNL     1     -10.818   9.482  67.440  1.00  0.00    -0.215 C  
HETATM   11  C   UNL     1      -8.448  12.338  67.634  1.00  0.00    -0.166 A  
HETATM   12  N   UNL     1      -7.645  11.279  67.250  1.00  0.00    -0.123 NA 
HETATM   13  C   UNL     1      -8.131  13.670  67.911  1.00  0.00    -0.164 A  
HETATM   14  H   UNL     1      -6.642  11.335  67.075  1.00  0.00     0.000 HD 
HETATM   15  C   UNL     1      -9.179  14.515  68.309  1.00  0.00    -0.201 A  
HETATM   16  C   UNL     1     -10.497  14.053  68.424  1.00  0.00    -0.254 A  
HETATM   17  C   UNL     1     -10.787  12.715  68.134  1.00  0.00    -0.250 A  
BRANCH  16  18
HETATM   18  C   UNL     1     -11.547  15.018  68.863  1.00  0.00    -0.326 C  
HETATM   19  N   UNL     1     -12.671  14.535  69.477  1.00  0.00    -0.527 N  
HETATM   20  O   UNL     1     -11.422  16.224  68.688  1.00  0.00    -0.367 OA 
HETATM   21  H1  UNL     1     -13.388  15.194  69.777  1.00  0.00     0.000 HD 
HETATM   22  H2  UNL     1     -12.789  13.534  69.632  1.00  0.00     0.000 HD 
ENDBRANCH  16  18
ENDBRANCH   2   4
TORSDOF 2
ENDMDL
MODEL      107
REMARK 921   NORMALIZED FREE ENERGY PREDICTED BY IDOCK:   -4.13 KCAL/MOL
REMARK 922        TOTAL FREE ENERGY PREDICTED BY IDOCK:   -4.73 KCAL/MOL
REMARK 923 INTER-LIGAND FREE ENERGY PREDICTED BY IDOCK:   -4.61 KCAL/MOL
REMARK 924 INTRA-LIGAND FREE ENERGY PREDICTED BY IDOCK:   -0.12 KCAL/MOL
REMARK 927      BINDING AFFINITY PREDICTED BY RF-SCORE:    0.00 PKD
ROOT
HETATM    1  C   UNL     1      -7.097   5.692  67.290  1.00  0.00    -0.074 C  
HETATM    2  N   UNL     1      -7.831   5.578  68.546  1.00  0.00    -0.088 NA 
HETATM    3  H   UNL     1      -7.286   5.069  69.242  1.00  0.00     0.000 HD 
ENDROOT
BRANCH   2   4
HETATM    4  C   UNL     1      -8.274   6.885  69.076  1.00  0.00    -0.125 C  
HETATM    5  C   UNL     1      -9.370   6.653  70.155  1.00  0.00    -0.159 C  
HETATM    6  C   UNL     1      -9.841   7.975  70.803  1.00  0.00    -0.197 C  
HETATM    7  C   UNL     1     -10.144   8.958  69.731  1.00  0.00    -0.199 A  
HETATM    8  C   UNL     1      -9.661   8.903  68.444  1.00  0.00    -0.175 A  
HETATM    9  C   UNL     1     -10.226   9.985  67.725  1.00  0.00    -0.235 A  
HETATM   10  C   UNL     1      -8.777   7.818  67.943  1.00  0.00    -0.124 C  
HETATM   11  C   UNL     1     -11.039  10.690  68.610  1.00  0.00    -0.263 A  
HETATM   12  N   UNL     1     -10.959  10.053  69.835  1.00  0.00    -0.273 NA 
HETATM   13  C   UNL     1     -11.770  11.812  68.212  1.00  0.00    -0.377 A  
HETATM   14  H   UNL     1     -11.434  10.352  70.686  1.00  0.00     0.000 HD 
HETATM   15  C   UNL     1     -11.663  12.211  66.870  1.00  0.00    -0.374 A  
HETATM   16  C   UNL     1     -10.854  11.521  65.957  1.00  0.00    -0.330 A  
HETATM   17  C   UNL     1     -10.128  10.403  66.385  1.00  0.00    -0.287 A  
BRANCH  16  18
HETATM   18  C   UNL     1     -10.807  12.008  64.548  1.00  0.00    -0.314 C  
HETATM   19  N   UNL     1      -9.917  12.994  64.221  1.00  0.00    -0.621 N  
HETATM   20  O   UNL     1     -11.543  11.544  63.684  1.00  0.00    -0.394 OA 
HETATM   21  H1  UNL     1      -9.885  13.327  63.258  1.00  0.00     0.000 HD 
HETATM   22  H2  UNL     1      -9.296  13.389  64.927  1.00  0.00     0.000 HD 
ENDBRANCH  16  18
ENDBRANCH   2   4
TORSDOF 2
ENDMDL
MODEL      108
REMARK 921   NORMALIZED FREE ENERGY PREDICTED BY IDOCK:   -4.08 KCAL/MOL
REMARK 922        TOTAL FREE ENERGY PREDICTED BY IDOCK:   -4.67 KCAL/MOL
REMARK 923 INTER-LIGAND FREE ENERGY PREDICTED BY IDOCK:   -4.57 KCAL/MOL
REMARK 924 INTRA-LIGAND FREE ENERGY PREDICTED BY IDOCK:   -0.10 KCAL/MOL
REMARK 927      BINDING AFFINITY PREDICTED BY RF-SCORE:    0.00 PKD
ROOT
HETATM    1  C   UNL     1     -14.395   7.640  71.756  1.00  0.00    -0.452 C  
HETATM    2  N   UNL     1     -13.514   8.626  71.137  1.00  0.00    -0.539 NA 
HETATM    3  H   UNL     1     -13.670   9.553  71.533  1.00  0.00     0.000 HD 
ENDROOT
BRANCH   2   4
HETATM    4  C   UNL     1     -12.086   8.253  71.214  1.00  0.00    -0.280 C  
HETATM    5  C   UNL     1     -11.635   8.263  72.703  1.00  0.00    -0.419 C  
HETATM    6  C   UNL     1     -10.164   7.821  72.871  1.00  0.00    -0.377 C  
HETATM    7  C   UNL     1      -9.321   8.569  71.903  1.00  0.00    -0.267 A  
HETATM    8  C   UNL     1      -9.777   9.178  70.757  1.00  0.00    -0.337 A  
HETATM    9  C   UNL     1      -8.677   9.827  70.146  1.00  0.00    -0.215 A  
HETATM   10  C   UNL     1     -11.205   9.188  70.345  1.00  0.00    -0.279 C  
HETATM   11  C   UNL     1      -7.558   9.580  70.940  1.00  0.00     0.007 A  
HETATM   12  N   UNL     1      -7.974   8.793  71.999  1.00  0.00    -0.349 NA 
HETATM   13  C   UNL     1      -6.299  10.100  70.630  1.00  0.00    -0.093 A  
HETATM   14  H   UNL     1      -7.370   8.436  72.739  1.00  0.00     0.000 HD 
HETATM   15  C   UNL     1      -6.195  10.899  69.479  1.00  0.00    -0.073 A  
HETATM   16  C   UNL     1      -7.303  11.165  68.663  1.00  0.00    -0.110 A  
HETATM   17  C   UNL     1      -8.550  10.625  68.994  1.00  0.00    -0.150 A  
BRANCH  16  18
HETATM   18  C   UNL     1      -7.103  12.031  67.465  1.00  0.00    -0.129 C  
HETATM   19  N   UNL     1      -6.720  11.449  66.287  1.00  0.00    -0.360 N  
HETATM   20  O   UNL     1      -7.277  13.244  67.514  1.00  0.00    -0.151 OA 
HETATM   21  H1  UNL     1      -6.584  12.041  65.468  1.00  0.00     0.000 HD 
HETATM   22  H2  UNL     1      -6.573  10.442  66.229  1.00  0.00     0.000 HD 
ENDBRANCH  16  18
ENDBRANCH   2   4
TORSDOF 2
ENDMDL
MODEL      109
REMARK 921   NORMALIZED FREE ENERGY PREDICTED BY IDOCK:   -4.08 KCAL/MOL
REMARK 922        TOTAL FREE ENERGY PREDICTED BY IDOCK:   -4.67 KCAL/MOL
REMARK 923 INTER-LIGAND FREE ENERGY PREDICTED BY IDOCK:   -4.53 KCAL/MOL
REMARK 924 INTRA-LIGAND FREE ENERGY PREDICTED BY IDOCK:   -0.14 KCAL/MOL
REMARK 927      BINDING AFFINITY PREDICTED BY RF-SCORE:    0.00 PKD
ROOT
HETATM    1  C   UNL     1     -11.099  11.839  63.623  1.00  0.00    -0.439 C  
HETATM    2  N   UNL     1     -10.099  10.899  63.127  1.00  0.00    -0.567 NA 
HETATM    3  H   UNL     1      -9.522  11.329  62.404  1.00  0.00     0.000 HD 
ENDROOT
BRANCH   2   4
HETATM    4  C   UNL     1      -9.260  10.329  64.201  1.00  0.00    -0.267 C  
HETATM    5  C   UNL     1      -8.855   8.877  63.816  1.00  0.00     0.055 C  
HETATM    6  C   UNL     1      -7.921   8.233  64.865  1.00  0.00    -0.144 C  
HETATM    7  C   UNL     1      -8.501   8.437  66.218  1.00  0.00    -0.127 A  
HETATM    8  C   UNL     1      -9.421   9.404  66.550  1.00  0.00    -0.246 A  
HETATM    9  C   UNL     1      -9.758   9.228  67.914  1.00  0.00    -0.180 A  
HETATM   10  C   UNL     1      -9.983  10.373  65.573  1.00  0.00    -0.348 C  
HETATM   11  C   UNL     1      -9.014   8.150  68.389  1.00  0.00    -0.136 A  
HETATM   12  N   UNL     1      -8.239   7.694  67.337  1.00  0.00    -0.115 NA 
HETATM   13  C   UNL     1      -9.127   7.692  69.704  1.00  0.00    -0.147 A  
HETATM   14  H   UNL     1      -7.574   6.922  67.388  1.00  0.00     0.000 HD 
HETATM   15  C   UNL     1     -10.034   8.358  70.544  1.00  0.00    -0.205 A  
HETATM   16  C   UNL     1     -10.797   9.444  70.094  1.00  0.00    -0.287 A  
HETATM   17  C   UNL     1     -10.658   9.885  68.774  1.00  0.00    -0.246 A  
BRANCH  16  18
HETATM   18  C   UNL     1     -11.743  10.086  71.052  1.00  0.00    -0.392 C  
HETATM   19  N   UNL     1     -12.204  11.345  70.780  1.00  0.00    -0.383 N  
HETATM   20  O   UNL     1     -12.115   9.511  72.069  1.00  0.00    -0.355 OA 
HETATM   21  H1  UNL     1     -12.850  11.784  71.435  1.00  0.00     0.000 HD 
HETATM   22  H2  UNL     1     -11.906  11.837  69.938  1.00  0.00     0.000 HD 
ENDBRANCH  16  18
ENDBRANCH   2   4
TORSDOF 2
ENDMDL
MODEL      110
REMARK 921   NORMALIZED FREE ENERGY PREDICTED BY IDOCK:   -4.06 KCAL/MOL
REMARK 922        TOTAL FREE ENERGY PREDICTED BY IDOCK:   -4.65 KCAL/MOL
REMARK 923 INTER-LIGAND FREE ENERGY PREDICTED BY IDOCK:   -4.54 KCAL/MOL
REMARK 924 INTRA-LIGAND FREE ENERGY PREDICTED BY IDOCK:   -0.11 KCAL/MOL
REMARK 927      BINDING AFFINITY PREDICTED BY RF-SCORE:    0.00 PKD
ROOT
HETATM    1  C   UNL     1      -9.110   8.528  66.127  1.00  0.00    -0.195 C  
HETATM    2  N   UNL     1      -8.339   9.404  67.004  1.00  0.00    -0.126 NA 
HETATM    3  H   UNL     1      -7.526   9.781  66.518  1.00  0.00     0.000 HD 
ENDROOT
BRANCH   2   4
HETATM    4  C   UNL     1      -9.151  10.489  67.594  1.00  0.00    -0.142 C  
HETATM    5  C   UNL     1     -10.631  10.320  67.146  1.00  0.00    -0.320 C  
HETATM    6  C   UNL     1     -11.557  11.386  67.775  1.00  0.00    -0.325 C  
HETATM    7  C   UNL     1     -10.943  12.727  67.595  1.00  0.00    -0.244 A  
HETATM    8  C   UNL     1      -9.610  12.965  67.353  1.00  0.00    -0.203 A  
HETATM    9  C   UNL     1      -9.444  14.361  67.188  1.00  0.00    -0.225 A  
HETATM   10  C   UNL     1      -8.596  11.887  67.214  1.00  0.00    -0.170 C  
HETATM   11  C   UNL     1     -10.697  14.949  67.349  1.00  0.00    -0.292 A  
HETATM   12  N   UNL     1     -11.595  13.931  67.615  1.00  0.00    -0.328 NA 
HETATM   13  C   UNL     1     -10.892  16.327  67.225  1.00  0.00    -0.216 A  
HETATM   14  H   UNL     1     -12.590  14.057  67.797  1.00  0.00     0.000 HD 
HETATM   15  C   UNL     1      -9.769  17.113  66.920  1.00  0.00    -0.270 A  
HETATM   16  C   UNL     1      -8.497  16.550  66.750  1.00  0.00    -0.273 A  
HETATM   17  C   UNL     1      -8.330  15.167  66.888  1.00  0.00    -0.267 A  
BRANCH  16  18
HETATM   18  C   UNL     1      -7.362  17.459  66.419  1.00  0.00    -0.305 C  
HETATM   19  N   UNL     1      -6.349  17.609  67.328  1.00  0.00    -0.141 N  
HETATM   20  O   UNL     1      -7.317  18.068  65.356  1.00  0.00    -0.495 OA 
HETATM   21  H1  UNL     1      -5.573  18.230  67.101  1.00  0.00     0.000 HD 
HETATM   22  H2  UNL     1      -6.370  17.108  68.216  1.00  0.00     0.000 HD 
ENDBRANCH  16  18
ENDBRANCH   2   4
TORSDOF 2
ENDMDL
MODEL      111
REMARK 921   NORMALIZED FREE ENERGY PREDICTED BY IDOCK:   -4.01 KCAL/MOL
REMARK 922        TOTAL FREE ENERGY PREDICTED BY IDOCK:   -4.60 KCAL/MOL
REMARK 923 INTER-LIGAND FREE ENERGY PREDICTED BY IDOCK:   -4.46 KCAL/MOL
REMARK 924 INTRA-LIGAND FREE ENERGY PREDICTED BY IDOCK:   -0.13 KCAL/MOL
REMARK 927      BINDING AFFINITY PREDICTED BY RF-SCORE:    0.00 PKD
ROOT
HETATM    1  C   UNL     1      -8.129  10.030  69.593  1.00  0.00    -0.172 C  
HETATM    2  N   UNL     1      -9.504  10.519  69.543  1.00  0.00    -0.399 NA 
HETATM    3  H   UNL     1      -9.716  10.916  68.628  1.00  0.00     0.000 HD 
ENDROOT
BRANCH   2   4
HETATM    4  C   UNL     1     -10.496   9.490  69.915  1.00  0.00    -0.240 C  
HETATM    5  C   UNL     1     -11.458  10.073  70.989  1.00  0.00    -0.463 C  
HETATM    6  C   UNL     1     -12.567   9.072  71.385  1.00  0.00    -0.370 C  
HETATM    7  C   UNL     1     -11.948   7.753  71.676  1.00  0.00    -0.297 A  
HETATM    8  C   UNL     1     -10.713   7.341  71.232  1.00  0.00    -0.243 A  
HETATM    9  C   UNL     1     -10.469   6.054  71.770  1.00  0.00    -0.268 A  
HETATM   10  C   UNL     1      -9.810   8.189  70.409  1.00  0.00    -0.188 C  
HETATM   11  C   UNL     1     -11.585   5.704  72.528  1.00  0.00    -0.246 A  
HETATM   12  N   UNL     1     -12.483   6.752  72.441  1.00  0.00    -0.519 NA 
HETATM   13  C   UNL     1     -11.661   4.493  73.221  1.00  0.00    -0.254 A  
HETATM   14  H   UNL     1     -13.404   6.775  72.879  1.00  0.00     0.000 HD 
HETATM   15  C   UNL     1     -10.557   3.629  73.135  1.00  0.00    -0.269 A  
HETATM   16  C   UNL     1      -9.421   3.955  72.382  1.00  0.00    -0.181 A  
HETATM   17  C   UNL     1      -9.375   5.172  71.693  1.00  0.00    -0.183 A  
BRANCH  16  18
HETATM   18  C   UNL     1      -8.291   2.982  72.354  1.00  0.00    -0.074 C  
HETATM   19  N   UNL     1      -8.519   1.720  71.876  1.00  0.00    -0.054 N  
HETATM   20  O   UNL     1      -7.171   3.289  72.745  1.00  0.00    -0.042 OA 
HETATM   21  H1  UNL     1      -7.746   1.055  71.856  1.00  0.00     0.000 HD 
HETATM   22  H2  UNL     1      -9.445   1.449  71.545  1.00  0.00     0.000 HD 
ENDBRANCH  16  18
ENDBRANCH   2   4
TORSDOF 2
ENDMDL
MODEL      112
REMARK 921   NORMALIZED FREE ENERGY PREDICTED BY IDOCK:   -4.01 KCAL/MOL
REMARK 922        TOTAL FREE ENERGY PREDICTED BY IDOCK:   -4.59 KCAL/MOL
REMARK 923 INTER-LIGAND FREE ENERGY PREDICTED BY IDOCK:   -4.48 KCAL/MOL
REMARK 924 INTRA-LIGAND FREE ENERGY PREDICTED BY IDOCK:   -0.11 KCAL/MOL
REMARK 927      BINDING AFFINITY PREDICTED BY RF-SCORE:    0.00 PKD
ROOT
HETATM    1  C   UNL     1     -12.692  10.796  69.919  1.00  0.00    -0.032 C  
HETATM    2  N   UNL     1     -11.511  11.652  69.977  1.00  0.00    -0.484 NA 
HETATM    3  H   UNL     1     -10.665  11.119  69.775  1.00  0.00     0.000 HD 
ENDROOT
BRANCH   2   4
HETATM    4  C   UNL     1     -11.611  12.835  69.098  1.00  0.00    -0.319 C  
HETATM    5  C   UNL     1     -11.741  12.364  67.621  1.00  0.00    -0.412 C  
HETATM    6  C   UNL     1     -11.914  13.547  66.643  1.00  0.00    -0.452 C  
HETATM    7  C   UNL     1     -10.881  14.574  66.938  1.00  0.00    -0.305 A  
HETATM    8  C   UNL     1     -10.203  14.699  68.128  1.00  0.00    -0.231 A  
HETATM    9  C   UNL     1      -9.272  15.756  67.985  1.00  0.00    -0.188 A  
HETATM   10  C   UNL     1     -10.404  13.791  69.288  1.00  0.00     0.105 C  
HETATM   11  C   UNL     1      -9.418  16.264  66.696  1.00  0.00    -0.248 A  
HETATM   12  N   UNL     1     -10.420  15.536  66.080  1.00  0.00    -0.301 NA 
HETATM   13  C   UNL     1      -8.625  17.311  66.216  1.00  0.00    -0.264 A  
HETATM   14  H   UNL     1     -10.764  15.693  65.133  1.00  0.00     0.000 HD 
HETATM   15  C   UNL     1      -7.657  17.838  67.086  1.00  0.00    -0.223 A  
HETATM   16  C   UNL     1      -7.486  17.346  68.387  1.00  0.00    -0.234 A  
HETATM   17  C   UNL     1      -8.299  16.302  68.842  1.00  0.00    -0.231 A  
BRANCH  16  18
HETATM   18  C   UNL     1      -6.427  17.960  69.239  1.00  0.00    -0.248 C  
HETATM   19  N   UNL     1      -5.973  19.213  68.927  1.00  0.00    -0.216 N  
HETATM   20  O   UNL     1      -5.960  17.369  70.206  1.00  0.00    -0.198 OA 
HETATM   21  H1  UNL     1      -5.248  19.632  69.510  1.00  0.00     0.000 HD 
HETATM   22  H2  UNL     1      -6.352  19.718  68.127  1.00  0.00     0.000 HD 
ENDBRANCH  16  18
ENDBRANCH   2   4
TORSDOF 2
ENDMDL
MODEL      113
REMARK 921   NORMALIZED FREE ENERGY PREDICTED BY IDOCK:   -3.98 KCAL/MOL
REMARK 922        TOTAL FREE ENERGY PREDICTED BY IDOCK:   -4.56 KCAL/MOL
REMARK 923 INTER-LIGAND FREE ENERGY PREDICTED BY IDOCK:   -4.45 KCAL/MOL
REMARK 924 INTRA-LIGAND FREE ENERGY PREDICTED BY IDOCK:   -0.11 KCAL/MOL
REMARK 927      BINDING AFFINITY PREDICTED BY RF-SCORE:    0.00 PKD
ROOT
HETATM    1  C   UNL     1      -5.747   8.490  66.417  1.00  0.00    -0.047 C  
HETATM    2  N   UNL     1      -6.919   7.668  66.698  1.00  0.00    -0.076 NA 
HETATM    3  H   UNL     1      -6.703   6.677  66.590  1.00  0.00     0.000 HD 
ENDROOT
BRANCH   2   4
HETATM    4  C   UNL     1      -7.509   7.937  68.026  1.00  0.00    -0.108 C  
HETATM    5  C   UNL     1      -8.279   6.675  68.509  1.00  0.00    -0.119 C  
HETATM    6  C   UNL     1      -8.873   6.858  69.923  1.00  0.00    -0.142 C  
HETATM    7  C   UNL     1      -9.596   8.155  69.980  1.00  0.00    -0.171 A  
HETATM    8  C   UNL     1      -9.394   9.215  69.127  1.00  0.00    -0.152 A  
HETATM    9  C   UNL     1     -10.313  10.233  69.478  1.00  0.00    -0.267 A  
HETATM   10  C   UNL     1      -8.425   9.189  68.000  1.00  0.00    -0.121 C  
HETATM   11  C   UNL     1     -11.054   9.765  70.562  1.00  0.00    -0.321 A  
HETATM   12  N   UNL     1     -10.585   8.499  70.862  1.00  0.00    -0.201 NA 
HETATM   13  C   UNL     1     -12.073  10.522  71.146  1.00  0.00    -0.473 A  
HETATM   14  H   UNL     1     -10.924   7.912  71.624  1.00  0.00     0.000 HD 
HETATM   15  C   UNL     1     -12.337  11.786  70.593  1.00  0.00    -0.421 A  
HETATM   16  C   UNL     1     -11.610  12.281  69.502  1.00  0.00    -0.366 A  
HETATM   17  C   UNL     1     -10.590  11.504  68.942  1.00  0.00    -0.236 A  
BRANCH  16  18
HETATM   18  C   UNL     1     -11.965  13.630  68.973  1.00  0.00    -0.353 C  
HETATM   19  N   UNL     1     -12.551  14.536  69.815  1.00  0.00    -0.548 N  
HETATM   20  O   UNL     1     -11.741  13.941  67.809  1.00  0.00    -0.325 OA 
HETATM   21  H1  UNL     1     -12.793  15.458  69.454  1.00  0.00     0.000 HD 
HETATM   22  H2  UNL     1     -12.742  14.294  70.787  1.00  0.00     0.000 HD 
ENDBRANCH  16  18
ENDBRANCH   2   4
TORSDOF 2
ENDMDL
MODEL      114
REMARK 921   NORMALIZED FREE ENERGY PREDICTED BY IDOCK:   -3.97 KCAL/MOL
REMARK 922        TOTAL FREE ENERGY PREDICTED BY IDOCK:   -4.54 KCAL/MOL
REMARK 923 INTER-LIGAND FREE ENERGY PREDICTED BY IDOCK:   -4.39 KCAL/MOL
REMARK 924 INTRA-LIGAND FREE ENERGY PREDICTED BY IDOCK:   -0.15 KCAL/MOL
REMARK 927      BINDING AFFINITY PREDICTED BY RF-SCORE:    0.00 PKD
ROOT
HETATM    1  C   UNL     1      -9.557  14.180  65.252  1.00  0.00     0.152 C  
HETATM    2  N   UNL     1     -10.437  15.322  65.027  1.00  0.00    -0.413 NA 
HETATM    3  H   UNL     1     -11.245  15.053  64.464  1.00  0.00     0.000 HD 
ENDROOT
BRANCH   2   4
HETATM    4  C   UNL     1     -10.863  15.979  66.280  1.00  0.00    -0.166 C  
HETATM    5  C   UNL     1      -9.690  16.842  66.827  1.00  0.00    -0.274 C  
HETATM    6  C   UNL     1     -10.080  17.613  68.108  1.00  0.00    -0.347 C  
HETATM    7  C   UNL     1     -10.731  16.675  69.058  1.00  0.00    -0.343 A  
HETATM    8  C   UNL     1     -11.315  15.477  68.717  1.00  0.00    -0.339 A  
HETATM    9  C   UNL     1     -11.766  14.862  69.910  1.00  0.00    -0.347 A  
HETATM   10  C   UNL     1     -11.348  14.945  67.330  1.00  0.00    -0.355 C  
HETATM   11  C   UNL     1     -11.453  15.721  70.962  1.00  0.00    -0.407 A  
HETATM   12  N   UNL     1     -10.837  16.831  70.414  1.00  0.00    -0.221 NA 
HETATM   13  C   UNL     1     -11.744  15.402  72.292  1.00  0.00    -0.564 A  
HETATM   14  H   UNL     1     -10.510  17.642  70.940  1.00  0.00     0.000 HD 
HETATM   15  C   UNL     1     -12.364  14.167  72.539  1.00  0.00    -0.091 A  
HETATM   16  C   UNL     1     -12.689  13.283  71.502  1.00  0.00    -0.376 A  
HETATM   17  C   UNL     1     -12.392  13.631  70.179  1.00  0.00    -0.372 A  
BRANCH  16  18
HETATM   18  C   UNL     1     -13.338  11.987  71.857  1.00  0.00    -0.304 C  
HETATM   19  N   UNL     1     -13.190  10.922  71.010  1.00  0.00    -0.184 N  
HETATM   20  O   UNL     1     -13.994  11.859  72.884  1.00  0.00     0.559 OA 
HETATM   21  H1  UNL     1     -13.634  10.037  71.253  1.00  0.00     0.000 HD 
HETATM   22  H2  UNL     1     -12.646  11.011  70.153  1.00  0.00     0.000 HD 
ENDBRANCH  16  18
ENDBRANCH   2   4
TORSDOF 2
ENDMDL
MODEL      115
REMARK 921   NORMALIZED FREE ENERGY PREDICTED BY IDOCK:   -3.94 KCAL/MOL
REMARK 922        TOTAL FREE ENERGY PREDICTED BY IDOCK:   -4.52 KCAL/MOL
REMARK 923 INTER-LIGAND FREE ENERGY PREDICTED BY IDOCK:   -4.39 KCAL/MOL
REMARK 924 INTRA-LIGAND FREE ENERGY PREDICTED BY IDOCK:   -0.13 KCAL/MOL
REMARK 927      BINDING AFFINITY PREDICTED BY RF-SCORE:    0.00 PKD
ROOT
HETATM    1  C   UNL     1      -6.973  13.705  67.835  1.00  0.00    -0.153 C  
HETATM    2  N   UNL     1      -6.513  12.382  68.243  1.00  0.00    -0.057 NA 
HETATM    3  H   UNL     1      -6.148  12.401  69.195  1.00  0.00     0.000 HD 
ENDROOT
BRANCH   2   4
HETATM    4  C   UNL     1      -7.551  11.340  68.097  1.00  0.00    -0.105 C  
HETATM    5  C   UNL     1      -8.836  11.979  67.498  1.00  0.00    -0.172 C  
HETATM    6  C   UNL     1      -9.950  10.936  67.257  1.00  0.00    -0.216 C  
HETATM    7  C   UNL     1     -10.112  10.109  68.480  1.00  0.00    -0.169 A  
HETATM    8  C   UNL     1      -9.166   9.956  69.466  1.00  0.00    -0.238 A  
HETATM    9  C   UNL     1      -9.726   9.141  70.480  1.00  0.00    -0.287 A  
HETATM   10  C   UNL     1      -7.842  10.631  69.446  1.00  0.00    -0.126 C  
HETATM   11  C   UNL     1     -11.015   8.802  70.072  1.00  0.00    -0.209 A  
HETATM   12  N   UNL     1     -11.222   9.392  68.838  1.00  0.00    -0.451 NA 
HETATM   13  C   UNL     1     -11.860   8.017  70.860  1.00  0.00    -0.236 A  
HETATM   14  H   UNL     1     -12.071   9.305  68.280  1.00  0.00     0.000 HD 
HETATM   15  C   UNL     1     -11.365   7.578  72.099  1.00  0.00    -0.326 A  
HETATM   16  C   UNL     1     -10.075   7.905  72.536  1.00  0.00    -0.325 A  
HETATM   17  C   UNL     1      -9.248   8.687  71.723  1.00  0.00    -0.338 A  
BRANCH  16  18
HETATM   18  C   UNL     1      -9.634   7.404  73.871  1.00  0.00    -0.254 C  
HETATM   19  N   UNL     1      -8.464   7.879  74.400  1.00  0.00    -0.388 N  
HETATM   20  O   UNL     1     -10.295   6.585  74.498  1.00  0.00    -0.341 OA 
HETATM   21  H1  UNL     1      -8.163   7.537  75.312  1.00  0.00     0.000 HD 
HETATM   22  H2  UNL     1      -7.904   8.563  73.891  1.00  0.00     0.000 HD 
ENDBRANCH  16  18
ENDBRANCH   2   4
TORSDOF 2
ENDMDL
MODEL      116
REMARK 921   NORMALIZED FREE ENERGY PREDICTED BY IDOCK:   -3.94 KCAL/MOL
REMARK 922        TOTAL FREE ENERGY PREDICTED BY IDOCK:   -4.51 KCAL/MOL
REMARK 923 INTER-LIGAND FREE ENERGY PREDICTED BY IDOCK:   -4.37 KCAL/MOL
REMARK 924 INTRA-LIGAND FREE ENERGY PREDICTED BY IDOCK:   -0.14 KCAL/MOL
REMARK 927      BINDING AFFINITY PREDICTED BY RF-SCORE:    0.00 PKD
ROOT
HETATM    1  C   UNL     1      -6.817   8.173  66.512  1.00  0.00    -0.067 C  
HETATM    2  N   UNL     1      -6.934   8.429  67.944  1.00  0.00    -0.076 NA 
HETATM    3  H   UNL     1      -6.140   8.972  68.283  1.00  0.00     0.000 HD 
ENDROOT
BRANCH   2   4
HETATM    4  C   UNL     1      -8.210   9.076  68.312  1.00  0.00    -0.116 C  
HETATM    5  C   UNL     1      -9.391   8.221  67.770  1.00  0.00    -0.153 C  
HETATM    6  C   UNL     1     -10.766   8.803  68.170  1.00  0.00    -0.131 C  
HETATM    7  C   UNL     1     -10.785  10.256  67.861  1.00  0.00    -0.264 A  
HETATM    8  C   UNL     1      -9.672  11.048  67.701  1.00  0.00    -0.184 A  
HETATM    9  C   UNL     1     -10.114  12.350  67.362  1.00  0.00    -0.205 A  
HETATM   10  C   UNL     1      -8.279  10.537  67.794  1.00  0.00    -0.107 C  
HETATM   11  C   UNL     1     -11.507  12.320  67.338  1.00  0.00    -0.352 A  
HETATM   12  N   UNL     1     -11.895  11.033  67.664  1.00  0.00    -0.623 NA 
HETATM   13  C   UNL     1     -12.268  13.446  67.013  1.00  0.00    -0.321 A  
HETATM   14  H   UNL     1     -12.859  10.711  67.745  1.00  0.00     0.000 HD 
HETATM   15  C   UNL     1     -11.574  14.626  66.699  1.00  0.00    -0.359 A  
HETATM   16  C   UNL     1     -10.174  14.685  66.713  1.00  0.00    -0.268 A  
HETATM   17  C   UNL     1      -9.438  13.544  67.050  1.00  0.00    -0.251 A  
BRANCH  16  18
HETATM   18  C   UNL     1      -9.519  15.978  66.357  1.00  0.00    -0.293 C  
HETATM   19  N   UNL     1      -8.156  16.071  66.438  1.00  0.00    -0.268 N  
HETATM   20  O   UNL     1     -10.173  16.948  65.993  1.00  0.00    -0.335 OA 
HETATM   21  H1  UNL     1      -7.709  16.954  66.195  1.00  0.00     0.000 HD 
HETATM   22  H2  UNL     1      -7.598  15.271  66.737  1.00  0.00     0.000 HD 
ENDBRANCH  16  18
ENDBRANCH   2   4
TORSDOF 2
ENDMDL
MODEL      117
REMARK 921   NORMALIZED FREE ENERGY PREDICTED BY IDOCK:   -3.94 KCAL/MOL
REMARK 922        TOTAL FREE ENERGY PREDICTED BY IDOCK:   -4.51 KCAL/MOL
REMARK 923 INTER-LIGAND FREE ENERGY PREDICTED BY IDOCK:   -4.38 KCAL/MOL
REMARK 924 INTRA-LIGAND FREE ENERGY PREDICTED BY IDOCK:   -0.13 KCAL/MOL
REMARK 927      BINDING AFFINITY PREDICTED BY RF-SCORE:    0.00 PKD
ROOT
HETATM    1  C   UNL     1      -7.052  16.362  67.142  1.00  0.00    -0.200 C  
HETATM    2  N   UNL     1      -7.189  14.929  66.898  1.00  0.00    -0.299 NA 
HETATM    3  H   UNL     1      -6.541  14.397  67.478  1.00  0.00     0.000 HD 
ENDROOT
BRANCH   2   4
HETATM    4  C   UNL     1      -8.574  14.444  67.073  1.00  0.00    -0.203 C  
HETATM    5  C   UNL     1      -9.392  15.507  67.860  1.00  0.00    -0.192 C  
HETATM    6  C   UNL     1     -10.872  15.098  68.029  1.00  0.00    -0.284 C  
HETATM    7  C   UNL     1     -10.934  13.697  68.520  1.00  0.00    -0.267 A  
HETATM    8  C   UNL     1      -9.926  12.769  68.401  1.00  0.00    -0.210 A  
HETATM    9  C   UNL     1     -10.355  11.581  69.041  1.00  0.00    -0.143 A  
HETATM   10  C   UNL     1      -8.609  13.062  67.776  1.00  0.00    -0.189 C  
HETATM   11  C   UNL     1     -11.639  11.816  69.529  1.00  0.00    -0.332 A  
HETATM   12  N   UNL     1     -11.978  13.111  69.182  1.00  0.00    -0.302 NA 
HETATM   13  C   UNL     1     -12.351  10.846  70.241  1.00  0.00    -0.412 A  
HETATM   14  H   UNL     1     -12.870  13.560  69.389  1.00  0.00     0.000 HD 
HETATM   15  C   UNL     1     -11.719   9.611  70.459  1.00  0.00    -0.312 A  
HETATM   16  C   UNL     1     -10.428   9.348  69.982  1.00  0.00    -0.266 A  
HETATM   17  C   UNL     1      -9.741  10.335  69.266  1.00  0.00    -0.240 A  
BRANCH  16  18
HETATM   18  C   UNL     1      -9.829   8.012  70.268  1.00  0.00    -0.184 C  
HETATM   19  N   UNL     1     -10.437   7.199  71.187  1.00  0.00    -0.210 N  
HETATM   20  O   UNL     1      -8.813   7.630  69.700  1.00  0.00    -0.139 OA 
HETATM   21  H1  UNL     1     -10.028   6.286  71.382  1.00  0.00     0.000 HD 
HETATM   22  H2  UNL     1     -11.285   7.502  71.667  1.00  0.00     0.000 HD 
ENDBRANCH  16  18
ENDBRANCH   2   4
TORSDOF 2
ENDMDL
MODEL      118
REMARK 921   NORMALIZED FREE ENERGY PREDICTED BY IDOCK:   -3.91 KCAL/MOL
REMARK 922        TOTAL FREE ENERGY PREDICTED BY IDOCK:   -4.48 KCAL/MOL
REMARK 923 INTER-LIGAND FREE ENERGY PREDICTED BY IDOCK:   -4.36 KCAL/MOL
REMARK 924 INTRA-LIGAND FREE ENERGY PREDICTED BY IDOCK:   -0.12 KCAL/MOL
REMARK 927      BINDING AFFINITY PREDICTED BY RF-SCORE:    0.00 PKD
ROOT
HETATM    1  C   UNL     1      -6.545   9.937  63.355  1.00  0.00    -0.126 C  
HETATM    2  N   UNL     1      -6.345  10.568  64.656  1.00  0.00    -0.336 NA 
HETATM    3  H   UNL     1      -6.380  11.584  64.576  1.00  0.00     0.000 HD 
ENDROOT
BRANCH   2   4
HETATM    4  C   UNL     1      -7.293  10.087  65.683  1.00  0.00    -0.127 C  
HETATM    5  C   UNL     1      -8.317   9.122  65.020  1.00  0.00    -0.165 C  
HETATM    6  C   UNL     1      -9.307   8.527  66.046  1.00  0.00    -0.266 C  
HETATM    7  C   UNL     1      -9.855   9.625  66.884  1.00  0.00    -0.200 A  
HETATM    8  C   UNL     1      -9.269  10.857  67.060  1.00  0.00    -0.165 A  
HETATM    9  C   UNL     1     -10.128  11.630  67.878  1.00  0.00    -0.198 A  
HETATM   10  C   UNL     1      -8.001  11.265  66.402  1.00  0.00    -0.125 C  
HETATM   11  C   UNL     1     -11.226  10.831  68.196  1.00  0.00    -0.302 A  
HETATM   12  N   UNL     1     -11.027   9.603  67.591  1.00  0.00    -0.459 NA 
HETATM   13  C   UNL     1     -12.283  11.301  68.980  1.00  0.00    -0.211 A  
HETATM   14  H   UNL     1     -11.657   8.805  67.661  1.00  0.00     0.000 HD 
HETATM   15  C   UNL     1     -12.209  12.627  69.438  1.00  0.00    -0.116 A  
HETATM   16  C   UNL     1     -11.119  13.453  69.132  1.00  0.00    -0.261 A  
HETATM   17  C   UNL     1     -10.071  12.954  68.352  1.00  0.00    -0.227 A  
BRANCH  16  18
HETATM   18  C   UNL     1     -11.127  14.851  69.653  1.00  0.00    -0.276 C  
HETATM   19  N   UNL     1      -9.948  15.406  70.070  1.00  0.00    -0.446 N  
HETATM   20  O   UNL     1     -12.161  15.508  69.711  1.00  0.00    -0.351 OA 
HETATM   21  H1  UNL     1      -9.953  16.362  70.426  1.00  0.00     0.000 HD 
HETATM   22  H2  UNL     1      -9.079  14.874  70.027  1.00  0.00     0.000 HD 
ENDBRANCH  16  18
ENDBRANCH   2   4
TORSDOF 2
ENDMDL
MODEL      119
REMARK 921   NORMALIZED FREE ENERGY PREDICTED BY IDOCK:   -3.89 KCAL/MOL
REMARK 922        TOTAL FREE ENERGY PREDICTED BY IDOCK:   -4.46 KCAL/MOL
REMARK 923 INTER-LIGAND FREE ENERGY PREDICTED BY IDOCK:   -4.34 KCAL/MOL
REMARK 924 INTRA-LIGAND FREE ENERGY PREDICTED BY IDOCK:   -0.12 KCAL/MOL
REMARK 927      BINDING AFFINITY PREDICTED BY RF-SCORE:    0.00 PKD
ROOT
HETATM    1  C   UNL     1      -7.153  17.536  67.993  1.00  0.00    -0.201 C  
HETATM    2  N   UNL     1      -8.408  17.788  68.694  1.00  0.00    -0.295 NA 
HETATM    3  H   UNL     1      -8.665  18.773  68.638  1.00  0.00     0.000 HD 
ENDROOT
BRANCH   2   4
HETATM    4  C   UNL     1      -9.513  16.926  68.226  1.00  0.00    -0.250 C  
HETATM    5  C   UNL     1     -10.561  16.775  69.366  1.00  0.00    -0.318 C  
HETATM    6  C   UNL     1     -11.782  15.936  68.930  1.00  0.00    -0.376 C  
HETATM    7  C   UNL     1     -11.304  14.688  68.279  1.00  0.00    -0.297 A  
HETATM    8  C   UNL     1     -10.056  14.506  67.731  1.00  0.00    -0.225 A  
HETATM    9  C   UNL     1      -9.979  13.171  67.267  1.00  0.00    -0.230 A  
HETATM   10  C   UNL     1      -8.995  15.547  67.740  1.00  0.00    -0.173 C  
HETATM   11  C   UNL     1     -11.207  12.568  67.536  1.00  0.00    -0.291 A  
HETATM   12  N   UNL     1     -12.007  13.521  68.140  1.00  0.00    -0.361 NA 
HETATM   13  C   UNL     1     -11.461  11.230  67.223  1.00  0.00    -0.265 A  
HETATM   14  H   UNL     1     -12.972  13.377  68.436  1.00  0.00     0.000 HD 
HETATM   15  C   UNL     1     -10.422  10.497  66.626  1.00  0.00    -0.290 A  
HETATM   16  C   UNL     1      -9.177  11.076  66.345  1.00  0.00    -0.192 A  
HETATM   17  C   UNL     1      -8.953  12.421  66.663  1.00  0.00    -0.184 A  
BRANCH  16  18
HETATM   18  C   UNL     1      -8.128  10.222  65.717  1.00  0.00    -0.149 C  
HETATM   19  N   UNL     1      -7.238   9.569  66.527  1.00  0.00    -0.089 N  
HETATM   20  O   UNL     1      -8.049  10.093  64.501  1.00  0.00    -0.154 OA 
HETATM   21  H1  UNL     1      -6.521   8.985  66.098  1.00  0.00     0.000 HD 
HETATM   22  H2  UNL     1      -7.291   9.665  67.541  1.00  0.00     0.000 HD 
ENDBRANCH  16  18
ENDBRANCH   2   4
TORSDOF 2
ENDMDL
MODEL      120
REMARK 921   NORMALIZED FREE ENERGY PREDICTED BY IDOCK:   -3.89 KCAL/MOL
REMARK 922        TOTAL FREE ENERGY PREDICTED BY IDOCK:   -4.46 KCAL/MOL
REMARK 923 INTER-LIGAND FREE ENERGY PREDICTED BY IDOCK:   -4.33 KCAL/MOL
REMARK 924 INTRA-LIGAND FREE ENERGY PREDICTED BY IDOCK:   -0.12 KCAL/MOL
REMARK 927      BINDING AFFINITY PREDICTED BY RF-SCORE:    0.00 PKD
ROOT
HETATM    1  C   UNL     1      -6.040  15.860  69.847  1.00  0.00    -0.166 C  
HETATM    2  N   UNL     1      -6.831  16.968  69.319  1.00  0.00    -0.236 NA 
HETATM    3  H   UNL     1      -6.260  17.807  69.217  1.00  0.00     0.000 HD 
ENDROOT
BRANCH   2   4
HETATM    4  C   UNL     1      -7.514  16.637  68.052  1.00  0.00    -0.164 C  
HETATM    5  C   UNL     1      -8.784  17.524  67.909  1.00  0.00    -0.247 C  
HETATM    6  C   UNL     1      -9.521  17.279  66.574  1.00  0.00    -0.286 C  
HETATM    7  C   UNL     1      -9.692  15.817  66.377  1.00  0.00    -0.282 A  
HETATM    8  C   UNL     1      -8.944  14.840  66.991  1.00  0.00    -0.258 A  
HETATM    9  C   UNL     1      -9.455  13.584  66.583  1.00  0.00    -0.271 A  
HETATM   10  C   UNL     1      -7.862  15.127  67.969  1.00  0.00    -0.135 C  
HETATM   11  C   UNL     1     -10.509  13.832  65.706  1.00  0.00    -0.299 A  
HETATM   12  N   UNL     1     -10.624  15.205  65.582  1.00  0.00    -0.331 NA 
HETATM   13  C   UNL     1     -11.255  12.799  65.131  1.00  0.00    -0.327 A  
HETATM   14  H   UNL     1     -11.299  15.687  64.989  1.00  0.00     0.000 HD 
HETATM   15  C   UNL     1     -10.908  11.483  65.475  1.00  0.00    -0.313 A  
HETATM   16  C   UNL     1      -9.854  11.203  66.355  1.00  0.00    -0.248 A  
HETATM   17  C   UNL     1      -9.120  12.257  66.911  1.00  0.00    -0.208 A  
BRANCH  16  18
HETATM   18  C   UNL     1      -9.560   9.775  66.673  1.00  0.00    -0.187 C  
HETATM   19  N   UNL     1     -10.290   9.154  67.650  1.00  0.00    -0.240 N  
HETATM   20  O   UNL     1      -8.687   9.153  66.080  1.00  0.00    -0.138 OA 
HETATM   21  H1  UNL     1     -10.089   8.178  67.867  1.00  0.00     0.000 HD 
HETATM   22  H2  UNL     1     -11.021   9.657  68.152  1.00  0.00     0.000 HD 
ENDBRANCH  16  18
ENDBRANCH   2   4
TORSDOF 2
ENDMDL
MODEL      121
REMARK 921   NORMALIZED FREE ENERGY PREDICTED BY IDOCK:   -3.88 KCAL/MOL
REMARK 922        TOTAL FREE ENERGY PREDICTED BY IDOCK:   -4.45 KCAL/MOL
REMARK 923 INTER-LIGAND FREE ENERGY PREDICTED BY IDOCK:   -4.31 KCAL/MOL
REMARK 924 INTRA-LIGAND FREE ENERGY PREDICTED BY IDOCK:   -0.14 KCAL/MOL
REMARK 927      BINDING AFFINITY PREDICTED BY RF-SCORE:    0.00 PKD
ROOT
HETATM    1  C   UNL     1      -5.374  19.165  67.361  1.00  0.00    -0.163 C  
HETATM    2  N   UNL     1      -6.567  19.894  67.781  1.00  0.00    -0.229 NA 
HETATM    3  H   UNL     1      -6.548  20.853  67.436  1.00  0.00     0.000 HD 
ENDROOT
BRANCH   2   4
HETATM    4  C   UNL     1      -7.823  19.218  67.392  1.00  0.00    -0.255 C  
HETATM    5  C   UNL     1      -8.960  19.661  68.355  1.00  0.00    -0.372 C  
HETATM    6  C   UNL     1     -10.324  19.042  67.973  1.00  0.00    -0.472 C  
HETATM    7  C   UNL     1     -10.149  17.583  67.757  1.00  0.00    -0.330 A  
HETATM    8  C   UNL     1      -8.956  16.959  67.476  1.00  0.00    -0.208 A  
HETATM    9  C   UNL     1      -9.205  15.567  67.398  1.00  0.00    -0.209 A  
HETATM   10  C   UNL     1      -7.658  17.675  67.374  1.00  0.00    -0.213 C  
HETATM   11  C   UNL     1     -10.567  15.377  67.625  1.00  0.00    -0.280 A  
HETATM   12  N   UNL     1     -11.127  16.626  67.824  1.00  0.00    -0.226 NA 
HETATM   13  C   UNL     1     -11.147  14.105  67.641  1.00  0.00    -0.296 A  
HETATM   14  H   UNL     1     -12.116  16.807  67.995  1.00  0.00     0.000 HD 
HETATM   15  C   UNL     1     -10.299  13.006  67.425  1.00  0.00    -0.234 A  
HETATM   16  C   UNL     1      -8.926  13.167  67.197  1.00  0.00    -0.228 A  
HETATM   17  C   UNL     1      -8.374  14.453  67.180  1.00  0.00    -0.214 A  
BRANCH  16  18
HETATM   18  C   UNL     1      -8.098  11.943  66.987  1.00  0.00    -0.167 C  
HETATM   19  N   UNL     1      -8.696  10.717  67.096  1.00  0.00    -0.130 N  
HETATM   20  O   UNL     1      -6.905  12.015  66.720  1.00  0.00    -0.083 OA 
HETATM   21  H1  UNL     1      -8.131   9.880  66.953  1.00  0.00     0.000 HD 
HETATM   22  H2  UNL     1      -9.689  10.640  67.316  1.00  0.00     0.000 HD 
ENDBRANCH  16  18
ENDBRANCH   2   4
TORSDOF 2
ENDMDL
MODEL      122
REMARK 921   NORMALIZED FREE ENERGY PREDICTED BY IDOCK:   -3.88 KCAL/MOL
REMARK 922        TOTAL FREE ENERGY PREDICTED BY IDOCK:   -4.45 KCAL/MOL
REMARK 923 INTER-LIGAND FREE ENERGY PREDICTED BY IDOCK:   -4.34 KCAL/MOL
REMARK 924 INTRA-LIGAND FREE ENERGY PREDICTED BY IDOCK:   -0.11 KCAL/MOL
REMARK 927      BINDING AFFINITY PREDICTED BY RF-SCORE:    0.00 PKD
ROOT
HETATM    1  C   UNL     1     -10.688  17.252  67.962  1.00  0.00    -0.367 C  
HETATM    2  N   UNL     1      -9.586  16.434  67.463  1.00  0.00    -0.226 NA 
HETATM    3  H   UNL     1      -8.849  16.351  68.162  1.00  0.00     0.000 HD 
ENDROOT
BRANCH   2   4
HETATM    4  C   UNL     1     -10.022  15.102  66.995  1.00  0.00    -0.241 C  
HETATM    5  C   UNL     1     -11.573  15.018  67.067  1.00  0.00    -0.248 C  
HETATM    6  C   UNL     1     -12.111  13.671  66.533  1.00  0.00    -0.469 C  
HETATM    7  C   UNL     1     -11.343  12.563  67.156  1.00  0.00    -0.324 A  
HETATM    8  C   UNL     1     -10.096  12.681  67.723  1.00  0.00    -0.220 A  
HETATM    9  C   UNL     1      -9.740  11.416  68.251  1.00  0.00    -0.202 A  
HETATM   10  C   UNL     1      -9.351  13.964  67.808  1.00  0.00    -0.204 C  
HETATM   11  C   UNL     1     -10.791  10.543  67.976  1.00  0.00    -0.263 A  
HETATM   12  N   UNL     1     -11.752  11.263  67.290  1.00  0.00    -0.553 NA 
HETATM   13  C   UNL     1     -10.772   9.206  68.385  1.00  0.00    -0.163 A  
HETATM   14  H   UNL     1     -12.631  10.884  66.938  1.00  0.00     0.000 HD 
HETATM   15  C   UNL     1      -9.646   8.766  69.099  1.00  0.00    -0.162 A  
HETATM   16  C   UNL     1      -8.575   9.621  69.392  1.00  0.00    -0.160 A  
HETATM   17  C   UNL     1      -8.619  10.953  68.964  1.00  0.00    -0.110 A  
BRANCH  16  18
HETATM   18  C   UNL     1      -7.423   9.071  70.164  1.00  0.00    -0.072 C  
HETATM   19  N   UNL     1      -6.575   8.193  69.546  1.00  0.00    -0.038 N  
HETATM   20  O   UNL     1      -7.223   9.390  71.330  1.00  0.00    -0.318 OA 
HETATM   21  H1  UNL     1      -5.788   7.817  70.074  1.00  0.00     0.000 HD 
HETATM   22  H2  UNL     1      -6.727   7.919  68.576  1.00  0.00     0.000 HD 
ENDBRANCH  16  18
ENDBRANCH   2   4
TORSDOF 2
ENDMDL
MODEL      123
REMARK 921   NORMALIZED FREE ENERGY PREDICTED BY IDOCK:   -3.87 KCAL/MOL
REMARK 922        TOTAL FREE ENERGY PREDICTED BY IDOCK:   -4.44 KCAL/MOL
REMARK 923 INTER-LIGAND FREE ENERGY PREDICTED BY IDOCK:   -4.35 KCAL/MOL
REMARK 924 INTRA-LIGAND FREE ENERGY PREDICTED BY IDOCK:   -0.09 KCAL/MOL
REMARK 927      BINDING AFFINITY PREDICTED BY RF-SCORE:    0.00 PKD
ROOT
HETATM    1  C   UNL     1     -11.382   7.764  72.602  1.00  0.00    -0.393 C  
HETATM    2  N   UNL     1     -12.300   8.280  71.593  1.00  0.00    -0.303 NA 
HETATM    3  H   UNL     1     -13.183   8.566  72.016  1.00  0.00     0.000 HD 
ENDROOT
BRANCH   2   4
HETATM    4  C   UNL     1     -11.720   9.377  70.791  1.00  0.00    -0.282 C  
HETATM    5  C   UNL     1     -12.848  10.373  70.395  1.00  0.00    -0.249 C  
HETATM    6  C   UNL     1     -12.308  11.585  69.605  1.00  0.00    -0.207 C  
HETATM    7  C   UNL     1     -11.423  11.097  68.515  1.00  0.00    -0.302 A  
HETATM    8  C   UNL     1     -10.808   9.867  68.483  1.00  0.00    -0.257 A  
HETATM    9  C   UNL     1     -10.104   9.768  67.258  1.00  0.00    -0.261 A  
HETATM   10  C   UNL     1     -10.972   8.838  69.543  1.00  0.00    -0.080 C  
HETATM   11  C   UNL     1     -10.300  10.965  66.571  1.00  0.00    -0.247 A  
HETATM   12  N   UNL     1     -11.096  11.768  67.368  1.00  0.00    -0.263 NA 
HETATM   13  C   UNL     1      -9.756  11.191  65.304  1.00  0.00    -0.285 A  
HETATM   14  H   UNL     1     -11.393  12.716  67.137  1.00  0.00     0.000 HD 
HETATM   15  C   UNL     1      -8.998  10.156  64.732  1.00  0.00    -0.236 A  
HETATM   16  C   UNL     1      -8.786   8.942  65.399  1.00  0.00    -0.234 A  
HETATM   17  C   UNL     1      -9.338   8.746  66.670  1.00  0.00    -0.242 A  
BRANCH  16  18
HETATM   18  C   UNL     1      -7.977   7.893  64.712  1.00  0.00    -0.140 C  
HETATM   19  N   UNL     1      -8.614   6.788  64.215  1.00  0.00    -0.308 N  
HETATM   20  O   UNL     1      -6.763   8.002  64.585  1.00  0.00    -0.058 OA 
HETATM   21  H1  UNL     1      -8.061   6.072  63.746  1.00  0.00     0.000 HD 
HETATM   22  H2  UNL     1      -9.624   6.684  64.312  1.00  0.00     0.000 HD 
ENDBRANCH  16  18
ENDBRANCH   2   4
TORSDOF 2
ENDMDL
MODEL      124
REMARK 921   NORMALIZED FREE ENERGY PREDICTED BY IDOCK:   -3.86 KCAL/MOL
REMARK 922        TOTAL FREE ENERGY PREDICTED BY IDOCK:   -4.42 KCAL/MOL
REMARK 923 INTER-LIGAND FREE ENERGY PREDICTED BY IDOCK:   -4.28 KCAL/MOL
REMARK 924 INTRA-LIGAND FREE ENERGY PREDICTED BY IDOCK:   -0.14 KCAL/MOL
REMARK 927      BINDING AFFINITY PREDICTED BY RF-SCORE:    0.00 PKD
ROOT
HETATM    1  C   UNL     1      -8.437  12.245  68.531  1.00  0.00    -0.077 C  
HETATM    2  N   UNL     1      -7.302  12.149  69.444  1.00  0.00    -0.331 NA 
HETATM    3  H   UNL     1      -6.725  11.337  69.223  1.00  0.00     0.000 HD 
ENDROOT
BRANCH   2   4
HETATM    4  C   UNL     1      -6.486  13.380  69.483  1.00  0.00    -0.083 C  
HETATM    5  C   UNL     1      -6.047  13.655  70.949  1.00  0.00    -0.019 C  
HETATM    6  C   UNL     1      -5.135  14.897  71.063  1.00  0.00    -0.137 C  
HETATM    7  C   UNL     1      -5.757  16.024  70.320  1.00  0.00    -0.147 A  
HETATM    8  C   UNL     1      -6.701  15.896  69.328  1.00  0.00    -0.176 A  
HETATM    9  C   UNL     1      -7.076  17.198  68.918  1.00  0.00    -0.242 A  
HETATM   10  C   UNL     1      -7.250  14.589  68.880  1.00  0.00    -0.125 C  
HETATM   11  C   UNL     1      -6.329  18.100  69.674  1.00  0.00    -0.179 A  
HETATM   12  N   UNL     1      -5.516  17.358  70.511  1.00  0.00    -0.248 NA 
HETATM   13  C   UNL     1      -6.473  19.483  69.534  1.00  0.00    -0.368 A  
HETATM   14  H   UNL     1      -4.841  17.745  71.171  1.00  0.00     0.000 HD 
HETATM   15  C   UNL     1      -7.415  19.943  68.599  1.00  0.00    -0.276 A  
HETATM   16  C   UNL     1      -8.181  19.060  67.827  1.00  0.00    -0.305 A  
HETATM   17  C   UNL     1      -8.011  17.680  67.983  1.00  0.00    -0.241 A  
BRANCH  16  18
HETATM   18  C   UNL     1      -9.165  19.636  66.865  1.00  0.00    -0.350 C  
HETATM   19  N   UNL     1      -9.804  20.801  67.193  1.00  0.00    -0.591 N  
HETATM   20  O   UNL     1      -9.408  19.092  65.794  1.00  0.00    -0.388 OA 
HETATM   21  H1  UNL     1     -10.477  21.195  66.536  1.00  0.00     0.000 HD 
HETATM   22  H2  UNL     1      -9.612  21.267  68.079  1.00  0.00     0.000 HD 
ENDBRANCH  16  18
ENDBRANCH   2   4
TORSDOF 2
ENDMDL
MODEL      125
REMARK 921   NORMALIZED FREE ENERGY PREDICTED BY IDOCK:   -3.85 KCAL/MOL
REMARK 922        TOTAL FREE ENERGY PREDICTED BY IDOCK:   -4.41 KCAL/MOL
REMARK 923 INTER-LIGAND FREE ENERGY PREDICTED BY IDOCK:   -4.27 KCAL/MOL
REMARK 924 INTRA-LIGAND FREE ENERGY PREDICTED BY IDOCK:   -0.14 KCAL/MOL
REMARK 927      BINDING AFFINITY PREDICTED BY RF-SCORE:    0.00 PKD
ROOT
HETATM    1  C   UNL     1      -6.579   5.061  66.844  1.00  0.00    -0.050 C  
HETATM    2  N   UNL     1      -7.644   5.429  65.915  1.00  0.00    -0.082 NA 
HETATM    3  H   UNL     1      -7.729   4.740  65.168  1.00  0.00     0.000 HD 
ENDROOT
BRANCH   2   4
HETATM    4  C   UNL     1      -8.944   5.646  66.584  1.00  0.00    -0.120 C  
HETATM    5  C   UNL     1      -9.312   7.155  66.508  1.00  0.00    -0.208 C  
HETATM    6  C   UNL     1     -10.693   7.452  67.134  1.00  0.00    -0.400 C  
HETATM    7  C   UNL     1     -10.769   6.803  68.468  1.00  0.00    -0.231 A  
HETATM    8  C   UNL     1      -9.985   5.754  68.887  1.00  0.00    -0.211 A  
HETATM    9  C   UNL     1     -10.328   5.468  70.230  1.00  0.00    -0.349 A  
HETATM   10  C   UNL     1      -8.922   5.137  68.050  1.00  0.00    -0.117 C  
HETATM   11  C   UNL     1     -11.338   6.356  70.597  1.00  0.00    -0.357 A  
HETATM   12  N   UNL     1     -11.603   7.151  69.497  1.00  0.00    -0.518 NA 
HETATM   13  C   UNL     1     -11.893   6.359  71.880  1.00  0.00    -0.380 A  
HETATM   14  H   UNL     1     -12.310   7.884  69.458  1.00  0.00     0.000 HD 
HETATM   15  C   UNL     1     -11.389   5.430  72.804  1.00  0.00    -0.358 A  
HETATM   16  C   UNL     1     -10.373   4.527  72.464  1.00  0.00    -0.257 A  
HETATM   17  C   UNL     1      -9.841   4.541  71.170  1.00  0.00    -0.263 A  
BRANCH  16  18
HETATM   18  C   UNL     1      -9.891   3.580  73.512  1.00  0.00    -0.110 C  
HETATM   19  N   UNL     1      -8.548   3.342  73.618  1.00  0.00    -0.078 N  
HETATM   20  O   UNL     1     -10.669   3.019  74.275  1.00  0.00    -0.178 OA 
HETATM   21  H1  UNL     1      -8.218   2.696  74.334  1.00  0.00     0.000 HD 
HETATM   22  H2  UNL     1      -7.887   3.803  72.992  1.00  0.00     0.000 HD 
ENDBRANCH  16  18
ENDBRANCH   2   4
TORSDOF 2
ENDMDL
MODEL      126
REMARK 921   NORMALIZED FREE ENERGY PREDICTED BY IDOCK:   -3.72 KCAL/MOL
REMARK 922        TOTAL FREE ENERGY PREDICTED BY IDOCK:   -4.27 KCAL/MOL
REMARK 923 INTER-LIGAND FREE ENERGY PREDICTED BY IDOCK:   -4.15 KCAL/MOL
REMARK 924 INTRA-LIGAND FREE ENERGY PREDICTED BY IDOCK:   -0.12 KCAL/MOL
REMARK 927      BINDING AFFINITY PREDICTED BY RF-SCORE:    0.00 PKD
ROOT
HETATM    1  C   UNL     1     -10.553  16.911  68.552  1.00  0.00    -0.367 C  
HETATM    2  N   UNL     1      -9.391  17.084  67.685  1.00  0.00    -0.239 NA 
HETATM    3  H   UNL     1      -8.528  17.073  68.228  1.00  0.00     0.000 HD 
ENDROOT
BRANCH   2   4
HETATM    4  C   UNL     1      -9.338  16.097  66.588  1.00  0.00    -0.242 C  
HETATM    5  C   UNL     1     -10.688  16.118  65.815  1.00  0.00    -0.289 C  
HETATM    6  C   UNL     1     -10.686  15.152  64.609  1.00  0.00    -0.234 C  
HETATM    7  C   UNL     1     -10.180  13.827  65.051  1.00  0.00    -0.346 A  
HETATM    8  C   UNL     1      -9.413  13.603  66.170  1.00  0.00    -0.166 A  
HETATM    9  C   UNL     1      -9.190  12.208  66.268  1.00  0.00    -0.183 A  
HETATM   10  C   UNL     1      -9.005  14.676  67.115  1.00  0.00    -0.240 C  
HETATM   11  C   UNL     1      -9.824  11.611  65.181  1.00  0.00    -0.249 A  
HETATM   12  N   UNL     1     -10.408  12.623  64.441  1.00  0.00    -0.405 NA 
HETATM   13  C   UNL     1      -9.818  10.227  64.987  1.00  0.00    -0.397 A  
HETATM   14  H   UNL     1     -10.929  12.493  63.574  1.00  0.00     0.000 HD 
HETATM   15  C   UNL     1      -9.148   9.443  65.941  1.00  0.00    -0.242 A  
HETATM   16  C   UNL     1      -8.503  10.016  67.045  1.00  0.00    -0.125 A  
HETATM   17  C   UNL     1      -8.520  11.406  67.210  1.00  0.00    -0.148 A  
BRANCH  16  18
HETATM   18  C   UNL     1      -7.824   9.108  68.014  1.00  0.00    -0.100 C  
HETATM   19  N   UNL     1      -6.535   8.723  67.765  1.00  0.00    -0.060 N  
HETATM   20  O   UNL     1      -8.393   8.706  69.022  1.00  0.00    -0.116 OA 
HETATM   21  H1  UNL     1      -6.071   8.102  68.427  1.00  0.00     0.000 HD 
HETATM   22  H2  UNL     1      -6.047   9.050  66.931  1.00  0.00     0.000 HD 
ENDBRANCH  16  18
ENDBRANCH   2   4
TORSDOF 2
ENDMDL
MODEL      127
REMARK 921   NORMALIZED FREE ENERGY PREDICTED BY IDOCK:   -3.72 KCAL/MOL
REMARK 922        TOTAL FREE ENERGY PREDICTED BY IDOCK:   -4.27 KCAL/MOL
REMARK 923 INTER-LIGAND FREE ENERGY PREDICTED BY IDOCK:   -4.17 KCAL/MOL
REMARK 924 INTRA-LIGAND FREE ENERGY PREDICTED BY IDOCK:   -0.10 KCAL/MOL
REMARK 927      BINDING AFFINITY PREDICTED BY RF-SCORE:    0.00 PKD
ROOT
HETATM    1  C   UNL     1     -14.385   8.002  71.417  1.00  0.00    -0.375 C  
HETATM    2  N   UNL     1     -13.114   8.579  70.991  1.00  0.00    -0.500 NA 
HETATM    3  H   UNL     1     -13.035   9.550  71.295  1.00  0.00     0.000 HD 
ENDROOT
BRANCH   2   4
HETATM    4  C   UNL     1     -11.945   7.791  71.433  1.00  0.00    -0.306 C  
HETATM    5  C   UNL     1     -10.802   8.761  71.847  1.00  0.00    -0.431 C  
HETATM    6  C   UNL     1      -9.563   8.009  72.382  1.00  0.00    -0.297 C  
HETATM    7  C   UNL     1      -9.215   6.916  71.437  1.00  0.00    -0.156 A  
HETATM    8  C   UNL     1     -10.073   6.355  70.521  1.00  0.00    -0.221 A  
HETATM    9  C   UNL     1      -9.345   5.393  69.780  1.00  0.00    -0.186 A  
HETATM   10  C   UNL     1     -11.481   6.796  70.336  1.00  0.00    -0.419 C  
HETATM   11  C   UNL     1      -8.045   5.382  70.282  1.00  0.00    -0.097 A  
HETATM   12  N   UNL     1      -7.994   6.309  71.307  1.00  0.00    -0.114 NA 
HETATM   13  C   UNL     1      -7.052   4.553  69.752  1.00  0.00    -0.050 A  
HETATM   14  H   UNL     1      -7.174   6.511  71.878  1.00  0.00     0.000 HD 
HETATM   15  C   UNL     1      -7.409   3.723  68.677  1.00  0.00    -0.054 A  
HETATM   16  C   UNL     1      -8.708   3.714  68.151  1.00  0.00    -0.130 A  
HETATM   17  C   UNL     1      -9.684   4.550  68.706  1.00  0.00    -0.213 A  
BRANCH  16  18
HETATM   18  C   UNL     1      -8.997   2.807  67.002  1.00  0.00    -0.156 C  
HETATM   19  N   UNL     1      -9.352   1.510  67.258  1.00  0.00    -0.334 N  
HETATM   20  O   UNL     1      -8.925   3.198  65.843  1.00  0.00    -0.134 OA 
HETATM   21  H1  UNL     1      -9.549   0.890  66.473  1.00  0.00     0.000 HD 
HETATM   22  H2  UNL     1      -9.418   1.169  68.217  1.00  0.00     0.000 HD 
ENDBRANCH  16  18
ENDBRANCH   2   4
TORSDOF 2
ENDMDL
MODEL      128
REMARK 921   NORMALIZED FREE ENERGY PREDICTED BY IDOCK:   -3.70 KCAL/MOL
REMARK 922        TOTAL FREE ENERGY PREDICTED BY IDOCK:   -4.24 KCAL/MOL
REMARK 923 INTER-LIGAND FREE ENERGY PREDICTED BY IDOCK:   -4.13 KCAL/MOL
REMARK 924 INTRA-LIGAND FREE ENERGY PREDICTED BY IDOCK:   -0.11 KCAL/MOL
REMARK 927      BINDING AFFINITY PREDICTED BY RF-SCORE:    0.00 PKD
ROOT
HETATM    1  C   UNL     1     -11.780  10.680  70.688  1.00  0.00    -0.356 C  
HETATM    2  N   UNL     1     -12.132  11.741  69.750  1.00  0.00    -0.290 NA 
HETATM    3  H   UNL     1     -12.338  12.610  70.243  1.00  0.00     0.000 HD 
ENDROOT
BRANCH   2   4
HETATM    4  C   UNL     1     -11.105  11.956  68.710  1.00  0.00    -0.245 C  
HETATM    5  C   UNL     1     -11.679  12.896  67.612  1.00  0.00    -0.422 C  
HETATM    6  C   UNL     1     -10.638  13.219  66.516  1.00  0.00    -0.289 C  
HETATM    7  C   UNL     1     -10.006  11.954  66.061  1.00  0.00    -0.232 A  
HETATM    8  C   UNL     1      -9.979  10.778  66.775  1.00  0.00    -0.249 A  
HETATM    9  C   UNL     1      -9.337   9.802  65.974  1.00  0.00    -0.249 A  
HETATM   10  C   UNL     1     -10.612  10.612  68.109  1.00  0.00    -0.237 C  
HETATM   11  C   UNL     1      -8.972  10.422  64.780  1.00  0.00    -0.202 A  
HETATM   12  N   UNL     1      -9.376  11.742  64.864  1.00  0.00    -0.429 NA 
HETATM   13  C   UNL     1      -8.332   9.727  63.750  1.00  0.00    -0.170 A  
HETATM   14  H   UNL     1      -9.227  12.449  64.145  1.00  0.00     0.000 HD 
HETATM   15  C   UNL     1      -8.071   8.363  63.955  1.00  0.00    -0.143 A  
HETATM   16  C   UNL     1      -8.429   7.713  65.144  1.00  0.00    -0.057 A  
HETATM   17  C   UNL     1      -9.062   8.435  66.162  1.00  0.00    -0.238 A  
BRANCH  16  18
HETATM   18  C   UNL     1      -8.122   6.259  65.272  1.00  0.00    -0.132 C  
HETATM   19  N   UNL     1      -7.057   5.875  66.042  1.00  0.00    -0.072 N  
HETATM   20  O   UNL     1      -8.801   5.408  64.708  1.00  0.00    -0.122 OA 
HETATM   21  H1  UNL     1      -6.848   4.881  66.130  1.00  0.00     0.000 HD 
HETATM   22  H2  UNL     1      -6.484   6.570  66.519  1.00  0.00     0.000 HD 
ENDBRANCH  16  18
ENDBRANCH   2   4
TORSDOF 2
ENDMDL
MODEL      129
REMARK 921   NORMALIZED FREE ENERGY PREDICTED BY IDOCK:   -3.66 KCAL/MOL
REMARK 922        TOTAL FREE ENERGY PREDICTED BY IDOCK:   -4.20 KCAL/MOL
REMARK 923 INTER-LIGAND FREE ENERGY PREDICTED BY IDOCK:   -4.09 KCAL/MOL
REMARK 924 INTRA-LIGAND FREE ENERGY PREDICTED BY IDOCK:   -0.11 KCAL/MOL
REMARK 927      BINDING AFFINITY PREDICTED BY RF-SCORE:    0.00 PKD
ROOT
HETATM    1  C   UNL     1     -12.783  11.960  63.132  1.00  0.00    -0.127 C  
HETATM    2  N   UNL     1     -11.772  12.995  63.325  1.00  0.00    -0.811 NA 
HETATM    3  H   UNL     1     -12.096  13.892  62.967  1.00  0.00     0.000 HD 
ENDROOT
BRANCH   2   4
HETATM    4  C   UNL     1     -11.332  13.116  64.731  1.00  0.00    -0.324 C  
HETATM    5  C   UNL     1     -10.405  14.358  64.870  1.00  0.00    -0.419 C  
HETATM    6  C   UNL     1      -9.953  14.588  66.330  1.00  0.00    -0.320 C  
HETATM    7  C   UNL     1      -9.455  13.305  66.890  1.00  0.00    -0.249 A  
HETATM    8  C   UNL     1      -9.763  12.055  66.407  1.00  0.00    -0.239 A  
HETATM    9  C   UNL     1      -9.048  11.106  67.178  1.00  0.00    -0.151 A  
HETATM   10  C   UNL     1     -10.631  11.822  65.223  1.00  0.00    -0.327 C  
HETATM   11  C   UNL     1      -8.322  11.814  68.135  1.00  0.00    -0.156 A  
HETATM   12  N   UNL     1      -8.602  13.156  67.950  1.00  0.00    -0.173 NA 
HETATM   13  C   UNL     1      -7.483  11.175  69.052  1.00  0.00    -0.124 A  
HETATM   14  H   UNL     1      -8.229  13.917  68.517  1.00  0.00     0.000 HD 
HETATM   15  C   UNL     1      -7.387   9.776  68.974  1.00  0.00    -0.078 A  
HETATM   16  C   UNL     1      -8.103   9.039  68.021  1.00  0.00    -0.105 A  
HETATM   17  C   UNL     1      -8.941   9.705  67.119  1.00  0.00    -0.148 A  
BRANCH  16  18
HETATM   18  C   UNL     1      -7.934   7.556  68.003  1.00  0.00    -0.123 C  
HETATM   19  N   UNL     1      -7.868   6.886  69.194  1.00  0.00    -0.109 N  
HETATM   20  O   UNL     1      -7.855   6.933  66.951  1.00  0.00    -0.104 OA 
HETATM   21  H1  UNL     1      -7.753   5.873  69.182  1.00  0.00     0.000 HD 
HETATM   22  H2  UNL     1      -7.935   7.390  70.079  1.00  0.00     0.000 HD 
ENDBRANCH  16  18
ENDBRANCH   2   4
TORSDOF 2
ENDMDL
MODEL      130
REMARK 921   NORMALIZED FREE ENERGY PREDICTED BY IDOCK:   -3.62 KCAL/MOL
REMARK 922        TOTAL FREE ENERGY PREDICTED BY IDOCK:   -4.16 KCAL/MOL
REMARK 923 INTER-LIGAND FREE ENERGY PREDICTED BY IDOCK:   -4.04 KCAL/MOL
REMARK 924 INTRA-LIGAND FREE ENERGY PREDICTED BY IDOCK:   -0.12 KCAL/MOL
REMARK 927      BINDING AFFINITY PREDICTED BY RF-SCORE:    0.00 PKD
ROOT
HETATM    1  C   UNL     1      -6.477   7.608  73.114  1.00  0.00    -0.064 C  
HETATM    2  N   UNL     1      -7.845   7.207  73.428  1.00  0.00    -0.094 NA 
HETATM    3  H   UNL     1      -7.949   7.019  74.425  1.00  0.00     0.000 HD 
ENDROOT
BRANCH   2   4
HETATM    4  C   UNL     1      -8.853   8.184  72.967  1.00  0.00    -0.248 C  
HETATM    5  C   UNL     1     -10.274   7.581  73.161  1.00  0.00    -0.382 C  
HETATM    6  C   UNL     1     -11.389   8.571  72.758  1.00  0.00    -0.091 C  
HETATM    7  C   UNL     1     -11.072   9.140  71.423  1.00  0.00    -0.345 A  
HETATM    8  C   UNL     1      -9.822   9.170  70.849  1.00  0.00    -0.359 A  
HETATM    9  C   UNL     1      -9.953   9.739  69.559  1.00  0.00    -0.230 A  
HETATM   10  C   UNL     1      -8.608   8.604  71.494  1.00  0.00    -0.256 C  
HETATM   11  C   UNL     1     -11.298  10.059  69.383  1.00  0.00    -0.141 A  
HETATM   12  N   UNL     1     -11.960   9.699  70.543  1.00  0.00    -0.421 NA 
HETATM   13  C   UNL     1     -11.778  10.622  68.197  1.00  0.00    -0.092 A  
HETATM   14  H   UNL     1     -12.956   9.831  70.717  1.00  0.00     0.000 HD 
HETATM   15  C   UNL     1     -10.849  10.852  67.169  1.00  0.00    -0.337 A  
HETATM   16  C   UNL     1      -9.491  10.539  67.318  1.00  0.00    -0.179 A  
HETATM   17  C   UNL     1      -9.038   9.983  68.519  1.00  0.00    -0.127 A  
BRANCH  16  18
HETATM   18  C   UNL     1      -8.576  10.809  66.170  1.00  0.00    -0.168 C  
HETATM   19  N   UNL     1      -7.396  11.462  66.407  1.00  0.00    -0.336 N  
HETATM   20  O   UNL     1      -8.857  10.458  65.030  1.00  0.00    -0.174 OA 
HETATM   21  H1  UNL     1      -6.771  11.646  65.624  1.00  0.00     0.000 HD 
HETATM   22  H2  UNL     1      -7.147  11.758  67.351  1.00  0.00     0.000 HD 
ENDBRANCH  16  18
ENDBRANCH   2   4
TORSDOF 2
ENDMDL
MODEL      131
REMARK 921   NORMALIZED FREE ENERGY PREDICTED BY IDOCK:   -3.57 KCAL/MOL
REMARK 922        TOTAL FREE ENERGY PREDICTED BY IDOCK:   -4.10 KCAL/MOL
REMARK 923 INTER-LIGAND FREE ENERGY PREDICTED BY IDOCK:   -3.97 KCAL/MOL
REMARK 924 INTRA-LIGAND FREE ENERGY PREDICTED BY IDOCK:   -0.13 KCAL/MOL
REMARK 927      BINDING AFFINITY PREDICTED BY RF-SCORE:    0.00 PKD
ROOT
HETATM    1  C   UNL     1      -7.058   7.698  73.734  1.00  0.00    -0.096 C  
HETATM    2  N   UNL     1      -8.467   7.884  74.066  1.00  0.00    -0.249 NA 
HETATM    3  H   UNL     1      -8.585   8.638  74.742  1.00  0.00     0.000 HD 
ENDROOT
BRANCH   2   4
HETATM    4  C   UNL     1      -9.316   8.104  72.877  1.00  0.00    -0.273 C  
HETATM    5  C   UNL     1     -10.761   7.621  73.184  1.00  0.00    -0.445 C  
HETATM    6  C   UNL     1     -11.727   7.876  72.005  1.00  0.00    -0.360 C  
HETATM    7  C   UNL     1     -11.100   7.383  70.751  1.00  0.00    -0.265 A  
HETATM    8  C   UNL     1      -9.753   7.177  70.565  1.00  0.00    -0.176 A  
HETATM    9  C   UNL     1      -9.574   6.653  69.261  1.00  0.00    -0.145 A  
HETATM   10  C   UNL     1      -8.733   7.401  71.622  1.00  0.00    -0.124 C  
HETATM   11  C   UNL     1     -10.835   6.566  68.673  1.00  0.00    -0.295 A  
HETATM   12  N   UNL     1     -11.750   7.035  69.598  1.00  0.00    -0.576 NA 
HETATM   13  C   UNL     1     -11.018   6.063  67.382  1.00  0.00    -0.344 A  
HETATM   14  H   UNL     1     -12.755   7.110  69.444  1.00  0.00     0.000 HD 
HETATM   15  C   UNL     1      -9.875   5.634  66.688  1.00  0.00    -0.191 A  
HETATM   16  C   UNL     1      -8.596   5.708  67.254  1.00  0.00    -0.109 A  
HETATM   17  C   UNL     1      -8.441   6.223  68.546  1.00  0.00    -0.115 A  
BRANCH  16  18
HETATM   18  C   UNL     1      -7.439   5.221  66.448  1.00  0.00    -0.087 C  
HETATM   19  N   UNL     1      -6.321   6.006  66.358  1.00  0.00    -0.040 N  
HETATM   20  O   UNL     1      -7.469   4.140  65.871  1.00  0.00    -0.078 OA 
HETATM   21  H1  UNL     1      -5.530   5.673  65.807  1.00  0.00     0.000 HD 
HETATM   22  H2  UNL     1      -6.279   6.907  66.833  1.00  0.00     0.000 HD 
ENDBRANCH  16  18
ENDBRANCH   2   4
TORSDOF 2
ENDMDL
MODEL      132
REMARK 921   NORMALIZED FREE ENERGY PREDICTED BY IDOCK:   -3.47 KCAL/MOL
REMARK 922        TOTAL FREE ENERGY PREDICTED BY IDOCK:   -3.99 KCAL/MOL
REMARK 923 INTER-LIGAND FREE ENERGY PREDICTED BY IDOCK:   -3.85 KCAL/MOL
REMARK 924 INTRA-LIGAND FREE ENERGY PREDICTED BY IDOCK:   -0.14 KCAL/MOL
REMARK 927      BINDING AFFINITY PREDICTED BY RF-SCORE:    0.00 PKD
ROOT
HETATM    1  C   UNL     1      -8.453  13.545  68.247  1.00  0.00    -0.168 C  
HETATM    2  N   UNL     1      -7.242  12.828  68.634  1.00  0.00    -0.105 NA 
HETATM    3  H   UNL     1      -7.030  12.978  69.621  1.00  0.00     0.000 HD 
ENDROOT
BRANCH   2   4
HETATM    4  C   UNL     1      -7.300  11.385  68.320  1.00  0.00    -0.089 C  
HETATM    5  C   UNL     1      -7.555  11.204  66.797  1.00  0.00    -0.146 C  
HETATM    6  C   UNL     1      -7.566   9.717  66.379  1.00  0.00    -0.101 C  
HETATM    7  C   UNL     1      -8.446   8.960  67.307  1.00  0.00    -0.114 A  
HETATM    8  C   UNL     1      -8.807   9.370  68.569  1.00  0.00    -0.128 A  
HETATM    9  C   UNL     1      -9.693   8.401  69.100  1.00  0.00    -0.171 A  
HETATM   10  C   UNL     1      -8.377  10.660  69.170  1.00  0.00    -0.140 C  
HETATM   11  C   UNL     1      -9.839   7.403  68.138  1.00  0.00    -0.156 A  
HETATM   12  N   UNL     1      -9.052   7.759  67.057  1.00  0.00    -0.133 NA 
HETATM   13  C   UNL     1     -10.672   6.298  68.336  1.00  0.00    -0.356 A  
HETATM   14  H   UNL     1      -8.942   7.210  66.205  1.00  0.00     0.000 HD 
HETATM   15  C   UNL     1     -11.373   6.227  69.550  1.00  0.00    -0.475 A  
HETATM   16  C   UNL     1     -11.247   7.216  70.535  1.00  0.00    -0.321 A  
HETATM   17  C   UNL     1     -10.401   8.308  70.313  1.00  0.00    -0.211 A  
BRANCH  16  18
HETATM   18  C   UNL     1     -12.037   7.064  71.792  1.00  0.00    -0.336 C  
HETATM   19  N   UNL     1     -11.733   7.861  72.862  1.00  0.00    -0.606 N  
HETATM   20  O   UNL     1     -12.947   6.248  71.882  1.00  0.00    -0.097 OA 
HETATM   21  H1  UNL     1     -12.272   7.758  73.721  1.00  0.00     0.000 HD 
HETATM   22  H2  UNL     1     -10.979   8.546  72.802  1.00  0.00     0.000 HD 
ENDBRANCH  16  18
ENDBRANCH   2   4
TORSDOF 2
ENDMDL
MODEL      133
REMARK 921   NORMALIZED FREE ENERGY PREDICTED BY IDOCK:   -3.46 KCAL/MOL
REMARK 922        TOTAL FREE ENERGY PREDICTED BY IDOCK:   -3.98 KCAL/MOL
REMARK 923 INTER-LIGAND FREE ENERGY PREDICTED BY IDOCK:   -3.85 KCAL/MOL
REMARK 924 INTRA-LIGAND FREE ENERGY PREDICTED BY IDOCK:   -0.12 KCAL/MOL
REMARK 927      BINDING AFFINITY PREDICTED BY RF-SCORE:    0.00 PKD
ROOT
HETATM    1  C   UNL     1     -12.344   7.690  71.092  1.00  0.00    -0.267 C  
HETATM    2  N   UNL     1     -12.216   6.528  70.218  1.00  0.00    -0.418 NA 
HETATM    3  H   UNL     1     -13.038   6.428  69.623  1.00  0.00     0.000 HD 
ENDROOT
BRANCH   2   4
HETATM    4  C   UNL     1     -10.979   6.546  69.410  1.00  0.00    -0.337 C  
HETATM    5  C   UNL     1      -9.752   6.670  70.358  1.00  0.00    -0.186 C  
HETATM    6  C   UNL     1      -8.412   6.634  69.589  1.00  0.00    -0.132 C  
HETATM    7  C   UNL     1      -8.484   7.582  68.447  1.00  0.00    -0.125 A  
HETATM    8  C   UNL     1      -9.644   8.053  67.878  1.00  0.00    -0.178 A  
HETATM    9  C   UNL     1      -9.285   8.972  66.862  1.00  0.00    -0.179 A  
HETATM   10  C   UNL     1     -11.003   7.685  68.357  1.00  0.00     0.100 C  
HETATM   11  C   UNL     1      -7.892   9.027  66.830  1.00  0.00    -0.104 A  
HETATM   12  N   UNL     1      -7.425   8.155  67.796  1.00  0.00    -0.093 NA 
HETATM   13  C   UNL     1      -7.204   9.864  65.947  1.00  0.00    -0.108 A  
HETATM   14  H   UNL     1      -6.442   7.968  67.994  1.00  0.00     0.000 HD 
HETATM   15  C   UNL     1      -7.971  10.666  65.086  1.00  0.00    -0.036 A  
HETATM   16  C   UNL     1      -9.372  10.632  65.098  1.00  0.00    -0.254 A  
HETATM   17  C   UNL     1     -10.034   9.779  65.987  1.00  0.00    -0.342 A  
BRANCH  16  18
HETATM   18  C   UNL     1     -10.106  11.524  64.154  1.00  0.00    -0.307 C  
HETATM   19  N   UNL     1      -9.884  12.873  64.215  1.00  0.00    -0.608 N  
HETATM   20  O   UNL     1     -10.897  11.076  63.332  1.00  0.00    -0.276 OA 
HETATM   21  H1  UNL     1     -10.386  13.483  63.570  1.00  0.00     0.000 HD 
HETATM   22  H2  UNL     1      -9.229  13.262  64.892  1.00  0.00     0.000 HD 
ENDBRANCH  16  18
ENDBRANCH   2   4
TORSDOF 2
ENDMDL
MODEL      134
REMARK 921   NORMALIZED FREE ENERGY PREDICTED BY IDOCK:   -3.45 KCAL/MOL
REMARK 922        TOTAL FREE ENERGY PREDICTED BY IDOCK:   -3.97 KCAL/MOL
REMARK 923 INTER-LIGAND FREE ENERGY PREDICTED BY IDOCK:   -3.86 KCAL/MOL
REMARK 924 INTRA-LIGAND FREE ENERGY PREDICTED BY IDOCK:   -0.12 KCAL/MOL
REMARK 927      BINDING AFFINITY PREDICTED BY RF-SCORE:    0.00 PKD
ROOT
HETATM    1  C   UNL     1     -13.312   9.791  70.734  1.00  0.00    -0.080 C  
HETATM    2  N   UNL     1     -12.323  10.512  69.940  1.00  0.00    -0.513 NA 
HETATM    3  H   UNL     1     -12.630  10.603  68.972  1.00  0.00     0.000 HD 
ENDROOT
BRANCH   2   4
HETATM    4  C   UNL     1     -11.976  11.831  70.510  1.00  0.00    -0.289 C  
HETATM    5  C   UNL     1     -13.283  12.587  70.880  1.00  0.00     0.243 C  
HETATM    6  C   UNL     1     -13.000  13.955  71.542  1.00  0.00    -0.436 C  
HETATM    7  C   UNL     1     -12.000  14.690  70.724  1.00  0.00    -0.317 A  
HETATM    8  C   UNL     1     -11.130  14.115  69.828  1.00  0.00    -0.142 A  
HETATM    9  C   UNL     1     -10.389  15.156  69.218  1.00  0.00    -0.258 A  
HETATM   10  C   UNL     1     -11.094  12.657  69.537  1.00  0.00    -0.054 C  
HETATM   11  C   UNL     1     -10.823  16.356  69.777  1.00  0.00    -0.343 A  
HETATM   12  N   UNL     1     -11.797  16.044  70.709  1.00  0.00    -0.474 NA 
HETATM   13  C   UNL     1     -10.307  17.591  69.377  1.00  0.00    -0.067 A  
HETATM   14  H   UNL     1     -12.288  16.718  71.295  1.00  0.00     0.000 HD 
HETATM   15  C   UNL     1      -9.326  17.586  68.372  1.00  0.00    -0.287 A  
HETATM   16  C   UNL     1      -8.871  16.395  67.790  1.00  0.00    -0.189 A  
HETATM   17  C   UNL     1      -9.401  15.172  68.216  1.00  0.00    -0.193 A  
BRANCH  16  18
HETATM   18  C   UNL     1      -7.833  16.484  66.723  1.00  0.00    -0.261 C  
HETATM   19  N   UNL     1      -7.742  17.634  65.985  1.00  0.00    -0.239 N  
HETATM   20  O   UNL     1      -7.065  15.556  66.496  1.00  0.00     0.041 OA 
HETATM   21  H1  UNL     1      -7.033  17.695  65.255  1.00  0.00     0.000 HD 
HETATM   22  H2  UNL     1      -8.372  18.416  66.162  1.00  0.00     0.000 HD 
ENDBRANCH  16  18
ENDBRANCH   2   4
TORSDOF 2
ENDMDL
MODEL      135
REMARK 921   NORMALIZED FREE ENERGY PREDICTED BY IDOCK:   -3.42 KCAL/MOL
REMARK 922        TOTAL FREE ENERGY PREDICTED BY IDOCK:   -3.93 KCAL/MOL
REMARK 923 INTER-LIGAND FREE ENERGY PREDICTED BY IDOCK:   -3.81 KCAL/MOL
REMARK 924 INTRA-LIGAND FREE ENERGY PREDICTED BY IDOCK:   -0.12 KCAL/MOL
REMARK 927      BINDING AFFINITY PREDICTED BY RF-SCORE:    0.00 PKD
ROOT
HETATM    1  C   UNL     1      -6.891   3.895  68.303  1.00  0.00    -0.047 C  
HETATM    2  N   UNL     1      -7.848   4.156  69.373  1.00  0.00    -0.057 NA 
HETATM    3  H   UNL     1      -7.496   3.816  70.268  1.00  0.00     0.000 HD 
ENDROOT
BRANCH   2   4
HETATM    4  C   UNL     1      -8.237   5.579  69.466  1.00  0.00    -0.101 C  
HETATM    5  C   UNL     1      -9.617   5.686  70.175  1.00  0.00    -0.215 C  
HETATM    6  C   UNL     1     -10.064   7.153  70.365  1.00  0.00    -0.199 C  
HETATM    7  C   UNL     1      -9.906   7.878  69.078  1.00  0.00    -0.171 A  
HETATM    8  C   UNL     1      -9.088   7.489  68.043  1.00  0.00    -0.131 A  
HETATM    9  C   UNL     1      -9.265   8.411  66.983  1.00  0.00    -0.186 A  
HETATM   10  C   UNL     1      -8.258   6.256  68.070  1.00  0.00    -0.115 C  
HETATM   11  C   UNL     1     -10.192   9.360  67.411  1.00  0.00    -0.239 A  
HETATM   12  N   UNL     1     -10.556   9.023  68.702  1.00  0.00    -0.334 NA 
HETATM   13  C   UNL     1     -10.613  10.409  66.590  1.00  0.00    -0.245 A  
HETATM   14  H   UNL     1     -11.208   9.547  69.285  1.00  0.00     0.000 HD 
HETATM   15  C   UNL     1     -10.071  10.474  65.296  1.00  0.00    -0.369 A  
HETATM   16  C   UNL     1      -9.140   9.533  64.837  1.00  0.00    -0.276 A  
HETATM   17  C   UNL     1      -8.731   8.497  65.684  1.00  0.00    -0.213 A  
BRANCH  16  18
HETATM   18  C   UNL     1      -8.623   9.673  63.445  1.00  0.00    -0.209 C  
HETATM   19  N   UNL     1      -9.455   9.374  62.400  1.00  0.00    -0.575 N  
HETATM   20  O   UNL     1      -7.479  10.049  63.220  1.00  0.00    -0.132 OA 
HETATM   21  H1  UNL     1      -9.103   9.470  61.448  1.00  0.00     0.000 HD 
HETATM   22  H2  UNL     1     -10.411   9.062  62.569  1.00  0.00     0.000 HD 
ENDBRANCH  16  18
ENDBRANCH   2   4
TORSDOF 2
ENDMDL
MODEL      136
REMARK 921   NORMALIZED FREE ENERGY PREDICTED BY IDOCK:   -3.38 KCAL/MOL
REMARK 922        TOTAL FREE ENERGY PREDICTED BY IDOCK:   -3.89 KCAL/MOL
REMARK 923 INTER-LIGAND FREE ENERGY PREDICTED BY IDOCK:   -3.78 KCAL/MOL
REMARK 924 INTRA-LIGAND FREE ENERGY PREDICTED BY IDOCK:   -0.11 KCAL/MOL
REMARK 927      BINDING AFFINITY PREDICTED BY RF-SCORE:    0.00 PKD
ROOT
HETATM    1  C   UNL     1     -11.965  12.356  62.749  1.00  0.00     0.637 C  
HETATM    2  N   UNL     1     -11.744  13.360  63.785  1.00  0.00    -0.633 NA 
HETATM    3  H   UNL     1     -12.609  13.564  64.284  1.00  0.00     0.000 HD 
ENDROOT
BRANCH   2   4
HETATM    4  C   UNL     1     -10.666  12.992  64.726  1.00  0.00    -0.352 C  
HETATM    5  C   UNL     1     -11.258  12.106  65.859  1.00  0.00    -0.384 C  
HETATM    6  C   UNL     1     -10.176  11.627  66.852  1.00  0.00    -0.244 C  
HETATM    7  C   UNL     1      -9.349  12.790  67.265  1.00  0.00    -0.200 A  
HETATM    8  C   UNL     1      -9.233  13.969  66.566  1.00  0.00    -0.240 A  
HETATM    9  C   UNL     1      -8.403  14.836  67.318  1.00  0.00    -0.234 A  
HETATM   10  C   UNL     1      -9.954  14.247  65.296  1.00  0.00    -0.313 C  
HETATM   11  C   UNL     1      -8.018  14.147  68.467  1.00  0.00    -0.145 A  
HETATM   12  N   UNL     1      -8.594  12.891  68.402  1.00  0.00    -0.290 NA 
HETATM   13  C   UNL     1      -7.207  14.729  69.445  1.00  0.00    -0.168 A  
HETATM   14  H   UNL     1      -8.476  12.154  69.097  1.00  0.00     0.000 HD 
HETATM   15  C   UNL     1      -6.791  16.054  69.234  1.00  0.00    -0.201 A  
HETATM   16  C   UNL     1      -7.164  16.772  68.090  1.00  0.00    -0.166 A  
HETATM   17  C   UNL     1      -7.972  16.161  67.124  1.00  0.00    -0.232 A  
BRANCH  16  18
HETATM   18  C   UNL     1      -6.685  18.178  67.953  1.00  0.00    -0.203 C  
HETATM   19  N   UNL     1      -6.091  18.780  69.029  1.00  0.00    -0.220 N  
HETATM   20  O   UNL     1      -6.810  18.798  66.904  1.00  0.00    -0.196 OA 
HETATM   21  H1  UNL     1      -5.764  19.741  68.936  1.00  0.00     0.000 HD 
HETATM   22  H2  UNL     1      -5.978  18.277  69.909  1.00  0.00     0.000 HD 
ENDBRANCH  16  18
ENDBRANCH   2   4
TORSDOF 2
ENDMDL
MODEL      137
REMARK 921   NORMALIZED FREE ENERGY PREDICTED BY IDOCK:   -3.36 KCAL/MOL
REMARK 922        TOTAL FREE ENERGY PREDICTED BY IDOCK:   -3.86 KCAL/MOL
REMARK 923 INTER-LIGAND FREE ENERGY PREDICTED BY IDOCK:   -3.74 KCAL/MOL
REMARK 924 INTRA-LIGAND FREE ENERGY PREDICTED BY IDOCK:   -0.12 KCAL/MOL
REMARK 927      BINDING AFFINITY PREDICTED BY RF-SCORE:    0.00 PKD
ROOT
HETATM    1  C   UNL     1     -10.509  13.430  65.883  1.00  0.00    -0.287 C  
HETATM    2  N   UNL     1     -10.888  12.052  65.584  1.00  0.00    -0.273 NA 
HETATM    3  H   UNL     1     -10.121  11.553  65.134  1.00  0.00     0.000 HD 
ENDROOT
BRANCH   2   4
HETATM    4  C   UNL     1     -11.373  11.317  66.770  1.00  0.00    -0.111 C  
HETATM    5  C   UNL     1     -11.578  12.318  67.943  1.00  0.00    -0.416 C  
HETATM    6  C   UNL     1     -12.145  11.630  69.206  1.00  0.00    -0.323 C  
HETATM    7  C   UNL     1     -11.350  10.408  69.490  1.00  0.00    -0.265 A  
HETATM    8  C   UNL     1     -10.573   9.735  68.575  1.00  0.00    -0.252 A  
HETATM    9  C   UNL     1      -9.939   8.665  69.252  1.00  0.00    -0.195 A  
HETATM   10  C   UNL     1     -10.407  10.168  67.163  1.00  0.00    -0.295 C  
HETATM   11  C   UNL     1     -10.363   8.706  70.579  1.00  0.00    -0.202 A  
HETATM   12  N   UNL     1     -11.239   9.769  70.696  1.00  0.00    -0.306 NA 
HETATM   13  C   UNL     1      -9.903   7.793  71.532  1.00  0.00    -0.200 A  
HETATM   14  H   UNL     1     -11.728  10.037  71.550  1.00  0.00     0.000 HD 
HETATM   15  C   UNL     1      -8.981   6.823  71.107  1.00  0.00    -0.147 A  
HETATM   16  C   UNL     1      -8.536   6.760  69.780  1.00  0.00    -0.133 A  
HETATM   17  C   UNL     1      -9.018   7.682  68.845  1.00  0.00    -0.137 A  
BRANCH  16  18
HETATM   18  C   UNL     1      -7.547   5.703  69.418  1.00  0.00    -0.083 C  
HETATM   19  N   UNL     1      -7.724   5.006  68.253  1.00  0.00    -0.082 N  
HETATM   20  O   UNL     1      -6.587   5.450  70.136  1.00  0.00    -0.036 OA 
HETATM   21  H1  UNL     1      -7.049   4.283  68.006  1.00  0.00     0.000 HD 
HETATM   22  H2  UNL     1      -8.517   5.205  67.643  1.00  0.00     0.000 HD 
ENDBRANCH  16  18
ENDBRANCH   2   4
TORSDOF 2
ENDMDL
MODEL      138
REMARK 921   NORMALIZED FREE ENERGY PREDICTED BY IDOCK:   -3.34 KCAL/MOL
REMARK 922        TOTAL FREE ENERGY PREDICTED BY IDOCK:   -3.85 KCAL/MOL
REMARK 923 INTER-LIGAND FREE ENERGY PREDICTED BY IDOCK:   -3.74 KCAL/MOL
REMARK 924 INTRA-LIGAND FREE ENERGY PREDICTED BY IDOCK:   -0.10 KCAL/MOL
REMARK 927      BINDING AFFINITY PREDICTED BY RF-SCORE:    0.00 PKD
ROOT
HETATM    1  C   UNL     1      -6.055  13.725  69.753  1.00  0.00    -0.127 C  
HETATM    2  N   UNL     1      -6.618  12.444  70.168  1.00  0.00    -0.398 NA 
HETATM    3  H   UNL     1      -7.337  12.575  70.878  1.00  0.00     0.000 HD 
ENDROOT
BRANCH   2   4
HETATM    4  C   UNL     1      -7.134  11.647  69.036  1.00  0.00    -0.108 C  
HETATM    5  C   UNL     1      -8.181  12.490  68.253  1.00  0.00    -0.168 C  
HETATM    6  C   UNL     1      -8.723  11.744  67.013  1.00  0.00    -0.181 C  
HETATM    7  C   UNL     1      -9.121  10.369  67.411  1.00  0.00    -0.135 A  
HETATM    8  C   UNL     1      -8.672   9.704  68.528  1.00  0.00    -0.120 A  
HETATM    9  C   UNL     1      -9.328   8.450  68.578  1.00  0.00    -0.139 A  
HETATM   10  C   UNL     1      -7.730  10.297  69.514  1.00  0.00    -0.167 C  
HETATM   11  C   UNL     1     -10.163   8.377  67.464  1.00  0.00    -0.243 A  
HETATM   12  N   UNL     1     -10.006   9.555  66.757  1.00  0.00    -0.215 NA 
HETATM   13  C   UNL     1     -10.980   7.269  67.221  1.00  0.00    -0.284 A  
HETATM   14  H   UNL     1     -10.477   9.782  65.881  1.00  0.00     0.000 HD 
HETATM   15  C   UNL     1     -10.937   6.218  68.151  1.00  0.00    -0.412 A  
HETATM   16  C   UNL     1     -10.108   6.265  69.281  1.00  0.00    -0.213 A  
HETATM   17  C   UNL     1      -9.297   7.384  69.495  1.00  0.00    -0.156 A  
BRANCH  16  18
HETATM   18  C   UNL     1     -10.134   5.108  70.222  1.00  0.00    -0.268 C  
HETATM   19  N   UNL     1      -9.575   3.923  69.826  1.00  0.00    -0.204 N  
HETATM   20  O   UNL     1     -10.639   5.198  71.335  1.00  0.00    -0.208 OA 
HETATM   21  H1  UNL     1      -9.592   3.132  70.469  1.00  0.00     0.000 HD 
HETATM   22  H2  UNL     1      -9.149   3.832  68.903  1.00  0.00     0.000 HD 
ENDBRANCH  16  18
ENDBRANCH   2   4
TORSDOF 2
ENDMDL
MODEL      139
REMARK 921   NORMALIZED FREE ENERGY PREDICTED BY IDOCK:   -3.33 KCAL/MOL
REMARK 922        TOTAL FREE ENERGY PREDICTED BY IDOCK:   -3.83 KCAL/MOL
REMARK 923 INTER-LIGAND FREE ENERGY PREDICTED BY IDOCK:   -3.70 KCAL/MOL
REMARK 924 INTRA-LIGAND FREE ENERGY PREDICTED BY IDOCK:   -0.13 KCAL/MOL
REMARK 927      BINDING AFFINITY PREDICTED BY RF-SCORE:    0.00 PKD
ROOT
HETATM    1  C   UNL     1     -12.314  12.090  63.351  1.00  0.00    -0.523 C  
HETATM    2  N   UNL     1     -11.804  13.106  64.266  1.00  0.00    -0.383 NA 
HETATM    3  H   UNL     1     -12.557  13.709  64.598  1.00  0.00     0.000 HD 
ENDROOT
BRANCH   2   4
HETATM    4  C   UNL     1     -11.048  12.535  65.400  1.00  0.00    -0.302 C  
HETATM    5  C   UNL     1      -9.972  13.557  65.863  1.00  0.00    -0.295 C  
HETATM    6  C   UNL     1      -9.178  13.055  67.090  1.00  0.00    -0.226 C  
HETATM    7  C   UNL     1      -8.725  11.663  66.837  1.00  0.00    -0.185 A  
HETATM    8  C   UNL     1      -9.282  10.801  65.922  1.00  0.00    -0.214 A  
HETATM    9  C   UNL     1      -8.532   9.600  65.947  1.00  0.00    -0.136 A  
HETATM   10  C   UNL     1     -10.416  11.167  65.032  1.00  0.00    -0.357 C  
HETATM   11  C   UNL     1      -7.530   9.759  66.903  1.00  0.00    -0.091 A  
HETATM   12  N   UNL     1      -7.680  11.022  67.446  1.00  0.00    -0.110 NA 
HETATM   13  C   UNL     1      -6.590   8.759  67.166  1.00  0.00    -0.062 A  
HETATM   14  H   UNL     1      -7.100  11.417  68.187  1.00  0.00     0.000 HD 
HETATM   15  C   UNL     1      -6.683   7.573  66.420  1.00  0.00    -0.057 A  
HETATM   16  C   UNL     1      -7.678   7.386  65.452  1.00  0.00    -0.110 A  
HETATM   17  C   UNL     1      -8.611   8.402  65.215  1.00  0.00    -0.177 A  
BRANCH  16  18
HETATM   18  C   UNL     1      -7.697   6.097  64.700  1.00  0.00    -0.101 C  
HETATM   19  N   UNL     1      -8.861   5.380  64.650  1.00  0.00    -0.328 N  
HETATM   20  O   UNL     1      -6.699   5.674  64.128  1.00  0.00    -0.043 OA 
HETATM   21  H1  UNL     1      -8.874   4.499  64.136  1.00  0.00     0.000 HD 
HETATM   22  H2  UNL     1      -9.701   5.719  65.118  1.00  0.00     0.000 HD 
ENDBRANCH  16  18
ENDBRANCH   2   4
TORSDOF 2
ENDMDL
MODEL      140
REMARK 921   NORMALIZED FREE ENERGY PREDICTED BY IDOCK:   -3.32 KCAL/MOL
REMARK 922        TOTAL FREE ENERGY PREDICTED BY IDOCK:   -3.82 KCAL/MOL
REMARK 923 INTER-LIGAND FREE ENERGY PREDICTED BY IDOCK:   -3.72 KCAL/MOL
REMARK 924 INTRA-LIGAND FREE ENERGY PREDICTED BY IDOCK:   -0.11 KCAL/MOL
REMARK 927      BINDING AFFINITY PREDICTED BY RF-SCORE:    0.00 PKD
ROOT
HETATM    1  C   UNL     1     -12.680  15.549  70.400  1.00  0.00    -0.338 C  
HETATM    2  N   UNL     1     -12.549  14.412  71.306  1.00  0.00    -0.329 NA 
HETATM    3  H   UNL     1     -13.270  14.435  72.026  1.00  0.00     0.000 HD 
ENDROOT
BRANCH   2   4
HETATM    4  C   UNL     1     -12.546  13.112  70.603  1.00  0.00    -0.211 C  
HETATM    5  C   UNL     1     -12.919  11.987  71.611  1.00  0.00    -0.439 C  
HETATM    6  C   UNL     1     -12.999  10.599  70.935  1.00  0.00    -0.429 C  
HETATM    7  C   UNL     1     -11.781  10.393  70.109  1.00  0.00    -0.312 A  
HETATM    8  C   UNL     1     -10.962  11.392  69.638  1.00  0.00    -0.174 A  
HETATM    9  C   UNL     1      -9.888  10.781  68.948  1.00  0.00    -0.209 A  
HETATM   10  C   UNL     1     -11.181  12.835  69.919  1.00  0.00     0.096 C  
HETATM   11  C   UNL     1     -10.090   9.403  69.005  1.00  0.00    -0.194 A  
HETATM   12  N   UNL     1     -11.264   9.191  69.706  1.00  0.00    -0.420 NA 
HETATM   13  C   UNL     1      -9.191   8.496  68.437  1.00  0.00    -0.135 A  
HETATM   14  H   UNL     1     -11.680   8.279  69.893  1.00  0.00     0.000 HD 
HETATM   15  C   UNL     1      -8.056   9.025  67.801  1.00  0.00    -0.109 A  
HETATM   16  C   UNL     1      -7.826  10.405  67.728  1.00  0.00    -0.101 A  
HETATM   17  C   UNL     1      -8.746  11.290  68.301  1.00  0.00    -0.158 A  
BRANCH  16  18
HETATM   18  C   UNL     1      -6.589  10.879  67.042  1.00  0.00    -0.090 C  
HETATM   19  N   UNL     1      -6.133  10.187  65.953  1.00  0.00    -0.079 N  
HETATM   20  O   UNL     1      -5.979  11.868  67.431  1.00  0.00    -0.085 OA 
HETATM   21  H1  UNL     1      -5.288  10.510  65.484  1.00  0.00     0.000 HD 
HETATM   22  H2  UNL     1      -6.630   9.362  65.616  1.00  0.00     0.000 HD 
ENDBRANCH  16  18
ENDBRANCH   2   4
TORSDOF 2
ENDMDL
MODEL      141
REMARK 921   NORMALIZED FREE ENERGY PREDICTED BY IDOCK:   -3.32 KCAL/MOL
REMARK 922        TOTAL FREE ENERGY PREDICTED BY IDOCK:   -3.82 KCAL/MOL
REMARK 923 INTER-LIGAND FREE ENERGY PREDICTED BY IDOCK:   -3.69 KCAL/MOL
REMARK 924 INTRA-LIGAND FREE ENERGY PREDICTED BY IDOCK:   -0.13 KCAL/MOL
REMARK 927      BINDING AFFINITY PREDICTED BY RF-SCORE:    0.00 PKD
ROOT
HETATM    1  C   UNL     1     -12.209   7.641  71.221  1.00  0.00    -0.315 C  
HETATM    2  N   UNL     1     -11.921   6.955  69.965  1.00  0.00    -0.644 NA 
HETATM    3  H   UNL     1     -12.732   6.971  69.347  1.00  0.00     0.000 HD 
ENDROOT
BRANCH   2   4
HETATM    4  C   UNL     1     -10.725   7.485  69.278  1.00  0.00    -0.176 C  
HETATM    5  C   UNL     1      -9.467   7.193  70.145  1.00  0.00    -0.161 C  
HETATM    6  C   UNL     1      -8.164   7.665  69.462  1.00  0.00    -0.129 C  
HETATM    7  C   UNL     1      -8.347   9.059  68.982  1.00  0.00    -0.124 A  
HETATM    8  C   UNL     1      -9.558   9.666  68.747  1.00  0.00    -0.153 A  
HETATM    9  C   UNL     1      -9.303  11.003  68.357  1.00  0.00    -0.179 A  
HETATM   10  C   UNL     1     -10.868   8.999  68.972  1.00  0.00    -0.092 C  
HETATM   11  C   UNL     1      -7.920  11.175  68.350  1.00  0.00    -0.137 A  
HETATM   12  N   UNL     1      -7.356   9.966  68.718  1.00  0.00    -0.076 NA 
HETATM   13  C   UNL     1      -7.326  12.398  68.029  1.00  0.00    -0.108 A  
HETATM   14  H   UNL     1      -6.356   9.781  68.784  1.00  0.00     0.000 HD 
HETATM   15  C   UNL     1      -8.180  13.468  67.715  1.00  0.00    -0.176 A  
HETATM   16  C   UNL     1      -9.574  13.325  67.715  1.00  0.00    -0.214 A  
HETATM   17  C   UNL     1     -10.141  12.086  68.034  1.00  0.00    -0.199 A  
BRANCH  16  18
HETATM   18  C   UNL     1     -10.405  14.517  67.379  1.00  0.00    -0.252 C  
HETATM   19  N   UNL     1     -10.283  15.644  68.146  1.00  0.00    -0.226 N  
HETATM   20  O   UNL     1     -11.187  14.508  66.435  1.00  0.00    -0.328 OA 
HETATM   21  H1  UNL     1     -10.851  16.459  67.916  1.00  0.00     0.000 HD 
HETATM   22  H2  UNL     1      -9.636  15.669  68.934  1.00  0.00     0.000 HD 
ENDBRANCH  16  18
ENDBRANCH   2   4
TORSDOF 2
ENDMDL
MODEL      142
REMARK 921   NORMALIZED FREE ENERGY PREDICTED BY IDOCK:   -3.27 KCAL/MOL
REMARK 922        TOTAL FREE ENERGY PREDICTED BY IDOCK:   -3.77 KCAL/MOL
REMARK 923 INTER-LIGAND FREE ENERGY PREDICTED BY IDOCK:   -3.64 KCAL/MOL
REMARK 924 INTRA-LIGAND FREE ENERGY PREDICTED BY IDOCK:   -0.13 KCAL/MOL
REMARK 927      BINDING AFFINITY PREDICTED BY RF-SCORE:    0.00 PKD
ROOT
HETATM    1  C   UNL     1     -12.004   9.845  70.247  1.00  0.00    -0.138 C  
HETATM    2  N   UNL     1     -11.746  10.895  69.267  1.00  0.00    -0.306 NA 
HETATM    3  H   UNL     1     -11.532  11.779  69.728  1.00  0.00     0.000 HD 
ENDROOT
BRANCH   2   4
HETATM    4  C   UNL     1     -10.689  10.535  68.300  1.00  0.00    -0.229 C  
HETATM    5  C   UNL     1     -11.109  11.016  66.881  1.00  0.00    -0.280 C  
HETATM    6  C   UNL     1     -10.022  10.730  65.821  1.00  0.00    -0.306 C  
HETATM    7  C   UNL     1      -9.577   9.318  65.953  1.00  0.00    -0.275 A  
HETATM    8  C   UNL     1      -9.728   8.540  67.077  1.00  0.00    -0.266 A  
HETATM    9  C   UNL     1      -9.228   7.249  66.778  1.00  0.00    -0.187 A  
HETATM   10  C   UNL     1     -10.391   9.012  68.321  1.00  0.00    -0.252 C  
HETATM   11  C   UNL     1      -8.765   7.279  65.464  1.00  0.00    -0.024 A  
HETATM   12  N   UNL     1      -8.973   8.560  64.986  1.00  0.00    -0.418 NA 
HETATM   13  C   UNL     1      -8.224   6.151  64.842  1.00  0.00    -0.125 A  
HETATM   14  H   UNL     1      -8.716   8.890  64.056  1.00  0.00     0.000 HD 
HETATM   15  C   UNL     1      -8.167   4.965  65.592  1.00  0.00    -0.115 A  
HETATM   16  C   UNL     1      -8.626   4.905  66.915  1.00  0.00    -0.104 A  
HETATM   17  C   UNL     1      -9.157   6.052  67.514  1.00  0.00    -0.109 A  
BRANCH  16  18
HETATM   18  C   UNL     1      -8.536   3.601  67.634  1.00  0.00    -0.095 C  
HETATM   19  N   UNL     1      -9.609   2.753  67.599  1.00  0.00    -0.357 N  
HETATM   20  O   UNL     1      -7.526   3.276  68.248  1.00  0.00    -0.053 OA 
HETATM   21  H1  UNL     1      -9.548   1.862  68.091  1.00  0.00     0.000 HD 
HETATM   22  H2  UNL     1     -10.456   3.007  67.091  1.00  0.00     0.000 HD 
ENDBRANCH  16  18
ENDBRANCH   2   4
TORSDOF 2
ENDMDL
MODEL      143
REMARK 921   NORMALIZED FREE ENERGY PREDICTED BY IDOCK:   -3.27 KCAL/MOL
REMARK 922        TOTAL FREE ENERGY PREDICTED BY IDOCK:   -3.77 KCAL/MOL
REMARK 923 INTER-LIGAND FREE ENERGY PREDICTED BY IDOCK:   -3.65 KCAL/MOL
REMARK 924 INTRA-LIGAND FREE ENERGY PREDICTED BY IDOCK:   -0.12 KCAL/MOL
REMARK 927      BINDING AFFINITY PREDICTED BY RF-SCORE:    0.00 PKD
ROOT
HETATM    1  C   UNL     1     -10.261  18.085  66.488  1.00  0.00    -0.382 C  
HETATM    2  N   UNL     1     -10.398  16.712  66.012  1.00  0.00    -0.342 NA 
HETATM    3  H   UNL     1      -9.857  16.566  65.160  1.00  0.00     0.000 HD 
ENDROOT
BRANCH   2   4
HETATM    4  C   UNL     1     -10.047  15.708  67.038  1.00  0.00    -0.253 C  
HETATM    5  C   UNL     1      -8.929  16.283  67.954  1.00  0.00    -0.187 C  
HETATM    6  C   UNL     1      -8.550  15.311  69.094  1.00  0.00    -0.235 C  
HETATM    7  C   UNL     1      -8.329  13.958  68.523  1.00  0.00    -0.132 A  
HETATM    8  C   UNL     1      -8.816  13.516  67.315  1.00  0.00    -0.225 A  
HETATM    9  C   UNL     1      -8.337  12.199  67.112  1.00  0.00    -0.183 A  
HETATM   10  C   UNL     1      -9.622  14.361  66.396  1.00  0.00    -0.320 C  
HETATM   11  C   UNL     1      -7.570  11.862  68.226  1.00  0.00    -0.116 A  
HETATM   12  N   UNL     1      -7.594  12.947  69.083  1.00  0.00    -0.322 NA 
HETATM   13  C   UNL     1      -6.925  10.627  68.337  1.00  0.00    -0.066 A  
HETATM   14  H   UNL     1      -7.135  12.989  69.993  1.00  0.00     0.000 HD 
HETATM   15  C   UNL     1      -7.072   9.724  67.272  1.00  0.00    -0.085 A  
HETATM   16  C   UNL     1      -7.835  10.036  66.139  1.00  0.00    -0.114 A  
HETATM   17  C   UNL     1      -8.475  11.278  66.058  1.00  0.00    -0.102 A  
BRANCH  16  18
HETATM   18  C   UNL     1      -7.928   9.020  65.050  1.00  0.00    -0.123 C  
HETATM   19  N   UNL     1      -9.109   8.888  64.370  1.00  0.00    -0.396 N  
HETATM   20  O   UNL     1      -6.975   8.310  64.753  1.00  0.00    -0.072 OA 
HETATM   21  H1  UNL     1      -9.173   8.195  63.626  1.00  0.00     0.000 HD 
HETATM   22  H2  UNL     1      -9.911   9.473  64.604  1.00  0.00     0.000 HD 
ENDBRANCH  16  18
ENDBRANCH   2   4
TORSDOF 2
ENDMDL
MODEL      144
REMARK 921   NORMALIZED FREE ENERGY PREDICTED BY IDOCK:   -3.26 KCAL/MOL
REMARK 922        TOTAL FREE ENERGY PREDICTED BY IDOCK:   -3.76 KCAL/MOL
REMARK 923 INTER-LIGAND FREE ENERGY PREDICTED BY IDOCK:   -3.65 KCAL/MOL
REMARK 924 INTRA-LIGAND FREE ENERGY PREDICTED BY IDOCK:   -0.10 KCAL/MOL
REMARK 927      BINDING AFFINITY PREDICTED BY RF-SCORE:    0.00 PKD
ROOT
HETATM    1  C   UNL     1     -10.901  13.729  66.757  1.00  0.00    -0.284 C  
HETATM    2  N   UNL     1     -11.341  12.450  66.207  1.00  0.00    -0.321 NA 
HETATM    3  H   UNL     1     -12.124  12.580  65.567  1.00  0.00     0.000 HD 
ENDROOT
BRANCH   2   4
HETATM    4  C   UNL     1     -10.250  11.693  65.561  1.00  0.00    -0.260 C  
HETATM    5  C   UNL     1     -10.556  11.552  64.042  1.00  0.00    -0.437 C  
HETATM    6  C   UNL     1      -9.425  10.822  63.283  1.00  0.00    -0.353 C  
HETATM    7  C   UNL     1      -9.070   9.582  64.020  1.00  0.00    -0.135 A  
HETATM    8  C   UNL     1      -9.332   9.345  65.350  1.00  0.00    -0.311 A  
HETATM    9  C   UNL     1      -8.889   8.034  65.650  1.00  0.00    -0.133 A  
HETATM   10  C   UNL     1     -10.041  10.309  66.232  1.00  0.00    -0.300 C  
HETATM   11  C   UNL     1      -8.347   7.503  64.481  1.00  0.00     0.049 A  
HETATM   12  N   UNL     1      -8.453   8.475  63.503  1.00  0.00    -0.395 NA 
HETATM   13  C   UNL     1      -7.834   6.204  64.425  1.00  0.00    -0.114 A  
HETATM   14  H   UNL     1      -8.122   8.381  62.543  1.00  0.00     0.000 HD 
HETATM   15  C   UNL     1      -7.890   5.436  65.600  1.00  0.00    -0.100 A  
HETATM   16  C   UNL     1      -8.430   5.943  66.789  1.00  0.00    -0.109 A  
HETATM   17  C   UNL     1      -8.930   7.250  66.818  1.00  0.00    -0.154 A  
BRANCH  16  18
HETATM   18  C   UNL     1      -8.458   5.054  67.986  1.00  0.00    -0.103 C  
HETATM   19  N   UNL     1      -9.486   5.183  68.880  1.00  0.00    -0.125 N  
HETATM   20  O   UNL     1      -7.585   4.216  68.183  1.00  0.00    -0.067 OA 
HETATM   21  H1  UNL     1      -9.505   4.576  69.699  1.00  0.00     0.000 HD 
HETATM   22  H2  UNL     1     -10.221   5.875  68.730  1.00  0.00     0.000 HD 
ENDBRANCH  16  18
ENDBRANCH   2   4
TORSDOF 2
ENDMDL
MODEL      145
REMARK 921   NORMALIZED FREE ENERGY PREDICTED BY IDOCK:   -3.23 KCAL/MOL
REMARK 922        TOTAL FREE ENERGY PREDICTED BY IDOCK:   -3.72 KCAL/MOL
REMARK 923 INTER-LIGAND FREE ENERGY PREDICTED BY IDOCK:   -3.59 KCAL/MOL
REMARK 924 INTRA-LIGAND FREE ENERGY PREDICTED BY IDOCK:   -0.13 KCAL/MOL
REMARK 927      BINDING AFFINITY PREDICTED BY RF-SCORE:    0.00 PKD
ROOT
HETATM    1  C   UNL     1      -9.778   5.389  71.645  1.00  0.00    -0.157 C  
HETATM    2  N   UNL     1     -10.942   6.260  71.522  1.00  0.00    -0.260 NA 
HETATM    3  H   UNL     1     -10.970   6.941  72.281  1.00  0.00     0.000 HD 
ENDROOT
BRANCH   2   4
HETATM    4  C   UNL     1     -11.024   6.932  70.208  1.00  0.00    -0.281 C  
HETATM    5  C   UNL     1     -10.680   5.908  69.089  1.00  0.00    -0.394 C  
HETATM    6  C   UNL     1     -10.805   6.522  67.677  1.00  0.00    -0.419 C  
HETATM    7  C   UNL     1     -10.087   7.822  67.649  1.00  0.00    -0.196 A  
HETATM    8  C   UNL     1      -9.775   8.581  68.753  1.00  0.00    -0.168 A  
HETATM    9  C   UNL     1      -9.046   9.710  68.309  1.00  0.00    -0.123 A  
HETATM   10  C   UNL     1     -10.101   8.177  70.146  1.00  0.00    -0.194 C  
HETATM   11  C   UNL     1      -8.942   9.616  66.922  1.00  0.00    -0.134 A  
HETATM   12  N   UNL     1      -9.602   8.462  66.540  1.00  0.00    -0.218 NA 
HETATM   13  C   UNL     1      -8.256  10.568  66.163  1.00  0.00    -0.151 A  
HETATM   14  H   UNL     1      -9.711   8.137  65.580  1.00  0.00     0.000 HD 
HETATM   15  C   UNL     1      -7.658  11.635  66.852  1.00  0.00    -0.138 A  
HETATM   16  C   UNL     1      -7.744  11.755  68.246  1.00  0.00    -0.130 A  
HETATM   17  C   UNL     1      -8.444  10.790  68.980  1.00  0.00    -0.137 A  
BRANCH  16  18
HETATM   18  C   UNL     1      -7.070  12.916  68.897  1.00  0.00    -0.063 C  
HETATM   19  N   UNL     1      -6.358  12.705  70.047  1.00  0.00    -0.344 N  
HETATM   20  O   UNL     1      -7.140  14.045  68.425  1.00  0.00    -0.085 OA 
HETATM   21  H1  UNL     1      -5.898  13.499  70.491  1.00  0.00     0.000 HD 
HETATM   22  H2  UNL     1      -6.289  11.772  70.451  1.00  0.00     0.000 HD 
ENDBRANCH  16  18
ENDBRANCH   2   4
TORSDOF 2
ENDMDL
MODEL      146
REMARK 921   NORMALIZED FREE ENERGY PREDICTED BY IDOCK:   -3.20 KCAL/MOL
REMARK 922        TOTAL FREE ENERGY PREDICTED BY IDOCK:   -3.69 KCAL/MOL
REMARK 923 INTER-LIGAND FREE ENERGY PREDICTED BY IDOCK:   -3.57 KCAL/MOL
REMARK 924 INTRA-LIGAND FREE ENERGY PREDICTED BY IDOCK:   -0.11 KCAL/MOL
REMARK 927      BINDING AFFINITY PREDICTED BY RF-SCORE:    0.00 PKD
ROOT
HETATM    1  C   UNL     1      -5.900   4.802  70.725  1.00  0.00    -0.017 C  
HETATM    2  N   UNL     1      -7.179   5.435  71.033  1.00  0.00    -0.071 NA 
HETATM    3  H   UNL     1      -7.069   6.144  71.757  1.00  0.00     0.000 HD 
ENDROOT
BRANCH   2   4
HETATM    4  C   UNL     1      -7.845   5.998  69.840  1.00  0.00    -0.104 C  
HETATM    5  C   UNL     1      -6.774   6.310  68.756  1.00  0.00    -0.061 C  
HETATM    6  C   UNL     1      -7.403   6.846  67.450  1.00  0.00    -0.092 C  
HETATM    7  C   UNL     1      -8.364   7.929  67.785  1.00  0.00    -0.129 A  
HETATM    8  C   UNL     1      -8.954   8.116  69.013  1.00  0.00    -0.144 A  
HETATM    9  C   UNL     1      -9.753   9.282  68.935  1.00  0.00    -0.164 A  
HETATM   10  C   UNL     1      -8.682   7.256  70.195  1.00  0.00    -0.140 C  
HETATM   11  C   UNL     1      -9.639   9.776  67.637  1.00  0.00    -0.145 A  
HETATM   12  N   UNL     1      -8.798   8.921  66.947  1.00  0.00    -0.125 NA 
HETATM   13  C   UNL     1     -10.290  10.942  67.227  1.00  0.00    -0.255 A  
HETATM   14  H   UNL     1      -8.540   9.016  65.965  1.00  0.00     0.000 HD 
HETATM   15  C   UNL     1     -11.070  11.616  68.180  1.00  0.00    -0.298 A  
HETATM   16  C   UNL     1     -11.202  11.144  69.493  1.00  0.00    -0.341 A  
HETATM   17  C   UNL     1     -10.544   9.970  69.874  1.00  0.00    -0.324 A  
BRANCH  16  18
HETATM   18  C   UNL     1     -12.043  11.929  70.443  1.00  0.00    -0.333 C  
HETATM   19  N   UNL     1     -11.787  13.264  70.603  1.00  0.00    -0.525 N  
HETATM   20  O   UNL     1     -12.953  11.406  71.077  1.00  0.00    -0.307 OA 
HETATM   21  H1  UNL     1     -12.361  13.801  71.252  1.00  0.00     0.000 HD 
HETATM   22  H2  UNL     1     -11.035  13.715  70.082  1.00  0.00     0.000 HD 
ENDBRANCH  16  18
ENDBRANCH   2   4
TORSDOF 2
ENDMDL
MODEL      147
REMARK 921   NORMALIZED FREE ENERGY PREDICTED BY IDOCK:   -3.19 KCAL/MOL
REMARK 922        TOTAL FREE ENERGY PREDICTED BY IDOCK:   -3.67 KCAL/MOL
REMARK 923 INTER-LIGAND FREE ENERGY PREDICTED BY IDOCK:   -3.56 KCAL/MOL
REMARK 924 INTRA-LIGAND FREE ENERGY PREDICTED BY IDOCK:   -0.12 KCAL/MOL
REMARK 927      BINDING AFFINITY PREDICTED BY RF-SCORE:    0.00 PKD
ROOT
HETATM    1  C   UNL     1      -9.629  10.199  63.973  1.00  0.00    -0.257 C  
HETATM    2  N   UNL     1      -8.208  10.032  64.262  1.00  0.00    -0.158 NA 
HETATM    3  H   UNL     1      -7.637  10.537  63.586  1.00  0.00     0.000 HD 
ENDROOT
BRANCH   2   4
HETATM    4  C   UNL     1      -7.851  10.415  65.644  1.00  0.00    -0.154 C  
HETATM    5  C   UNL     1      -6.394   9.959  65.940  1.00  0.00    -0.085 C  
HETATM    6  C   UNL     1      -5.925  10.381  67.351  1.00  0.00    -0.053 C  
HETATM    7  C   UNL     1      -6.966  10.002  68.340  1.00  0.00    -0.067 A  
HETATM    8  C   UNL     1      -8.289   9.762  68.049  1.00  0.00    -0.110 A  
HETATM    9  C   UNL     1      -8.932   9.377  69.250  1.00  0.00    -0.154 A  
HETATM   10  C   UNL     1      -8.852   9.828  66.675  1.00  0.00    -0.153 C  
HETATM   11  C   UNL     1      -7.973   9.406  70.260  1.00  0.00    -0.161 A  
HETATM   12  N   UNL     1      -6.783   9.808  69.683  1.00  0.00    -0.049 NA 
HETATM   13  C   UNL     1      -8.274   9.054  71.579  1.00  0.00    -0.055 A  
HETATM   14  H   UNL     1      -5.903   9.940  70.181  1.00  0.00     0.000 HD 
HETATM   15  C   UNL     1      -9.592   8.657  71.857  1.00  0.00    -0.377 A  
HETATM   16  C   UNL     1     -10.577   8.616  70.861  1.00  0.00    -0.265 A  
HETATM   17  C   UNL     1     -10.249   8.981  69.550  1.00  0.00    -0.205 A  
BRANCH  16  18
HETATM   18  C   UNL     1     -11.949   8.173  71.243  1.00  0.00    -0.291 C  
HETATM   19  N   UNL     1     -12.515   7.125  70.570  1.00  0.00    -0.614 N  
HETATM   20  O   UNL     1     -12.573   8.723  72.143  1.00  0.00    -0.353 OA 
HETATM   21  H1  UNL     1     -13.453   6.822  70.831  1.00  0.00     0.000 HD 
HETATM   22  H2  UNL     1     -12.008   6.655  69.820  1.00  0.00     0.000 HD 
ENDBRANCH  16  18
ENDBRANCH   2   4
TORSDOF 2
ENDMDL
MODEL      148
REMARK 921   NORMALIZED FREE ENERGY PREDICTED BY IDOCK:   -3.09 KCAL/MOL
REMARK 922        TOTAL FREE ENERGY PREDICTED BY IDOCK:   -3.57 KCAL/MOL
REMARK 923 INTER-LIGAND FREE ENERGY PREDICTED BY IDOCK:   -3.44 KCAL/MOL
REMARK 924 INTRA-LIGAND FREE ENERGY PREDICTED BY IDOCK:   -0.13 KCAL/MOL
REMARK 927      BINDING AFFINITY PREDICTED BY RF-SCORE:    0.00 PKD
ROOT
HETATM    1  C   UNL     1     -10.507  13.291  66.260  1.00  0.00    -0.287 C  
HETATM    2  N   UNL     1     -11.233  12.026  66.219  1.00  0.00    -0.328 NA 
HETATM    3  H   UNL     1     -11.163  11.595  65.297  1.00  0.00     0.000 HD 
ENDROOT
BRANCH   2   4
HETATM    4  C   UNL     1     -10.809  11.083  67.275  1.00  0.00    -0.281 C  
HETATM    5  C   UNL     1      -9.447  11.553  67.862  1.00  0.00    -0.178 C  
HETATM    6  C   UNL     1      -8.966  10.648  69.019  1.00  0.00    -0.165 C  
HETATM    7  C   UNL     1      -9.067   9.228  68.597  1.00  0.00    -0.132 A  
HETATM    8  C   UNL     1      -9.865   8.756  67.581  1.00  0.00    -0.228 A  
HETATM    9  C   UNL     1      -9.632   7.365  67.459  1.00  0.00    -0.171 A  
HETATM   10  C   UNL     1     -10.728   9.628  66.742  1.00  0.00    -0.149 C  
HETATM   11  C   UNL     1      -8.694   7.016  68.429  1.00  0.00    -0.125 A  
HETATM   12  N   UNL     1      -8.376   8.170  69.124  1.00  0.00    -0.129 NA 
HETATM   13  C   UNL     1      -8.220   5.709  68.567  1.00  0.00    -0.106 A  
HETATM   14  H   UNL     1      -7.727   8.224  69.908  1.00  0.00     0.000 HD 
HETATM   15  C   UNL     1      -8.722   4.742  67.681  1.00  0.00    -0.106 A  
HETATM   16  C   UNL     1      -9.665   5.064  66.695  1.00  0.00    -0.191 A  
HETATM   17  C   UNL     1     -10.127   6.380  66.584  1.00  0.00    -0.206 A  
BRANCH  16  18
HETATM   18  C   UNL     1     -10.137   3.976  65.790  1.00  0.00    -0.099 C  
HETATM   19  N   UNL     1      -9.544   2.745  65.873  1.00  0.00    -0.376 N  
HETATM   20  O   UNL     1     -11.039   4.161  64.981  1.00  0.00    -0.180 OA 
HETATM   21  H1  UNL     1      -9.866   2.002  65.254  1.00  0.00     0.000 HD 
HETATM   22  H2  UNL     1      -8.793   2.574  66.541  1.00  0.00     0.000 HD 
ENDBRANCH  16  18
ENDBRANCH   2   4
TORSDOF 2
ENDMDL
MODEL      149
REMARK 921   NORMALIZED FREE ENERGY PREDICTED BY IDOCK:   -3.06 KCAL/MOL
REMARK 922        TOTAL FREE ENERGY PREDICTED BY IDOCK:   -3.54 KCAL/MOL
REMARK 923 INTER-LIGAND FREE ENERGY PREDICTED BY IDOCK:   -3.43 KCAL/MOL
REMARK 924 INTRA-LIGAND FREE ENERGY PREDICTED BY IDOCK:   -0.11 KCAL/MOL
REMARK 927      BINDING AFFINITY PREDICTED BY RF-SCORE:    0.00 PKD
ROOT
HETATM    1  C   UNL     1      -9.682  11.196  68.069  1.00  0.00    -0.176 C  
HETATM    2  N   UNL     1      -9.456  10.733  69.435  1.00  0.00    -0.413 NA 
HETATM    3  H   UNL     1      -9.661  11.471  70.108  1.00  0.00     0.000 HD 
ENDROOT
BRANCH   2   4
HETATM    4  C   UNL     1     -10.207   9.502  69.759  1.00  0.00    -0.228 C  
HETATM    5  C   UNL     1     -10.700   9.577  71.232  1.00  0.00    -0.386 C  
HETATM    6  C   UNL     1     -11.549   8.348  71.627  1.00  0.00    -0.348 C  
HETATM    7  C   UNL     1     -10.835   7.112  71.214  1.00  0.00    -0.233 A  
HETATM    8  C   UNL     1      -9.853   7.047  70.253  1.00  0.00    -0.180 A  
HETATM    9  C   UNL     1      -9.392   5.709  70.198  1.00  0.00    -0.188 A  
HETATM   10  C   UNL     1      -9.354   8.231  69.506  1.00  0.00    -0.158 C  
HETATM   11  C   UNL     1     -10.125   4.980  71.133  1.00  0.00    -0.223 A  
HETATM   12  N   UNL     1     -11.014   5.857  71.729  1.00  0.00    -0.263 NA 
HETATM   13  C   UNL     1      -9.902   3.618  71.352  1.00  0.00    -0.219 A  
HETATM   14  H   UNL     1     -11.697   5.606  72.443  1.00  0.00     0.000 HD 
HETATM   15  C   UNL     1      -8.895   2.998  70.595  1.00  0.00    -0.148 A  
HETATM   16  C   UNL     1      -8.140   3.706  69.650  1.00  0.00    -0.063 A  
HETATM   17  C   UNL     1      -8.390   5.068  69.446  1.00  0.00    -0.085 A  
BRANCH  16  18
HETATM   18  C   UNL     1      -7.084   2.970  68.896  1.00  0.00    -0.048 C  
HETATM   19  N   UNL     1      -7.225   1.622  68.709  1.00  0.00    -0.039 N  
HETATM   20  O   UNL     1      -6.100   3.545  68.444  1.00  0.00    -0.029 OA 
HETATM   21  H1  UNL     1      -6.503   1.118  68.194  1.00  0.00     0.000 HD 
HETATM   22  H2  UNL     1      -8.039   1.129  69.077  1.00  0.00     0.000 HD 
ENDBRANCH  16  18
ENDBRANCH   2   4
TORSDOF 2
ENDMDL
MODEL      150
REMARK 921   NORMALIZED FREE ENERGY PREDICTED BY IDOCK:   -3.06 KCAL/MOL
REMARK 922        TOTAL FREE ENERGY PREDICTED BY IDOCK:   -3.53 KCAL/MOL
REMARK 923 INTER-LIGAND FREE ENERGY PREDICTED BY IDOCK:   -3.41 KCAL/MOL
REMARK 924 INTRA-LIGAND FREE ENERGY PREDICTED BY IDOCK:   -0.12 KCAL/MOL
REMARK 927      BINDING AFFINITY PREDICTED BY RF-SCORE:    0.00 PKD
ROOT
HETATM    1  C   UNL     1      -6.624   7.373  72.363  1.00  0.00    -0.055 C  
HETATM    2  N   UNL     1      -8.061   7.459  72.605  1.00  0.00    -0.101 NA 
HETATM    3  H   UNL     1      -8.255   7.608  73.595  1.00  0.00     0.000 HD 
ENDROOT
BRANCH   2   4
HETATM    4  C   UNL     1      -8.725   8.488  71.777  1.00  0.00    -0.201 C  
HETATM    5  C   UNL     1     -10.266   8.357  71.939  1.00  0.00    -0.340 C  
HETATM    6  C   UNL     1     -11.031   9.442  71.149  1.00  0.00    -0.430 C  
HETATM    7  C   UNL     1     -10.499   9.497  69.763  1.00  0.00    -0.231 A  
HETATM    8  C   UNL     1      -9.265   9.035  69.367  1.00  0.00    -0.150 A  
HETATM    9  C   UNL     1      -9.164   9.220  67.967  1.00  0.00    -0.138 A  
HETATM   10  C   UNL     1      -8.297   8.385  70.289  1.00  0.00    -0.124 C  
HETATM   11  C   UNL     1     -10.351   9.813  67.541  1.00  0.00    -0.237 A  
HETATM   12  N   UNL     1     -11.145   9.989  68.661  1.00  0.00    -0.408 NA 
HETATM   13  C   UNL     1     -10.591  10.113  66.197  1.00  0.00    -0.099 A  
HETATM   14  H   UNL     1     -12.070  10.418  68.664  1.00  0.00     0.000 HD 
HETATM   15  C   UNL     1      -9.584   9.787  65.273  1.00  0.00    -0.368 A  
HETATM   16  C   UNL     1      -8.381   9.189  65.672  1.00  0.00    -0.131 A  
HETATM   17  C   UNL     1      -8.166   8.906  67.026  1.00  0.00    -0.106 A  
BRANCH  16  18
HETATM   18  C   UNL     1      -7.371   8.868  64.622  1.00  0.00    -0.101 C  
HETATM   19  N   UNL     1      -6.064   9.214  64.837  1.00  0.00    -0.064 N  
HETATM   20  O   UNL     1      -7.686   8.304  63.581  1.00  0.00    -0.130 OA 
HETATM   21  H1  UNL     1      -5.374   8.995  64.119  1.00  0.00     0.000 HD 
HETATM   22  H2  UNL     1      -5.786   9.682  65.699  1.00  0.00     0.000 HD 
ENDBRANCH  16  18
ENDBRANCH   2   4
TORSDOF 2
ENDMDL
MODEL      151
REMARK 921   NORMALIZED FREE ENERGY PREDICTED BY IDOCK:   -3.02 KCAL/MOL
REMARK 922        TOTAL FREE ENERGY PREDICTED BY IDOCK:   -3.49 KCAL/MOL
REMARK 923 INTER-LIGAND FREE ENERGY PREDICTED BY IDOCK:   -3.39 KCAL/MOL
REMARK 924 INTRA-LIGAND FREE ENERGY PREDICTED BY IDOCK:   -0.10 KCAL/MOL
REMARK 927      BINDING AFFINITY PREDICTED BY RF-SCORE:    0.00 PKD
ROOT
HETATM    1  C   UNL     1      -7.760  15.605  67.127  1.00  0.00    -0.223 C  
HETATM    2  N   UNL     1      -7.423  14.198  67.318  1.00  0.00    -0.323 NA 
HETATM    3  H   UNL     1      -7.002  14.046  68.235  1.00  0.00     0.000 HD 
ENDROOT
BRANCH   2   4
HETATM    4  C   UNL     1      -8.574  13.294  67.110  1.00  0.00    -0.193 C  
HETATM    5  C   UNL     1      -9.422  13.239  68.413  1.00  0.00    -0.172 C  
HETATM    6  C   UNL     1     -10.682  12.360  68.253  1.00  0.00    -0.250 C  
HETATM    7  C   UNL     1     -10.293  11.062  67.643  1.00  0.00    -0.191 A  
HETATM    8  C   UNL     1      -9.146  10.838  66.918  1.00  0.00    -0.160 A  
HETATM    9  C   UNL     1      -9.120   9.467  66.564  1.00  0.00    -0.185 A  
HETATM   10  C   UNL     1      -8.115  11.880  66.667  1.00  0.00    -0.063 C  
HETATM   11  C   UNL     1     -10.278   8.886  67.079  1.00  0.00    -0.275 A  
HETATM   12  N   UNL     1     -10.987   9.885  67.720  1.00  0.00    -0.433 NA 
HETATM   13  C   UNL     1     -10.555   7.524  66.926  1.00  0.00    -0.367 A  
HETATM   14  H   UNL     1     -11.890   9.764  68.179  1.00  0.00     0.000 HD 
HETATM   15  C   UNL     1      -9.612   6.747  66.234  1.00  0.00    -0.087 A  
HETATM   16  C   UNL     1      -8.439   7.304  65.707  1.00  0.00    -0.148 A  
HETATM   17  C   UNL     1      -8.191   8.672  65.869  1.00  0.00    -0.123 A  
BRANCH  16  18
HETATM   18  C   UNL     1      -7.489   6.402  64.994  1.00  0.00    -0.084 C  
HETATM   19  N   UNL     1      -6.989   5.314  65.657  1.00  0.00    -0.064 N  
HETATM   20  O   UNL     1      -7.152   6.613  63.835  1.00  0.00    -0.049 OA 
HETATM   21  H1  UNL     1      -6.339   4.698  65.170  1.00  0.00     0.000 HD 
HETATM   22  H2  UNL     1      -7.260   5.123  66.621  1.00  0.00     0.000 HD 
ENDBRANCH  16  18
ENDBRANCH   2   4
TORSDOF 2
ENDMDL
MODEL      152
REMARK 921   NORMALIZED FREE ENERGY PREDICTED BY IDOCK:   -3.02 KCAL/MOL
REMARK 922        TOTAL FREE ENERGY PREDICTED BY IDOCK:   -3.48 KCAL/MOL
REMARK 923 INTER-LIGAND FREE ENERGY PREDICTED BY IDOCK:   -3.37 KCAL/MOL
REMARK 924 INTRA-LIGAND FREE ENERGY PREDICTED BY IDOCK:   -0.12 KCAL/MOL
REMARK 927      BINDING AFFINITY PREDICTED BY RF-SCORE:    0.00 PKD
ROOT
HETATM    1  C   UNL     1      -6.613   4.603  66.028  1.00  0.00    -0.045 C  
HETATM    2  N   UNL     1      -7.980   4.892  65.605  1.00  0.00    -0.101 NA 
HETATM    3  H   UNL     1      -8.489   4.031  65.407  1.00  0.00     0.000 HD 
ENDROOT
BRANCH   2   4
HETATM    4  C   UNL     1      -8.718   5.731  66.572  1.00  0.00    -0.123 C  
HETATM    5  C   UNL     1     -10.241   5.643  66.266  1.00  0.00    -0.163 C  
HETATM    6  C   UNL     1     -11.088   6.447  67.277  1.00  0.00    -0.416 C  
HETATM    7  C   UNL     1     -10.504   7.806  67.424  1.00  0.00    -0.292 A  
HETATM    8  C   UNL     1      -9.210   8.152  67.112  1.00  0.00    -0.175 A  
HETATM    9  C   UNL     1      -9.069   9.542  67.340  1.00  0.00    -0.144 A  
HETATM   10  C   UNL     1      -8.216   7.199  66.553  1.00  0.00    -0.117 C  
HETATM   11  C   UNL     1     -10.296  10.012  67.806  1.00  0.00    -0.215 A  
HETATM   12  N   UNL     1     -11.152   8.928  67.866  1.00  0.00    -0.464 NA 
HETATM   13  C   UNL     1     -10.508  11.360  68.109  1.00  0.00    -0.212 A  
HETATM   14  H   UNL     1     -12.119   8.959  68.189  1.00  0.00     0.000 HD 
HETATM   15  C   UNL     1      -9.431  12.242  67.920  1.00  0.00    -0.200 A  
HETATM   16  C   UNL     1      -8.187  11.798  67.451  1.00  0.00    -0.160 A  
HETATM   17  C   UNL     1      -8.001  10.442  67.163  1.00  0.00    -0.115 A  
BRANCH  16  18
HETATM   18  C   UNL     1      -7.102  12.806  67.271  1.00  0.00    -0.082 C  
HETATM   19  N   UNL     1      -5.853  12.374  66.917  1.00  0.00    -0.165 N  
HETATM   20  O   UNL     1      -7.307  14.004  67.429  1.00  0.00    -0.177 OA 
HETATM   21  H1  UNL     1      -5.111  13.062  66.793  1.00  0.00     0.000 HD 
HETATM   22  H2  UNL     1      -5.666  11.380  66.779  1.00  0.00     0.000 HD 
ENDBRANCH  16  18
ENDBRANCH   2   4
TORSDOF 2
ENDMDL
MODEL      153
REMARK 921   NORMALIZED FREE ENERGY PREDICTED BY IDOCK:   -3.01 KCAL/MOL
REMARK 922        TOTAL FREE ENERGY PREDICTED BY IDOCK:   -3.48 KCAL/MOL
REMARK 923 INTER-LIGAND FREE ENERGY PREDICTED BY IDOCK:   -3.34 KCAL/MOL
REMARK 924 INTRA-LIGAND FREE ENERGY PREDICTED BY IDOCK:   -0.15 KCAL/MOL
REMARK 927      BINDING AFFINITY PREDICTED BY RF-SCORE:    0.00 PKD
ROOT
HETATM    1  C   UNL     1      -7.564   9.448  66.515  1.00  0.00    -0.093 C  
HETATM    2  N   UNL     1      -8.868  10.098  66.428  1.00  0.00    -0.142 NA 
HETATM    3  H   UNL     1      -9.327   9.877  65.544  1.00  0.00     0.000 HD 
ENDROOT
BRANCH   2   4
HETATM    4  C   UNL     1      -9.748   9.784  67.573  1.00  0.00    -0.157 C  
HETATM    5  C   UNL     1     -10.091  11.099  68.329  1.00  0.00    -0.196 C  
HETATM    6  C   UNL     1     -11.062  10.859  69.507  1.00  0.00    -0.326 C  
HETATM    7  C   UNL     1     -10.563   9.720  70.321  1.00  0.00    -0.292 A  
HETATM    8  C   UNL     1      -9.691   8.752  69.881  1.00  0.00    -0.183 A  
HETATM    9  C   UNL     1      -9.423   7.886  70.969  1.00  0.00    -0.172 A  
HETATM   10  C   UNL     1      -9.103   8.734  68.516  1.00  0.00    -0.138 C  
HETATM   11  C   UNL     1     -10.162   8.347  72.056  1.00  0.00    -0.294 A  
HETATM   12  N   UNL     1     -10.865   9.460  71.630  1.00  0.00    -0.351 NA 
HETATM   13  C   UNL     1     -10.109   7.726  73.307  1.00  0.00    -0.374 A  
HETATM   14  H   UNL     1     -11.510  10.003  72.204  1.00  0.00     0.000 HD 
HETATM   15  C   UNL     1      -9.268   6.609  73.438  1.00  0.00    -0.148 A  
HETATM   16  C   UNL     1      -8.512   6.123  72.363  1.00  0.00    -0.115 A  
HETATM   17  C   UNL     1      -8.591   6.761  71.120  1.00  0.00    -0.132 A  
BRANCH  16  18
HETATM   18  C   UNL     1      -7.638   4.937  72.594  1.00  0.00    -0.092 C  
HETATM   19  N   UNL     1      -7.110   4.740  73.841  1.00  0.00    -0.075 N  
HETATM   20  O   UNL     1      -7.389   4.140  71.697  1.00  0.00    -0.055 OA 
HETATM   21  H1  UNL     1      -6.512   3.929  74.000  1.00  0.00     0.000 HD 
HETATM   22  H2  UNL     1      -7.309   5.393  74.599  1.00  0.00     0.000 HD 
ENDBRANCH  16  18
ENDBRANCH   2   4
TORSDOF 2
ENDMDL
MODEL      154
REMARK 921   NORMALIZED FREE ENERGY PREDICTED BY IDOCK:   -3.01 KCAL/MOL
REMARK 922        TOTAL FREE ENERGY PREDICTED BY IDOCK:   -3.48 KCAL/MOL
REMARK 923 INTER-LIGAND FREE ENERGY PREDICTED BY IDOCK:   -3.35 KCAL/MOL
REMARK 924 INTRA-LIGAND FREE ENERGY PREDICTED BY IDOCK:   -0.12 KCAL/MOL
REMARK 927      BINDING AFFINITY PREDICTED BY RF-SCORE:    0.00 PKD
ROOT
HETATM    1  C   UNL     1     -10.921  11.484  65.145  1.00  0.00    -0.234 C  
HETATM    2  N   UNL     1      -9.495  11.682  65.384  1.00  0.00    -0.326 NA 
HETATM    3  H   UNL     1      -9.157  12.513  64.899  1.00  0.00     0.000 HD 
ENDROOT
BRANCH   2   4
HETATM    4  C   UNL     1      -9.151  11.732  66.820  1.00  0.00    -0.194 C  
HETATM    5  C   UNL     1      -7.652  12.117  66.973  1.00  0.00    -0.093 C  
HETATM    6  C   UNL     1      -7.231  12.251  68.454  1.00  0.00    -0.102 C  
HETATM    7  C   UNL     1      -7.703  11.057  69.201  1.00  0.00    -0.102 A  
HETATM    8  C   UNL     1      -8.718  10.220  68.800  1.00  0.00    -0.144 A  
HETATM    9  C   UNL     1      -8.820   9.178  69.754  1.00  0.00    -0.165 A  
HETATM   10  C   UNL     1      -9.471  10.391  67.530  1.00  0.00    -0.167 C  
HETATM   11  C   UNL     1      -7.859   9.420  70.734  1.00  0.00    -0.118 A  
HETATM   12  N   UNL     1      -7.200  10.584  70.383  1.00  0.00    -0.467 NA 
HETATM   13  C   UNL     1      -7.675   8.560  71.820  1.00  0.00    -0.154 A  
HETATM   14  H   UNL     1      -6.454  11.023  70.922  1.00  0.00     0.000 HD 
HETATM   15  C   UNL     1      -8.497   7.423  71.891  1.00  0.00    -0.117 A  
HETATM   16  C   UNL     1      -9.470   7.154  70.920  1.00  0.00    -0.160 A  
HETATM   17  C   UNL     1      -9.637   8.036  69.847  1.00  0.00    -0.171 A  
BRANCH  16  18
HETATM   18  C   UNL     1     -10.292   5.918  71.069  1.00  0.00    -0.223 C  
HETATM   19  N   UNL     1      -9.989   5.042  72.075  1.00  0.00    -0.177 N  
HETATM   20  O   UNL     1     -11.228   5.676  70.316  1.00  0.00    -0.243 OA 
HETATM   21  H1  UNL     1     -10.550   4.197  72.178  1.00  0.00     0.000 HD 
HETATM   22  H2  UNL     1      -9.214   5.229  72.712  1.00  0.00     0.000 HD 
ENDBRANCH  16  18
ENDBRANCH   2   4
TORSDOF 2
ENDMDL
MODEL      155
REMARK 921   NORMALIZED FREE ENERGY PREDICTED BY IDOCK:   -2.95 KCAL/MOL
REMARK 922        TOTAL FREE ENERGY PREDICTED BY IDOCK:   -3.40 KCAL/MOL
REMARK 923 INTER-LIGAND FREE ENERGY PREDICTED BY IDOCK:   -3.26 KCAL/MOL
REMARK 924 INTRA-LIGAND FREE ENERGY PREDICTED BY IDOCK:   -0.15 KCAL/MOL
REMARK 927      BINDING AFFINITY PREDICTED BY RF-SCORE:    0.00 PKD
ROOT
HETATM    1  C   UNL     1     -12.269  11.777  70.647  1.00  0.00    -0.349 C  
HETATM    2  N   UNL     1     -12.127  12.851  69.668  1.00  0.00    -0.266 NA 
HETATM    3  H   UNL     1     -11.972  13.747  70.130  1.00  0.00     0.000 HD 
ENDROOT
BRANCH   2   4
HETATM    4  C   UNL     1     -11.074  12.584  68.667  1.00  0.00    -0.265 C  
HETATM    5  C   UNL     1     -11.696  12.640  67.243  1.00  0.00    -0.435 C  
HETATM    6  C   UNL     1     -10.640  12.431  66.134  1.00  0.00    -0.283 C  
HETATM    7  C   UNL     1      -9.818  11.240  66.468  1.00  0.00    -0.208 A  
HETATM    8  C   UNL     1      -9.680  10.696  67.724  1.00  0.00    -0.179 A  
HETATM    9  C   UNL     1      -8.864   9.545  67.608  1.00  0.00    -0.121 A  
HETATM   10  C   UNL     1     -10.369  11.227  68.929  1.00  0.00    -0.214 C  
HETATM   11  C   UNL     1      -8.509   9.422  66.266  1.00  0.00    -0.126 A  
HETATM   12  N   UNL     1      -9.090  10.481  65.591  1.00  0.00    -0.174 NA 
HETATM   13  C   UNL     1      -7.718   8.368  65.801  1.00  0.00    -0.094 A  
HETATM   14  H   UNL     1      -8.991  10.667  64.593  1.00  0.00     0.000 HD 
HETATM   15  C   UNL     1      -7.291   7.417  66.741  1.00  0.00    -0.092 A  
HETATM   16  C   UNL     1      -7.634   7.513  68.097  1.00  0.00    -0.114 A  
HETATM   17  C   UNL     1      -8.421   8.583  68.536  1.00  0.00    -0.131 A  
BRANCH  16  18
HETATM   18  C   UNL     1      -7.145   6.452  69.025  1.00  0.00    -0.081 C  
HETATM   19  N   UNL     1      -7.771   6.292  70.231  1.00  0.00    -0.096 N  
HETATM   20  O   UNL     1      -6.202   5.727  68.729  1.00  0.00    -0.026 OA 
HETATM   21  H1  UNL     1      -7.437   5.567  70.866  1.00  0.00     0.000 HD 
HETATM   22  H2  UNL     1      -8.557   6.886  70.492  1.00  0.00     0.000 HD 
ENDBRANCH  16  18
ENDBRANCH   2   4
TORSDOF 2
ENDMDL
MODEL      156
REMARK 921   NORMALIZED FREE ENERGY PREDICTED BY IDOCK:   -2.91 KCAL/MOL
REMARK 922        TOTAL FREE ENERGY PREDICTED BY IDOCK:   -3.36 KCAL/MOL
REMARK 923 INTER-LIGAND FREE ENERGY PREDICTED BY IDOCK:   -3.23 KCAL/MOL
REMARK 924 INTRA-LIGAND FREE ENERGY PREDICTED BY IDOCK:   -0.13 KCAL/MOL
REMARK 927      BINDING AFFINITY PREDICTED BY RF-SCORE:    0.00 PKD
ROOT
HETATM    1  C   UNL     1      -6.766   4.071  68.467  1.00  0.00    -0.046 C  
HETATM    2  N   UNL     1      -8.124   3.929  68.982  1.00  0.00    -0.062 NA 
HETATM    3  H   UNL     1      -8.122   3.467  69.892  1.00  0.00     0.000 HD 
ENDROOT
BRANCH   2   4
HETATM    4  C   UNL     1      -8.855   5.212  69.044  1.00  0.00    -0.092 C  
HETATM    5  C   UNL     1     -10.274   5.021  68.437  1.00  0.00    -0.143 C  
HETATM    6  C   UNL     1     -11.125   6.308  68.523  1.00  0.00    -0.397 C  
HETATM    7  C   UNL     1     -10.322   7.453  68.020  1.00  0.00    -0.199 A  
HETATM    8  C   UNL     1      -8.949   7.485  67.938  1.00  0.00    -0.131 A  
HETATM    9  C   UNL     1      -8.581   8.722  67.357  1.00  0.00    -0.126 A  
HETATM   10  C   UNL     1      -8.076   6.347  68.327  1.00  0.00    -0.113 C  
HETATM   11  C   UNL     1      -9.756   9.429  67.108  1.00  0.00    -0.173 A  
HETATM   12  N   UNL     1     -10.807   8.639  67.539  1.00  0.00    -0.486 NA 
HETATM   13  C   UNL     1      -9.750  10.693  66.512  1.00  0.00    -0.236 A  
HETATM   14  H   UNL     1     -11.792   8.900  67.503  1.00  0.00     0.000 HD 
HETATM   15  C   UNL     1      -8.503  11.234  66.158  1.00  0.00    -0.135 A  
HETATM   16  C   UNL     1      -7.306  10.546  66.394  1.00  0.00    -0.129 A  
HETATM   17  C   UNL     1      -7.341   9.285  66.999  1.00  0.00    -0.091 A  
BRANCH  16  18
HETATM   18  C   UNL     1      -6.027  11.192  65.977  1.00  0.00    -0.064 C  
HETATM   19  N   UNL     1      -5.432  10.787  64.813  1.00  0.00    -0.303 N  
HETATM   20  O   UNL     1      -5.505  12.074  66.650  1.00  0.00    -0.307 OA 
HETATM   21  H1  UNL     1      -4.559  11.228  64.528  1.00  0.00     0.000 HD 
HETATM   22  H2  UNL     1      -5.855  10.056  64.241  1.00  0.00     0.000 HD 
ENDBRANCH  16  18
ENDBRANCH   2   4
TORSDOF 2
ENDMDL
MODEL      157
REMARK 921   NORMALIZED FREE ENERGY PREDICTED BY IDOCK:   -2.79 KCAL/MOL
REMARK 922        TOTAL FREE ENERGY PREDICTED BY IDOCK:   -3.23 KCAL/MOL
REMARK 923 INTER-LIGAND FREE ENERGY PREDICTED BY IDOCK:   -3.14 KCAL/MOL
REMARK 924 INTRA-LIGAND FREE ENERGY PREDICTED BY IDOCK:   -0.10 KCAL/MOL
REMARK 927      BINDING AFFINITY PREDICTED BY RF-SCORE:    0.00 PKD
ROOT
HETATM    1  C   UNL     1      -9.908   4.470  71.793  1.00  0.00    -0.186 C  
HETATM    2  N   UNL     1      -9.595   5.753  71.172  1.00  0.00    -0.165 NA 
HETATM    3  H   UNL     1      -8.778   6.179  71.608  1.00  0.00     0.000 HD 
ENDROOT
BRANCH   2   4
HETATM    4  C   UNL     1      -9.422   5.659  69.707  1.00  0.00    -0.148 C  
HETATM    5  C   UNL     1      -8.005   5.098  69.396  1.00  0.00    -0.084 C  
HETATM    6  C   UNL     1      -7.770   4.911  67.880  1.00  0.00    -0.083 C  
HETATM    7  C   UNL     1      -8.179   6.151  67.171  1.00  0.00    -0.106 A  
HETATM    8  C   UNL     1      -9.037   7.104  67.668  1.00  0.00    -0.127 A  
HETATM    9  C   UNL     1      -9.121   8.148  66.715  1.00  0.00    -0.191 A  
HETATM   10  C   UNL     1      -9.659   7.027  69.016  1.00  0.00    -0.141 C  
HETATM   11  C   UNL     1      -8.310   7.792  65.639  1.00  0.00    -0.139 A  
HETATM   12  N   UNL     1      -7.758   6.559  65.933  1.00  0.00    -0.087 NA 
HETATM   13  C   UNL     1      -8.148   8.622  64.526  1.00  0.00    -0.162 A  
HETATM   14  H   UNL     1      -7.134   6.033  65.322  1.00  0.00     0.000 HD 
HETATM   15  C   UNL     1      -8.833   9.848  64.528  1.00  0.00    -0.238 A  
HETATM   16  C   UNL     1      -9.654  10.233  65.597  1.00  0.00    -0.289 A  
HETATM   17  C   UNL     1      -9.803   9.379  66.695  1.00  0.00    -0.309 A  
BRANCH  16  18
HETATM   18  C   UNL     1     -10.336  11.557  65.520  1.00  0.00    -0.273 C  
HETATM   19  N   UNL     1     -11.552  11.637  64.897  1.00  0.00    -0.155 N  
HETATM   20  O   UNL     1      -9.833  12.566  66.001  1.00  0.00    -0.254 OA 
HETATM   21  H1  UNL     1     -12.019  12.542  64.845  1.00  0.00     0.000 HD 
HETATM   22  H2  UNL     1     -11.985  10.807  64.493  1.00  0.00     0.000 HD 
ENDBRANCH  16  18
ENDBRANCH   2   4
TORSDOF 2
ENDMDL
MODEL      158
REMARK 921   NORMALIZED FREE ENERGY PREDICTED BY IDOCK:   -2.71 KCAL/MOL
REMARK 922        TOTAL FREE ENERGY PREDICTED BY IDOCK:   -3.14 KCAL/MOL
REMARK 923 INTER-LIGAND FREE ENERGY PREDICTED BY IDOCK:   -3.01 KCAL/MOL
REMARK 924 INTRA-LIGAND FREE ENERGY PREDICTED BY IDOCK:   -0.12 KCAL/MOL
REMARK 927      BINDING AFFINITY PREDICTED BY RF-SCORE:    0.00 PKD
ROOT
HETATM    1  C   UNL     1      -7.748  15.610  67.133  1.00  0.00    -0.223 C  
HETATM    2  N   UNL     1      -7.270  14.242  67.310  1.00  0.00    -0.317 NA 
HETATM    3  H   UNL     1      -6.837  14.124  68.226  1.00  0.00     0.000 HD 
ENDROOT
BRANCH   2   4
HETATM    4  C   UNL     1      -8.324  13.230  67.091  1.00  0.00    -0.135 C  
HETATM    5  C   UNL     1      -9.664  13.750  67.684  1.00  0.00    -0.227 C  
HETATM    6  C   UNL     1     -10.832  12.769  67.438  1.00  0.00    -0.265 C  
HETATM    7  C   UNL     1     -10.405  11.400  67.827  1.00  0.00    -0.182 A  
HETATM    8  C   UNL     1      -9.101  10.976  67.934  1.00  0.00    -0.147 A  
HETATM    9  C   UNL     1      -9.121   9.632  68.381  1.00  0.00    -0.123 A  
HETATM   10  C   UNL     1      -7.928  11.856  67.693  1.00  0.00    -0.146 C  
HETATM   11  C   UNL     1     -10.457   9.263  68.524  1.00  0.00    -0.206 A  
HETATM   12  N   UNL     1     -11.224  10.356  68.162  1.00  0.00    -0.412 NA 
HETATM   13  C   UNL     1     -10.832   7.995  68.976  1.00  0.00    -0.020 A  
HETATM   14  H   UNL     1     -12.243  10.380  68.147  1.00  0.00     0.000 HD 
HETATM   15  C   UNL     1      -9.805   7.092  69.293  1.00  0.00    -0.159 A  
HETATM   16  C   UNL     1      -8.453   7.436  69.161  1.00  0.00    -0.133 A  
HETATM   17  C   UNL     1      -8.106   8.711  68.700  1.00  0.00    -0.117 A  
BRANCH  16  18
HETATM   18  C   UNL     1      -7.427   6.417  69.530  1.00  0.00    -0.093 C  
HETATM   19  N   UNL     1      -7.838   5.149  69.839  1.00  0.00    -0.074 N  
HETATM   20  O   UNL     1      -6.233   6.692  69.560  1.00  0.00    -0.034 OA 
HETATM   21  H1  UNL     1      -7.137   4.453  70.092  1.00  0.00     0.000 HD 
HETATM   22  H2  UNL     1      -8.828   4.904  69.818  1.00  0.00     0.000 HD 
ENDBRANCH  16  18
ENDBRANCH   2   4
TORSDOF 2
ENDMDL
MODEL      159
REMARK 921   NORMALIZED FREE ENERGY PREDICTED BY IDOCK:   -2.47 KCAL/MOL
REMARK 922        TOTAL FREE ENERGY PREDICTED BY IDOCK:   -2.88 KCAL/MOL
REMARK 923 INTER-LIGAND FREE ENERGY PREDICTED BY IDOCK:   -2.73 KCAL/MOL
REMARK 924 INTRA-LIGAND FREE ENERGY PREDICTED BY IDOCK:   -0.15 KCAL/MOL
REMARK 927      BINDING AFFINITY PREDICTED BY RF-SCORE:    0.00 PKD
ROOT
HETATM    1  C   UNL     1      -9.592   7.627  72.271  1.00  0.00    -0.165 C  
HETATM    2  N   UNL     1      -8.705   8.752  71.989  1.00  0.00    -0.371 NA 
HETATM    3  H   UNL     1      -7.968   8.819  72.691  1.00  0.00     0.000 HD 
ENDROOT
BRANCH   2   4
HETATM    4  C   UNL     1      -8.134   8.709  70.627  1.00  0.00    -0.120 C  
HETATM    5  C   UNL     1      -8.679   9.913  69.807  1.00  0.00    -0.229 C  
HETATM    6  C   UNL     1      -8.076   9.972  68.385  1.00  0.00    -0.101 C  
HETATM    7  C   UNL     1      -8.176   8.627  67.761  1.00  0.00    -0.118 A  
HETATM    8  C   UNL     1      -8.326   7.443  68.445  1.00  0.00    -0.125 A  
HETATM    9  C   UNL     1      -8.437   6.404  67.490  1.00  0.00    -0.116 A  
HETATM   10  C   UNL     1      -8.434   7.358  69.925  1.00  0.00    -0.139 C  
HETATM   11  C   UNL     1      -8.337   6.989  66.229  1.00  0.00    -0.129 A  
HETATM   12  N   UNL     1      -8.160   8.347  66.421  1.00  0.00    -0.102 NA 
HETATM   13  C   UNL     1      -8.430   6.239  65.054  1.00  0.00    -0.049 A  
HETATM   14  H   UNL     1      -8.036   9.035  65.678  1.00  0.00     0.000 HD 
HETATM   15  C   UNL     1      -8.639   4.856  65.184  1.00  0.00    -0.144 A  
HETATM   16  C   UNL     1      -8.746   4.241  66.439  1.00  0.00    -0.113 A  
HETATM   17  C   UNL     1      -8.641   5.016  67.599  1.00  0.00    -0.104 A  
BRANCH  16  18
HETATM   18  C   UNL     1      -8.977   2.768  66.485  1.00  0.00    -0.148 C  
HETATM   19  N   UNL     1      -9.677   2.243  67.537  1.00  0.00    -0.356 N  
HETATM   20  O   UNL     1      -8.557   2.025  65.605  1.00  0.00    -0.099 OA 
HETATM   21  H1  UNL     1      -9.836   1.236  67.568  1.00  0.00     0.000 HD 
HETATM   22  H2  UNL     1     -10.035   2.847  68.276  1.00  0.00     0.000 HD 
ENDBRANCH  16  18
ENDBRANCH   2   4
TORSDOF 2
ENDMDL
MODEL      160
REMARK 921   NORMALIZED FREE ENERGY PREDICTED BY IDOCK:   -2.47 KCAL/MOL
REMARK 922        TOTAL FREE ENERGY PREDICTED BY IDOCK:   -2.88 KCAL/MOL
REMARK 923 INTER-LIGAND FREE ENERGY PREDICTED BY IDOCK:   -2.74 KCAL/MOL
REMARK 924 INTRA-LIGAND FREE ENERGY PREDICTED BY IDOCK:   -0.13 KCAL/MOL
REMARK 927      BINDING AFFINITY PREDICTED BY RF-SCORE:    0.00 PKD
ROOT
HETATM    1  C   UNL     1      -5.661   9.688  71.397  1.00  0.00    -0.074 C  
HETATM    2  N   UNL     1      -6.813  10.222  70.678  1.00  0.00    -0.346 NA 
HETATM    3  H   UNL     1      -6.531  10.616  69.781  1.00  0.00     0.000 HD 
ENDROOT
BRANCH   2   4
HETATM    4  C   UNL     1      -7.894   9.229  70.502  1.00  0.00    -0.153 C  
HETATM    5  C   UNL     1      -7.829   8.192  71.659  1.00  0.00    -0.130 C  
HETATM    6  C   UNL     1      -8.970   7.154  71.579  1.00  0.00    -0.135 C  
HETATM    7  C   UNL     1      -9.040   6.619  70.194  1.00  0.00    -0.155 A  
HETATM    8  C   UNL     1      -8.533   7.240  69.076  1.00  0.00    -0.129 A  
HETATM    9  C   UNL     1      -8.753   6.384  67.970  1.00  0.00    -0.115 A  
HETATM   10  C   UNL     1      -7.814   8.540  69.114  1.00  0.00    -0.100 C  
HETATM   11  C   UNL     1      -9.411   5.252  68.448  1.00  0.00    -0.118 A  
HETATM   12  N   UNL     1      -9.591   5.427  69.808  1.00  0.00    -0.156 NA 
HETATM   13  C   UNL     1      -9.760   4.188  67.611  1.00  0.00    -0.176 A  
HETATM   14  H   UNL     1     -10.062   4.769  70.428  1.00  0.00     0.000 HD 
HETATM   15  C   UNL     1      -9.415   4.293  66.254  1.00  0.00    -0.186 A  
HETATM   16  C   UNL     1      -8.752   5.418  65.746  1.00  0.00    -0.149 A  
HETATM   17  C   UNL     1      -8.421   6.472  66.606  1.00  0.00    -0.116 A  
BRANCH  16  18
HETATM   18  C   UNL     1      -8.415   5.442  64.293  1.00  0.00    -0.092 C  
HETATM   19  N   UNL     1      -8.433   6.640  63.631  1.00  0.00    -0.327 N  
HETATM   20  O   UNL     1      -8.124   4.418  63.685  1.00  0.00    -0.087 OA 
HETATM   21  H1  UNL     1      -8.203   6.657  62.638  1.00  0.00     0.000 HD 
HETATM   22  H2  UNL     1      -8.671   7.502  64.122  1.00  0.00     0.000 HD 
ENDBRANCH  16  18
ENDBRANCH   2   4
TORSDOF 2
ENDMDL
MODEL      161
REMARK 921   NORMALIZED FREE ENERGY PREDICTED BY IDOCK:   -2.38 KCAL/MOL
REMARK 922        TOTAL FREE ENERGY PREDICTED BY IDOCK:   -2.77 KCAL/MOL
REMARK 923 INTER-LIGAND FREE ENERGY PREDICTED BY IDOCK:   -2.64 KCAL/MOL
REMARK 924 INTRA-LIGAND FREE ENERGY PREDICTED BY IDOCK:   -0.13 KCAL/MOL
REMARK 927      BINDING AFFINITY PREDICTED BY RF-SCORE:    0.00 PKD
ROOT
HETATM    1  C   UNL     1     -10.658   6.635  71.277  1.00  0.00    -0.223 C  
HETATM    2  N   UNL     1     -10.813   8.033  70.890  1.00  0.00    -0.226 NA 
HETATM    3  H   UNL     1     -10.765   8.644  71.705  1.00  0.00     0.000 HD 
ENDROOT
BRANCH   2   4
HETATM    4  C   UNL     1      -9.846   8.457  69.856  1.00  0.00    -0.186 C  
HETATM    5  C   UNL     1     -10.284   9.834  69.281  1.00  0.00    -0.216 C  
HETATM    6  C   UNL     1      -9.284  10.374  68.234  1.00  0.00    -0.149 C  
HETATM    7  C   UNL     1      -8.979   9.298  67.256  1.00  0.00    -0.123 A  
HETATM    8  C   UNL     1      -9.153   7.952  67.477  1.00  0.00    -0.141 A  
HETATM    9  C   UNL     1      -8.801   7.270  66.286  1.00  0.00    -0.179 A  
HETATM   10  C   UNL     1      -9.703   7.390  68.738  1.00  0.00    -0.149 C  
HETATM   11  C   UNL     1      -8.402   8.233  65.361  1.00  0.00    -0.162 A  
HETATM   12  N   UNL     1      -8.503   9.465  65.983  1.00  0.00    -0.122 NA 
HETATM   13  C   UNL     1      -8.009   7.897  64.063  1.00  0.00    -0.124 A  
HETATM   14  H   UNL     1      -8.259  10.359  65.559  1.00  0.00     0.000 HD 
HETATM   15  C   UNL     1      -8.036   6.537  63.711  1.00  0.00    -0.076 A  
HETATM   16  C   UNL     1      -8.434   5.548  64.620  1.00  0.00    -0.108 A  
HETATM   17  C   UNL     1      -8.816   5.913  65.916  1.00  0.00    -0.154 A  
BRANCH  16  18
HETATM   18  C   UNL     1      -8.441   4.129  64.159  1.00  0.00    -0.106 C  
HETATM   19  N   UNL     1      -7.808   3.813  62.987  1.00  0.00    -0.069 N  
HETATM   20  O   UNL     1      -8.997   3.248  64.804  1.00  0.00    -0.121 OA 
HETATM   21  H1  UNL     1      -7.812   2.844  62.672  1.00  0.00     0.000 HD 
HETATM   22  H2  UNL     1      -7.339   4.534  62.439  1.00  0.00     0.000 HD 
ENDBRANCH  16  18
ENDBRANCH   2   4
TORSDOF 2
ENDMDL
MODEL      162
REMARK 921   NORMALIZED FREE ENERGY PREDICTED BY IDOCK:   -2.13 KCAL/MOL
REMARK 922        TOTAL FREE ENERGY PREDICTED BY IDOCK:   -2.50 KCAL/MOL
REMARK 923 INTER-LIGAND FREE ENERGY PREDICTED BY IDOCK:   -2.38 KCAL/MOL
REMARK 924 INTRA-LIGAND FREE ENERGY PREDICTED BY IDOCK:   -0.12 KCAL/MOL
REMARK 927      BINDING AFFINITY PREDICTED BY RF-SCORE:    0.00 PKD
ROOT
HETATM    1  C   UNL     1     -10.083  14.535  65.742  1.00  0.00    -0.342 C  
HETATM    2  N   UNL     1     -10.044  13.122  65.378  1.00  0.00    -0.403 NA 
HETATM    3  H   UNL     1      -9.225  12.916  64.806  1.00  0.00     0.000 HD 
ENDROOT
BRANCH   2   4
HETATM    4  C   UNL     1     -10.110  12.223  66.548  1.00  0.00    -0.215 C  
HETATM    5  C   UNL     1      -9.544  12.962  67.794  1.00  0.00    -0.212 C  
HETATM    6  C   UNL     1      -9.637  12.104  69.076  1.00  0.00     0.270 C  
HETATM    7  C   UNL     1      -9.100  10.749  68.791  1.00  0.00    -0.178 A  
HETATM    8  C   UNL     1      -8.981  10.188  67.540  1.00  0.00    -0.136 A  
HETATM    9  C   UNL     1      -8.376   8.917  67.693  1.00  0.00    -0.110 A  
HETATM   10  C   UNL     1      -9.360  10.890  66.286  1.00  0.00    -0.203 C  
HETATM   11  C   UNL     1      -8.151   8.727  69.055  1.00  0.00    -0.116 A  
HETATM   12  N   UNL     1      -8.618   9.854  69.708  1.00  0.00    -0.198 NA 
HETATM   13  C   UNL     1      -7.540   7.573  69.553  1.00  0.00    -0.095 A  
HETATM   14  H   UNL     1      -8.606   9.996  70.718  1.00  0.00     0.000 HD 
HETATM   15  C   UNL     1      -7.147   6.598  68.622  1.00  0.00    -0.083 A  
HETATM   16  C   UNL     1      -7.359   6.762  67.246  1.00  0.00    -0.091 A  
HETATM   17  C   UNL     1      -7.979   7.925  66.777  1.00  0.00    -0.107 A  
BRANCH  16  18
HETATM   18  C   UNL     1      -6.901   5.679  66.328  1.00  0.00    -0.059 C  
HETATM   19  N   UNL     1      -6.310   6.026  65.143  1.00  0.00    -0.037 N  
HETATM   20  O   UNL     1      -7.040   4.495  66.613  1.00  0.00    -0.068 OA 
HETATM   21  H1  UNL     1      -5.996   5.286  64.515  1.00  0.00     0.000 HD 
HETATM   22  H2  UNL     1      -6.185   7.006  64.892  1.00  0.00     0.000 HD 
ENDBRANCH  16  18
ENDBRANCH   2   4
TORSDOF 2
ENDMDL
MODEL      163
REMARK 921   NORMALIZED FREE ENERGY PREDICTED BY IDOCK:   -1.25 KCAL/MOL
REMARK 922        TOTAL FREE ENERGY PREDICTED BY IDOCK:   -1.51 KCAL/MOL
REMARK 923 INTER-LIGAND FREE ENERGY PREDICTED BY IDOCK:   -1.42 KCAL/MOL
REMARK 924 INTRA-LIGAND FREE ENERGY PREDICTED BY IDOCK:   -0.10 KCAL/MOL
REMARK 927      BINDING AFFINITY PREDICTED BY RF-SCORE:    0.00 PKD
ROOT
HETATM    1  C   UNL     1     -12.678  12.659  65.314  1.00  0.00    -0.153 C  
HETATM    2  N   UNL     1     -12.205  11.493  66.054  1.00  0.00     0.402 NA 
HETATM    3  H   UNL     1     -12.216  10.660  65.466  1.00  0.00     0.000 HD 
ENDROOT
BRANCH   2   4
HETATM    4  C   UNL     1     -10.873  11.695  66.660  1.00  0.00    -0.283 C  
HETATM    5  C   UNL     1      -9.824  11.902  65.530  1.00  0.00    -0.257 C  
HETATM    6  C   UNL     1      -8.411  12.182  66.088  1.00  0.00     0.314 C  
HETATM    7  C   UNL     1      -8.093  11.171  67.130  1.00  0.00    -0.138 A  
HETATM    8  C   UNL     1      -9.019  10.424  67.820  1.00  0.00    -0.131 A  
HETATM    9  C   UNL     1      -8.312   9.544  68.675  1.00  0.00    -0.117 A  
HETATM   10  C   UNL     1     -10.485  10.514  67.589  1.00  0.00    -0.276 C  
HETATM   11  C   UNL     1      -6.953   9.792  68.491  1.00  0.00    -0.064 A  
HETATM   12  N   UNL     1      -6.845  10.804  67.555  1.00  0.00    -0.077 NA 
HETATM   13  C   UNL     1      -5.969   9.072  69.174  1.00  0.00    -0.042 A  
HETATM   14  H   UNL     1      -5.969  11.213  67.230  1.00  0.00     0.000 HD 
HETATM   15  C   UNL     1      -6.398   8.070  70.059  1.00  0.00    -0.033 A  
HETATM   16  C   UNL     1      -7.757   7.797  70.263  1.00  0.00    -0.089 A  
HETATM   17  C   UNL     1      -8.721   8.539  69.570  1.00  0.00    -0.136 A  
BRANCH  16  18
HETATM   18  C   UNL     1      -8.124   6.708  71.215  1.00  0.00    -0.112 C  
HETATM   19  N   UNL     1      -8.708   7.043  72.406  1.00  0.00    -0.124 N  
HETATM   20  O   UNL     1      -7.915   5.530  70.952  1.00  0.00    -0.100 OA 
HETATM   21  H1  UNL     1      -8.959   6.299  73.057  1.00  0.00     0.000 HD 
HETATM   22  H2  UNL     1      -8.891   8.019  72.639  1.00  0.00     0.000 HD 
ENDBRANCH  16  18
ENDBRANCH   2   4
TORSDOF 2
ENDMDL
MODEL      164
REMARK 921   NORMALIZED FREE ENERGY PREDICTED BY IDOCK:   -1.22 KCAL/MOL
REMARK 922        TOTAL FREE ENERGY PREDICTED BY IDOCK:   -1.48 KCAL/MOL
REMARK 923 INTER-LIGAND FREE ENERGY PREDICTED BY IDOCK:   -1.33 KCAL/MOL
REMARK 924 INTRA-LIGAND FREE ENERGY PREDICTED BY IDOCK:   -0.15 KCAL/MOL
REMARK 927      BINDING AFFINITY PREDICTED BY RF-SCORE:    0.00 PKD
ROOT
HETATM    1  C   UNL     1      -8.407  12.875  68.998  1.00  0.00     0.431 C  
HETATM    2  N   UNL     1      -7.019  12.701  69.415  1.00  0.00    -0.315 NA 
HETATM    3  H   UNL     1      -6.956  12.567  70.424  1.00  0.00     0.000 HD 
ENDROOT
BRANCH   2   4
HETATM    4  C   UNL     1      -6.331  11.610  68.694  1.00  0.00    -0.055 C  
HETATM    5  C   UNL     1      -6.042  12.066  67.235  1.00  0.00    -0.147 C  
HETATM    6  C   UNL     1      -5.266  10.998  66.433  1.00  0.00    -0.109 C  
HETATM    7  C   UNL     1      -5.930   9.681  66.612  1.00  0.00    -0.059 A  
HETATM    8  C   UNL     1      -6.773   9.351  67.647  1.00  0.00    -0.068 A  
HETATM    9  C   UNL     1      -7.236   8.031  67.423  1.00  0.00    -0.088 A  
HETATM   10  C   UNL     1      -7.155  10.296  68.729  1.00  0.00    -0.072 C  
HETATM   11  C   UNL     1      -6.643   7.579  66.246  1.00  0.00    -0.049 A  
HETATM   12  N   UNL     1      -5.835   8.599  65.777  1.00  0.00    -0.046 NA 
HETATM   13  C   UNL     1      -6.907   6.311  65.721  1.00  0.00    -0.053 A  
HETATM   14  H   UNL     1      -5.256   8.553  64.939  1.00  0.00     0.000 HD 
HETATM   15  C   UNL     1      -7.808   5.496  66.425  1.00  0.00    -0.100 A  
HETATM   16  C   UNL     1      -8.421   5.924  67.610  1.00  0.00    -0.103 A  
HETATM   17  C   UNL     1      -8.132   7.197  68.116  1.00  0.00    -0.124 A  
BRANCH  16  18
HETATM   18  C   UNL     1      -9.373   4.996  68.287  1.00  0.00    -0.126 C  
HETATM   19  N   UNL     1      -9.804   3.887  67.612  1.00  0.00    -0.099 N  
HETATM   20  O   UNL     1      -9.771   5.206  69.427  1.00  0.00    -0.146 OA 
HETATM   21  H1  UNL     1     -10.455   3.252  68.074  1.00  0.00     0.000 HD 
HETATM   22  H2  UNL     1      -9.481   3.697  66.664  1.00  0.00     0.000 HD 
ENDBRANCH  16  18
ENDBRANCH   2   4
TORSDOF 2
ENDMDL
MODEL      165
REMARK 921   NORMALIZED FREE ENERGY PREDICTED BY IDOCK:    3.91 KCAL/MOL
REMARK 922        TOTAL FREE ENERGY PREDICTED BY IDOCK:    4.25 KCAL/MOL
REMARK 923 INTER-LIGAND FREE ENERGY PREDICTED BY IDOCK:    4.37 KCAL/MOL
REMARK 924 INTRA-LIGAND FREE ENERGY PREDICTED BY IDOCK:   -0.12 KCAL/MOL
REMARK 927      BINDING AFFINITY PREDICTED BY RF-SCORE:    0.00 PKD
ROOT
HETATM    1  C   UNL     1     -11.381  17.612  66.786  1.00  0.00     0.935 C  
HETATM    2  N   UNL     1     -11.367  16.179  67.066  1.00  0.00     0.099 NA 
HETATM    3  H   UNL     1     -10.974  15.659  66.282  1.00  0.00     0.000 HD 
ENDROOT
BRANCH   2   4
HETATM    4  C   UNL     1     -10.669  15.844  68.325  1.00  0.00    -0.291 C  
HETATM    5  C   UNL     1      -9.762  17.038  68.739  1.00  0.00    -0.273 C  
HETATM    6  C   UNL     1      -9.044  16.787  70.084  1.00  0.00     1.812 C  
HETATM    7  C   UNL     1      -8.417  15.440  70.054  1.00  0.00     0.380 A  
HETATM    8  C   UNL     1      -8.782  14.413  69.214  1.00  0.00     0.189 A  
HETATM    9  C   UNL     1      -7.910  13.325  69.459  1.00  0.00     0.850 A  
HETATM   10  C   UNL     1      -9.855  14.529  68.192  1.00  0.00    -0.223 C  
HETATM   11  C   UNL     1      -7.031  13.718  70.467  1.00  0.00     0.869 A  
HETATM   12  N   UNL     1      -7.373  15.009  70.827  1.00  0.00     0.329 NA 
HETATM   13  C   UNL     1      -6.017  12.878  70.936  1.00  0.00     0.141 A  
HETATM   14  H   UNL     1      -6.916  15.556  71.556  1.00  0.00     0.000 HD 
HETATM   15  C   UNL     1      -5.905  11.609  70.347  1.00  0.00    -0.156 A  
HETATM   16  C   UNL     1      -6.772  11.187  69.330  1.00  0.00    -0.120 A  
HETATM   17  C   UNL     1      -7.783  12.046  68.885  1.00  0.00     0.014 A  
BRANCH  16  18
HETATM   18  C   UNL     1      -6.574   9.826  68.754  1.00  0.00    -0.046 C  
HETATM   19  N   UNL     1      -7.675   9.081  68.427  1.00  0.00    -0.097 N  
HETATM   20  O   UNL     1      -5.454   9.366  68.566  1.00  0.00    -0.037 OA 
HETATM   21  H1  UNL     1      -7.540   8.151  68.032  1.00  0.00     0.000 HD 
HETATM   22  H2  UNL     1      -8.615   9.450  68.574  1.00  0.00     0.000 HD 
ENDBRANCH  16  18
ENDBRANCH   2   4
TORSDOF 2
ENDMDL
MODEL      166
REMARK 921   NORMALIZED FREE ENERGY PREDICTED BY IDOCK:    3.96 KCAL/MOL
REMARK 922        TOTAL FREE ENERGY PREDICTED BY IDOCK:    4.31 KCAL/MOL
REMARK 923 INTER-LIGAND FREE ENERGY PREDICTED BY IDOCK:    4.45 KCAL/MOL
REMARK 924 INTRA-LIGAND FREE ENERGY PREDICTED BY IDOCK:   -0.14 KCAL/MOL
REMARK 927      BINDING AFFINITY PREDICTED BY RF-SCORE:    0.00 PKD
ROOT
HETATM    1  C   UNL     1     -11.542  12.648  66.423  1.00  0.00    -0.384 C  
HETATM    2  N   UNL     1     -11.196  12.040  67.704  1.00  0.00    -0.262 NA 
HETATM    3  H   UNL     1     -11.299  11.026  67.665  1.00  0.00     0.000 HD 
ENDROOT
BRANCH   2   4
HETATM    4  C   UNL     1      -9.848  12.415  68.177  1.00  0.00    -0.213 C  
HETATM    5  C   UNL     1      -9.865  12.535  69.727  1.00  0.00     1.872 C  
HETATM    6  C   UNL     1      -8.470  12.866  70.304  1.00  0.00     4.522 C  
HETATM    7  C   UNL     1      -7.889  14.002  69.543  1.00  0.00     0.432 A  
HETATM    8  C   UNL     1      -8.272  14.391  68.281  1.00  0.00    -0.149 A  
HETATM    9  C   UNL     1      -7.521  15.541  67.937  1.00  0.00    -0.150 A  
HETATM   10  C   UNL     1      -9.354  13.726  67.509  1.00  0.00    -0.222 C  
HETATM   11  C   UNL     1      -6.677  15.820  69.011  1.00  0.00    -0.143 A  
HETATM   12  N   UNL     1      -6.908  14.854  69.974  1.00  0.00    -0.212 NA 
HETATM   13  C   UNL     1      -5.810  16.916  69.008  1.00  0.00    -0.153 A  
HETATM   14  H   UNL     1      -6.422  14.788  70.868  1.00  0.00     0.000 HD 
HETATM   15  C   UNL     1      -5.820  17.745  67.874  1.00  0.00    -0.151 A  
HETATM   16  C   UNL     1      -6.658  17.490  66.781  1.00  0.00    -0.234 A  
HETATM   17  C   UNL     1      -7.512  16.381  66.808  1.00  0.00    -0.278 A  
BRANCH  16  18
HETATM   18  C   UNL     1      -6.611  18.428  65.622  1.00  0.00    -0.278 C  
HETATM   19  N   UNL     1      -5.450  19.110  65.373  1.00  0.00    -0.158 N  
HETATM   20  O   UNL     1      -7.582  18.598  64.894  1.00  0.00     0.614 OA 
HETATM   21  H1  UNL     1      -5.417  19.751  64.581  1.00  0.00     0.000 HD 
HETATM   22  H2  UNL     1      -4.632  18.979  65.968  1.00  0.00     0.000 HD 
ENDBRANCH  16  18
ENDBRANCH   2   4
TORSDOF 2
ENDMDL
MODEL      167
REMARK 921   NORMALIZED FREE ENERGY PREDICTED BY IDOCK:    6.27 KCAL/MOL
REMARK 922        TOTAL FREE ENERGY PREDICTED BY IDOCK:    6.89 KCAL/MOL
REMARK 923 INTER-LIGAND FREE ENERGY PREDICTED BY IDOCK:    7.02 KCAL/MOL
REMARK 924 INTRA-LIGAND FREE ENERGY PREDICTED BY IDOCK:   -0.13 KCAL/MOL
REMARK 927      BINDING AFFINITY PREDICTED BY RF-SCORE:    0.00 PKD
ROOT
HETATM    1  C   UNL     1     -12.703   5.351  65.142  1.00  0.00     5.959 C  
HETATM    2  N   UNL     1     -11.960   4.264  65.772  1.00  0.00     1.873 NA 
HETATM    3  H   UNL     1     -12.400   3.364  65.583  1.00  0.00     0.000 HD 
ENDROOT
BRANCH   2   4
HETATM    4  C   UNL     1     -10.532   4.243  65.389  1.00  0.00    -0.168 C  
HETATM    5  C   UNL     1      -9.764   3.280  66.337  1.00  0.00     0.077 C  
HETATM    6  C   UNL     1      -8.270   3.156  65.960  1.00  0.00    -0.094 C  
HETATM    7  C   UNL     1      -7.704   4.517  65.773  1.00  0.00    -0.094 A  
HETATM    8  C   UNL     1      -8.435   5.652  65.511  1.00  0.00    -0.146 A  
HETATM    9  C   UNL     1      -7.534   6.743  65.459  1.00  0.00    -0.083 A  
HETATM   10  C   UNL     1      -9.918   5.668  65.402  1.00  0.00     0.488 C  
HETATM   11  C   UNL     1      -6.256   6.234  65.682  1.00  0.00    -0.037 A  
HETATM   12  N   UNL     1      -6.383   4.868  65.853  1.00  0.00    -0.038 NA 
HETATM   13  C   UNL     1      -5.126   7.057  65.719  1.00  0.00    -0.023 A  
HETATM   14  H   UNL     1      -5.612   4.221  66.015  1.00  0.00     0.000 HD 
HETATM   15  C   UNL     1      -5.323   8.434  65.530  1.00  0.00    -0.035 A  
HETATM   16  C   UNL     1      -6.597   8.974  65.307  1.00  0.00    -0.068 A  
HETATM   17  C   UNL     1      -7.709   8.126  65.267  1.00  0.00    -0.101 A  
BRANCH  16  18
HETATM   18  C   UNL     1      -6.715  10.450  65.125  1.00  0.00    -0.082 C  
HETATM   19  N   UNL     1      -7.949  10.987  64.875  1.00  0.00    -0.337 N  
HETATM   20  O   UNL     1      -5.738  11.185  65.198  1.00  0.00    -0.067 OA 
HETATM   21  H1  UNL     1      -8.030  11.996  64.751  1.00  0.00     0.000 HD 
HETATM   22  H2  UNL     1      -8.773  10.389  64.813  1.00  0.00     0.000 HD 
ENDBRANCH  16  18
ENDBRANCH   2   4
TORSDOF 2
ENDMDL
MODEL      168
REMARK 921   NORMALIZED FREE ENERGY PREDICTED BY IDOCK:   20.13 KCAL/MOL
REMARK 922        TOTAL FREE ENERGY PREDICTED BY IDOCK:   22.37 KCAL/MOL
REMARK 923 INTER-LIGAND FREE ENERGY PREDICTED BY IDOCK:   22.51 KCAL/MOL
REMARK 924 INTRA-LIGAND FREE ENERGY PREDICTED BY IDOCK:   -0.14 KCAL/MOL
REMARK 927      BINDING AFFINITY PREDICTED BY RF-SCORE:    0.00 PKD
ROOT
HETATM    1  C   UNL     1     -12.970  10.687  67.393  1.00  0.00     7.705 C  
HETATM    2  N   UNL     1     -13.395  12.033  67.022  1.00  0.00     5.145 NA 
HETATM    3  H   UNL     1     -14.001  12.434  67.737  1.00  0.00     0.000 HD 
ENDROOT
BRANCH   2   4
HETATM    4  C   UNL     1     -12.262  12.934  66.724  1.00  0.00    -0.133 C  
HETATM    5  C   UNL     1     -11.445  12.351  65.536  1.00  0.00    -0.404 C  
HETATM    6  C   UNL     1     -10.275  13.272  65.124  1.00  0.00    -0.301 C  
HETATM    7  C   UNL     1      -9.517  13.665  66.340  1.00  0.00    -0.234 A  
HETATM    8  C   UNL     1     -10.004  13.630  67.625  1.00  0.00    -0.239 A  
HETATM    9  C   UNL     1      -8.958  14.026  68.494  1.00  0.00    -0.160 A  
HETATM   10  C   UNL     1     -11.371  13.161  67.973  1.00  0.00    -0.327 C  
HETATM   11  C   UNL     1      -7.847  14.310  67.702  1.00  0.00    -0.179 A  
HETATM   12  N   UNL     1      -8.219  14.099  66.386  1.00  0.00    -0.013 NA 
HETATM   13  C   UNL     1      -6.626  14.711  68.251  1.00  0.00    -0.118 A  
HETATM   14  H   UNL     1      -7.618  14.245  65.575  1.00  0.00     0.000 HD 
HETATM   15  C   UNL     1      -6.550  14.813  69.650  1.00  0.00    -0.161 A  
HETATM   16  C   UNL     1      -7.650  14.532  70.472  1.00  0.00     1.125 A  
HETATM   17  C   UNL     1      -8.862  14.139  69.893  1.00  0.00     1.333 A  
BRANCH  16  18
HETATM   18  C   UNL     1      -7.477  14.657  71.948  1.00  0.00     3.671 C  
HETATM   19  N   UNL     1      -6.239  14.436  72.488  1.00  0.00     0.371 N  
HETATM   20  O   UNL     1      -8.414  14.954  72.681  1.00  0.00     5.426 OA 
HETATM   21  H1  UNL     1      -6.120  14.522  73.497  1.00  0.00     0.000 HD 
HETATM   22  H2  UNL     1      -5.448  14.191  71.892  1.00  0.00     0.000 HD 
ENDBRANCH  16  18
ENDBRANCH   2   4
TORSDOF 2
ENDMDL
MODEL      169
REMARK 921   NORMALIZED FREE ENERGY PREDICTED BY IDOCK:   27.64 KCAL/MOL
REMARK 922        TOTAL FREE ENERGY PREDICTED BY IDOCK:   30.76 KCAL/MOL
REMARK 923 INTER-LIGAND FREE ENERGY PREDICTED BY IDOCK:   30.88 KCAL/MOL
REMARK 924 INTRA-LIGAND FREE ENERGY PREDICTED BY IDOCK:   -0.12 KCAL/MOL
REMARK 927      BINDING AFFINITY PREDICTED BY RF-SCORE:    0.00 PKD
ROOT
HETATM    1  C   UNL     1      -5.299  12.123  63.021  1.00  0.00     3.054 C  
HETATM    2  N   UNL     1      -5.127  13.309  63.854  1.00  0.00     9.595 NA 
HETATM    3  H   UNL     1      -5.569  14.122  63.426  1.00  0.00     0.000 HD 
ENDROOT
BRANCH   2   4
HETATM    4  C   UNL     1      -5.606  13.116  65.239  1.00  0.00     9.097 C  
HETATM    5  C   UNL     1      -5.229  11.684  65.715  1.00  0.00     0.567 C  
HETATM    6  C   UNL     1      -5.643  11.427  67.181  1.00  0.00    -0.087 C  
HETATM    7  C   UNL     1      -7.054  11.854  67.367  1.00  0.00    -0.129 A  
HETATM    8  C   UNL     1      -7.730  12.738  66.558  1.00  0.00     0.668 A  
HETATM    9  C   UNL     1      -9.059  12.833  67.038  1.00  0.00    -0.220 A  
HETATM   10  C   UNL     1      -7.131  13.374  65.356  1.00  0.00     8.337 C  
HETATM   11  C   UNL     1      -9.156  12.002  68.153  1.00  0.00    -0.191 A  
HETATM   12  N   UNL     1      -7.913  11.427  68.345  1.00  0.00    -0.135 NA 
HETATM   13  C   UNL     1     -10.352  11.844  68.859  1.00  0.00    -0.131 A  
HETATM   14  H   UNL     1      -7.672  10.785  69.099  1.00  0.00     0.000 HD 
HETATM   15  C   UNL     1     -11.473  12.555  68.398  1.00  0.00    -0.355 A  
HETATM   16  C   UNL     1     -11.405  13.396  67.280  1.00  0.00    -0.348 A  
HETATM   17  C   UNL     1     -10.192  13.540  66.596  1.00  0.00    -0.275 A  
BRANCH  16  18
HETATM   18  C   UNL     1     -12.646  14.105  66.855  1.00  0.00     0.087 C  
HETATM   19  N   UNL     1     -13.243  13.742  65.678  1.00  0.00    -0.491 N  
HETATM   20  O   UNL     1     -13.139  14.998  67.535  1.00  0.00     1.833 OA 
HETATM   21  H1  UNL     1     -14.092  14.227  65.387  1.00  0.00     0.000 HD 
HETATM   22  H2  UNL     1     -12.846  13.001  65.101  1.00  0.00     0.000 HD 
ENDBRANCH  16  18
ENDBRANCH   2   4
TORSDOF 2
ENDMDL
MODEL      170
REMARK 921   NORMALIZED FREE ENERGY PREDICTED BY IDOCK:   41.99 KCAL/MOL
REMARK 922        TOTAL FREE ENERGY PREDICTED BY IDOCK:   46.79 KCAL/MOL
REMARK 923 INTER-LIGAND FREE ENERGY PREDICTED BY IDOCK:   46.90 KCAL/MOL
REMARK 924 INTRA-LIGAND FREE ENERGY PREDICTED BY IDOCK:   -0.11 KCAL/MOL
REMARK 927      BINDING AFFINITY PREDICTED BY RF-SCORE:    0.00 PKD
ROOT
HETATM    1  C   UNL     1      -9.248  16.742  64.208  1.00  0.00     6.953 C  
HETATM    2  N   UNL     1      -8.321  15.904  64.963  1.00  0.00     2.476 NA 
HETATM    3  H   UNL     1      -7.641  16.474  65.466  1.00  0.00     0.000 HD 
ENDROOT
BRANCH   2   4
HETATM    4  C   UNL     1      -9.004  14.968  65.879  1.00  0.00     0.162 C  
HETATM    5  C   UNL     1     -10.543  15.155  65.746  1.00  0.00    -0.364 C  
HETATM    6  C   UNL     1     -11.331  14.163  66.631  1.00  0.00    -0.352 C  
HETATM    7  C   UNL     1     -10.763  14.183  68.004  1.00  0.00    -0.242 A  
HETATM    8  C   UNL     1      -9.500  14.617  68.335  1.00  0.00    -0.209 A  
HETATM    9  C   UNL     1      -9.368  14.528  69.742  1.00  0.00     0.551 A  
HETATM   10  C   UNL     1      -8.531  15.157  67.345  1.00  0.00    -0.202 C  
HETATM   11  C   UNL     1     -10.567  14.021  70.238  1.00  0.00     0.896 A  
HETATM   12  N   UNL     1     -11.398  13.800  69.154  1.00  0.00    -0.268 NA 
HETATM   13  C   UNL     1     -10.782  13.828  71.606  1.00  0.00     4.331 A  
HETATM   14  H   UNL     1     -12.340  13.413  69.205  1.00  0.00     0.000 HD 
HETATM   15  C   UNL     1      -9.737  14.174  72.479  1.00  0.00     8.285 A  
HETATM   16  C   UNL     1      -8.522  14.688  72.008  1.00  0.00     6.138 A  
HETATM   17  C   UNL     1      -8.332  14.864  70.633  1.00  0.00     1.761 A  
BRANCH  16  18
HETATM   18  C   UNL     1      -7.470  15.037  73.007  1.00  0.00     6.301 C  
HETATM   19  N   UNL     1      -6.309  14.313  73.023  1.00  0.00     0.675 N  
HETATM   20  O   UNL     1      -7.624  15.955  73.805  1.00  0.00    10.011 OA 
HETATM   21  H1  UNL     1      -5.591  14.552  73.706  1.00  0.00     0.000 HD 
HETATM   22  H2  UNL     1      -6.165  13.547  72.365  1.00  0.00     0.000 HD 
ENDBRANCH  16  18
ENDBRANCH   2   4
TORSDOF 2
ENDMDL
MODEL      171
REMARK 921   NORMALIZED FREE ENERGY PREDICTED BY IDOCK:   42.79 KCAL/MOL
REMARK 922        TOTAL FREE ENERGY PREDICTED BY IDOCK:   47.67 KCAL/MOL
REMARK 923 INTER-LIGAND FREE ENERGY PREDICTED BY IDOCK:   47.82 KCAL/MOL
REMARK 924 INTRA-LIGAND FREE ENERGY PREDICTED BY IDOCK:   -0.14 KCAL/MOL
REMARK 927      BINDING AFFINITY PREDICTED BY RF-SCORE:    0.00 PKD
ROOT
HETATM    1  C   UNL     1      -7.635  15.261  73.253  1.00  0.00     8.264 C  
HETATM    2  N   UNL     1      -8.414  14.045  73.043  1.00  0.00     7.952 NA 
HETATM    3  H   UNL     1      -9.409  14.222  73.182  1.00  0.00     0.000 HD 
ENDROOT
BRANCH   2   4
HETATM    4  C   UNL     1      -8.168  13.422  71.726  1.00  0.00    11.486 C  
HETATM    5  C   UNL     1      -7.113  12.290  71.886  1.00  0.00     7.584 C  
HETATM    6  C   UNL     1      -6.847  11.546  70.558  1.00  0.00     1.108 C  
HETATM    7  C   UNL     1      -6.611  12.545  69.484  1.00  0.00    -0.039 A  
HETATM    8  C   UNL     1      -7.010  13.860  69.520  1.00  0.00     0.021 A  
HETATM    9  C   UNL     1      -6.546  14.485  68.338  1.00  0.00    -0.103 A  
HETATM   10  C   UNL     1      -7.723  14.471  70.673  1.00  0.00     1.557 C  
HETATM   11  C   UNL     1      -5.877  13.516  67.593  1.00  0.00    -0.067 A  
HETATM   12  N   UNL     1      -5.945  12.333  68.306  1.00  0.00    -0.051 NA 
HETATM   13  C   UNL     1      -5.271  13.808  66.368  1.00  0.00     3.594 A  
HETATM   14  H   UNL     1      -5.559  11.440  68.002  1.00  0.00     0.000 HD 
HETATM   15  C   UNL     1      -5.352  15.133  65.907  1.00  0.00     6.245 A  
HETATM   16  C   UNL     1      -6.016  16.129  66.635  1.00  0.00     0.578 A  
HETATM   17  C   UNL     1      -6.620  15.805  67.855  1.00  0.00    -0.165 A  
BRANCH  16  18
HETATM   18  C   UNL     1      -6.045  17.511  66.075  1.00  0.00    -0.156 C  
HETATM   19  N   UNL     1      -5.712  18.559  66.889  1.00  0.00    -0.146 N  
HETATM   20  O   UNL     1      -6.358  17.723  64.909  1.00  0.00     0.156 OA 
HETATM   21  H1  UNL     1      -5.731  19.504  66.506  1.00  0.00     0.000 HD 
HETATM   22  H2  UNL     1      -5.448  18.399  67.861  1.00  0.00     0.000 HD 
ENDBRANCH  16  18
ENDBRANCH   2   4
TORSDOF 2
ENDMDL
MODEL      172
REMARK 921   NORMALIZED FREE ENERGY PREDICTED BY IDOCK:   47.09 KCAL/MOL
REMARK 922        TOTAL FREE ENERGY PREDICTED BY IDOCK:   52.48 KCAL/MOL
REMARK 923 INTER-LIGAND FREE ENERGY PREDICTED BY IDOCK:   52.61 KCAL/MOL
REMARK 924 INTRA-LIGAND FREE ENERGY PREDICTED BY IDOCK:   -0.13 KCAL/MOL
REMARK 927      BINDING AFFINITY PREDICTED BY RF-SCORE:    0.00 PKD
ROOT
HETATM    1  C   UNL     1     -13.956   4.809  64.929  1.00  0.00    12.566 C  
HETATM    2  N   UNL     1     -13.758   4.389  66.312  1.00  0.00    14.704 NA 
HETATM    3  H   UNL     1     -14.226   3.502  66.494  1.00  0.00     0.000 HD 
ENDROOT
BRANCH   2   4
HETATM    4  C   UNL     1     -12.333   4.323  66.697  1.00  0.00    11.075 C  
HETATM    5  C   UNL     1     -12.213   4.478  68.240  1.00  0.00    12.878 C  
HETATM    6  C   UNL     1     -10.752   4.357  68.728  1.00  0.00     1.356 C  
HETATM    7  C   UNL     1      -9.888   5.229  67.891  1.00  0.00    -0.149 A  
HETATM    8  C   UNL     1     -10.206   5.690  66.635  1.00  0.00    -0.276 A  
HETATM    9  C   UNL     1      -9.151   6.530  66.204  1.00  0.00    -0.146 A  
HETATM   10  C   UNL     1     -11.490   5.390  65.950  1.00  0.00     0.990 C  
HETATM   11  C   UNL     1      -8.196   6.548  67.220  1.00  0.00    -0.113 A  
HETATM   12  N   UNL     1      -8.662   5.730  68.233  1.00  0.00    -0.111 NA 
HETATM   13  C   UNL     1      -7.026   7.307  67.125  1.00  0.00    -0.078 A  
HETATM   14  H   UNL     1      -8.167   5.532  69.103  1.00  0.00     0.000 HD 
HETATM   15  C   UNL     1      -6.843   8.069  65.959  1.00  0.00    -0.057 A  
HETATM   16  C   UNL     1      -7.786   8.071  64.923  1.00  0.00    -0.129 A  
HETATM   17  C   UNL     1      -8.945   7.296  65.042  1.00  0.00     0.454 A  
BRANCH  16  18
HETATM   18  C   UNL     1      -7.515   8.918  63.725  1.00  0.00    -0.112 C  
HETATM   19  N   UNL     1      -6.297   8.815  63.107  1.00  0.00    -0.090 N  
HETATM   20  O   UNL     1      -8.355   9.694  63.285  1.00  0.00    -0.147 OA 
HETATM   21  H1  UNL     1      -6.112   9.393  62.288  1.00  0.00     0.000 HD 
HETATM   22  H2  UNL     1      -5.589   8.172  63.460  1.00  0.00     0.000 HD 
ENDBRANCH  16  18
ENDBRANCH   2   4
TORSDOF 2
ENDMDL
