MODEL        1
REMARK 921   NORMALIZED FREE ENERGY PREDICTED BY IDOCK:   -5.64 KCAL/MOL
REMARK 922        TOTAL FREE ENERGY PREDICTED BY IDOCK:   -6.39 KCAL/MOL
REMARK 923 INTER-LIGAND FREE ENERGY PREDICTED BY IDOCK:   -6.30 KCAL/MOL
REMARK 924 INTRA-LIGAND FREE ENERGY PREDICTED BY IDOCK:   -0.09 KCAL/MOL
REMARK 927      BINDING AFFINITY PREDICTED BY RF-SCORE:    0.00 PKD
ROOT
HETATM    1  O   UNL     1     -11.547  16.443  63.807  1.00  0.00    -1.605 OA 
HETATM    2  H   UNL     1     -11.005  17.208  63.657  1.00  0.00     0.000 HD 
HETATM    3  C   UNL     1     -11.030  15.665  64.879  1.00  0.00    -0.431 C  
ENDROOT
BRANCH   3   4
HETATM    4  C   UNL     1     -11.906  14.428  65.121  1.00  0.00    -0.386 C  
HETATM    5  O   UNL     1     -11.581  13.828  66.391  1.00  0.00    -0.331 OA 
HETATM    6  C   UNL     1     -10.561  12.857  66.151  1.00  0.00    -0.271 C  
HETATM    7  H   UNL     1     -12.859  12.025  63.113  1.00  0.00     0.000 HD 
HETATM    8  O   UNL     1      -9.269  13.480  66.194  1.00  0.00    -0.466 OA 
HETATM    9  C   UNL     1     -10.822  12.282  64.748  1.00  0.00    -0.304 C  
HETATM   10  O   UNL     1      -9.584  12.106  64.044  1.00  0.00    -0.518 OA 
HETATM   11  C   UNL     1     -11.714  13.326  64.073  1.00  0.00    -0.430 C  
HETATM   12  H   UNL     1      -8.591  12.834  66.035  1.00  0.00     0.000 HD 
HETATM   13  H   UNL     1      -9.745  11.751  63.177  1.00  0.00     0.000 HD 
HETATM   14  O   UNL     1     -12.978  12.708  63.763  1.00  0.00    -0.707 OA 
BRANCH   6  15
HETATM   15  C   UNL     1     -10.573  11.774  67.238  1.00  0.00    -0.224 C  
HETATM   16  O   UNL     1     -11.916  11.383  67.540  1.00  0.00    -0.626 OA 
HETATM   17  H   UNL     1     -11.924  10.712  68.213  1.00  0.00     0.000 HD 
ENDBRANCH   6  15
ENDBRANCH   3   4
TORSDOF 2
ENDMDL
MODEL        2
REMARK 921   NORMALIZED FREE ENERGY PREDICTED BY IDOCK:   -5.62 KCAL/MOL
REMARK 922        TOTAL FREE ENERGY PREDICTED BY IDOCK:   -6.37 KCAL/MOL
REMARK 923 INTER-LIGAND FREE ENERGY PREDICTED BY IDOCK:   -6.30 KCAL/MOL
REMARK 924 INTRA-LIGAND FREE ENERGY PREDICTED BY IDOCK:   -0.07 KCAL/MOL
REMARK 927      BINDING AFFINITY PREDICTED BY RF-SCORE:    0.00 PKD
ROOT
HETATM    1  O   UNL     1     -11.248  17.080  64.387  1.00  0.00    -1.167 OA 
HETATM    2  H   UNL     1     -11.614  17.716  63.785  1.00  0.00     0.000 HD 
HETATM    3  C   UNL     1     -11.876  15.815  64.223  1.00  0.00    -0.118 C  
ENDROOT
BRANCH   3   4
HETATM    4  C   UNL     1     -11.284  14.787  65.196  1.00  0.00    -0.382 C  
HETATM    5  O   UNL     1     -10.355  13.926  64.509  1.00  0.00    -0.436 OA 
HETATM    6  C   UNL     1     -11.095  12.802  64.029  1.00  0.00    -0.414 C  
HETATM    7  H   UNL     1     -12.662  13.032  67.591  1.00  0.00     0.000 HD 
HETATM    8  O   UNL     1     -11.663  13.100  62.745  1.00  0.00    -0.673 OA 
HETATM    9  C   UNL     1     -12.216  12.544  65.052  1.00  0.00    -0.456 C  
HETATM   10  O   UNL     1     -13.438  12.211  64.379  1.00  0.00    -0.675 OA 
HETATM   11  C   UNL     1     -12.333  13.860  65.822  1.00  0.00    -0.486 C  
HETATM   12  H   UNL     1     -12.156  12.353  62.426  1.00  0.00     0.000 HD 
HETATM   13  H   UNL     1     -14.130  12.052  65.011  1.00  0.00     0.000 HD 
HETATM   14  O   UNL     1     -12.012  13.606  67.204  1.00  0.00    -0.382 OA 
BRANCH   6  15
HETATM   15  C   UNL     1     -10.181  11.584  63.844  1.00  0.00    -0.362 C  
HETATM   16  O   UNL     1     -10.643  10.771  62.761  1.00  0.00    -0.749 OA 
HETATM   17  H   UNL     1     -10.076  10.017  62.647  1.00  0.00     0.000 HD 
ENDBRANCH   6  15
ENDBRANCH   3   4
TORSDOF 2
ENDMDL
MODEL        3
REMARK 921   NORMALIZED FREE ENERGY PREDICTED BY IDOCK:   -5.50 KCAL/MOL
REMARK 922        TOTAL FREE ENERGY PREDICTED BY IDOCK:   -6.23 KCAL/MOL
REMARK 923 INTER-LIGAND FREE ENERGY PREDICTED BY IDOCK:   -5.86 KCAL/MOL
REMARK 924 INTRA-LIGAND FREE ENERGY PREDICTED BY IDOCK:   -0.37 KCAL/MOL
REMARK 927      BINDING AFFINITY PREDICTED BY RF-SCORE:    0.00 PKD
ROOT
HETATM    1  O   UNL     1     -12.082  11.862  67.599  1.00  0.00    -0.568 OA 
HETATM    2  H   UNL     1     -12.185  11.614  68.510  1.00  0.00     0.000 HD 
HETATM    3  C   UNL     1     -10.714  12.101  67.296  1.00  0.00    -0.229 C  
ENDROOT
BRANCH   3   4
HETATM    4  C   UNL     1     -10.547  12.503  65.824  1.00  0.00    -0.270 C  
HETATM    5  O   UNL     1     -10.073  13.860  65.728  1.00  0.00    -0.307 OA 
HETATM    6  C   UNL     1     -11.221  14.706  65.658  1.00  0.00    -0.342 C  
HETATM    7  H   UNL     1     -12.418  11.926  63.201  1.00  0.00     0.000 HD 
HETATM    8  O   UNL     1     -11.673  15.032  66.981  1.00  0.00    -0.309 OA 
HETATM    9  C   UNL     1     -12.308  13.912  64.912  1.00  0.00    -0.420 C  
HETATM   10  O   UNL     1     -13.587  14.119  65.528  1.00  0.00    -0.685 OA 
HETATM   11  C   UNL     1     -11.854  12.456  65.024  1.00  0.00    -0.388 C  
HETATM   12  H   UNL     1     -12.436  15.594  66.935  1.00  0.00     0.000 HD 
HETATM   13  H   UNL     1     -14.259  13.629  65.068  1.00  0.00     0.000 HD 
HETATM   14  O   UNL     1     -11.608  11.956  63.696  1.00  0.00    -0.427 OA 
BRANCH   6  15
HETATM   15  C   UNL     1     -10.883  16.030  64.961  1.00  0.00    -0.404 C  
HETATM   16  O   UNL     1     -11.734  16.231  63.828  1.00  0.00    -1.511 OA 
HETATM   17  H   UNL     1     -11.524  17.052  63.397  1.00  0.00     0.000 HD 
ENDBRANCH   6  15
ENDBRANCH   3   4
TORSDOF 2
ENDMDL
MODEL        4
REMARK 921   NORMALIZED FREE ENERGY PREDICTED BY IDOCK:   -5.43 KCAL/MOL
REMARK 922        TOTAL FREE ENERGY PREDICTED BY IDOCK:   -6.16 KCAL/MOL
REMARK 923 INTER-LIGAND FREE ENERGY PREDICTED BY IDOCK:   -6.10 KCAL/MOL
REMARK 924 INTRA-LIGAND FREE ENERGY PREDICTED BY IDOCK:   -0.06 KCAL/MOL
REMARK 927      BINDING AFFINITY PREDICTED BY RF-SCORE:    0.00 PKD
ROOT
HETATM    1  O   UNL     1     -12.782  11.397  62.937  1.00  0.00    -0.951 OA 
HETATM    2  H   UNL     1     -12.454  10.792  62.284  1.00  0.00     0.000 HD 
HETATM    3  C   UNL     1     -11.812  11.611  63.955  1.00  0.00    -0.249 C  
ENDROOT
BRANCH   3   4
HETATM    4  C   UNL     1     -12.342  12.589  65.012  1.00  0.00    -0.453 C  
HETATM    5  O   UNL     1     -12.205  13.947  64.548  1.00  0.00    -0.429 OA 
HETATM    6  C   UNL     1     -10.930  14.418  64.989  1.00  0.00    -0.389 C  
HETATM    7  H   UNL     1     -12.035  12.627  68.270  1.00  0.00     0.000 HD 
HETATM    8  O   UNL     1      -9.919  14.063  64.034  1.00  0.00    -0.409 OA 
HETATM    9  C   UNL     1     -10.647  13.728  66.335  1.00  0.00    -0.284 C  
HETATM   10  O   UNL     1      -9.271  13.331  66.412  1.00  0.00    -0.397 OA 
HETATM   11  C   UNL     1     -11.586  12.521  66.344  1.00  0.00    -0.391 C  
HETATM   12  H   UNL     1      -9.071  14.376  64.327  1.00  0.00     0.000 HD 
HETATM   13  H   UNL     1      -9.096  12.905  67.243  1.00  0.00     0.000 HD 
HETATM   14  O   UNL     1     -12.504  12.670  67.445  1.00  0.00    -0.165 OA 
BRANCH   6  15
HETATM   15  C   UNL     1     -10.923  15.947  65.103  1.00  0.00    -0.377 C  
HETATM   16  O   UNL     1     -11.414  16.542  63.897  1.00  0.00    -1.608 OA 
HETATM   17  H   UNL     1     -11.410  17.490  63.969  1.00  0.00     0.000 HD 
ENDBRANCH   6  15
ENDBRANCH   3   4
TORSDOF 2
ENDMDL
MODEL        5
REMARK 921   NORMALIZED FREE ENERGY PREDICTED BY IDOCK:   -5.42 KCAL/MOL
REMARK 922        TOTAL FREE ENERGY PREDICTED BY IDOCK:   -6.15 KCAL/MOL
REMARK 923 INTER-LIGAND FREE ENERGY PREDICTED BY IDOCK:   -5.92 KCAL/MOL
REMARK 924 INTRA-LIGAND FREE ENERGY PREDICTED BY IDOCK:   -0.24 KCAL/MOL
REMARK 927      BINDING AFFINITY PREDICTED BY RF-SCORE:    0.00 PKD
ROOT
HETATM    1  O   UNL     1      -9.166  16.869  65.735  1.00  0.00    -0.527 OA 
HETATM    2  H   UNL     1      -9.261  17.810  65.646  1.00  0.00     0.000 HD 
HETATM    3  C   UNL     1     -10.427  16.224  65.617  1.00  0.00    -0.368 C  
ENDROOT
BRANCH   3   4
HETATM    4  C   UNL     1     -10.273  14.704  65.762  1.00  0.00    -0.340 C  
HETATM    5  O   UNL     1     -10.343  14.070  64.470  1.00  0.00    -0.419 OA 
HETATM    6  C   UNL     1     -11.713  13.743  64.232  1.00  0.00    -0.395 C  
HETATM    7  H   UNL     1     -11.497  12.605  67.955  1.00  0.00     0.000 HD 
HETATM    8  O   UNL     1     -12.390  14.863  63.643  1.00  0.00    -1.035 OA 
HETATM    9  C   UNL     1     -12.332  13.417  65.604  1.00  0.00    -0.470 C  
HETATM   10  O   UNL     1     -13.650  13.975  65.701  1.00  0.00    -0.659 OA 
HETATM   11  C   UNL     1     -11.372  14.054  66.610  1.00  0.00    -0.335 C  
HETATM   12  H   UNL     1     -13.301  14.646  63.485  1.00  0.00     0.000 HD 
HETATM   13  H   UNL     1     -14.032  13.774  66.547  1.00  0.00     0.000 HD 
HETATM   14  O   UNL     1     -10.816  13.007  67.429  1.00  0.00    -0.245 OA 
BRANCH   6  15
HETATM   15  C   UNL     1     -11.833  12.575  63.245  1.00  0.00    -0.413 C  
HETATM   16  O   UNL     1     -13.071  11.884  63.436  1.00  0.00    -0.710 OA 
HETATM   17  H   UNL     1     -13.145  11.161  62.824  1.00  0.00     0.000 HD 
ENDBRANCH   6  15
ENDBRANCH   3   4
TORSDOF 2
ENDMDL
MODEL        6
REMARK 921   NORMALIZED FREE ENERGY PREDICTED BY IDOCK:   -5.40 KCAL/MOL
REMARK 922        TOTAL FREE ENERGY PREDICTED BY IDOCK:   -6.13 KCAL/MOL
REMARK 923 INTER-LIGAND FREE ENERGY PREDICTED BY IDOCK:   -5.79 KCAL/MOL
REMARK 924 INTRA-LIGAND FREE ENERGY PREDICTED BY IDOCK:   -0.34 KCAL/MOL
REMARK 927      BINDING AFFINITY PREDICTED BY RF-SCORE:    0.00 PKD
ROOT
HETATM    1  O   UNL     1     -10.790  11.426  66.835  1.00  0.00    -0.258 OA 
HETATM    2  H   UNL     1     -10.290  10.924  67.467  1.00  0.00     0.000 HD 
HETATM    3  C   UNL     1     -10.045  11.608  65.637  1.00  0.00    -0.240 C  
ENDROOT
BRANCH   3   4
HETATM    4  C   UNL     1     -10.851  12.421  64.616  1.00  0.00    -0.309 C  
HETATM    5  O   UNL     1     -10.275  13.731  64.453  1.00  0.00    -0.367 OA 
HETATM    6  C   UNL     1     -10.912  14.594  65.397  1.00  0.00    -0.353 C  
HETATM    7  H   UNL     1     -14.077  12.699  64.136  1.00  0.00     0.000 HD 
HETATM    8  O   UNL     1     -10.233  14.528  66.660  1.00  0.00    -0.266 OA 
HETATM    9  C   UNL     1     -12.358  14.088  65.550  1.00  0.00    -0.483 C  
HETATM   10  O   UNL     1     -12.761  14.141  66.925  1.00  0.00    -0.496 OA 
HETATM   11  C   UNL     1     -12.310  12.650  65.029  1.00  0.00    -0.497 C  
HETATM   12  H   UNL     1     -10.657  15.101  67.287  1.00  0.00     0.000 HD 
HETATM   13  H   UNL     1     -13.653  13.828  67.020  1.00  0.00     0.000 HD 
HETATM   14  O   UNL     1     -13.174  12.557  63.879  1.00  0.00    -0.610 OA 
BRANCH   6  15
HETATM   15  C   UNL     1     -10.851  16.054  64.931  1.00  0.00    -0.372 C  
HETATM   16  O   UNL     1     -11.616  16.230  63.734  1.00  0.00    -1.539 OA 
HETATM   17  H   UNL     1     -11.578  17.134  63.446  1.00  0.00     0.000 HD 
ENDBRANCH   6  15
ENDBRANCH   3   4
TORSDOF 2
ENDMDL
MODEL        7
REMARK 921   NORMALIZED FREE ENERGY PREDICTED BY IDOCK:   -5.36 KCAL/MOL
REMARK 922        TOTAL FREE ENERGY PREDICTED BY IDOCK:   -6.08 KCAL/MOL
REMARK 923 INTER-LIGAND FREE ENERGY PREDICTED BY IDOCK:   -5.85 KCAL/MOL
REMARK 924 INTRA-LIGAND FREE ENERGY PREDICTED BY IDOCK:   -0.23 KCAL/MOL
REMARK 927      BINDING AFFINITY PREDICTED BY RF-SCORE:    0.00 PKD
ROOT
HETATM    1  O   UNL     1     -11.645  16.454  63.751  1.00  0.00    -1.605 OA 
HETATM    2  H   UNL     1     -12.110  17.271  63.625  1.00  0.00     0.000 HD 
HETATM    3  C   UNL     1     -11.032  16.418  65.034  1.00  0.00    -0.252 C  
ENDROOT
BRANCH   3   4
HETATM    4  C   UNL     1     -10.278  15.096  65.237  1.00  0.00    -0.368 C  
HETATM    5  O   UNL     1     -10.838  14.068  64.396  1.00  0.00    -0.374 OA 
HETATM    6  C   UNL     1     -11.859  13.413  65.151  1.00  0.00    -0.350 C  
HETATM    7  H   UNL     1      -9.150  13.645  67.945  1.00  0.00     0.000 HD 
HETATM    8  O   UNL     1     -13.103  14.113  65.006  1.00  0.00    -0.728 OA 
HETATM    9  C   UNL     1     -11.407  13.444  66.622  1.00  0.00    -0.323 C  
HETATM   10  O   UNL     1     -12.522  13.725  67.480  1.00  0.00    -0.404 OA 
HETATM   11  C   UNL     1     -10.360  14.558  66.670  1.00  0.00    -0.274 C  
HETATM   12  H   UNL     1     -13.782  13.677  65.508  1.00  0.00     0.000 HD 
HETATM   13  H   UNL     1     -12.243  13.745  68.388  1.00  0.00     0.000 HD 
HETATM   14  O   UNL     1      -9.099  13.978  67.057  1.00  0.00    -0.227 OA 
BRANCH   6  15
HETATM   15  C   UNL     1     -12.084  11.985  64.639  1.00  0.00    -0.232 C  
HETATM   16  O   UNL     1     -12.505  12.003  63.272  1.00  0.00    -0.710 OA 
HETATM   17  H   UNL     1     -12.644  11.118  62.955  1.00  0.00     0.000 HD 
ENDBRANCH   6  15
ENDBRANCH   3   4
TORSDOF 2
ENDMDL
MODEL        8
REMARK 921   NORMALIZED FREE ENERGY PREDICTED BY IDOCK:   -5.30 KCAL/MOL
REMARK 922        TOTAL FREE ENERGY PREDICTED BY IDOCK:   -6.01 KCAL/MOL
REMARK 923 INTER-LIGAND FREE ENERGY PREDICTED BY IDOCK:   -5.75 KCAL/MOL
REMARK 924 INTRA-LIGAND FREE ENERGY PREDICTED BY IDOCK:   -0.26 KCAL/MOL
REMARK 927      BINDING AFFINITY PREDICTED BY RF-SCORE:    0.00 PKD
ROOT
HETATM    1  O   UNL     1     -12.046  15.856  63.646  1.00  0.00    -1.223 OA 
HETATM    2  H   UNL     1     -11.686  16.735  63.636  1.00  0.00     0.000 HD 
HETATM    3  C   UNL     1     -11.718  15.192  64.859  1.00  0.00    -0.290 C  
ENDROOT
BRANCH   3   4
HETATM    4  C   UNL     1     -12.300  13.773  64.874  1.00  0.00    -0.405 C  
HETATM    5  O   UNL     1     -11.822  13.050  66.026  1.00  0.00    -0.374 OA 
HETATM    6  C   UNL     1     -10.623  12.378  65.637  1.00  0.00    -0.265 C  
HETATM    7  H   UNL     1     -12.761  11.599  62.471  1.00  0.00     0.000 HD 
HETATM    8  O   UNL     1      -9.495  13.250  65.802  1.00  0.00    -0.472 OA 
HETATM    9  C   UNL     1     -10.788  12.008  64.151  1.00  0.00    -0.352 C  
HETATM   10  O   UNL     1      -9.559  12.228  63.444  1.00  0.00    -0.663 OA 
HETATM   11  C   UNL     1     -11.900  12.933  63.655  1.00  0.00    -0.532 C  
HETATM   12  H   UNL     1      -8.698  12.803  65.543  1.00  0.00     0.000 HD 
HETATM   13  H   UNL     1      -9.661  11.999  62.527  1.00  0.00     0.000 HD 
HETATM   14  O   UNL     1     -13.009  12.118  63.226  1.00  0.00    -0.735 OA 
BRANCH   6  15
HETATM   15  C   UNL     1     -10.374  11.149  66.520  1.00  0.00    -0.243 C  
HETATM   16  O   UNL     1      -9.610  10.169  65.811  1.00  0.00    -0.195 OA 
HETATM   17  H   UNL     1      -9.456   9.407  66.358  1.00  0.00     0.000 HD 
ENDBRANCH   6  15
ENDBRANCH   3   4
TORSDOF 2
ENDMDL
MODEL        9
REMARK 921   NORMALIZED FREE ENERGY PREDICTED BY IDOCK:   -5.26 KCAL/MOL
REMARK 922        TOTAL FREE ENERGY PREDICTED BY IDOCK:   -5.97 KCAL/MOL
REMARK 923 INTER-LIGAND FREE ENERGY PREDICTED BY IDOCK:   -5.69 KCAL/MOL
REMARK 924 INTRA-LIGAND FREE ENERGY PREDICTED BY IDOCK:   -0.27 KCAL/MOL
REMARK 927      BINDING AFFINITY PREDICTED BY RF-SCORE:    0.00 PKD
ROOT
HETATM    1  O   UNL     1     -12.489  14.083  63.170  1.00  0.00    -1.137 OA 
HETATM    2  H   UNL     1     -12.333  14.105  62.234  1.00  0.00     0.000 HD 
HETATM    3  C   UNL     1     -12.086  12.833  63.717  1.00  0.00    -0.517 C  
ENDROOT
BRANCH   3   4
HETATM    4  C   UNL     1     -12.340  12.797  65.230  1.00  0.00    -0.488 C  
HETATM    5  O   UNL     1     -12.364  14.136  65.764  1.00  0.00    -0.438 OA 
HETATM    6  C   UNL     1     -11.030  14.457  66.161  1.00  0.00    -0.320 C  
HETATM    7  H   UNL     1     -11.180  10.825  67.570  1.00  0.00     0.000 HD 
HETATM    8  O   UNL     1     -10.300  14.989  65.045  1.00  0.00    -0.387 OA 
HETATM    9  C   UNL     1     -10.382  13.143  66.633  1.00  0.00    -0.265 C  
HETATM   10  O   UNL     1      -9.026  13.062  66.173  1.00  0.00    -0.446 OA 
HETATM   11  C   UNL     1     -11.256  12.050  66.015  1.00  0.00    -0.335 C  
HETATM   12  H   UNL     1      -9.413  15.203  65.309  1.00  0.00     0.000 HD 
HETATM   13  H   UNL     1      -8.626  12.251  66.465  1.00  0.00     0.000 HD 
HETATM   14  O   UNL     1     -11.851  11.288  67.084  1.00  0.00    -0.524 OA 
BRANCH   6  15
HETATM   15  C   UNL     1     -11.029  15.534  67.253  1.00  0.00    -0.303 C  
HETATM   16  O   UNL     1     -12.060  15.275  68.211  1.00  0.00    -0.534 OA 
HETATM   17  H   UNL     1     -12.060  15.943  68.888  1.00  0.00     0.000 HD 
ENDBRANCH   6  15
ENDBRANCH   3   4
TORSDOF 2
ENDMDL
MODEL       10
REMARK 921   NORMALIZED FREE ENERGY PREDICTED BY IDOCK:   -5.26 KCAL/MOL
REMARK 922        TOTAL FREE ENERGY PREDICTED BY IDOCK:   -5.97 KCAL/MOL
REMARK 923 INTER-LIGAND FREE ENERGY PREDICTED BY IDOCK:   -5.76 KCAL/MOL
REMARK 924 INTRA-LIGAND FREE ENERGY PREDICTED BY IDOCK:   -0.21 KCAL/MOL
REMARK 927      BINDING AFFINITY PREDICTED BY RF-SCORE:    0.00 PKD
ROOT
HETATM    1  O   UNL     1     -12.307  15.100  68.614  1.00  0.00    -0.583 OA 
HETATM    2  H   UNL     1     -12.171  14.777  69.496  1.00  0.00     0.000 HD 
HETATM    3  C   UNL     1     -11.915  14.126  67.656  1.00  0.00    -0.370 C  
ENDROOT
BRANCH   3   4
HETATM    4  C   UNL     1     -12.135  14.649  66.230  1.00  0.00    -0.199 C  
HETATM    5  O   UNL     1     -12.928  13.713  65.473  1.00  0.00    -0.625 OA 
HETATM    6  C   UNL     1     -12.023  12.816  64.828  1.00  0.00    -0.402 C  
HETATM    7  H   UNL     1     -10.111  16.142  64.136  1.00  0.00     0.000 HD 
HETATM    8  O   UNL     1     -11.702  11.727  65.706  1.00  0.00    -0.359 OA 
HETATM    9  C   UNL     1     -10.753  13.625  64.508  1.00  0.00    -0.407 C  
HETATM   10  O   UNL     1      -9.582  12.838  64.766  1.00  0.00    -0.496 OA 
HETATM   11  C   UNL     1     -10.836  14.837  65.438  1.00  0.00    -0.363 C  
HETATM   12  H   UNL     1     -11.100  11.130  65.277  1.00  0.00     0.000 HD 
HETATM   13  H   UNL     1      -8.799  13.337  64.568  1.00  0.00     0.000 HD 
HETATM   14  O   UNL     1     -10.916  16.025  64.626  1.00  0.00    -0.590 OA 
BRANCH   6  15
HETATM   15  C   UNL     1     -12.659  12.207  63.572  1.00  0.00    -0.506 C  
HETATM   16  O   UNL     1     -11.704  11.412  62.862  1.00  0.00    -0.856 OA 
HETATM   17  H   UNL     1     -12.099  11.035  62.084  1.00  0.00     0.000 HD 
ENDBRANCH   6  15
ENDBRANCH   3   4
TORSDOF 2
ENDMDL
MODEL       11
REMARK 921   NORMALIZED FREE ENERGY PREDICTED BY IDOCK:   -5.19 KCAL/MOL
REMARK 922        TOTAL FREE ENERGY PREDICTED BY IDOCK:   -5.89 KCAL/MOL
REMARK 923 INTER-LIGAND FREE ENERGY PREDICTED BY IDOCK:   -5.46 KCAL/MOL
REMARK 924 INTRA-LIGAND FREE ENERGY PREDICTED BY IDOCK:   -0.43 KCAL/MOL
REMARK 927      BINDING AFFINITY PREDICTED BY RF-SCORE:    0.00 PKD
ROOT
HETATM    1  O   UNL     1     -11.840  12.289  63.295  1.00  0.00    -0.658 OA 
HETATM    2  H   UNL     1     -11.991  11.495  62.795  1.00  0.00     0.000 HD 
HETATM    3  C   UNL     1     -10.545  12.274  63.882  1.00  0.00    -0.427 C  
ENDROOT
BRANCH   3   4
HETATM    4  C   UNL     1     -10.302  13.556  64.689  1.00  0.00    -0.385 C  
HETATM    5  O   UNL     1     -10.199  13.249  66.094  1.00  0.00    -0.283 OA 
HETATM    6  C   UNL     1     -11.512  13.346  66.646  1.00  0.00    -0.344 C  
HETATM    7  H   UNL     1     -11.593  16.552  64.430  1.00  0.00     0.000 HD 
HETATM    8  O   UNL     1     -12.202  12.097  66.495  1.00  0.00    -0.584 OA 
HETATM    9  C   UNL     1     -12.241  14.448  65.857  1.00  0.00    -0.341 C  
HETATM   10  O   UNL     1     -13.598  14.060  65.597  1.00  0.00    -0.659 OA 
HETATM   11  C   UNL     1     -11.434  14.583  64.565  1.00  0.00    -0.343 C  
HETATM   12  H   UNL     1     -13.076  12.161  66.862  1.00  0.00     0.000 HD 
HETATM   13  H   UNL     1     -14.048  14.740  65.110  1.00  0.00     0.000 HD 
HETATM   14  O   UNL     1     -10.892  15.917  64.507  1.00  0.00    -0.532 OA 
BRANCH   6  15
HETATM   15  C   UNL     1     -11.452  13.646  68.149  1.00  0.00    -0.313 C  
HETATM   16  O   UNL     1     -12.475  14.578  68.515  1.00  0.00    -0.589 OA 
HETATM   17  H   UNL     1     -12.437  14.764  69.446  1.00  0.00     0.000 HD 
ENDBRANCH   6  15
ENDBRANCH   3   4
TORSDOF 2
ENDMDL
MODEL       12
REMARK 921   NORMALIZED FREE ENERGY PREDICTED BY IDOCK:   -5.17 KCAL/MOL
REMARK 922        TOTAL FREE ENERGY PREDICTED BY IDOCK:   -5.87 KCAL/MOL
REMARK 923 INTER-LIGAND FREE ENERGY PREDICTED BY IDOCK:   -5.44 KCAL/MOL
REMARK 924 INTRA-LIGAND FREE ENERGY PREDICTED BY IDOCK:   -0.43 KCAL/MOL
REMARK 927      BINDING AFFINITY PREDICTED BY RF-SCORE:    0.00 PKD
ROOT
HETATM    1  O   UNL     1     -10.622  11.051  67.366  1.00  0.00    -0.209 OA 
HETATM    2  H   UNL     1     -10.965  10.398  67.964  1.00  0.00     0.000 HD 
HETATM    3  C   UNL     1     -10.388  10.482  66.084  1.00  0.00    -0.210 C  
ENDROOT
BRANCH   3   4
HETATM    4  C   UNL     1      -9.833  11.537  65.118  1.00  0.00    -0.257 C  
HETATM    5  O   UNL     1     -10.243  12.856  65.529  1.00  0.00    -0.284 OA 
HETATM    6  C   UNL     1     -11.478  13.140  64.870  1.00  0.00    -0.309 C  
HETATM    7  H   UNL     1      -9.580  11.559  61.854  1.00  0.00     0.000 HD 
HETATM    8  O   UNL     1     -12.575  12.633  65.644  1.00  0.00    -0.611 OA 
HETATM    9  C   UNL     1     -11.423  12.428  63.506  1.00  0.00    -0.483 C  
HETATM   10  O   UNL     1     -12.694  11.836  63.203  1.00  0.00    -0.836 OA 
HETATM   11  C   UNL     1     -10.331  11.371  63.677  1.00  0.00    -0.410 C  
HETATM   12  H   UNL     1     -13.397  12.822  65.206  1.00  0.00     0.000 HD 
HETATM   13  H   UNL     1     -12.660  11.396  62.361  1.00  0.00     0.000 HD 
HETATM   14  O   UNL     1      -9.271  11.662  62.746  1.00  0.00    -0.346 OA 
BRANCH   6  15
HETATM   15  C   UNL     1     -11.688  14.653  64.732  1.00  0.00    -0.428 C  
HETATM   16  O   UNL     1     -12.501  14.943  63.590  1.00  0.00    -1.055 OA 
HETATM   17  H   UNL     1     -12.630  15.881  63.505  1.00  0.00     0.000 HD 
ENDBRANCH   6  15
ENDBRANCH   3   4
TORSDOF 2
ENDMDL
MODEL       13
REMARK 921   NORMALIZED FREE ENERGY PREDICTED BY IDOCK:   -5.16 KCAL/MOL
REMARK 922        TOTAL FREE ENERGY PREDICTED BY IDOCK:   -5.86 KCAL/MOL
REMARK 923 INTER-LIGAND FREE ENERGY PREDICTED BY IDOCK:   -5.73 KCAL/MOL
REMARK 924 INTRA-LIGAND FREE ENERGY PREDICTED BY IDOCK:   -0.13 KCAL/MOL
REMARK 927      BINDING AFFINITY PREDICTED BY RF-SCORE:    0.00 PKD
ROOT
HETATM    1  O   UNL     1      -9.085  11.785  62.779  1.00  0.00    -0.606 OA 
HETATM    2  H   UNL     1      -8.310  11.241  62.849  1.00  0.00     0.000 HD 
HETATM    3  C   UNL     1      -9.953  11.565  63.883  1.00  0.00    -0.324 C  
ENDROOT
BRANCH   3   4
HETATM    4  C   UNL     1     -11.205  12.445  63.771  1.00  0.00    -0.453 C  
HETATM    5  O   UNL     1     -10.831  13.828  63.616  1.00  0.00     0.269 OA 
HETATM    6  C   UNL     1     -10.751  14.394  64.925  1.00  0.00    -0.426 C  
HETATM    7  H   UNL     1     -14.051  12.371  65.386  1.00  0.00     0.000 HD 
HETATM    8  O   UNL     1      -9.444  14.175  65.475  1.00  0.00    -0.527 OA 
HETATM    9  C   UNL     1     -11.810  13.676  65.781  1.00  0.00    -0.371 C  
HETATM   10  O   UNL     1     -11.290  13.404  67.090  1.00  0.00    -0.291 OA 
HETATM   11  C   UNL     1     -12.107  12.389  65.010  1.00  0.00    -0.407 C  
HETATM   12  H   UNL     1      -9.390  14.551  66.346  1.00  0.00     0.000 HD 
HETATM   13  H   UNL     1     -11.944  12.961  67.618  1.00  0.00     0.000 HD 
HETATM   14  O   UNL     1     -13.493  12.406  64.618  1.00  0.00    -0.671 OA 
BRANCH   6  15
HETATM   15  C   UNL     1     -10.969  15.912  64.877  1.00  0.00    -0.411 C  
HETATM   16  O   UNL     1     -11.738  16.271  63.725  1.00  0.00    -1.511 OA 
HETATM   17  H   UNL     1     -11.873  17.211  63.696  1.00  0.00     0.000 HD 
ENDBRANCH   6  15
ENDBRANCH   3   4
TORSDOF 2
ENDMDL
MODEL       14
REMARK 921   NORMALIZED FREE ENERGY PREDICTED BY IDOCK:   -5.15 KCAL/MOL
REMARK 922        TOTAL FREE ENERGY PREDICTED BY IDOCK:   -5.84 KCAL/MOL
REMARK 923 INTER-LIGAND FREE ENERGY PREDICTED BY IDOCK:   -5.44 KCAL/MOL
REMARK 924 INTRA-LIGAND FREE ENERGY PREDICTED BY IDOCK:   -0.41 KCAL/MOL
REMARK 927      BINDING AFFINITY PREDICTED BY RF-SCORE:    0.00 PKD
ROOT
HETATM    1  O   UNL     1      -8.720  14.907  66.426  1.00  0.00    -0.439 OA 
HETATM    2  H   UNL     1      -8.506  15.830  66.476  1.00  0.00     0.000 HD 
HETATM    3  C   UNL     1      -9.900  14.626  67.169  1.00  0.00    -0.237 C  
ENDROOT
BRANCH   3   4
HETATM    4  C   UNL     1     -10.247  13.133  67.090  1.00  0.00    -0.244 C  
HETATM    5  O   UNL     1      -9.608  12.532  65.946  1.00  0.00    -0.240 OA 
HETATM    6  C   UNL     1     -10.518  12.634  64.850  1.00  0.00    -0.309 C  
HETATM    7  H   UNL     1     -13.060  11.537  67.595  1.00  0.00     0.000 HD 
HETATM    8  O   UNL     1     -10.354  13.899  64.191  1.00  0.00    -0.618 OA 
HETATM    9  C   UNL     1     -11.935  12.531  65.444  1.00  0.00    -0.437 C  
HETATM   10  O   UNL     1     -12.814  13.465  64.800  1.00  0.00    -0.680 OA 
HETATM   11  C   UNL     1     -11.747  12.860  66.926  1.00  0.00    -0.382 C  
HETATM   12  H   UNL     1     -10.959  13.967  63.462  1.00  0.00     0.000 HD 
HETATM   13  H   UNL     1     -13.688  13.401  65.166  1.00  0.00     0.000 HD 
HETATM   14  O   UNL     1     -12.130  11.705  67.697  1.00  0.00    -0.615 OA 
BRANCH   6  15
HETATM   15  C   UNL     1     -10.241  11.545  63.807  1.00  0.00    -0.382 C  
HETATM   16  O   UNL     1     -11.430  11.245  63.068  1.00  0.00    -0.852 OA 
HETATM   17  H   UNL     1     -11.258  10.570  62.422  1.00  0.00     0.000 HD 
ENDBRANCH   6  15
ENDBRANCH   3   4
TORSDOF 2
ENDMDL
MODEL       15
REMARK 921   NORMALIZED FREE ENERGY PREDICTED BY IDOCK:   -5.14 KCAL/MOL
REMARK 922        TOTAL FREE ENERGY PREDICTED BY IDOCK:   -5.84 KCAL/MOL
REMARK 923 INTER-LIGAND FREE ENERGY PREDICTED BY IDOCK:   -5.39 KCAL/MOL
REMARK 924 INTRA-LIGAND FREE ENERGY PREDICTED BY IDOCK:   -0.45 KCAL/MOL
REMARK 927      BINDING AFFINITY PREDICTED BY RF-SCORE:    0.00 PKD
ROOT
HETATM    1  O   UNL     1      -8.452  12.719  66.572  1.00  0.00    -0.415 OA 
HETATM    2  H   UNL     1      -7.512  12.856  66.574  1.00  0.00     0.000 HD 
HETATM    3  C   UNL     1      -8.764  11.393  66.164  1.00  0.00    -0.153 C  
ENDROOT
BRANCH   3   4
HETATM    4  C   UNL     1     -10.282  11.171  66.160  1.00  0.00    -0.244 C  
HETATM    5  O   UNL     1     -10.787  11.197  64.810  1.00  0.00    -0.289 OA 
HETATM    6  C   UNL     1     -11.149  12.548  64.519  1.00  0.00    -0.317 C  
HETATM    7  H   UNL     1     -12.642  12.324  68.114  1.00  0.00     0.000 HD 
HETATM    8  O   UNL     1     -10.007  13.268  64.033  1.00  0.00    -0.762 OA 
HETATM    9  C   UNL     1     -11.637  13.167  65.841  1.00  0.00    -0.354 C  
HETATM   10  O   UNL     1     -11.151  14.510  65.971  1.00  0.00    -0.317 OA 
HETATM   11  C   UNL     1     -11.062  12.249  66.921  1.00  0.00    -0.290 C  
HETATM   12  H   UNL     1     -10.248  14.167  63.839  1.00  0.00     0.000 HD 
HETATM   13  H   UNL     1     -11.453  14.893  66.787  1.00  0.00     0.000 HD 
HETATM   14  O   UNL     1     -12.159  11.655  67.642  1.00  0.00    -0.615 OA 
BRANCH   6  15
HETATM   15  C   UNL     1     -12.217  12.602  63.419  1.00  0.00    -0.517 C  
HETATM   16  O   UNL     1     -12.519  13.960  63.082  1.00  0.00    -1.121 OA 
HETATM   17  H   UNL     1     -13.180  13.993  62.400  1.00  0.00     0.000 HD 
ENDBRANCH   6  15
ENDBRANCH   3   4
TORSDOF 2
ENDMDL
MODEL       16
REMARK 921   NORMALIZED FREE ENERGY PREDICTED BY IDOCK:   -5.08 KCAL/MOL
REMARK 922        TOTAL FREE ENERGY PREDICTED BY IDOCK:   -5.76 KCAL/MOL
REMARK 923 INTER-LIGAND FREE ENERGY PREDICTED BY IDOCK:   -5.27 KCAL/MOL
REMARK 924 INTRA-LIGAND FREE ENERGY PREDICTED BY IDOCK:   -0.50 KCAL/MOL
REMARK 927      BINDING AFFINITY PREDICTED BY RF-SCORE:    0.00 PKD
ROOT
HETATM    1  O   UNL     1      -8.507  13.222  66.947  1.00  0.00    -0.365 OA 
HETATM    2  H   UNL     1      -7.799  12.591  66.895  1.00  0.00     0.000 HD 
HETATM    3  C   UNL     1      -9.757  12.561  67.092  1.00  0.00    -0.205 C  
ENDROOT
BRANCH   3   4
HETATM    4  C   UNL     1     -10.902  13.581  67.176  1.00  0.00    -0.284 C  
HETATM    5  O   UNL     1     -11.631  13.615  65.934  1.00  0.00    -0.312 OA 
HETATM    6  C   UNL     1     -11.022  14.612  65.112  1.00  0.00    -0.386 C  
HETATM    7  H   UNL     1     -11.034  16.581  68.477  1.00  0.00     0.000 HD 
HETATM    8  O   UNL     1      -9.930  14.042  64.376  1.00  0.00    -0.702 OA 
HETATM    9  C   UNL     1     -10.501  15.706  66.062  1.00  0.00    -0.331 C  
HETATM   10  O   UNL     1      -9.214  16.169  65.630  1.00  0.00    -0.407 OA 
HETATM   11  C   UNL     1     -10.426  15.017  67.425  1.00  0.00    -0.257 C  
HETATM   12  H   UNL     1      -9.525  14.706  63.830  1.00  0.00     0.000 HD 
HETATM   13  H   UNL     1      -8.892  16.845  66.216  1.00  0.00     0.000 HD 
HETATM   14  O   UNL     1     -11.329  15.692  68.323  1.00  0.00    -0.334 OA 
BRANCH   6  15
HETATM   15  C   UNL     1     -12.021  15.159  64.084  1.00  0.00    -0.170 C  
HETATM   16  O   UNL     1     -11.583  16.426  63.585  1.00  0.00    -1.514 OA 
HETATM   17  H   UNL     1     -12.202  16.764  62.948  1.00  0.00     0.000 HD 
ENDBRANCH   6  15
ENDBRANCH   3   4
TORSDOF 2
ENDMDL
MODEL       17
REMARK 921   NORMALIZED FREE ENERGY PREDICTED BY IDOCK:   -5.02 KCAL/MOL
REMARK 922        TOTAL FREE ENERGY PREDICTED BY IDOCK:   -5.70 KCAL/MOL
REMARK 923 INTER-LIGAND FREE ENERGY PREDICTED BY IDOCK:   -5.47 KCAL/MOL
REMARK 924 INTRA-LIGAND FREE ENERGY PREDICTED BY IDOCK:   -0.23 KCAL/MOL
REMARK 927      BINDING AFFINITY PREDICTED BY RF-SCORE:    0.00 PKD
ROOT
HETATM    1  O   UNL     1     -12.084  11.080  67.791  1.00  0.00    -0.643 OA 
HETATM    2  H   UNL     1     -11.747  10.198  67.694  1.00  0.00     0.000 HD 
HETATM    3  C   UNL     1     -11.221  12.018  67.161  1.00  0.00    -0.316 C  
ENDROOT
BRANCH   3   4
HETATM    4  C   UNL     1     -11.765  13.444  67.317  1.00  0.00    -0.380 C  
HETATM    5  O   UNL     1     -12.485  13.836  66.132  1.00  0.00    -0.446 OA 
HETATM    6  C   UNL     1     -11.549  14.465  65.256  1.00  0.00    -0.353 C  
HETATM    7  H   UNL     1     -10.421  16.144  68.588  1.00  0.00     0.000 HD 
HETATM    8  O   UNL     1     -10.893  13.477  64.447  1.00  0.00    -0.392 OA 
HETATM    9  C   UNL     1     -10.520  15.179  66.151  1.00  0.00    -0.312 C  
HETATM   10  O   UNL     1      -9.198  15.015  65.618  1.00  0.00    -0.462 OA 
HETATM   11  C   UNL     1     -10.670  14.500  67.513  1.00  0.00    -0.276 C  
HETATM   12  H   UNL     1     -10.270  13.896  63.864  1.00  0.00     0.000 HD 
HETATM   13  H   UNL     1      -8.562  15.455  66.171  1.00  0.00     0.000 HD 
HETATM   14  O   UNL     1     -11.099  15.491  68.467  1.00  0.00    -0.273 OA 
BRANCH   6  15
HETATM   15  C   UNL     1     -12.259  15.430  64.298  1.00  0.00    -0.126 C  
HETATM   16  O   UNL     1     -11.330  16.375  63.759  1.00  0.00    -1.487 OA 
HETATM   17  H   UNL     1     -11.770  16.973  63.166  1.00  0.00     0.000 HD 
ENDBRANCH   6  15
ENDBRANCH   3   4
TORSDOF 2
ENDMDL
MODEL       18
REMARK 921   NORMALIZED FREE ENERGY PREDICTED BY IDOCK:   -4.99 KCAL/MOL
REMARK 922        TOTAL FREE ENERGY PREDICTED BY IDOCK:   -5.67 KCAL/MOL
REMARK 923 INTER-LIGAND FREE ENERGY PREDICTED BY IDOCK:   -5.38 KCAL/MOL
REMARK 924 INTRA-LIGAND FREE ENERGY PREDICTED BY IDOCK:   -0.29 KCAL/MOL
REMARK 927      BINDING AFFINITY PREDICTED BY RF-SCORE:    0.00 PKD
ROOT
HETATM    1  O   UNL     1     -11.299  11.223  63.192  1.00  0.00    -0.837 OA 
HETATM    2  H   UNL     1     -10.887  10.510  62.719  1.00  0.00     0.000 HD 
HETATM    3  C   UNL     1     -10.325  12.159  63.635  1.00  0.00    -0.452 C  
ENDROOT
BRANCH   3   4
HETATM    4  C   UNL     1     -10.990  13.311  64.400  1.00  0.00    -0.393 C  
HETATM    5  O   UNL     1     -10.058  13.895  65.332  1.00  0.00    -0.326 OA 
HETATM    6  C   UNL     1     -10.209  13.202  66.572  1.00  0.00    -0.277 C  
HETATM    7  H   UNL     1     -13.984  13.609  65.688  1.00  0.00     0.000 HD 
HETATM    8  O   UNL     1      -9.381  12.030  66.584  1.00  0.00    -0.207 OA 
HETATM    9  C   UNL     1     -11.691  12.799  66.673  1.00  0.00    -0.393 C  
HETATM   10  O   UNL     1     -11.812  11.474  67.209  1.00  0.00    -0.609 OA 
HETATM   11  C   UNL     1     -12.201  12.876  65.233  1.00  0.00    -0.476 C  
HETATM   12  H   UNL     1      -9.482  11.569  67.409  1.00  0.00     0.000 HD 
HETATM   13  H   UNL     1     -12.727  11.225  67.272  1.00  0.00     0.000 HD 
HETATM   14  O   UNL     1     -13.234  13.879  65.172  1.00  0.00    -0.768 OA 
BRANCH   6  15
HETATM   15  C   UNL     1      -9.761  14.081  67.747  1.00  0.00    -0.228 C  
HETATM   16  O   UNL     1     -10.169  13.500  68.990  1.00  0.00    -0.416 OA 
HETATM   17  H   UNL     1      -9.892  14.045  69.718  1.00  0.00     0.000 HD 
ENDBRANCH   6  15
ENDBRANCH   3   4
TORSDOF 2
ENDMDL
MODEL       19
REMARK 921   NORMALIZED FREE ENERGY PREDICTED BY IDOCK:   -4.96 KCAL/MOL
REMARK 922        TOTAL FREE ENERGY PREDICTED BY IDOCK:   -5.63 KCAL/MOL
REMARK 923 INTER-LIGAND FREE ENERGY PREDICTED BY IDOCK:   -5.42 KCAL/MOL
REMARK 924 INTRA-LIGAND FREE ENERGY PREDICTED BY IDOCK:   -0.20 KCAL/MOL
REMARK 927      BINDING AFFINITY PREDICTED BY RF-SCORE:    0.00 PKD
ROOT
HETATM    1  O   UNL     1     -10.692  13.327  69.500  1.00  0.00    -0.442 OA 
HETATM    2  H   UNL     1     -10.098  12.666  69.835  1.00  0.00     0.000 HD 
HETATM    3  C   UNL     1     -10.037  14.154  68.547  1.00  0.00    -0.243 C  
ENDROOT
BRANCH   3   4
HETATM    4  C   UNL     1     -10.997  15.222  68.005  1.00  0.00    -0.299 C  
HETATM    5  O   UNL     1     -11.666  14.738  66.824  1.00  0.00    -0.366 OA 
HETATM    6  C   UNL     1     -10.870  15.118  65.700  1.00  0.00    -0.360 C  
HETATM    7  H   UNL     1     -10.671  18.463  67.692  1.00  0.00     0.000 HD 
HETATM    8  O   UNL     1      -9.864  14.125  65.453  1.00  0.00    -0.502 OA 
HETATM    9  C   UNL     1     -10.208  16.458  66.064  1.00  0.00    -0.356 C  
HETATM   10  O   UNL     1      -8.847  16.481  65.610  1.00  0.00    -0.428 OA 
HETATM   11  C   UNL     1     -10.297  16.521  67.590  1.00  0.00    -0.291 C  
HETATM   12  H   UNL     1      -9.335  14.377  64.706  1.00  0.00     0.000 HD 
HETATM   13  H   UNL     1      -8.437  17.308  65.834  1.00  0.00     0.000 HD 
HETATM   14  O   UNL     1     -11.105  17.659  67.949  1.00  0.00    -0.226 OA 
BRANCH   6  15
HETATM   15  C   UNL     1     -11.727  15.214  64.432  1.00  0.00    -0.295 C  
HETATM   16  O   UNL     1     -11.540  16.483  63.797  1.00  0.00    -1.617 OA 
HETATM   17  H   UNL     1     -12.071  16.543  63.011  1.00  0.00     0.000 HD 
ENDBRANCH   6  15
ENDBRANCH   3   4
TORSDOF 2
ENDMDL
MODEL       20
REMARK 921   NORMALIZED FREE ENERGY PREDICTED BY IDOCK:   -4.95 KCAL/MOL
REMARK 922        TOTAL FREE ENERGY PREDICTED BY IDOCK:   -5.62 KCAL/MOL
REMARK 923 INTER-LIGAND FREE ENERGY PREDICTED BY IDOCK:   -5.40 KCAL/MOL
REMARK 924 INTRA-LIGAND FREE ENERGY PREDICTED BY IDOCK:   -0.22 KCAL/MOL
REMARK 927      BINDING AFFINITY PREDICTED BY RF-SCORE:    0.00 PKD
ROOT
HETATM    1  O   UNL     1     -12.469  14.119  68.869  1.00  0.00    -0.538 OA 
HETATM    2  H   UNL     1     -12.364  13.755  69.740  1.00  0.00     0.000 HD 
HETATM    3  C   UNL     1     -11.202  14.395  68.285  1.00  0.00    -0.275 C  
ENDROOT
BRANCH   3   4
HETATM    4  C   UNL     1     -11.372  14.984  66.878  1.00  0.00    -0.302 C  
HETATM    5  O   UNL     1     -12.444  14.318  66.184  1.00  0.00    -0.442 OA 
HETATM    6  C   UNL     1     -11.871  13.217  65.476  1.00  0.00    -0.370 C  
HETATM    7  H   UNL     1      -9.169  15.899  64.637  1.00  0.00     0.000 HD 
HETATM    8  O   UNL     1     -11.802  12.066  66.330  1.00  0.00    -0.578 OA 
HETATM    9  C   UNL     1     -10.454  13.651  65.061  1.00  0.00    -0.391 C  
HETATM   10  O   UNL     1      -9.531  12.566  65.233  1.00  0.00    -0.453 OA 
HETATM   11  C   UNL     1     -10.131  14.821  65.992  1.00  0.00    -0.308 C  
HETATM   12  H   UNL     1     -11.421  11.335  65.860  1.00  0.00     0.000 HD 
HETATM   13  H   UNL     1      -8.656  12.834  64.977  1.00  0.00     0.000 HD 
HETATM   14  O   UNL     1      -9.937  16.000  65.185  1.00  0.00    -0.443 OA 
BRANCH   6  15
HETATM   15  C   UNL     1     -12.740  12.831  64.272  1.00  0.00    -0.253 C  
HETATM   16  O   UNL     1     -12.381  13.609  63.126  1.00  0.00    -1.045 OA 
HETATM   17  H   UNL     1     -12.919  13.370  62.380  1.00  0.00     0.000 HD 
ENDBRANCH   6  15
ENDBRANCH   3   4
TORSDOF 2
ENDMDL
MODEL       21
REMARK 921   NORMALIZED FREE ENERGY PREDICTED BY IDOCK:   -4.90 KCAL/MOL
REMARK 922        TOTAL FREE ENERGY PREDICTED BY IDOCK:   -5.57 KCAL/MOL
REMARK 923 INTER-LIGAND FREE ENERGY PREDICTED BY IDOCK:   -5.33 KCAL/MOL
REMARK 924 INTRA-LIGAND FREE ENERGY PREDICTED BY IDOCK:   -0.23 KCAL/MOL
REMARK 927      BINDING AFFINITY PREDICTED BY RF-SCORE:    0.00 PKD
ROOT
HETATM    1  O   UNL     1     -12.382  14.259  68.228  1.00  0.00    -0.592 OA 
HETATM    2  H   UNL     1     -12.910  14.122  69.006  1.00  0.00     0.000 HD 
HETATM    3  C   UNL     1     -11.871  13.023  67.745  1.00  0.00    -0.347 C  
ENDROOT
BRANCH   3   4
HETATM    4  C   UNL     1     -11.019  13.244  66.488  1.00  0.00    -0.286 C  
HETATM    5  O   UNL     1     -11.349  14.507  65.877  1.00  0.00    -0.333 OA 
HETATM    6  C   UNL     1     -12.388  14.260  64.929  1.00  0.00    -0.425 C  
HETATM    7  H   UNL     1     -10.122  11.199  64.095  1.00  0.00     0.000 HD 
HETATM    8  O   UNL     1     -13.668  14.318  65.576  1.00  0.00    -0.543 OA 
HETATM    9  C   UNL     1     -12.145  12.847  64.368  1.00  0.00    -0.410 C  
HETATM   10  O   UNL     1     -13.390  12.147  64.226  1.00  0.00    -0.761 OA 
HETATM   11  C   UNL     1     -11.237  12.182  65.404  1.00  0.00    -0.333 C  
HETATM   12  H   UNL     1     -14.359  14.153  64.946  1.00  0.00     0.000 HD 
HETATM   13  H   UNL     1     -13.240  11.275  63.880  1.00  0.00     0.000 HD 
HETATM   14  O   UNL     1      -9.987  11.857  64.766  1.00  0.00    -0.253 OA 
BRANCH   6  15
HETATM   15  C   UNL     1     -12.392  15.331  63.831  1.00  0.00     0.227 C  
HETATM   16  O   UNL     1     -11.447  16.363  64.135  1.00  0.00    -1.277 OA 
HETATM   17  H   UNL     1     -11.450  17.026  63.455  1.00  0.00     0.000 HD 
ENDBRANCH   6  15
ENDBRANCH   3   4
TORSDOF 2
ENDMDL
MODEL       22
REMARK 921   NORMALIZED FREE ENERGY PREDICTED BY IDOCK:   -4.85 KCAL/MOL
REMARK 922        TOTAL FREE ENERGY PREDICTED BY IDOCK:   -5.51 KCAL/MOL
REMARK 923 INTER-LIGAND FREE ENERGY PREDICTED BY IDOCK:   -5.21 KCAL/MOL
REMARK 924 INTRA-LIGAND FREE ENERGY PREDICTED BY IDOCK:   -0.30 KCAL/MOL
REMARK 927      BINDING AFFINITY PREDICTED BY RF-SCORE:    0.00 PKD
ROOT
HETATM    1  O   UNL     1     -10.417  14.184  67.788  1.00  0.00    -0.242 OA 
HETATM    2  H   UNL     1      -9.858  14.305  68.546  1.00  0.00     0.000 HD 
HETATM    3  C   UNL     1     -11.128  12.956  67.882  1.00  0.00    -0.252 C  
ENDROOT
BRANCH   3   4
HETATM    4  C   UNL     1     -12.031  12.759  66.657  1.00  0.00    -0.341 C  
HETATM    5  O   UNL     1     -11.570  11.643  65.871  1.00  0.00    -0.326 OA 
HETATM    6  C   UNL     1     -10.651  12.156  64.905  1.00  0.00    -0.293 C  
HETATM    7  H   UNL     1     -13.389  14.914  64.602  1.00  0.00     0.000 HD 
HETATM    8  O   UNL     1      -9.331  12.217  65.467  1.00  0.00    -0.429 OA 
HETATM    9  C   UNL     1     -11.135  13.572  64.546  1.00  0.00    -0.381 C  
HETATM   10  O   UNL     1     -10.019  14.465  64.426  1.00  0.00    -0.588 OA 
HETATM   11  C   UNL     1     -12.050  13.963  65.709  1.00  0.00    -0.425 C  
HETATM   12  H   UNL     1      -8.720  12.559  64.825  1.00  0.00     0.000 HD 
HETATM   13  H   UNL     1     -10.318  15.339  64.204  1.00  0.00     0.000 HD 
HETATM   14  O   UNL     1     -13.378  14.168  65.189  1.00  0.00    -0.684 OA 
BRANCH   6  15
HETATM   15  C   UNL     1     -10.575  11.237  63.680  1.00  0.00    -0.388 C  
HETATM   16  O   UNL     1     -11.758  11.365  62.884  1.00  0.00    -0.856 OA 
HETATM   17  H   UNL     1     -11.711  10.795  62.125  1.00  0.00     0.000 HD 
ENDBRANCH   6  15
ENDBRANCH   3   4
TORSDOF 2
ENDMDL
MODEL       23
REMARK 921   NORMALIZED FREE ENERGY PREDICTED BY IDOCK:   -4.82 KCAL/MOL
REMARK 922        TOTAL FREE ENERGY PREDICTED BY IDOCK:   -5.47 KCAL/MOL
REMARK 923 INTER-LIGAND FREE ENERGY PREDICTED BY IDOCK:   -5.36 KCAL/MOL
REMARK 924 INTRA-LIGAND FREE ENERGY PREDICTED BY IDOCK:   -0.11 KCAL/MOL
REMARK 927      BINDING AFFINITY PREDICTED BY RF-SCORE:    0.00 PKD
ROOT
HETATM    1  O   UNL     1     -11.499  10.065  68.012  1.00  0.00    -0.572 OA 
HETATM    2  H   UNL     1     -10.896   9.383  68.283  1.00  0.00     0.000 HD 
HETATM    3  C   UNL     1     -10.798  11.141  67.402  1.00  0.00    -0.266 C  
ENDROOT
BRANCH   3   4
HETATM    4  C   UNL     1     -11.772  12.242  66.964  1.00  0.00    -0.329 C  
HETATM    5  O   UNL     1     -12.269  11.970  65.639  1.00  0.00    -0.503 OA 
HETATM    6  C   UNL     1     -11.387  12.611  64.716  1.00  0.00    -0.312 C  
HETATM    7  H   UNL     1     -11.666  15.493  67.326  1.00  0.00     0.000 HD 
HETATM    8  O   UNL     1     -10.286  11.744  64.405  1.00  0.00    -0.270 OA 
HETATM    9  C   UNL     1     -10.873  13.885  65.410  1.00  0.00    -0.319 C  
HETATM   10  O   UNL     1      -9.477  14.072  65.140  1.00  0.00    -0.484 OA 
HETATM   11  C   UNL     1     -11.134  13.634  66.897  1.00  0.00    -0.304 C  
HETATM   12  H   UNL     1      -9.700  12.170  63.792  1.00  0.00     0.000 HD 
HETATM   13  H   UNL     1      -9.160  14.858  65.568  1.00  0.00     0.000 HD 
HETATM   14  O   UNL     1     -12.062  14.631  67.367  1.00  0.00    -0.352 OA 
BRANCH   6  15
HETATM   15  C   UNL     1     -12.105  12.915  63.395  1.00  0.00    -0.530 C  
HETATM   16  O   UNL     1     -12.375  14.316  63.282  1.00  0.00    -1.118 OA 
HETATM   17  H   UNL     1     -12.820  14.504  62.464  1.00  0.00     0.000 HD 
ENDBRANCH   6  15
ENDBRANCH   3   4
TORSDOF 2
ENDMDL
MODEL       24
REMARK 921   NORMALIZED FREE ENERGY PREDICTED BY IDOCK:   -4.73 KCAL/MOL
REMARK 922        TOTAL FREE ENERGY PREDICTED BY IDOCK:   -5.37 KCAL/MOL
REMARK 923 INTER-LIGAND FREE ENERGY PREDICTED BY IDOCK:   -5.15 KCAL/MOL
REMARK 924 INTRA-LIGAND FREE ENERGY PREDICTED BY IDOCK:   -0.22 KCAL/MOL
REMARK 927      BINDING AFFINITY PREDICTED BY RF-SCORE:    0.00 PKD
ROOT
HETATM    1  O   UNL     1     -12.161  10.599  68.480  1.00  0.00    -0.822 OA 
HETATM    2  H   UNL     1     -12.424   9.687  68.464  1.00  0.00     0.000 HD 
HETATM    3  C   UNL     1     -11.269  10.883  67.410  1.00  0.00    -0.273 C  
ENDROOT
BRANCH   3   4
HETATM    4  C   UNL     1     -10.844  12.357  67.437  1.00  0.00    -0.238 C  
HETATM    5  O   UNL     1     -11.943  13.201  67.040  1.00  0.00    -0.379 OA 
HETATM    6  C   UNL     1     -11.857  13.371  65.625  1.00  0.00    -0.370 C  
HETATM    7  H   UNL     1      -8.081  13.829  66.480  1.00  0.00     0.000 HD 
HETATM    8  O   UNL     1     -12.533  12.295  64.958  1.00  0.00    -0.535 OA 
HETATM    9  C   UNL     1     -10.360  13.352  65.269  1.00  0.00    -0.319 C  
HETATM   10  O   UNL     1     -10.144  12.608  64.062  1.00  0.00    -0.542 OA 
HETATM   11  C   UNL     1      -9.696  12.682  66.473  1.00  0.00    -0.256 C  
HETATM   12  H   UNL     1     -12.476  12.408  64.017  1.00  0.00     0.000 HD 
HETATM   13  H   UNL     1      -9.220  12.596  63.842  1.00  0.00     0.000 HD 
HETATM   14  O   UNL     1      -8.792  13.629  67.076  1.00  0.00    -0.229 OA 
BRANCH   6  15
HETATM   15  C   UNL     1     -12.544  14.672  65.189  1.00  0.00    -0.139 C  
HETATM   16  O   UNL     1     -12.435  14.845  63.772  1.00  0.00    -1.048 OA 
HETATM   17  H   UNL     1     -12.861  15.651  63.502  1.00  0.00     0.000 HD 
ENDBRANCH   6  15
ENDBRANCH   3   4
TORSDOF 2
ENDMDL
MODEL       25
REMARK 921   NORMALIZED FREE ENERGY PREDICTED BY IDOCK:   -4.72 KCAL/MOL
REMARK 922        TOTAL FREE ENERGY PREDICTED BY IDOCK:   -5.36 KCAL/MOL
REMARK 923 INTER-LIGAND FREE ENERGY PREDICTED BY IDOCK:   -5.08 KCAL/MOL
REMARK 924 INTRA-LIGAND FREE ENERGY PREDICTED BY IDOCK:   -0.28 KCAL/MOL
REMARK 927      BINDING AFFINITY PREDICTED BY RF-SCORE:    0.00 PKD
ROOT
HETATM    1  O   UNL     1     -13.376  12.493  64.586  1.00  0.00    -0.804 OA 
HETATM    2  H   UNL     1     -14.058  11.889  64.319  1.00  0.00     0.000 HD 
HETATM    3  C   UNL     1     -12.200  12.297  63.810  1.00  0.00    -0.546 C  
ENDROOT
BRANCH   3   4
HETATM    4  C   UNL     1     -11.098  13.273  64.241  1.00  0.00    -0.388 C  
HETATM    5  O   UNL     1     -10.220  12.644  65.196  1.00  0.00    -0.287 OA 
HETATM    6  C   UNL     1     -10.743  12.918  66.497  1.00  0.00    -0.269 C  
HETATM    7  H   UNL     1     -11.192  16.467  64.948  1.00  0.00     0.000 HD 
HETATM    8  O   UNL     1     -11.722  11.930  66.850  1.00  0.00    -0.541 OA 
HETATM    9  C   UNL     1     -11.402  14.307  66.423  1.00  0.00    -0.343 C  
HETATM   10  O   UNL     1     -12.635  14.314  67.156  1.00  0.00    -0.546 OA 
HETATM   11  C   UNL     1     -11.631  14.536  64.928  1.00  0.00    -0.401 C  
HETATM   12  H   UNL     1     -12.071  12.112  67.715  1.00  0.00     0.000 HD 
HETATM   13  H   UNL     1     -13.041  15.171  67.111  1.00  0.00     0.000 HD 
HETATM   14  O   UNL     1     -10.861  15.685  64.523  1.00  0.00    -0.394 OA 
BRANCH   6  15
HETATM   15  C   UNL     1      -9.636  12.852  67.556  1.00  0.00    -0.200 C  
HETATM   16  O   UNL     1     -10.143  12.302  68.776  1.00  0.00    -0.362 OA 
HETATM   17  H   UNL     1      -9.456  12.261  69.432  1.00  0.00     0.000 HD 
ENDBRANCH   6  15
ENDBRANCH   3   4
TORSDOF 2
ENDMDL
MODEL       26
REMARK 921   NORMALIZED FREE ENERGY PREDICTED BY IDOCK:   -4.72 KCAL/MOL
REMARK 922        TOTAL FREE ENERGY PREDICTED BY IDOCK:   -5.36 KCAL/MOL
REMARK 923 INTER-LIGAND FREE ENERGY PREDICTED BY IDOCK:   -4.99 KCAL/MOL
REMARK 924 INTRA-LIGAND FREE ENERGY PREDICTED BY IDOCK:   -0.37 KCAL/MOL
REMARK 927      BINDING AFFINITY PREDICTED BY RF-SCORE:    0.00 PKD
ROOT
HETATM    1  O   UNL     1     -13.555   8.898  73.215  1.00  0.00    -1.012 OA 
HETATM    2  H   UNL     1     -14.418   9.275  73.339  1.00  0.00     0.000 HD 
HETATM    3  C   UNL     1     -12.883   9.530  72.134  1.00  0.00    -0.389 C  
ENDROOT
BRANCH   3   4
HETATM    4  C   UNL     1     -11.488   8.921  71.934  1.00  0.00    -0.372 C  
HETATM    5  O   UNL     1     -11.388   8.323  70.626  1.00  0.00    -0.264 OA 
HETATM    6  C   UNL     1     -11.786   6.957  70.753  1.00  0.00    -0.369 C  
HETATM    7  H   UNL     1      -9.570   7.200  73.951  1.00  0.00     0.000 HD 
HETATM    8  O   UNL     1     -13.210   6.846  70.619  1.00  0.00    -0.430 OA 
HETATM    9  C   UNL     1     -11.354   6.502  72.159  1.00  0.00    -0.282 C  
HETATM   10  O   UNL     1     -12.370   5.681  72.751  1.00  0.00    -0.522 OA 
HETATM   11  C   UNL     1     -11.156   7.806  72.933  1.00  0.00    -0.398 C  
HETATM   12  H   UNL     1     -13.475   5.938  70.703  1.00  0.00     0.000 HD 
HETATM   13  H   UNL     1     -12.104   5.400  73.619  1.00  0.00     0.000 HD 
HETATM   14  O   UNL     1      -9.774   7.891  73.332  1.00  0.00    -0.293 OA 
BRANCH   6  15
HETATM   15  C   UNL     1     -11.162   6.101  69.644  1.00  0.00    -0.418 C  
HETATM   16  O   UNL     1     -10.528   4.945  70.201  1.00  0.00    -0.244 OA 
HETATM   17  H   UNL     1     -10.142   4.414  69.514  1.00  0.00     0.000 HD 
ENDBRANCH   6  15
ENDBRANCH   3   4
TORSDOF 2
ENDMDL
MODEL       27
REMARK 921   NORMALIZED FREE ENERGY PREDICTED BY IDOCK:   -4.70 KCAL/MOL
REMARK 922        TOTAL FREE ENERGY PREDICTED BY IDOCK:   -5.34 KCAL/MOL
REMARK 923 INTER-LIGAND FREE ENERGY PREDICTED BY IDOCK:   -5.15 KCAL/MOL
REMARK 924 INTRA-LIGAND FREE ENERGY PREDICTED BY IDOCK:   -0.19 KCAL/MOL
REMARK 927      BINDING AFFINITY PREDICTED BY RF-SCORE:    0.00 PKD
ROOT
HETATM    1  O   UNL     1     -12.405  10.885  68.402  1.00  0.00    -0.803 OA 
HETATM    2  H   UNL     1     -12.288  10.779  67.465  1.00  0.00     0.000 HD 
HETATM    3  C   UNL     1     -11.282  10.374  69.108  1.00  0.00    -0.246 C  
ENDROOT
BRANCH   3   4
HETATM    4  C   UNL     1     -11.470  10.545  70.621  1.00  0.00    -0.327 C  
HETATM    5  O   UNL     1     -10.808   9.479  71.330  1.00  0.00    -0.347 OA 
HETATM    6  C   UNL     1     -11.760   8.427  71.496  1.00  0.00    -0.290 C  
HETATM    7  H   UNL     1     -14.079  11.430  72.389  1.00  0.00     0.000 HD 
HETATM    8  O   UNL     1     -11.752   7.571  70.344  1.00  0.00    -0.449 OA 
HETATM    9  C   UNL     1     -13.137   9.097  71.644  1.00  0.00    -0.369 C  
HETATM   10  O   UNL     1     -14.131   8.360  70.919  1.00  0.00    -0.594 OA 
HETATM   11  C   UNL     1     -12.937  10.499  71.065  1.00  0.00    -0.383 C  
HETATM   12  H   UNL     1     -12.385   6.872  70.454  1.00  0.00     0.000 HD 
HETATM   13  H   UNL     1     -14.981   8.774  71.010  1.00  0.00     0.000 HD 
HETATM   14  O   UNL     1     -13.170  11.459  72.115  1.00  0.00    -0.490 OA 
BRANCH   6  15
HETATM   15  C   UNL     1     -11.402   7.553  72.706  1.00  0.00    -0.336 C  
HETATM   16  O   UNL     1     -12.128   6.321  72.665  1.00  0.00    -0.514 OA 
HETATM   17  H   UNL     1     -11.907   5.780  73.414  1.00  0.00     0.000 HD 
ENDBRANCH   6  15
ENDBRANCH   3   4
TORSDOF 2
ENDMDL
MODEL       28
REMARK 921   NORMALIZED FREE ENERGY PREDICTED BY IDOCK:   -4.68 KCAL/MOL
REMARK 922        TOTAL FREE ENERGY PREDICTED BY IDOCK:   -5.32 KCAL/MOL
REMARK 923 INTER-LIGAND FREE ENERGY PREDICTED BY IDOCK:   -5.16 KCAL/MOL
REMARK 924 INTRA-LIGAND FREE ENERGY PREDICTED BY IDOCK:   -0.16 KCAL/MOL
REMARK 927      BINDING AFFINITY PREDICTED BY RF-SCORE:    0.00 PKD
ROOT
HETATM    1  O   UNL     1     -10.460  19.970  67.968  1.00  0.00    -0.396 OA 
HETATM    2  H   UNL     1     -10.640  20.277  68.849  1.00  0.00     0.000 HD 
HETATM    3  C   UNL     1      -9.151  19.421  67.887  1.00  0.00    -0.321 C  
ENDROOT
BRANCH   3   4
HETATM    4  C   UNL     1      -8.860  18.925  66.464  1.00  0.00    -0.323 C  
HETATM    5  O   UNL     1     -10.017  18.260  65.920  1.00  0.00    -0.538 OA 
HETATM    6  C   UNL     1      -9.903  16.875  66.250  1.00  0.00    -0.302 C  
HETATM    7  H   UNL     1      -6.211  17.504  65.169  1.00  0.00     0.000 HD 
HETATM    8  O   UNL     1     -10.460  16.632  67.550  1.00  0.00    -0.305 OA 
HETATM    9  C   UNL     1      -8.400  16.545  66.252  1.00  0.00    -0.329 C  
HETATM   10  O   UNL     1      -8.082  15.676  67.348  1.00  0.00    -0.145 OA 
HETATM   11  C   UNL     1      -7.716  17.906  66.392  1.00  0.00    -0.276 C  
HETATM   12  H   UNL     1     -10.385  15.711  67.769  1.00  0.00     0.000 HD 
HETATM   13  H   UNL     1      -7.154  15.472  67.350  1.00  0.00     0.000 HD 
HETATM   14  O   UNL     1      -6.919  18.135  65.213  1.00  0.00    -0.484 OA 
BRANCH   6  15
HETATM   15  C   UNL     1     -10.690  16.011  65.256  1.00  0.00    -0.399 C  
HETATM   16  O   UNL     1     -11.138  16.802  64.151  1.00  0.00    -1.346 OA 
HETATM   17  H   UNL     1     -11.625  16.266  63.535  1.00  0.00     0.000 HD 
ENDBRANCH   6  15
ENDBRANCH   3   4
TORSDOF 2
ENDMDL
MODEL       29
REMARK 921   NORMALIZED FREE ENERGY PREDICTED BY IDOCK:   -4.62 KCAL/MOL
REMARK 922        TOTAL FREE ENERGY PREDICTED BY IDOCK:   -5.25 KCAL/MOL
REMARK 923 INTER-LIGAND FREE ENERGY PREDICTED BY IDOCK:   -4.76 KCAL/MOL
REMARK 924 INTRA-LIGAND FREE ENERGY PREDICTED BY IDOCK:   -0.49 KCAL/MOL
REMARK 927      BINDING AFFINITY PREDICTED BY RF-SCORE:    0.00 PKD
ROOT
HETATM    1  O   UNL     1     -12.340   6.883  70.170  1.00  0.00    -0.628 OA 
HETATM    2  H   UNL     1     -12.841   6.160  69.814  1.00  0.00     0.000 HD 
HETATM    3  C   UNL     1     -12.520   6.972  71.578  1.00  0.00    -0.386 C  
ENDROOT
BRANCH   3   4
HETATM    4  C   UNL     1     -11.711   8.141  72.155  1.00  0.00    -0.359 C  
HETATM    5  O   UNL     1     -12.586   9.234  72.496  1.00  0.00    -0.314 OA 
HETATM    6  C   UNL     1     -12.677  10.078  71.347  1.00  0.00    -0.415 C  
HETATM    7  H   UNL     1      -8.834   9.425  71.267  1.00  0.00     0.000 HD 
HETATM    8  O   UNL     1     -13.715   9.610  70.473  1.00  0.00    -0.555 OA 
HETATM    9  C   UNL     1     -11.315   9.999  70.634  1.00  0.00    -0.348 C  
HETATM   10  O   UNL     1     -11.499   9.941  69.212  1.00  0.00    -0.430 OA 
HETATM   11  C   UNL     1     -10.681   8.716  71.175  1.00  0.00    -0.240 C  
HETATM   12  H   UNL     1     -13.775  10.171  69.710  1.00  0.00     0.000 HD 
HETATM   13  H   UNL     1     -10.659   9.892  68.772  1.00  0.00     0.000 HD 
HETATM   14  O   UNL     1      -9.472   9.070  71.874  1.00  0.00    -0.313 OA 
BRANCH   6  15
HETATM   15  C   UNL     1     -13.042  11.512  71.750  1.00  0.00    -0.398 C  
HETATM   16  O   UNL     1     -12.262  12.455  71.008  1.00  0.00    -0.379 OA 
HETATM   17  H   UNL     1     -12.488  13.344  71.258  1.00  0.00     0.000 HD 
ENDBRANCH   6  15
ENDBRANCH   3   4
TORSDOF 2
ENDMDL
MODEL       30
REMARK 921   NORMALIZED FREE ENERGY PREDICTED BY IDOCK:   -4.62 KCAL/MOL
REMARK 922        TOTAL FREE ENERGY PREDICTED BY IDOCK:   -5.25 KCAL/MOL
REMARK 923 INTER-LIGAND FREE ENERGY PREDICTED BY IDOCK:   -4.94 KCAL/MOL
REMARK 924 INTRA-LIGAND FREE ENERGY PREDICTED BY IDOCK:   -0.31 KCAL/MOL
REMARK 927      BINDING AFFINITY PREDICTED BY RF-SCORE:    0.00 PKD
ROOT
HETATM    1  O   UNL     1     -12.487  14.481  69.170  1.00  0.00    -0.567 OA 
HETATM    2  H   UNL     1     -13.180  14.763  69.754  1.00  0.00     0.000 HD 
HETATM    3  C   UNL     1     -11.777  15.600  68.655  1.00  0.00    -0.352 C  
ENDROOT
BRANCH   3   4
HETATM    4  C   UNL     1     -10.657  15.143  67.711  1.00  0.00    -0.264 C  
HETATM    5  O   UNL     1     -11.035  15.372  66.340  1.00  0.00    -0.322 OA 
HETATM    6  C   UNL     1     -11.685  14.187  65.876  1.00  0.00    -0.365 C  
HETATM    7  H   UNL     1      -8.721  12.505  67.770  1.00  0.00     0.000 HD 
HETATM    8  O   UNL     1     -13.083  14.235  66.198  1.00  0.00    -0.396 OA 
HETATM    9  C   UNL     1     -11.018  13.006  66.605  1.00  0.00    -0.279 C  
HETATM   10  O   UNL     1     -12.005  12.042  66.998  1.00  0.00    -0.609 OA 
HETATM   11  C   UNL     1     -10.338  13.647  67.816  1.00  0.00    -0.241 C  
HETATM   12  H   UNL     1     -13.514  13.447  65.890  1.00  0.00     0.000 HD 
HETATM   13  H   UNL     1     -11.594  11.314  67.448  1.00  0.00     0.000 HD 
HETATM   14  O   UNL     1      -8.918  13.431  67.704  1.00  0.00    -0.181 OA 
BRANCH   6  15
HETATM   15  C   UNL     1     -11.579  14.067  64.351  1.00  0.00    -0.369 C  
HETATM   16  O   UNL     1     -12.643  14.784  63.717  1.00  0.00    -0.998 OA 
HETATM   17  H   UNL     1     -12.577  14.709  62.772  1.00  0.00     0.000 HD 
ENDBRANCH   6  15
ENDBRANCH   3   4
TORSDOF 2
ENDMDL
MODEL       31
REMARK 921   NORMALIZED FREE ENERGY PREDICTED BY IDOCK:   -4.60 KCAL/MOL
REMARK 922        TOTAL FREE ENERGY PREDICTED BY IDOCK:   -5.23 KCAL/MOL
REMARK 923 INTER-LIGAND FREE ENERGY PREDICTED BY IDOCK:   -4.88 KCAL/MOL
REMARK 924 INTRA-LIGAND FREE ENERGY PREDICTED BY IDOCK:   -0.34 KCAL/MOL
REMARK 927      BINDING AFFINITY PREDICTED BY RF-SCORE:    0.00 PKD
ROOT
HETATM    1  O   UNL     1      -9.642  16.182  65.458  1.00  0.00    -0.447 OA 
HETATM    2  H   UNL     1      -9.006  16.886  65.503  1.00  0.00     0.000 HD 
HETATM    3  C   UNL     1     -10.431  16.143  66.641  1.00  0.00    -0.300 C  
ENDROOT
BRANCH   3   4
HETATM    4  C   UNL     1     -11.459  15.006  66.569  1.00  0.00    -0.239 C  
HETATM    5  O   UNL     1     -11.002  13.871  67.331  1.00  0.00    -0.280 OA 
HETATM    6  C   UNL     1     -10.259  13.036  66.442  1.00  0.00    -0.280 C  
HETATM    7  H   UNL     1     -13.247  13.861  64.077  1.00  0.00     0.000 HD 
HETATM    8  O   UNL     1      -8.891  13.466  66.391  1.00  0.00    -0.447 OA 
HETATM    9  C   UNL     1     -10.908  13.183  65.053  1.00  0.00    -0.315 C  
HETATM   10  O   UNL     1      -9.898  13.247  64.036  1.00  0.00    -0.741 OA 
HETATM   11  C   UNL     1     -11.702  14.488  65.146  1.00  0.00    -0.376 C  
HETATM   12  H   UNL     1      -8.397  12.910  65.800  1.00  0.00     0.000 HD 
HETATM   13  H   UNL     1     -10.298  13.338  63.179  1.00  0.00     0.000 HD 
HETATM   14  O   UNL     1     -13.097  14.182  64.959  1.00  0.00    -0.728 OA 
BRANCH   6  15
HETATM   15  C   UNL     1     -10.255  11.583  66.933  1.00  0.00    -0.217 C  
HETATM   16  O   UNL     1     -11.584  11.159  67.254  1.00  0.00    -0.514 OA 
HETATM   17  H   UNL     1     -11.582  10.259  67.558  1.00  0.00     0.000 HD 
ENDBRANCH   6  15
ENDBRANCH   3   4
TORSDOF 2
ENDMDL
MODEL       32
REMARK 921   NORMALIZED FREE ENERGY PREDICTED BY IDOCK:   -4.60 KCAL/MOL
REMARK 922        TOTAL FREE ENERGY PREDICTED BY IDOCK:   -5.23 KCAL/MOL
REMARK 923 INTER-LIGAND FREE ENERGY PREDICTED BY IDOCK:   -4.76 KCAL/MOL
REMARK 924 INTRA-LIGAND FREE ENERGY PREDICTED BY IDOCK:   -0.47 KCAL/MOL
REMARK 927      BINDING AFFINITY PREDICTED BY RF-SCORE:    0.00 PKD
ROOT
HETATM    1  O   UNL     1      -8.431  16.304  65.845  1.00  0.00    -0.330 OA 
HETATM    2  H   UNL     1      -7.567  16.515  66.176  1.00  0.00     0.000 HD 
HETATM    3  C   UNL     1      -9.438  16.877  66.670  1.00  0.00    -0.265 C  
ENDROOT
BRANCH   3   4
HETATM    4  C   UNL     1     -10.835  16.536  66.135  1.00  0.00    -0.050 C  
HETATM    5  O   UNL     1     -11.455  15.532  66.963  1.00  0.00    -0.202 OA 
HETATM    6  C   UNL     1     -11.113  14.259  66.413  1.00  0.00    -0.325 C  
HETATM    7  H   UNL     1     -11.938  16.111  63.082  1.00  0.00     0.000 HD 
HETATM    8  O   UNL     1      -9.854  13.818  66.941  1.00  0.00    -0.250 OA 
HETATM    9  C   UNL     1     -11.005  14.452  64.889  1.00  0.00    -0.406 C  
HETATM   10  O   UNL     1      -9.886  13.719  64.372  1.00  0.00    -0.687 OA 
HETATM   11  C   UNL     1     -10.824  15.961  64.713  1.00  0.00    -0.324 C  
HETATM   12  H   UNL     1      -9.627  12.971  66.575  1.00  0.00     0.000 HD 
HETATM   13  H   UNL     1      -9.820  13.838  63.432  1.00  0.00     0.000 HD 
HETATM   14  O   UNL     1     -11.945  16.467  63.963  1.00  0.00    -0.979 OA 
BRANCH   6  15
HETATM   15  C   UNL     1     -12.156  13.201  66.795  1.00  0.00    -0.327 C  
HETATM   16  O   UNL     1     -12.590  12.484  65.635  1.00  0.00    -0.612 OA 
HETATM   17  H   UNL     1     -13.236  11.829  65.872  1.00  0.00     0.000 HD 
ENDBRANCH   6  15
ENDBRANCH   3   4
TORSDOF 2
ENDMDL
MODEL       33
REMARK 921   NORMALIZED FREE ENERGY PREDICTED BY IDOCK:   -4.55 KCAL/MOL
REMARK 922        TOTAL FREE ENERGY PREDICTED BY IDOCK:   -5.18 KCAL/MOL
REMARK 923 INTER-LIGAND FREE ENERGY PREDICTED BY IDOCK:   -4.94 KCAL/MOL
REMARK 924 INTRA-LIGAND FREE ENERGY PREDICTED BY IDOCK:   -0.24 KCAL/MOL
REMARK 927      BINDING AFFINITY PREDICTED BY RF-SCORE:    0.00 PKD
ROOT
HETATM    1  O   UNL     1     -12.081  10.429  68.337  1.00  0.00    -0.769 OA 
HETATM    2  H   UNL     1     -11.759   9.657  68.786  1.00  0.00     0.000 HD 
HETATM    3  C   UNL     1     -11.306  11.570  68.682  1.00  0.00    -0.269 C  
ENDROOT
BRANCH   3   4
HETATM    4  C   UNL     1     -11.826  12.818  67.956  1.00  0.00    -0.336 C  
HETATM    5  O   UNL     1     -12.401  12.453  66.686  1.00  0.00    -0.477 OA 
HETATM    6  C   UNL     1     -11.358  12.523  65.713  1.00  0.00    -0.336 C  
HETATM    7  H   UNL     1     -10.560  15.819  67.637  1.00  0.00     0.000 HD 
HETATM    8  O   UNL     1     -10.643  11.280  65.669  1.00  0.00    -0.258 OA 
HETATM    9  C   UNL     1     -10.415  13.656  66.160  1.00  0.00    -0.297 C  
HETATM   10  O   UNL     1      -9.047  13.276  65.954  1.00  0.00    -0.450 OA 
HETATM   11  C   UNL     1     -10.733  13.846  67.644  1.00  0.00    -0.249 C  
HETATM   12  H   UNL     1      -9.949  11.327  65.022  1.00  0.00     0.000 HD 
HETATM   13  H   UNL     1      -8.465  13.974  66.229  1.00  0.00     0.000 HD 
HETATM   14  O   UNL     1     -11.238  15.183  67.830  1.00  0.00    -0.304 OA 
BRANCH   6  15
HETATM   15  C   UNL     1     -11.933  12.761  64.311  1.00  0.00    -0.405 C  
HETATM   16  O   UNL     1     -13.276  12.272  64.232  1.00  0.00    -0.785 OA 
HETATM   17  H   UNL     1     -13.632  12.420  63.363  1.00  0.00     0.000 HD 
ENDBRANCH   6  15
ENDBRANCH   3   4
TORSDOF 2
ENDMDL
MODEL       34
REMARK 921   NORMALIZED FREE ENERGY PREDICTED BY IDOCK:   -4.52 KCAL/MOL
REMARK 922        TOTAL FREE ENERGY PREDICTED BY IDOCK:   -5.14 KCAL/MOL
REMARK 923 INTER-LIGAND FREE ENERGY PREDICTED BY IDOCK:   -4.79 KCAL/MOL
REMARK 924 INTRA-LIGAND FREE ENERGY PREDICTED BY IDOCK:   -0.35 KCAL/MOL
REMARK 927      BINDING AFFINITY PREDICTED BY RF-SCORE:    0.00 PKD
ROOT
HETATM    1  O   UNL     1      -9.992   6.810  69.598  1.00  0.00    -0.170 OA 
HETATM    2  H   UNL     1      -9.669   6.721  68.709  1.00  0.00     0.000 HD 
HETATM    3  C   UNL     1     -11.256   6.175  69.738  1.00  0.00    -0.423 C  
ENDROOT
BRANCH   3   4
HETATM    4  C   UNL     1     -11.777   6.318  71.175  1.00  0.00    -0.227 C  
HETATM    5  O   UNL     1     -12.880   7.245  71.215  1.00  0.00    -0.367 OA 
HETATM    6  C   UNL     1     -12.334   8.543  71.458  1.00  0.00    -0.314 C  
HETATM    7  H   UNL     1     -10.202   6.540  74.035  1.00  0.00     0.000 HD 
HETATM    8  O   UNL     1     -11.953   9.156  70.218  1.00  0.00    -0.470 OA 
HETATM    9  C   UNL     1     -11.093   8.338  72.346  1.00  0.00    -0.377 C  
HETATM   10  O   UNL     1     -10.030   9.204  71.923  1.00  0.00    -0.308 OA 
HETATM   11  C   UNL     1     -10.732   6.864  72.155  1.00  0.00    -0.219 C  
HETATM   12  H   UNL     1     -11.590  10.019  70.379  1.00  0.00     0.000 HD 
HETATM   13  H   UNL     1      -9.264   9.078  72.471  1.00  0.00     0.000 HD 
HETATM   14  O   UNL     1     -10.850   6.201  73.429  1.00  0.00    -0.257 OA 
BRANCH   6  15
HETATM   15  C   UNL     1     -13.375   9.460  72.112  1.00  0.00    -0.468 C  
HETATM   16  O   UNL     1     -13.810   8.913  73.361  1.00  0.00    -1.192 OA 
HETATM   17  H   UNL     1     -14.455   9.481  73.765  1.00  0.00     0.000 HD 
ENDBRANCH   6  15
ENDBRANCH   3   4
TORSDOF 2
ENDMDL
MODEL       35
REMARK 921   NORMALIZED FREE ENERGY PREDICTED BY IDOCK:   -4.50 KCAL/MOL
REMARK 922        TOTAL FREE ENERGY PREDICTED BY IDOCK:   -5.12 KCAL/MOL
REMARK 923 INTER-LIGAND FREE ENERGY PREDICTED BY IDOCK:   -5.07 KCAL/MOL
REMARK 924 INTRA-LIGAND FREE ENERGY PREDICTED BY IDOCK:   -0.05 KCAL/MOL
REMARK 927      BINDING AFFINITY PREDICTED BY RF-SCORE:    0.00 PKD
ROOT
HETATM    1  O   UNL     1     -14.227   8.905  73.334  1.00  0.00    -1.241 OA 
HETATM    2  H   UNL     1     -15.041   9.360  73.156  1.00  0.00     0.000 HD 
HETATM    3  C   UNL     1     -13.431   8.824  72.159  1.00  0.00    -0.427 C  
ENDROOT
BRANCH   3   4
HETATM    4  C   UNL     1     -12.115   8.088  72.446  1.00  0.00    -0.321 C  
HETATM    5  O   UNL     1     -10.996   8.863  71.972  1.00  0.00    -0.352 OA 
HETATM    6  C   UNL     1     -10.739   8.457  70.627  1.00  0.00    -0.220 C  
HETATM    7  H   UNL     1     -11.302   4.928  72.187  1.00  0.00     0.000 HD 
HETATM    8  O   UNL     1     -11.557   9.211  69.721  1.00  0.00    -0.441 OA 
HETATM    9  C   UNL     1     -11.101   6.963  70.543  1.00  0.00    -0.288 C  
HETATM   10  O   UNL     1     -11.775   6.683  69.308  1.00  0.00    -0.645 OA 
HETATM   11  C   UNL     1     -12.009   6.726  71.750  1.00  0.00    -0.339 C  
HETATM   12  H   UNL     1     -11.386   8.941  68.827  1.00  0.00     0.000 HD 
HETATM   13  H   UNL     1     -11.998   5.761  69.255  1.00  0.00     0.000 HD 
HETATM   14  O   UNL     1     -11.367   5.772  72.618  1.00  0.00    -0.282 OA 
BRANCH   6  15
HETATM   15  C   UNL     1      -9.278   8.727  70.245  1.00  0.00    -0.174 C  
HETATM   16  O   UNL     1      -8.903  10.058  70.613  1.00  0.00    -0.339 OA 
HETATM   17  H   UNL     1      -7.998  10.225  70.376  1.00  0.00     0.000 HD 
ENDBRANCH   6  15
ENDBRANCH   3   4
TORSDOF 2
ENDMDL
MODEL       36
REMARK 921   NORMALIZED FREE ENERGY PREDICTED BY IDOCK:   -4.44 KCAL/MOL
REMARK 922        TOTAL FREE ENERGY PREDICTED BY IDOCK:   -5.05 KCAL/MOL
REMARK 923 INTER-LIGAND FREE ENERGY PREDICTED BY IDOCK:   -4.82 KCAL/MOL
REMARK 924 INTRA-LIGAND FREE ENERGY PREDICTED BY IDOCK:   -0.23 KCAL/MOL
REMARK 927      BINDING AFFINITY PREDICTED BY RF-SCORE:    0.00 PKD
ROOT
HETATM    1  O   UNL     1     -11.701   5.278  73.209  1.00  0.00    -0.526 OA 
HETATM    2  H   UNL     1     -11.800   4.344  73.066  1.00  0.00     0.000 HD 
HETATM    3  C   UNL     1     -10.596   5.784  72.472  1.00  0.00    -0.221 C  
ENDROOT
BRANCH   3   4
HETATM    4  C   UNL     1     -10.436   7.293  72.704  1.00  0.00    -0.246 C  
HETATM    5  O   UNL     1     -11.720   7.898  72.954  1.00  0.00    -0.350 OA 
HETATM    6  C   UNL     1     -12.245   8.314  71.693  1.00  0.00    -0.313 C  
HETATM    7  H   UNL     1      -8.572   9.526  71.203  1.00  0.00     0.000 HD 
HETATM    8  O   UNL     1     -12.954   7.230  71.074  1.00  0.00    -0.559 OA 
HETATM    9  C   UNL     1     -11.039   8.716  70.825  1.00  0.00    -0.255 C  
HETATM   10  O   UNL     1     -11.218   8.255  69.478  1.00  0.00    -0.446 OA 
HETATM   11  C   UNL     1      -9.846   8.039  71.501  1.00  0.00    -0.170 C  
HETATM   12  H   UNL     1     -13.303   7.506  70.235  1.00  0.00     0.000 HD 
HETATM   13  H   UNL     1     -10.474   8.503  68.942  1.00  0.00     0.000 HD 
HETATM   14  O   UNL     1      -8.938   9.065  71.948  1.00  0.00    -0.364 OA 
BRANCH   6  15
HETATM   15  C   UNL     1     -13.246   9.462  71.870  1.00  0.00    -0.429 C  
HETATM   16  O   UNL     1     -14.323   9.061  72.724  1.00  0.00    -0.940 OA 
HETATM   17  H   UNL     1     -14.942   9.773  72.833  1.00  0.00     0.000 HD 
ENDBRANCH   6  15
ENDBRANCH   3   4
TORSDOF 2
ENDMDL
MODEL       37
REMARK 921   NORMALIZED FREE ENERGY PREDICTED BY IDOCK:   -4.43 KCAL/MOL
REMARK 922        TOTAL FREE ENERGY PREDICTED BY IDOCK:   -5.04 KCAL/MOL
REMARK 923 INTER-LIGAND FREE ENERGY PREDICTED BY IDOCK:   -4.77 KCAL/MOL
REMARK 924 INTRA-LIGAND FREE ENERGY PREDICTED BY IDOCK:   -0.27 KCAL/MOL
REMARK 927      BINDING AFFINITY PREDICTED BY RF-SCORE:    0.00 PKD
ROOT
HETATM    1  O   UNL     1      -8.732  20.768  66.865  1.00  0.00    -0.568 OA 
HETATM    2  H   UNL     1      -8.748  21.665  66.554  1.00  0.00     0.000 HD 
HETATM    3  C   UNL     1      -7.972  19.946  65.988  1.00  0.00    -0.314 C  
ENDROOT
BRANCH   3   4
HETATM    4  C   UNL     1      -7.947  18.496  66.490  1.00  0.00    -0.274 C  
HETATM    5  O   UNL     1      -8.693  17.646  65.597  1.00  0.00    -0.395 OA 
HETATM    6  C   UNL     1     -10.041  17.614  66.070  1.00  0.00    -0.254 C  
HETATM    7  H   UNL     1      -8.227  17.245  69.502  1.00  0.00     0.000 HD 
HETATM    8  O   UNL     1     -10.779  18.717  65.526  1.00  0.00    -0.569 OA 
HETATM    9  C   UNL     1      -9.972  17.733  67.604  1.00  0.00    -0.322 C  
HETATM   10  O   UNL     1     -11.012  18.596  68.083  1.00  0.00    -0.260 OA 
HETATM   11  C   UNL     1      -8.583  18.315  67.873  1.00  0.00    -0.258 C  
HETATM   12  H   UNL     1     -11.675  18.696  65.841  1.00  0.00     0.000 HD 
HETATM   13  H   UNL     1     -10.969  18.670  69.030  1.00  0.00     0.000 HD 
HETATM   14  O   UNL     1      -7.833  17.357  68.645  1.00  0.00    -0.261 OA 
BRANCH   6  15
HETATM   15  C   UNL     1     -10.749  16.331  65.616  1.00  0.00    -0.286 C  
HETATM   16  O   UNL     1     -10.791  16.263  64.187  1.00  0.00    -1.006 OA 
HETATM   17  H   UNL     1     -11.229  15.468  63.905  1.00  0.00     0.000 HD 
ENDBRANCH   6  15
ENDBRANCH   3   4
TORSDOF 2
ENDMDL
MODEL       38
REMARK 921   NORMALIZED FREE ENERGY PREDICTED BY IDOCK:   -4.41 KCAL/MOL
REMARK 922        TOTAL FREE ENERGY PREDICTED BY IDOCK:   -5.02 KCAL/MOL
REMARK 923 INTER-LIGAND FREE ENERGY PREDICTED BY IDOCK:   -4.72 KCAL/MOL
REMARK 924 INTRA-LIGAND FREE ENERGY PREDICTED BY IDOCK:   -0.30 KCAL/MOL
REMARK 927      BINDING AFFINITY PREDICTED BY RF-SCORE:    0.00 PKD
ROOT
HETATM    1  O   UNL     1      -9.211   5.885  72.502  1.00  0.00    -0.140 OA 
HETATM    2  H   UNL     1      -8.496   5.678  73.091  1.00  0.00     0.000 HD 
HETATM    3  C   UNL     1      -8.970   7.115  71.831  1.00  0.00    -0.127 C  
ENDROOT
BRANCH   3   4
HETATM    4  C   UNL     1     -10.126   7.448  70.879  1.00  0.00    -0.188 C  
HETATM    5  O   UNL     1     -10.848   8.601  71.354  1.00  0.00    -0.233 OA 
HETATM    6  C   UNL     1     -11.897   8.125  72.199  1.00  0.00    -0.359 C  
HETATM    7  H   UNL     1     -12.265   5.525  69.318  1.00  0.00     0.000 HD 
HETATM    8  O   UNL     1     -11.413   7.961  73.540  1.00  0.00    -0.454 OA 
HETATM    9  C   UNL     1     -12.338   6.765  71.629  1.00  0.00    -0.362 C  
HETATM   10  O   UNL     1     -12.586   5.836  72.693  1.00  0.00    -0.499 OA 
HETATM   11  C   UNL     1     -11.162   6.325  70.755  1.00  0.00    -0.324 C  
HETATM   12  H   UNL     1     -12.111   7.645  74.101  1.00  0.00     0.000 HD 
HETATM   13  H   UNL     1     -12.858   4.996  72.341  1.00  0.00     0.000 HD 
HETATM   14  O   UNL     1     -11.624   6.221  69.394  1.00  0.00    -0.403 OA 
BRANCH   6  15
HETATM   15  C   UNL     1     -13.051   9.135  72.258  1.00  0.00    -0.438 C  
HETATM   16  O   UNL     1     -13.861   8.902  73.415  1.00  0.00    -1.192 OA 
HETATM   17  H   UNL     1     -14.575   9.528  73.451  1.00  0.00     0.000 HD 
ENDBRANCH   6  15
ENDBRANCH   3   4
TORSDOF 2
ENDMDL
MODEL       39
REMARK 921   NORMALIZED FREE ENERGY PREDICTED BY IDOCK:   -4.40 KCAL/MOL
REMARK 922        TOTAL FREE ENERGY PREDICTED BY IDOCK:   -5.01 KCAL/MOL
REMARK 923 INTER-LIGAND FREE ENERGY PREDICTED BY IDOCK:   -4.51 KCAL/MOL
REMARK 924 INTRA-LIGAND FREE ENERGY PREDICTED BY IDOCK:   -0.50 KCAL/MOL
REMARK 927      BINDING AFFINITY PREDICTED BY RF-SCORE:    0.00 PKD
ROOT
HETATM    1  O   UNL     1     -10.578  15.504  67.864  1.00  0.00    -0.260 OA 
HETATM    2  H   UNL     1     -10.564  14.908  68.604  1.00  0.00     0.000 HD 
HETATM    3  C   UNL     1      -9.624  15.111  66.886  1.00  0.00    -0.239 C  
ENDROOT
BRANCH   3   4
HETATM    4  C   UNL     1      -9.647  16.073  65.691  1.00  0.00    -0.191 C  
HETATM    5  O   UNL     1      -8.496  16.940  65.726  1.00  0.00    -0.492 OA 
HETATM    6  C   UNL     1      -8.867  18.106  66.462  1.00  0.00    -0.271 C  
HETATM    7  H   UNL     1     -12.096  17.747  64.308  1.00  0.00     0.000 HD 
HETATM    8  O   UNL     1      -8.659  17.888  67.865  1.00  0.00    -0.242 OA 
HETATM    9  C   UNL     1     -10.361  18.346  66.183  1.00  0.00    -0.407 C  
HETATM   10  O   UNL     1     -11.034  18.746  67.385  1.00  0.00    -0.422 OA 
HETATM   11  C   UNL     1     -10.870  16.998  65.671  1.00  0.00    -0.061 C  
HETATM   12  H   UNL     1      -8.905  18.664  68.355  1.00  0.00     0.000 HD 
HETATM   13  H   UNL     1     -11.957  18.895  67.213  1.00  0.00     0.000 HD 
HETATM   14  O   UNL     1     -11.339  17.175  64.320  1.00  0.00    -1.126 OA 
BRANCH   6  15
HETATM   15  C   UNL     1      -7.997  19.305  66.060  1.00  0.00    -0.243 C  
HETATM   16  O   UNL     1      -8.740  20.523  66.176  1.00  0.00    -0.554 OA 
HETATM   17  H   UNL     1      -8.201  21.265  65.927  1.00  0.00     0.000 HD 
ENDBRANCH   6  15
ENDBRANCH   3   4
TORSDOF 2
ENDMDL
MODEL       40
REMARK 921   NORMALIZED FREE ENERGY PREDICTED BY IDOCK:   -4.36 KCAL/MOL
REMARK 922        TOTAL FREE ENERGY PREDICTED BY IDOCK:   -4.96 KCAL/MOL
REMARK 923 INTER-LIGAND FREE ENERGY PREDICTED BY IDOCK:   -4.50 KCAL/MOL
REMARK 924 INTRA-LIGAND FREE ENERGY PREDICTED BY IDOCK:   -0.47 KCAL/MOL
REMARK 927      BINDING AFFINITY PREDICTED BY RF-SCORE:    0.00 PKD
ROOT
HETATM    1  O   UNL     1     -14.266  15.470  70.708  1.00  0.00    -0.863 OA 
HETATM    2  H   UNL     1     -14.950  16.112  70.854  1.00  0.00     0.000 HD 
HETATM    3  C   UNL     1     -13.310  15.508  71.759  1.00  0.00    -0.486 C  
ENDROOT
BRANCH   3   4
HETATM    4  C   UNL     1     -12.204  14.470  71.523  1.00  0.00    -0.347 C  
HETATM    5  O   UNL     1     -10.960  15.127  71.213  1.00  0.00    -0.280 OA 
HETATM    6  C   UNL     1     -10.901  15.271  69.793  1.00  0.00    -0.289 C  
HETATM    7  H   UNL     1     -12.228  11.609  69.933  1.00  0.00     0.000 HD 
HETATM    8  O   UNL     1     -11.560  16.482  69.394  1.00  0.00    -0.243 OA 
HETATM    9  C   UNL     1     -11.630  14.054  69.196  1.00  0.00    -0.313 C  
HETATM   10  O   UNL     1     -12.431  14.455  68.075  1.00  0.00    -0.585 OA 
HETATM   11  C   UNL     1     -12.488  13.528  70.347  1.00  0.00    -0.275 C  
HETATM   12  H   UNL     1     -11.520  16.578  68.450  1.00  0.00     0.000 HD 
HETATM   13  H   UNL     1     -12.881  13.703  67.706  1.00  0.00     0.000 HD 
HETATM   14  O   UNL     1     -12.052  12.191  70.662  1.00  0.00    -0.365 OA 
BRANCH   6  15
HETATM   15  C   UNL     1      -9.446  15.374  69.315  1.00  0.00    -0.261 C  
HETATM   16  O   UNL     1      -9.291  14.733  68.044  1.00  0.00    -0.189 OA 
HETATM   17  H   UNL     1      -8.390  14.797  67.748  1.00  0.00     0.000 HD 
ENDBRANCH   6  15
ENDBRANCH   3   4
TORSDOF 2
ENDMDL
MODEL       41
REMARK 921   NORMALIZED FREE ENERGY PREDICTED BY IDOCK:   -4.29 KCAL/MOL
REMARK 922        TOTAL FREE ENERGY PREDICTED BY IDOCK:   -4.88 KCAL/MOL
REMARK 923 INTER-LIGAND FREE ENERGY PREDICTED BY IDOCK:   -4.61 KCAL/MOL
REMARK 924 INTRA-LIGAND FREE ENERGY PREDICTED BY IDOCK:   -0.27 KCAL/MOL
REMARK 927      BINDING AFFINITY PREDICTED BY RF-SCORE:    0.00 PKD
ROOT
HETATM    1  O   UNL     1      -8.938  15.304  65.889  1.00  0.00    -0.454 OA 
HETATM    2  H   UNL     1      -8.081  15.125  65.519  1.00  0.00     0.000 HD 
HETATM    3  C   UNL     1      -9.943  14.567  65.205  1.00  0.00    -0.287 C  
ENDROOT
BRANCH   3   4
HETATM    4  C   UNL     1     -11.327  14.856  65.802  1.00  0.00    -0.314 C  
HETATM    5  O   UNL     1     -11.205  15.214  67.193  1.00  0.00    -0.335 OA 
HETATM    6  C   UNL     1     -11.310  14.009  67.952  1.00  0.00    -0.291 C  
HETATM    7  H   UNL     1     -14.203  13.341  65.425  1.00  0.00     0.000 HD 
HETATM    8  O   UNL     1     -10.021  13.389  68.071  1.00  0.00    -0.225 OA 
HETATM    9  C   UNL     1     -12.269  13.085  67.179  1.00  0.00    -0.138 C  
HETATM   10  O   UNL     1     -11.789  11.733  67.208  1.00  0.00    -0.596 OA 
HETATM   11  C   UNL     1     -12.276  13.653  65.759  1.00  0.00    -0.464 C  
HETATM   12  H   UNL     1     -10.091  12.587  68.575  1.00  0.00     0.000 HD 
HETATM   13  H   UNL     1     -12.381  11.162  66.732  1.00  0.00     0.000 HD 
HETATM   14  O   UNL     1     -13.616  14.086  65.452  1.00  0.00    -0.593 OA 
BRANCH   6  15
HETATM   15  C   UNL     1     -11.801  14.301  69.375  1.00  0.00    -0.326 C  
HETATM   16  O   UNL     1     -12.718  15.400  69.373  1.00  0.00    -0.586 OA 
HETATM   17  H   UNL     1     -13.022  15.580  70.255  1.00  0.00     0.000 HD 
ENDBRANCH   6  15
ENDBRANCH   3   4
TORSDOF 2
ENDMDL
MODEL       42
REMARK 921   NORMALIZED FREE ENERGY PREDICTED BY IDOCK:   -4.28 KCAL/MOL
REMARK 922        TOTAL FREE ENERGY PREDICTED BY IDOCK:   -4.87 KCAL/MOL
REMARK 923 INTER-LIGAND FREE ENERGY PREDICTED BY IDOCK:   -4.38 KCAL/MOL
REMARK 924 INTRA-LIGAND FREE ENERGY PREDICTED BY IDOCK:   -0.49 KCAL/MOL
REMARK 927      BINDING AFFINITY PREDICTED BY RF-SCORE:    0.00 PKD
ROOT
HETATM    1  O   UNL     1      -7.906  17.044  66.826  1.00  0.00    -0.192 OA 
HETATM    2  H   UNL     1      -7.069  17.258  67.220  1.00  0.00     0.000 HD 
HETATM    3  C   UNL     1      -8.945  17.826  67.401  1.00  0.00    -0.240 C  
ENDROOT
BRANCH   3   4
HETATM    4  C   UNL     1     -10.298  17.481  66.765  1.00  0.00    -0.314 C  
HETATM    5  O   UNL     1     -11.085  16.682  67.670  1.00  0.00    -0.244 OA 
HETATM    6  C   UNL     1     -10.790  15.312  67.392  1.00  0.00    -0.304 C  
HETATM    7  H   UNL     1     -11.090  16.585  63.719  1.00  0.00     0.000 HD 
HETATM    8  O   UNL     1      -9.636  14.897  68.138  1.00  0.00    -0.202 OA 
HETATM    9  C   UNL     1     -10.500  15.223  65.882  1.00  0.00    -0.331 C  
HETATM   10  O   UNL     1      -9.395  14.342  65.639  1.00  0.00    -0.523 OA 
HETATM   11  C   UNL     1     -10.178  16.662  65.475  1.00  0.00    -0.202 C  
HETATM   12  H   UNL     1      -9.440  13.986  67.952  1.00  0.00     0.000 HD 
HETATM   13  H   UNL     1      -9.216  14.286  64.707  1.00  0.00     0.000 HD 
HETATM   14  O   UNL     1     -11.165  17.092  64.518  1.00  0.00    -1.104 OA 
BRANCH   6  15
HETATM   15  C   UNL     1     -11.951  14.406  67.818  1.00  0.00    -0.333 C  
HETATM   16  O   UNL     1     -12.143  13.356  66.865  1.00  0.00    -0.388 OA 
HETATM   17  H   UNL     1     -12.863  12.794  67.130  1.00  0.00     0.000 HD 
ENDBRANCH   6  15
ENDBRANCH   3   4
TORSDOF 2
ENDMDL
MODEL       43
REMARK 921   NORMALIZED FREE ENERGY PREDICTED BY IDOCK:   -4.27 KCAL/MOL
REMARK 922        TOTAL FREE ENERGY PREDICTED BY IDOCK:   -4.87 KCAL/MOL
REMARK 923 INTER-LIGAND FREE ENERGY PREDICTED BY IDOCK:   -4.66 KCAL/MOL
REMARK 924 INTRA-LIGAND FREE ENERGY PREDICTED BY IDOCK:   -0.20 KCAL/MOL
REMARK 927      BINDING AFFINITY PREDICTED BY RF-SCORE:    0.00 PKD
ROOT
HETATM    1  O   UNL     1     -10.755  15.011  67.498  1.00  0.00    -0.272 OA 
HETATM    2  H   UNL     1     -10.176  15.762  67.551  1.00  0.00     0.000 HD 
HETATM    3  C   UNL     1     -11.251  14.851  66.176  1.00  0.00    -0.325 C  
ENDROOT
BRANCH   3   4
HETATM    4  C   UNL     1     -12.186  13.638  66.091  1.00  0.00    -0.444 C  
HETATM    5  O   UNL     1     -12.009  12.790  67.243  1.00  0.00    -0.369 OA 
HETATM    6  C   UNL     1     -11.002  11.831  66.912  1.00  0.00    -0.285 C  
HETATM    7  H   UNL     1     -13.013  11.716  63.574  1.00  0.00     0.000 HD 
HETATM    8  O   UNL     1      -9.701  12.368  67.193  1.00  0.00    -0.201 OA 
HETATM    9  C   UNL     1     -11.141  11.550  65.405  1.00  0.00    -0.186 C  
HETATM   10  O   UNL     1      -9.846  11.449  64.796  1.00  0.00    -0.241 OA 
HETATM   11  C   UNL     1     -11.927  12.748  64.870  1.00  0.00    -0.402 C  
HETATM   12  H   UNL     1      -9.032  11.731  66.973  1.00  0.00     0.000 HD 
HETATM   13  H   UNL     1      -9.932  11.275  63.866  1.00  0.00     0.000 HD 
HETATM   14  O   UNL     1     -13.174  12.266  64.331  1.00  0.00    -0.806 OA 
BRANCH   6  15
HETATM   15  C   UNL     1     -11.157  10.562  67.760  1.00  0.00    -0.317 C  
HETATM   16  O   UNL     1     -12.386  10.597  68.493  1.00  0.00    -0.814 OA 
HETATM   17  H   UNL     1     -12.482   9.811  69.018  1.00  0.00     0.000 HD 
ENDBRANCH   6  15
ENDBRANCH   3   4
TORSDOF 2
ENDMDL
MODEL       44
REMARK 921   NORMALIZED FREE ENERGY PREDICTED BY IDOCK:   -4.26 KCAL/MOL
REMARK 922        TOTAL FREE ENERGY PREDICTED BY IDOCK:   -4.85 KCAL/MOL
REMARK 923 INTER-LIGAND FREE ENERGY PREDICTED BY IDOCK:   -4.56 KCAL/MOL
REMARK 924 INTRA-LIGAND FREE ENERGY PREDICTED BY IDOCK:   -0.29 KCAL/MOL
REMARK 927      BINDING AFFINITY PREDICTED BY RF-SCORE:    0.00 PKD
ROOT
HETATM    1  O   UNL     1      -8.563  11.459  63.487  1.00  0.00    -0.388 OA 
HETATM    2  H   UNL     1      -8.028  11.458  62.703  1.00  0.00     0.000 HD 
HETATM    3  C   UNL     1      -9.878  11.002  63.199  1.00  0.00    -0.363 C  
ENDROOT
BRANCH   3   4
HETATM    4  C   UNL     1     -10.742  11.004  64.467  1.00  0.00    -0.264 C  
HETATM    5  O   UNL     1     -11.541  12.202  64.524  1.00  0.00    -0.330 OA 
HETATM    6  C   UNL     1     -10.784  13.182  65.236  1.00  0.00    -0.303 C  
HETATM    7  H   UNL     1     -10.066  10.125  67.547  1.00  0.00     0.000 HD 
HETATM    8  O   UNL     1      -9.918  13.885  64.333  1.00  0.00    -0.719 OA 
HETATM    9  C   UNL     1      -9.947  12.419  66.280  1.00  0.00    -0.246 C  
HETATM   10  O   UNL     1      -8.627  12.974  66.361  1.00  0.00    -0.421 OA 
HETATM   11  C   UNL     1      -9.926  10.979  65.765  1.00  0.00    -0.244 C  
HETATM   12  H   UNL     1      -9.414  14.537  64.807  1.00  0.00     0.000 HD 
HETATM   13  H   UNL     1      -8.110  12.503  67.005  1.00  0.00     0.000 HD 
HETATM   14  O   UNL     1     -10.572  10.140  66.743  1.00  0.00    -0.223 OA 
BRANCH   6  15
HETATM   15  C   UNL     1     -11.707  14.226  65.878  1.00  0.00    -0.372 C  
HETATM   16  O   UNL     1     -12.953  14.290  65.176  1.00  0.00    -0.692 OA 
HETATM   17  H   UNL     1     -13.525  14.937  65.574  1.00  0.00     0.000 HD 
ENDBRANCH   6  15
ENDBRANCH   3   4
TORSDOF 2
ENDMDL
MODEL       45
REMARK 921   NORMALIZED FREE ENERGY PREDICTED BY IDOCK:   -4.25 KCAL/MOL
REMARK 922        TOTAL FREE ENERGY PREDICTED BY IDOCK:   -4.85 KCAL/MOL
REMARK 923 INTER-LIGAND FREE ENERGY PREDICTED BY IDOCK:   -4.47 KCAL/MOL
REMARK 924 INTRA-LIGAND FREE ENERGY PREDICTED BY IDOCK:   -0.37 KCAL/MOL
REMARK 927      BINDING AFFINITY PREDICTED BY RF-SCORE:    0.00 PKD
ROOT
HETATM    1  O   UNL     1      -6.785  15.343  67.077  1.00  0.00    -0.261 OA 
HETATM    2  H   UNL     1      -6.447  14.803  67.781  1.00  0.00     0.000 HD 
HETATM    3  C   UNL     1      -8.203  15.254  67.012  1.00  0.00    -0.233 C  
ENDROOT
BRANCH   3   4
HETATM    4  C   UNL     1      -8.749  16.127  65.875  1.00  0.00    -0.091 C  
HETATM    5  O   UNL     1      -7.994  17.351  65.778  1.00  0.00    -0.538 OA 
HETATM    6  C   UNL     1      -8.643  18.315  66.609  1.00  0.00    -0.273 C  
HETATM    7  H   UNL     1     -11.814  16.785  64.934  1.00  0.00     0.000 HD 
HETATM    8  O   UNL     1      -8.162  18.205  67.957  1.00  0.00    -0.247 OA 
HETATM    9  C   UNL     1     -10.148  17.995  66.560  1.00  0.00    -0.379 C  
HETATM   10  O   UNL     1     -10.731  18.141  67.863  1.00  0.00    -0.396 OA 
HETATM   11  C   UNL     1     -10.210  16.547  66.072  1.00  0.00    -0.356 C  
HETATM   12  H   UNL     1      -8.594  18.846  68.509  1.00  0.00     0.000 HD 
HETATM   13  H   UNL     1     -11.660  17.944  67.833  1.00  0.00     0.000 HD 
HETATM   14  O   UNL     1     -10.909  16.525  64.812  1.00  0.00    -0.720 OA 
BRANCH   6  15
HETATM   15  C   UNL     1      -8.333  19.741  66.136  1.00  0.00    -0.345 C  
HETATM   16  O   UNL     1      -9.460  20.596  66.354  1.00  0.00    -0.636 OA 
HETATM   17  H   UNL     1      -9.267  21.480  66.060  1.00  0.00     0.000 HD 
ENDBRANCH   6  15
ENDBRANCH   3   4
TORSDOF 2
ENDMDL
MODEL       46
REMARK 921   NORMALIZED FREE ENERGY PREDICTED BY IDOCK:   -4.24 KCAL/MOL
REMARK 922        TOTAL FREE ENERGY PREDICTED BY IDOCK:   -4.83 KCAL/MOL
REMARK 923 INTER-LIGAND FREE ENERGY PREDICTED BY IDOCK:   -4.70 KCAL/MOL
REMARK 924 INTRA-LIGAND FREE ENERGY PREDICTED BY IDOCK:   -0.13 KCAL/MOL
REMARK 927      BINDING AFFINITY PREDICTED BY RF-SCORE:    0.00 PKD
ROOT
HETATM    1  O   UNL     1     -11.338   5.403  73.486  1.00  0.00    -0.470 OA 
HETATM    2  H   UNL     1     -11.399   5.014  74.350  1.00  0.00     0.000 HD 
HETATM    3  C   UNL     1     -10.911   6.756  73.573  1.00  0.00    -0.214 C  
ENDROOT
BRANCH   3   4
HETATM    4  C   UNL     1     -10.812   7.384  72.177  1.00  0.00    -0.235 C  
HETATM    5  O   UNL     1     -11.080   8.798  72.245  1.00  0.00    -0.359 OA 
HETATM    6  C   UNL     1     -12.484   8.973  72.045  1.00  0.00    -0.390 C  
HETATM    7  H   UNL     1     -11.839   6.329  69.253  1.00  0.00     0.000 HD 
HETATM    8  O   UNL     1     -13.178   8.850  73.295  1.00  0.00    -0.831 OA 
HETATM    9  C   UNL     1     -12.933   7.858  71.083  1.00  0.00    -0.104 C  
HETATM   10  O   UNL     1     -14.199   7.324  71.496  1.00  0.00    -0.430 OA 
HETATM   11  C   UNL     1     -11.821   6.812  71.174  1.00  0.00    -0.360 C  
HETATM   12  H   UNL     1     -14.111   8.966  73.162  1.00  0.00     0.000 HD 
HETATM   13  H   UNL     1     -14.477   6.636  70.902  1.00  0.00     0.000 HD 
HETATM   14  O   UNL     1     -11.213   6.684  69.874  1.00  0.00    -0.311 OA 
BRANCH   6  15
HETATM   15  C   UNL     1     -12.787  10.373  71.498  1.00  0.00    -0.464 C  
HETATM   16  O   UNL     1     -13.570  11.118  72.436  1.00  0.00    -0.538 OA 
HETATM   17  H   UNL     1     -13.758  11.986  72.097  1.00  0.00     0.000 HD 
ENDBRANCH   6  15
ENDBRANCH   3   4
TORSDOF 2
ENDMDL
MODEL       47
REMARK 921   NORMALIZED FREE ENERGY PREDICTED BY IDOCK:   -4.21 KCAL/MOL
REMARK 922        TOTAL FREE ENERGY PREDICTED BY IDOCK:   -4.79 KCAL/MOL
REMARK 923 INTER-LIGAND FREE ENERGY PREDICTED BY IDOCK:   -4.37 KCAL/MOL
REMARK 924 INTRA-LIGAND FREE ENERGY PREDICTED BY IDOCK:   -0.42 KCAL/MOL
REMARK 927      BINDING AFFINITY PREDICTED BY RF-SCORE:    0.00 PKD
ROOT
HETATM    1  O   UNL     1      -7.889  12.677  66.632  1.00  0.00    -0.396 OA 
HETATM    2  H   UNL     1      -7.160  12.121  66.878  1.00  0.00     0.000 HD 
HETATM    3  C   UNL     1      -9.043  11.896  66.349  1.00  0.00    -0.208 C  
ENDROOT
BRANCH   3   4
HETATM    4  C   UNL     1     -10.221  12.795  65.953  1.00  0.00    -0.287 C  
HETATM    5  O   UNL     1     -10.054  14.113  66.512  1.00  0.00    -0.266 OA 
HETATM    6  C   UNL     1     -10.695  14.115  67.789  1.00  0.00    -0.247 C  
HETATM    7  H   UNL     1     -13.436  12.200  65.784  1.00  0.00     0.000 HD 
HETATM    8  O   UNL     1      -9.786  13.648  68.796  1.00  0.00    -0.375 OA 
HETATM    9  C   UNL     1     -11.896  13.159  67.680  1.00  0.00    -0.359 C  
HETATM   10  O   UNL     1     -12.018  12.374  68.875  1.00  0.00    -0.303 OA 
HETATM   11  C   UNL     1     -11.577  12.291  66.462  1.00  0.00    -0.377 C  
HETATM   12  H   UNL     1     -10.212  13.649  69.644  1.00  0.00     0.000 HD 
HETATM   13  H   UNL     1     -12.759  11.784  68.808  1.00  0.00     0.000 HD 
HETATM   14  O   UNL     1     -12.596  12.513  65.468  1.00  0.00    -0.642 OA 
BRANCH   6  15
HETATM   15  C   UNL     1     -11.114  15.536  68.187  1.00  0.00    -0.325 C  
HETATM   16  O   UNL     1     -12.404  15.523  68.806  1.00  0.00    -0.587 OA 
HETATM   17  H   UNL     1     -12.663  16.403  69.053  1.00  0.00     0.000 HD 
ENDBRANCH   6  15
ENDBRANCH   3   4
TORSDOF 2
ENDMDL
MODEL       48
REMARK 921   NORMALIZED FREE ENERGY PREDICTED BY IDOCK:   -4.17 KCAL/MOL
REMARK 922        TOTAL FREE ENERGY PREDICTED BY IDOCK:   -4.75 KCAL/MOL
REMARK 923 INTER-LIGAND FREE ENERGY PREDICTED BY IDOCK:   -4.26 KCAL/MOL
REMARK 924 INTRA-LIGAND FREE ENERGY PREDICTED BY IDOCK:   -0.49 KCAL/MOL
REMARK 927      BINDING AFFINITY PREDICTED BY RF-SCORE:    0.00 PKD
ROOT
HETATM    1  O   UNL     1      -8.323  15.320  66.823  1.00  0.00    -0.234 OA 
HETATM    2  H   UNL     1      -8.377  14.425  66.510  1.00  0.00     0.000 HD 
HETATM    3  C   UNL     1      -9.217  15.528  67.909  1.00  0.00    -0.187 C  
ENDROOT
BRANCH   3   4
HETATM    4  C   UNL     1      -9.129  16.975  68.413  1.00  0.00    -0.256 C  
HETATM    5  O   UNL     1     -10.237  17.747  67.911  1.00  0.00    -0.325 OA 
HETATM    6  C   UNL     1      -9.823  18.327  66.673  1.00  0.00    -0.352 C  
HETATM    7  H   UNL     1      -6.580  19.004  68.729  1.00  0.00     0.000 HD 
HETATM    8  O   UNL     1     -10.063  17.409  65.596  1.00  0.00    -0.566 OA 
HETATM    9  C   UNL     1      -8.314  18.604  66.801  1.00  0.00    -0.281 C  
HETATM   10  O   UNL     1      -7.642  18.274  65.577  1.00  0.00    -0.518 OA 
HETATM   11  C   UNL     1      -7.863  17.708  67.955  1.00  0.00    -0.221 C  
HETATM   12  H   UNL     1      -9.788  17.795  64.773  1.00  0.00     0.000 HD 
HETATM   13  H   UNL     1      -6.711  18.445  65.656  1.00  0.00     0.000 HD 
HETATM   14  O   UNL     1      -7.365  18.550  69.013  1.00  0.00    -0.284 OA 
BRANCH   6  15
HETATM   15  C   UNL     1     -10.627  19.597  66.369  1.00  0.00    -0.486 C  
HETATM   16  O   UNL     1      -9.874  20.476  65.527  1.00  0.00    -0.550 OA 
HETATM   17  H   UNL     1     -10.373  21.263  65.339  1.00  0.00     0.000 HD 
ENDBRANCH   6  15
ENDBRANCH   3   4
TORSDOF 2
ENDMDL
MODEL       49
REMARK 921   NORMALIZED FREE ENERGY PREDICTED BY IDOCK:   -4.13 KCAL/MOL
REMARK 922        TOTAL FREE ENERGY PREDICTED BY IDOCK:   -4.71 KCAL/MOL
REMARK 923 INTER-LIGAND FREE ENERGY PREDICTED BY IDOCK:   -4.24 KCAL/MOL
REMARK 924 INTRA-LIGAND FREE ENERGY PREDICTED BY IDOCK:   -0.46 KCAL/MOL
REMARK 927      BINDING AFFINITY PREDICTED BY RF-SCORE:    0.00 PKD
ROOT
HETATM    1  O   UNL     1      -8.278  19.472  68.254  1.00  0.00    -0.321 OA 
HETATM    2  H   UNL     1      -7.715  19.872  68.905  1.00  0.00     0.000 HD 
HETATM    3  C   UNL     1      -9.618  19.402  68.725  1.00  0.00    -0.432 C  
ENDROOT
BRANCH   3   4
HETATM    4  C   UNL     1     -10.529  18.755  67.673  1.00  0.00    -0.435 C  
HETATM    5  O   UNL     1     -10.703  17.353  67.958  1.00  0.00    -0.387 OA 
HETATM    6  C   UNL     1      -9.674  16.648  67.262  1.00  0.00    -0.245 C  
HETATM    7  H   UNL     1     -10.682  19.125  64.424  1.00  0.00     0.000 HD 
HETATM    8  O   UNL     1      -8.487  16.593  68.065  1.00  0.00    -0.184 OA 
HETATM    9  C   UNL     1      -9.398  17.437  65.969  1.00  0.00    -0.072 C  
HETATM   10  O   UNL     1      -7.988  17.483  65.706  1.00  0.00    -0.548 OA 
HETATM   11  C   UNL     1      -9.968  18.829  66.248  1.00  0.00    -0.385 C  
HETATM   12  H   UNL     1      -7.802  16.124  67.603  1.00  0.00     0.000 HD 
HETATM   13  H   UNL     1      -7.817  17.970  64.908  1.00  0.00     0.000 HD 
HETATM   14  O   UNL     1     -11.030  19.079  65.307  1.00  0.00    -0.511 OA 
BRANCH   6  15
HETATM   15  C   UNL     1     -10.097  15.200  66.983  1.00  0.00    -0.244 C  
HETATM   16  O   UNL     1      -9.419  14.694  65.828  1.00  0.00    -0.479 OA 
HETATM   17  H   UNL     1      -9.681  13.797  65.657  1.00  0.00     0.000 HD 
ENDBRANCH   6  15
ENDBRANCH   3   4
TORSDOF 2
ENDMDL
MODEL       50
REMARK 921   NORMALIZED FREE ENERGY PREDICTED BY IDOCK:   -4.06 KCAL/MOL
REMARK 922        TOTAL FREE ENERGY PREDICTED BY IDOCK:   -4.63 KCAL/MOL
REMARK 923 INTER-LIGAND FREE ENERGY PREDICTED BY IDOCK:   -4.26 KCAL/MOL
REMARK 924 INTRA-LIGAND FREE ENERGY PREDICTED BY IDOCK:   -0.37 KCAL/MOL
REMARK 927      BINDING AFFINITY PREDICTED BY RF-SCORE:    0.00 PKD
ROOT
HETATM    1  O   UNL     1     -10.408  19.027  69.105  1.00  0.00    -0.524 OA 
HETATM    2  H   UNL     1     -10.573  19.074  70.039  1.00  0.00     0.000 HD 
HETATM    3  C   UNL     1     -10.251  17.676  68.691  1.00  0.00    -0.377 C  
ENDROOT
BRANCH   3   4
HETATM    4  C   UNL     1      -9.985  17.601  67.181  1.00  0.00    -0.316 C  
HETATM    5  O   UNL     1      -8.585  17.368  66.932  1.00  0.00    -0.230 OA 
HETATM    6  C   UNL     1      -7.958  18.646  66.813  1.00  0.00    -0.255 C  
HETATM    7  H   UNL     1     -11.144  19.378  64.689  1.00  0.00     0.000 HD 
HETATM    8  O   UNL     1      -7.576  19.130  68.109  1.00  0.00    -0.267 OA 
HETATM    9  C   UNL     1      -8.999  19.590  66.185  1.00  0.00    -0.310 C  
HETATM   10  O   UNL     1      -8.949  20.877  66.816  1.00  0.00    -0.577 OA 
HETATM   11  C   UNL     1     -10.337  18.891  66.431  1.00  0.00    -0.443 C  
HETATM   12  H   UNL     1      -7.160  19.979  68.029  1.00  0.00     0.000 HD 
HETATM   13  H   UNL     1      -9.592  21.460  66.429  1.00  0.00     0.000 HD 
HETATM   14  O   UNL     1     -10.926  18.579  65.153  1.00  0.00    -0.571 OA 
BRANCH   6  15
HETATM   15  C   UNL     1      -6.677  18.550  65.974  1.00  0.00    -0.257 C  
HETATM   16  O   UNL     1      -6.926  18.972  64.630  1.00  0.00    -0.136 OA 
HETATM   17  H   UNL     1      -6.132  18.912  64.111  1.00  0.00     0.000 HD 
ENDBRANCH   6  15
ENDBRANCH   3   4
TORSDOF 2
ENDMDL
MODEL       51
REMARK 921   NORMALIZED FREE ENERGY PREDICTED BY IDOCK:   -4.05 KCAL/MOL
REMARK 922        TOTAL FREE ENERGY PREDICTED BY IDOCK:   -4.61 KCAL/MOL
REMARK 923 INTER-LIGAND FREE ENERGY PREDICTED BY IDOCK:   -4.13 KCAL/MOL
REMARK 924 INTRA-LIGAND FREE ENERGY PREDICTED BY IDOCK:   -0.49 KCAL/MOL
REMARK 927      BINDING AFFINITY PREDICTED BY RF-SCORE:    0.00 PKD
ROOT
HETATM    1  O   UNL     1     -10.897  16.470  69.284  1.00  0.00    -0.309 OA 
HETATM    2  H   UNL     1     -11.304  17.105  69.861  1.00  0.00     0.000 HD 
HETATM    3  C   UNL     1     -10.724  17.013  67.982  1.00  0.00    -0.365 C  
ENDROOT
BRANCH   3   4
HETATM    4  C   UNL     1     -10.066  15.986  67.050  1.00  0.00    -0.271 C  
HETATM    5  O   UNL     1     -11.061  15.360  66.216  1.00  0.00    -0.311 OA 
HETATM    6  C   UNL     1     -11.521  14.197  66.905  1.00  0.00    -0.357 C  
HETATM    7  H   UNL     1      -7.703  13.784  67.582  1.00  0.00     0.000 HD 
HETATM    8  O   UNL     1     -12.589  14.544  67.798  1.00  0.00    -0.499 OA 
HETATM    9  C   UNL     1     -10.321  13.656  67.704  1.00  0.00    -0.239 C  
HETATM   10  O   UNL     1     -10.745  13.217  69.002  1.00  0.00    -0.366 OA 
HETATM   11  C   UNL     1      -9.363  14.845  67.794  1.00  0.00    -0.194 C  
HETATM   12  H   UNL     1     -12.894  13.771  68.257  1.00  0.00     0.000 HD 
HETATM   13  H   UNL     1     -10.005  12.883  69.496  1.00  0.00     0.000 HD 
HETATM   14  O   UNL     1      -8.139  14.491  67.121  1.00  0.00    -0.202 OA 
BRANCH   6  15
HETATM   15  C   UNL     1     -12.079  13.163  65.919  1.00  0.00    -0.444 C  
HETATM   16  O   UNL     1     -12.109  11.864  66.519  1.00  0.00    -0.568 OA 
HETATM   17  H   UNL     1     -12.455  11.224  65.908  1.00  0.00     0.000 HD 
ENDBRANCH   6  15
ENDBRANCH   3   4
TORSDOF 2
ENDMDL
MODEL       52
REMARK 921   NORMALIZED FREE ENERGY PREDICTED BY IDOCK:   -4.02 KCAL/MOL
REMARK 922        TOTAL FREE ENERGY PREDICTED BY IDOCK:   -4.58 KCAL/MOL
REMARK 923 INTER-LIGAND FREE ENERGY PREDICTED BY IDOCK:   -4.39 KCAL/MOL
REMARK 924 INTRA-LIGAND FREE ENERGY PREDICTED BY IDOCK:   -0.20 KCAL/MOL
REMARK 927      BINDING AFFINITY PREDICTED BY RF-SCORE:    0.00 PKD
ROOT
HETATM    1  O   UNL     1     -12.144  14.547  68.426  1.00  0.00    -0.528 OA 
HETATM    2  H   UNL     1     -12.898  15.080  68.646  1.00  0.00     0.000 HD 
HETATM    3  C   UNL     1     -11.483  15.064  67.278  1.00  0.00    -0.304 C  
ENDROOT
BRANCH   3   4
HETATM    4  C   UNL     1     -10.264  14.204  66.921  1.00  0.00    -0.267 C  
HETATM    5  O   UNL     1     -10.362  13.739  65.561  1.00  0.00    -0.297 OA 
HETATM    6  C   UNL     1     -11.036  12.480  65.590  1.00  0.00    -0.288 C  
HETATM    7  H   UNL     1      -8.656  11.919  68.627  1.00  0.00     0.000 HD 
HETATM    8  O   UNL     1     -12.456  12.683  65.550  1.00  0.00    -0.622 OA 
HETATM    9  C   UNL     1     -10.639  11.800  66.913  1.00  0.00    -0.235 C  
HETATM   10  O   UNL     1     -11.775  11.151  67.500  1.00  0.00    -0.574 OA 
HETATM   11  C   UNL     1     -10.127  12.946  67.787  1.00  0.00    -0.229 C  
HETATM   12  H   UNL     1     -12.904  11.846  65.571  1.00  0.00     0.000 HD 
HETATM   13  H   UNL     1     -11.530  10.730  68.316  1.00  0.00     0.000 HD 
HETATM   14  O   UNL     1      -8.740  12.698  68.090  1.00  0.00    -0.180 OA 
BRANCH   6  15
HETATM   15  C   UNL     1     -10.668  11.635  64.365  1.00  0.00    -0.330 C  
HETATM   16  O   UNL     1      -9.427  12.077  63.806  1.00  0.00    -0.533 OA 
HETATM   17  H   UNL     1      -9.199  11.552  63.046  1.00  0.00     0.000 HD 
ENDBRANCH   6  15
ENDBRANCH   3   4
TORSDOF 2
ENDMDL
MODEL       53
REMARK 921   NORMALIZED FREE ENERGY PREDICTED BY IDOCK:   -4.00 KCAL/MOL
REMARK 922        TOTAL FREE ENERGY PREDICTED BY IDOCK:   -4.57 KCAL/MOL
REMARK 923 INTER-LIGAND FREE ENERGY PREDICTED BY IDOCK:   -4.14 KCAL/MOL
REMARK 924 INTRA-LIGAND FREE ENERGY PREDICTED BY IDOCK:   -0.42 KCAL/MOL
REMARK 927      BINDING AFFINITY PREDICTED BY RF-SCORE:    0.00 PKD
ROOT
HETATM    1  O   UNL     1      -9.821  20.365  67.845  1.00  0.00    -0.375 OA 
HETATM    2  H   UNL     1     -10.219  21.167  68.160  1.00  0.00     0.000 HD 
HETATM    3  C   UNL     1     -10.658  19.735  66.883  1.00  0.00    -0.466 C  
ENDROOT
BRANCH   3   4
HETATM    4  C   UNL     1     -10.016  18.438  66.374  1.00  0.00    -0.386 C  
HETATM    5  O   UNL     1     -10.649  17.295  66.983  1.00  0.00    -0.310 OA 
HETATM    6  C   UNL     1      -9.922  16.994  68.175  1.00  0.00    -0.287 C  
HETATM    7  H   UNL     1      -6.890  17.647  65.813  1.00  0.00     0.000 HD 
HETATM    8  O   UNL     1     -10.429  17.771  69.270  1.00  0.00    -0.426 OA 
HETATM    9  C   UNL     1      -8.454  17.366  67.901  1.00  0.00    -0.228 C  
HETATM   10  O   UNL     1      -7.877  17.999  69.052  1.00  0.00    -0.212 OA 
HETATM   11  C   UNL     1      -8.524  18.320  66.707  1.00  0.00    -0.260 C  
HETATM   12  H   UNL     1      -9.945  17.570  70.062  1.00  0.00     0.000 HD 
HETATM   13  H   UNL     1      -6.971  18.229  68.883  1.00  0.00     0.000 HD 
HETATM   14  O   UNL     1      -7.814  17.719  65.606  1.00  0.00    -0.538 OA 
BRANCH   6  15
HETATM   15  C   UNL     1     -10.088  15.517  68.557  1.00  0.00    -0.211 C  
HETATM   16  O   UNL     1      -9.515  15.266  69.845  1.00  0.00    -0.444 OA 
HETATM   17  H   UNL     1      -9.619  14.352  70.081  1.00  0.00     0.000 HD 
ENDBRANCH   6  15
ENDBRANCH   3   4
TORSDOF 2
ENDMDL
MODEL       54
REMARK 921   NORMALIZED FREE ENERGY PREDICTED BY IDOCK:   -4.00 KCAL/MOL
REMARK 922        TOTAL FREE ENERGY PREDICTED BY IDOCK:   -4.56 KCAL/MOL
REMARK 923 INTER-LIGAND FREE ENERGY PREDICTED BY IDOCK:   -4.25 KCAL/MOL
REMARK 924 INTRA-LIGAND FREE ENERGY PREDICTED BY IDOCK:   -0.31 KCAL/MOL
REMARK 927      BINDING AFFINITY PREDICTED BY RF-SCORE:    0.00 PKD
ROOT
HETATM    1  O   UNL     1     -10.923  14.706  67.224  1.00  0.00    -0.300 OA 
HETATM    2  H   UNL     1     -11.172  15.620  67.293  1.00  0.00     0.000 HD 
HETATM    3  C   UNL     1     -12.057  13.899  66.934  1.00  0.00    -0.430 C  
ENDROOT
BRANCH   3   4
HETATM    4  C   UNL     1     -11.656  12.422  66.822  1.00  0.00    -0.379 C  
HETATM    5  O   UNL     1     -12.131  11.687  67.967  1.00  0.00    -0.597 OA 
HETATM    6  C   UNL     1     -11.097  11.724  68.952  1.00  0.00    -0.243 C  
HETATM    7  H   UNL     1      -8.877  11.006  65.829  1.00  0.00     0.000 HD 
HETATM    8  O   UNL     1     -11.220  12.911  69.750  1.00  0.00    -0.481 OA 
HETATM    9  C   UNL     1      -9.761  11.740  68.188  1.00  0.00    -0.192 C  
HETATM   10  O   UNL     1      -8.840  12.645  68.813  1.00  0.00    -0.381 OA 
HETATM   11  C   UNL     1     -10.139  12.200  66.779  1.00  0.00    -0.200 C  
HETATM   12  H   UNL     1     -10.532  12.935  70.404  1.00  0.00     0.000 HD 
HETATM   13  H   UNL     1      -8.015  12.655  68.341  1.00  0.00     0.000 HD 
HETATM   14  O   UNL     1      -9.816  11.142  65.856  1.00  0.00    -0.213 OA 
BRANCH   6  15
HETATM   15  C   UNL     1     -11.209  10.528  69.907  1.00  0.00    -0.307 C  
HETATM   16  O   UNL     1     -12.577  10.131  70.052  1.00  0.00    -0.530 OA 
HETATM   17  H   UNL     1     -12.646   9.390  70.643  1.00  0.00     0.000 HD 
ENDBRANCH   6  15
ENDBRANCH   3   4
TORSDOF 2
ENDMDL
MODEL       55
REMARK 921   NORMALIZED FREE ENERGY PREDICTED BY IDOCK:   -4.00 KCAL/MOL
REMARK 922        TOTAL FREE ENERGY PREDICTED BY IDOCK:   -4.56 KCAL/MOL
REMARK 923 INTER-LIGAND FREE ENERGY PREDICTED BY IDOCK:   -4.28 KCAL/MOL
REMARK 924 INTRA-LIGAND FREE ENERGY PREDICTED BY IDOCK:   -0.28 KCAL/MOL
REMARK 927      BINDING AFFINITY PREDICTED BY RF-SCORE:    0.00 PKD
ROOT
HETATM    1  O   UNL     1      -8.986  13.804  68.677  1.00  0.00    -0.306 OA 
HETATM    2  H   UNL     1      -8.142  14.115  68.982  1.00  0.00     0.000 HD 
HETATM    3  C   UNL     1      -8.850  13.116  67.441  1.00  0.00    -0.204 C  
ENDROOT
BRANCH   3   4
HETATM    4  C   UNL     1     -10.214  12.615  66.948  1.00  0.00    -0.234 C  
HETATM    5  O   UNL     1     -10.630  13.360  65.787  1.00  0.00    -0.274 OA 
HETATM    6  C   UNL     1     -11.392  14.476  66.251  1.00  0.00    -0.352 C  
HETATM    7  H   UNL     1     -12.916  11.744  68.578  1.00  0.00     0.000 HD 
HETATM    8  O   UNL     1     -10.519  15.573  66.557  1.00  0.00    -0.287 OA 
HETATM    9  C   UNL     1     -12.121  14.012  67.525  1.00  0.00    -0.326 C  
HETATM   10  O   UNL     1     -12.100  15.049  68.516  1.00  0.00    -0.549 OA 
HETATM   11  C   UNL     1     -11.337  12.779  67.979  1.00  0.00    -0.292 C  
HETATM   12  H   UNL     1     -11.026  16.315  66.866  1.00  0.00     0.000 HD 
HETATM   13  H   UNL     1     -12.550  14.763  69.303  1.00  0.00     0.000 HD 
HETATM   14  O   UNL     1     -12.221  11.642  67.939  1.00  0.00    -0.560 OA 
BRANCH   6  15
HETATM   15  C   UNL     1     -12.362  14.963  65.168  1.00  0.00    -0.062 C  
HETATM   16  O   UNL     1     -11.667  15.735  64.183  1.00  0.00    -0.830 OA 
HETATM   17  H   UNL     1     -12.269  16.036  63.512  1.00  0.00     0.000 HD 
ENDBRANCH   6  15
ENDBRANCH   3   4
TORSDOF 2
ENDMDL
MODEL       56
REMARK 921   NORMALIZED FREE ENERGY PREDICTED BY IDOCK:   -4.00 KCAL/MOL
REMARK 922        TOTAL FREE ENERGY PREDICTED BY IDOCK:   -4.56 KCAL/MOL
REMARK 923 INTER-LIGAND FREE ENERGY PREDICTED BY IDOCK:   -4.25 KCAL/MOL
REMARK 924 INTRA-LIGAND FREE ENERGY PREDICTED BY IDOCK:   -0.31 KCAL/MOL
REMARK 927      BINDING AFFINITY PREDICTED BY RF-SCORE:    0.00 PKD
ROOT
HETATM    1  O   UNL     1      -8.705  14.492  67.248  1.00  0.00    -0.186 OA 
HETATM    2  H   UNL     1      -7.770  14.617  67.139  1.00  0.00     0.000 HD 
HETATM    3  C   UNL     1      -9.399  15.721  67.078  1.00  0.00    -0.220 C  
ENDROOT
BRANCH   3   4
HETATM    4  C   UNL     1     -10.910  15.519  67.254  1.00  0.00    -0.313 C  
HETATM    5  O   UNL     1     -11.335  16.023  68.536  1.00  0.00    -0.360 OA 
HETATM    6  C   UNL     1     -11.248  14.941  69.465  1.00  0.00    -0.277 C  
HETATM    7  H   UNL     1     -12.858  13.002  66.492  1.00  0.00     0.000 HD 
HETATM    8  O   UNL     1      -9.922  14.868  70.011  1.00  0.00    -0.465 OA 
HETATM    9  C   UNL     1     -11.564  13.657  68.678  1.00  0.00    -0.329 C  
HETATM   10  O   UNL     1     -10.688  12.596  69.084  1.00  0.00    -0.411 OA 
HETATM   11  C   UNL     1     -11.340  14.048  67.216  1.00  0.00    -0.330 C  
HETATM   12  H   UNL     1      -9.864  14.149  70.629  1.00  0.00     0.000 HD 
HETATM   13  H   UNL     1     -10.883  11.803  68.598  1.00  0.00     0.000 HD 
HETATM   14  O   UNL     1     -12.592  13.913  66.516  1.00  0.00    -0.384 OA 
BRANCH   6  15
HETATM   15  C   UNL     1     -12.207  15.155  70.643  1.00  0.00    -0.351 C  
HETATM   16  O   UNL     1     -12.017  16.454  71.214  1.00  0.00    -0.621 OA 
HETATM   17  H   UNL     1     -12.612  16.586  71.943  1.00  0.00     0.000 HD 
ENDBRANCH   6  15
ENDBRANCH   3   4
TORSDOF 2
ENDMDL
MODEL       57
REMARK 921   NORMALIZED FREE ENERGY PREDICTED BY IDOCK:   -3.94 KCAL/MOL
REMARK 922        TOTAL FREE ENERGY PREDICTED BY IDOCK:   -4.49 KCAL/MOL
REMARK 923 INTER-LIGAND FREE ENERGY PREDICTED BY IDOCK:   -4.00 KCAL/MOL
REMARK 924 INTRA-LIGAND FREE ENERGY PREDICTED BY IDOCK:   -0.48 KCAL/MOL
REMARK 927      BINDING AFFINITY PREDICTED BY RF-SCORE:    0.00 PKD
ROOT
HETATM    1  O   UNL     1     -11.496  14.364  71.213  1.00  0.00    -0.504 OA 
HETATM    2  H   UNL     1     -11.842  13.798  71.892  1.00  0.00     0.000 HD 
HETATM    3  C   UNL     1     -12.523  14.749  70.309  1.00  0.00    -0.340 C  
ENDROOT
BRANCH   3   4
HETATM    4  C   UNL     1     -11.964  15.663  69.211  1.00  0.00    -0.320 C  
HETATM    5  O   UNL     1     -11.906  14.958  67.956  1.00  0.00    -0.333 OA 
HETATM    6  C   UNL     1     -10.618  14.345  67.873  1.00  0.00    -0.240 C  
HETATM    7  H   UNL     1      -9.504  17.822  69.240  1.00  0.00     0.000 HD 
HETATM    8  O   UNL     1     -10.643  13.061  68.514  1.00  0.00    -0.249 OA 
HETATM    9  C   UNL     1      -9.638  15.280  68.606  1.00  0.00    -0.206 C  
HETATM   10  O   UNL     1      -8.709  14.515  69.386  1.00  0.00    -0.386 OA 
HETATM   11  C   UNL     1     -10.536  16.150  69.487  1.00  0.00    -0.306 C  
HETATM   12  H   UNL     1      -9.786  12.654  68.460  1.00  0.00     0.000 HD 
HETATM   13  H   UNL     1      -8.104  15.091  69.839  1.00  0.00     0.000 HD 
HETATM   14  O   UNL     1     -10.388  17.521  69.069  1.00  0.00    -0.356 OA 
BRANCH   6  15
HETATM   15  C   UNL     1     -10.218  14.110  66.411  1.00  0.00    -0.290 C  
HETATM   16  O   UNL     1      -8.824  14.374  66.225  1.00  0.00    -0.475 OA 
HETATM   17  H   UNL     1      -8.576  14.227  65.320  1.00  0.00     0.000 HD 
ENDBRANCH   6  15
ENDBRANCH   3   4
TORSDOF 2
ENDMDL
MODEL       58
REMARK 921   NORMALIZED FREE ENERGY PREDICTED BY IDOCK:   -3.92 KCAL/MOL
REMARK 922        TOTAL FREE ENERGY PREDICTED BY IDOCK:   -4.48 KCAL/MOL
REMARK 923 INTER-LIGAND FREE ENERGY PREDICTED BY IDOCK:   -4.19 KCAL/MOL
REMARK 924 INTRA-LIGAND FREE ENERGY PREDICTED BY IDOCK:   -0.29 KCAL/MOL
REMARK 927      BINDING AFFINITY PREDICTED BY RF-SCORE:    0.00 PKD
ROOT
HETATM    1  O   UNL     1     -12.211  11.666  68.788  1.00  0.00    -0.416 OA 
HETATM    2  H   UNL     1     -12.349  11.040  69.489  1.00  0.00     0.000 HD 
HETATM    3  C   UNL     1     -11.418  11.095  67.755  1.00  0.00    -0.272 C  
ENDROOT
BRANCH   3   4
HETATM    4  C   UNL     1     -11.195  12.106  66.623  1.00  0.00    -0.324 C  
HETATM    5  O   UNL     1      -9.916  12.753  66.776  1.00  0.00    -0.227 OA 
HETATM    6  C   UNL     1     -10.128  13.927  67.562  1.00  0.00    -0.244 C  
HETATM    7  H   UNL     1     -13.221  14.255  65.211  1.00  0.00     0.000 HD 
HETATM    8  O   UNL     1     -10.054  13.605  68.958  1.00  0.00    -0.421 OA 
HETATM    9  C   UNL     1     -11.536  14.441  67.214  1.00  0.00    -0.379 C  
HETATM   10  O   UNL     1     -12.209  14.892  68.399  1.00  0.00    -0.576 OA 
HETATM   11  C   UNL     1     -12.235  13.232  66.592  1.00  0.00    -0.298 C  
HETATM   12  H   UNL     1     -10.195  14.385  69.480  1.00  0.00     0.000 HD 
HETATM   13  H   UNL     1     -13.078  15.209  68.185  1.00  0.00     0.000 HD 
HETATM   14  O   UNL     1     -12.576  13.558  65.230  1.00  0.00    -0.477 OA 
BRANCH   6  15
HETATM   15  C   UNL     1      -9.040  14.973  67.285  1.00  0.00    -0.201 C  
HETATM   16  O   UNL     1      -7.815  14.334  66.910  1.00  0.00    -0.353 OA 
HETATM   17  H   UNL     1      -7.142  14.982  66.738  1.00  0.00     0.000 HD 
ENDBRANCH   6  15
ENDBRANCH   3   4
TORSDOF 2
ENDMDL
MODEL       59
REMARK 921   NORMALIZED FREE ENERGY PREDICTED BY IDOCK:   -3.90 KCAL/MOL
REMARK 922        TOTAL FREE ENERGY PREDICTED BY IDOCK:   -4.45 KCAL/MOL
REMARK 923 INTER-LIGAND FREE ENERGY PREDICTED BY IDOCK:   -4.32 KCAL/MOL
REMARK 924 INTRA-LIGAND FREE ENERGY PREDICTED BY IDOCK:   -0.13 KCAL/MOL
REMARK 927      BINDING AFFINITY PREDICTED BY RF-SCORE:    0.00 PKD
ROOT
HETATM    1  O   UNL     1      -7.139  21.360  67.350  1.00  0.00    -0.644 OA 
HETATM    2  H   UNL     1      -6.431  21.663  66.794  1.00  0.00     0.000 HD 
HETATM    3  C   UNL     1      -7.148  19.940  67.421  1.00  0.00    -0.235 C  
ENDROOT
BRANCH   3   4
HETATM    4  C   UNL     1      -8.293  19.451  68.319  1.00  0.00    -0.344 C  
HETATM    5  O   UNL     1      -8.409  18.016  68.241  1.00  0.00    -0.273 OA 
HETATM    6  C   UNL     1      -9.328  17.722  67.188  1.00  0.00    -0.264 C  
HETATM    7  H   UNL     1     -11.291  20.652  68.849  1.00  0.00     0.000 HD 
HETATM    8  O   UNL     1      -8.634  17.664  65.933  1.00  0.00    -0.526 OA 
HETATM    9  C   UNL     1     -10.356  18.867  67.169  1.00  0.00    -0.413 C  
HETATM   10  O   UNL     1     -10.667  19.234  65.817  1.00  0.00    -0.467 OA 
HETATM   11  C   UNL     1      -9.665  20.006  67.920  1.00  0.00    -0.390 C  
HETATM   12  H   UNL     1      -9.246  17.469  65.233  1.00  0.00     0.000 HD 
HETATM   13  H   UNL     1     -11.302  19.941  65.805  1.00  0.00     0.000 HD 
HETATM   14  O   UNL     1     -10.441  20.308  69.096  1.00  0.00    -0.211 OA 
BRANCH   6  15
HETATM   15  C   UNL     1      -9.983  16.352  67.402  1.00  0.00    -0.251 C  
HETATM   16  O   UNL     1     -10.845  16.382  68.545  1.00  0.00    -0.304 OA 
HETATM   17  H   UNL     1     -11.251  15.533  68.677  1.00  0.00     0.000 HD 
ENDBRANCH   6  15
ENDBRANCH   3   4
TORSDOF 2
ENDMDL
MODEL       60
REMARK 921   NORMALIZED FREE ENERGY PREDICTED BY IDOCK:   -3.90 KCAL/MOL
REMARK 922        TOTAL FREE ENERGY PREDICTED BY IDOCK:   -4.45 KCAL/MOL
REMARK 923 INTER-LIGAND FREE ENERGY PREDICTED BY IDOCK:   -4.18 KCAL/MOL
REMARK 924 INTRA-LIGAND FREE ENERGY PREDICTED BY IDOCK:   -0.26 KCAL/MOL
REMARK 927      BINDING AFFINITY PREDICTED BY RF-SCORE:    0.00 PKD
ROOT
HETATM    1  O   UNL     1     -13.213  14.953  70.399  1.00  0.00    -0.615 OA 
HETATM    2  H   UNL     1     -13.627  15.740  70.731  1.00  0.00     0.000 HD 
HETATM    3  C   UNL     1     -11.943  15.255  69.835  1.00  0.00    -0.343 C  
ENDROOT
BRANCH   3   4
HETATM    4  C   UNL     1     -11.273  13.982  69.298  1.00  0.00    -0.261 C  
HETATM    5  O   UNL     1     -10.069  14.317  68.581  1.00  0.00    -0.233 OA 
HETATM    6  C   UNL     1     -10.430  14.508  67.212  1.00  0.00    -0.266 C  
HETATM    7  H   UNL     1     -12.530  11.298  67.909  1.00  0.00     0.000 HD 
HETATM    8  O   UNL     1     -10.850  15.863  66.999  1.00  0.00    -0.316 OA 
HETATM    9  C   UNL     1     -11.596  13.544  66.926  1.00  0.00    -0.363 C  
HETATM   10  O   UNL     1     -12.582  14.186  66.106  1.00  0.00    -0.465 OA 
HETATM   11  C   UNL     1     -12.147  13.200  68.311  1.00  0.00    -0.179 C  
HETATM   12  H   UNL     1     -11.091  15.990  66.089  1.00  0.00     0.000 HD 
HETATM   13  H   UNL     1     -13.302  13.592  65.930  1.00  0.00     0.000 HD 
HETATM   14  O   UNL     1     -11.988  11.783  68.521  1.00  0.00    -0.406 OA 
BRANCH   6  15
HETATM   15  C   UNL     1      -9.228  14.261  66.291  1.00  0.00    -0.151 C  
HETATM   16  O   UNL     1      -9.663  13.737  65.032  1.00  0.00    -0.586 OA 
HETATM   17  H   UNL     1      -8.918  13.584  64.461  1.00  0.00     0.000 HD 
ENDBRANCH   6  15
ENDBRANCH   3   4
TORSDOF 2
ENDMDL
MODEL       61
REMARK 921   NORMALIZED FREE ENERGY PREDICTED BY IDOCK:   -3.89 KCAL/MOL
REMARK 922        TOTAL FREE ENERGY PREDICTED BY IDOCK:   -4.44 KCAL/MOL
REMARK 923 INTER-LIGAND FREE ENERGY PREDICTED BY IDOCK:   -4.14 KCAL/MOL
REMARK 924 INTRA-LIGAND FREE ENERGY PREDICTED BY IDOCK:   -0.30 KCAL/MOL
REMARK 927      BINDING AFFINITY PREDICTED BY RF-SCORE:    0.00 PKD
ROOT
HETATM    1  O   UNL     1      -7.785  17.828  65.465  1.00  0.00    -0.486 OA 
HETATM    2  H   UNL     1      -6.977  17.934  64.977  1.00  0.00     0.000 HD 
HETATM    3  C   UNL     1      -7.571  17.035  66.625  1.00  0.00    -0.263 C  
ENDROOT
BRANCH   3   4
HETATM    4  C   UNL     1      -8.876  16.864  67.413  1.00  0.00    -0.204 C  
HETATM    5  O   UNL     1      -9.289  15.483  67.402  1.00  0.00    -0.203 OA 
HETATM    6  C   UNL     1     -10.141  15.305  66.269  1.00  0.00    -0.281 C  
HETATM    7  H   UNL     1     -11.585  18.698  67.534  1.00  0.00     0.000 HD 
HETATM    8  O   UNL     1      -9.355  15.008  65.106  1.00  0.00    -0.232 OA 
HETATM    9  C   UNL     1     -10.893  16.633  66.071  1.00  0.00    -0.041 C  
HETATM   10  O   UNL     1     -10.983  16.951  64.675  1.00  0.00    -0.894 OA 
HETATM   11  C   UNL     1     -10.052  17.659  66.832  1.00  0.00    -0.331 C  
HETATM   12  H   UNL     1      -9.921  14.889  64.353  1.00  0.00     0.000 HD 
HETATM   13  H   UNL     1     -11.447  17.770  64.552  1.00  0.00     0.000 HD 
HETATM   14  O   UNL     1     -10.858  18.205  67.894  1.00  0.00    -0.363 OA 
BRANCH   6  15
HETATM   15  C   UNL     1     -11.092  14.121  66.483  1.00  0.00    -0.318 C  
HETATM   16  O   UNL     1     -12.105  14.459  67.436  1.00  0.00    -0.527 OA 
HETATM   17  H   UNL     1     -12.695  13.725  67.568  1.00  0.00     0.000 HD 
ENDBRANCH   6  15
ENDBRANCH   3   4
TORSDOF 2
ENDMDL
MODEL       62
REMARK 921   NORMALIZED FREE ENERGY PREDICTED BY IDOCK:   -3.88 KCAL/MOL
REMARK 922        TOTAL FREE ENERGY PREDICTED BY IDOCK:   -4.43 KCAL/MOL
REMARK 923 INTER-LIGAND FREE ENERGY PREDICTED BY IDOCK:   -4.12 KCAL/MOL
REMARK 924 INTRA-LIGAND FREE ENERGY PREDICTED BY IDOCK:   -0.31 KCAL/MOL
REMARK 927      BINDING AFFINITY PREDICTED BY RF-SCORE:    0.00 PKD
ROOT
HETATM    1  O   UNL     1     -12.297   7.554  72.824  1.00  0.00    -0.534 OA 
HETATM    2  H   UNL     1     -13.124   7.365  73.250  1.00  0.00     0.000 HD 
HETATM    3  C   UNL     1     -12.318   8.850  72.240  1.00  0.00    -0.360 C  
ENDROOT
BRANCH   3   4
HETATM    4  C   UNL     1     -10.981   9.155  71.551  1.00  0.00    -0.364 C  
HETATM    5  O   UNL     1     -11.112   9.018  70.123  1.00  0.00    -0.239 OA 
HETATM    6  C   UNL     1     -10.785   7.667  69.795  1.00  0.00    -0.240 C  
HETATM    7  H   UNL     1      -7.909   8.345  72.339  1.00  0.00     0.000 HD 
HETATM    8  O   UNL     1     -11.949   6.837  69.913  1.00  0.00    -0.651 OA 
HETATM    9  C   UNL     1      -9.714   7.216  70.806  1.00  0.00    -0.171 C  
HETATM   10  O   UNL     1      -9.964   5.868  71.228  1.00  0.00    -0.179 OA 
HETATM   11  C   UNL     1      -9.849   8.207  71.963  1.00  0.00    -0.232 C  
HETATM   12  H   UNL     1     -11.732   5.938  69.695  1.00  0.00     0.000 HD 
HETATM   13  H   UNL     1      -9.304   5.590  71.852  1.00  0.00     0.000 HD 
HETATM   14  O   UNL     1      -8.610   8.933  72.083  1.00  0.00    -0.381 OA 
BRANCH   6  15
HETATM   15  C   UNL     1     -10.300   7.559  68.344  1.00  0.00    -0.195 C  
HETATM   16  O   UNL     1     -11.336   7.032  67.508  1.00  0.00    -0.579 OA 
HETATM   17  H   UNL     1     -11.036   6.966  66.609  1.00  0.00     0.000 HD 
ENDBRANCH   6  15
ENDBRANCH   3   4
TORSDOF 2
ENDMDL
MODEL       63
REMARK 921   NORMALIZED FREE ENERGY PREDICTED BY IDOCK:   -3.88 KCAL/MOL
REMARK 922        TOTAL FREE ENERGY PREDICTED BY IDOCK:   -4.42 KCAL/MOL
REMARK 923 INTER-LIGAND FREE ENERGY PREDICTED BY IDOCK:   -3.96 KCAL/MOL
REMARK 924 INTRA-LIGAND FREE ENERGY PREDICTED BY IDOCK:   -0.46 KCAL/MOL
REMARK 927      BINDING AFFINITY PREDICTED BY RF-SCORE:    0.00 PKD
ROOT
HETATM    1  O   UNL     1     -10.438  15.364  68.162  1.00  0.00    -0.239 OA 
HETATM    2  H   UNL     1     -11.112  14.852  68.594  1.00  0.00     0.000 HD 
HETATM    3  C   UNL     1      -9.644  16.056  69.118  1.00  0.00    -0.257 C  
ENDROOT
BRANCH   3   4
HETATM    4  C   UNL     1      -8.556  16.882  68.420  1.00  0.00    -0.240 C  
HETATM    5  O   UNL     1      -8.820  18.290  68.579  1.00  0.00    -0.305 OA 
HETATM    6  C   UNL     1      -9.615  18.700  67.465  1.00  0.00    -0.294 C  
HETATM    7  H   UNL     1      -7.048  16.484  65.542  1.00  0.00     0.000 HD 
HETATM    8  O   UNL     1     -11.005  18.479  67.746  1.00  0.00    -0.329 OA 
HETATM    9  C   UNL     1      -9.175  17.837  66.269  1.00  0.00    -0.182 C  
HETATM   10  O   UNL     1     -10.317  17.436  65.499  1.00  0.00    -0.621 OA 
HETATM   11  C   UNL     1      -8.474  16.637  66.909  1.00  0.00    -0.215 C  
HETATM   12  H   UNL     1     -11.533  18.751  67.005  1.00  0.00     0.000 HD 
HETATM   13  H   UNL     1     -10.046  16.903  64.760  1.00  0.00     0.000 HD 
HETATM   14  O   UNL     1      -7.099  16.636  66.479  1.00  0.00    -0.233 OA 
BRANCH   6  15
HETATM   15  C   UNL     1      -9.445  20.201  67.196  1.00  0.00    -0.406 C  
HETATM   16  O   UNL     1      -9.559  20.475  65.796  1.00  0.00    -0.642 OA 
HETATM   17  H   UNL     1      -9.454  21.404  65.630  1.00  0.00     0.000 HD 
ENDBRANCH   6  15
ENDBRANCH   3   4
TORSDOF 2
ENDMDL
MODEL       64
REMARK 921   NORMALIZED FREE ENERGY PREDICTED BY IDOCK:   -3.86 KCAL/MOL
REMARK 922        TOTAL FREE ENERGY PREDICTED BY IDOCK:   -4.40 KCAL/MOL
REMARK 923 INTER-LIGAND FREE ENERGY PREDICTED BY IDOCK:   -4.18 KCAL/MOL
REMARK 924 INTRA-LIGAND FREE ENERGY PREDICTED BY IDOCK:   -0.22 KCAL/MOL
REMARK 927      BINDING AFFINITY PREDICTED BY RF-SCORE:    0.00 PKD
ROOT
HETATM    1  O   UNL     1     -10.435  19.998  69.422  1.00  0.00    -0.614 OA 
HETATM    2  H   UNL     1     -10.437  20.898  69.724  1.00  0.00     0.000 HD 
HETATM    3  C   UNL     1     -10.524  19.944  68.004  1.00  0.00    -0.350 C  
ENDROOT
BRANCH   3   4
HETATM    4  C   UNL     1     -10.521  18.489  67.516  1.00  0.00    -0.418 C  
HETATM    5  O   UNL     1      -9.713  17.673  68.386  1.00  0.00    -0.290 OA 
HETATM    6  C   UNL     1      -8.385  17.680  67.860  1.00  0.00    -0.235 C  
HETATM    7  H   UNL     1     -10.319  17.218  64.507  1.00  0.00     0.000 HD 
HETATM    8  O   UNL     1      -7.662  18.812  68.365  1.00  0.00    -0.293 OA 
HETATM    9  C   UNL     1      -8.518  17.781  66.330  1.00  0.00    -0.239 C  
HETATM   10  O   UNL     1      -7.526  18.673  65.802  1.00  0.00    -0.459 OA 
HETATM   11  C   UNL     1      -9.934  18.315  66.110  1.00  0.00    -0.308 C  
HETATM   12  H   UNL     1      -6.779  18.816  68.016  1.00  0.00     0.000 HD 
HETATM   13  H   UNL     1      -7.608  18.736  64.857  1.00  0.00     0.000 HD 
HETATM   14  O   UNL     1     -10.682  17.325  65.378  1.00  0.00    -0.583 OA 
BRANCH   6  15
HETATM   15  C   UNL     1      -7.617  16.425  68.298  1.00  0.00    -0.163 C  
HETATM   16  O   UNL     1      -6.717  16.736  69.366  1.00  0.00    -0.229 OA 
HETATM   17  H   UNL     1      -6.242  15.959  69.637  1.00  0.00     0.000 HD 
ENDBRANCH   6  15
ENDBRANCH   3   4
TORSDOF 2
ENDMDL
MODEL       65
REMARK 921   NORMALIZED FREE ENERGY PREDICTED BY IDOCK:   -3.85 KCAL/MOL
REMARK 922        TOTAL FREE ENERGY PREDICTED BY IDOCK:   -4.39 KCAL/MOL
REMARK 923 INTER-LIGAND FREE ENERGY PREDICTED BY IDOCK:   -4.04 KCAL/MOL
REMARK 924 INTRA-LIGAND FREE ENERGY PREDICTED BY IDOCK:   -0.35 KCAL/MOL
REMARK 927      BINDING AFFINITY PREDICTED BY RF-SCORE:    0.00 PKD
ROOT
HETATM    1  O   UNL     1     -13.513   9.855  70.681  1.00  0.00    -0.613 OA 
HETATM    2  H   UNL     1     -14.087  10.461  70.229  1.00  0.00     0.000 HD 
HETATM    3  C   UNL     1     -12.217  10.417  70.841  1.00  0.00    -0.383 C  
ENDROOT
BRANCH   3   4
HETATM    4  C   UNL     1     -11.288   9.438  71.572  1.00  0.00    -0.394 C  
HETATM    5  O   UNL     1     -10.054   9.284  70.844  1.00  0.00    -0.258 OA 
HETATM    6  C   UNL     1     -10.227   8.190  69.942  1.00  0.00    -0.204 C  
HETATM    7  H   UNL     1     -11.897   6.601  73.086  1.00  0.00     0.000 HD 
HETATM    8  O   UNL     1     -10.812   8.653  68.716  1.00  0.00    -0.414 OA 
HETATM    9  C   UNL     1     -11.176   7.195  70.635  1.00  0.00    -0.280 C  
HETATM   10  O   UNL     1     -12.113   6.660  69.689  1.00  0.00    -0.615 OA 
HETATM   11  C   UNL     1     -11.873   8.028  71.712  1.00  0.00    -0.296 C  
HETATM   12  H   UNL     1     -10.927   7.925  68.116  1.00  0.00     0.000 HD 
HETATM   13  H   UNL     1     -12.699   6.046  70.116  1.00  0.00     0.000 HD 
HETATM   14  O   UNL     1     -11.535   7.475  73.000  1.00  0.00    -0.312 OA 
BRANCH   6  15
HETATM   15  C   UNL     1      -8.877   7.557  69.586  1.00  0.00    -0.141 C  
HETATM   16  O   UNL     1      -8.961   6.130  69.646  1.00  0.00    -0.132 OA 
HETATM   17  H   UNL     1      -8.124   5.738  69.425  1.00  0.00     0.000 HD 
ENDBRANCH   6  15
ENDBRANCH   3   4
TORSDOF 2
ENDMDL
MODEL       66
REMARK 921   NORMALIZED FREE ENERGY PREDICTED BY IDOCK:   -3.82 KCAL/MOL
REMARK 922        TOTAL FREE ENERGY PREDICTED BY IDOCK:   -4.36 KCAL/MOL
REMARK 923 INTER-LIGAND FREE ENERGY PREDICTED BY IDOCK:   -4.26 KCAL/MOL
REMARK 924 INTRA-LIGAND FREE ENERGY PREDICTED BY IDOCK:   -0.10 KCAL/MOL
REMARK 927      BINDING AFFINITY PREDICTED BY RF-SCORE:    0.00 PKD
ROOT
HETATM    1  O   UNL     1     -12.388  10.757  68.665  1.00  0.00    -0.825 OA 
HETATM    2  H   UNL     1     -12.948  10.122  68.235  1.00  0.00     0.000 HD 
HETATM    3  C   UNL     1     -11.401  11.246  67.766  1.00  0.00    -0.285 C  
ENDROOT
BRANCH   3   4
HETATM    4  C   UNL     1     -10.496  12.272  68.461  1.00  0.00    -0.232 C  
HETATM    5  O   UNL     1     -11.292  13.315  69.058  1.00  0.00    -0.256 OA 
HETATM    6  C   UNL     1     -11.436  14.348  68.082  1.00  0.00    -0.310 C  
HETATM    7  H   UNL     1      -7.645  13.604  67.560  1.00  0.00     0.000 HD 
HETATM    8  O   UNL     1     -12.561  14.070  67.235  1.00  0.00    -0.483 OA 
HETATM    9  C   UNL     1     -10.141  14.353  67.251  1.00  0.00    -0.251 C  
HETATM   10  O   UNL     1     -10.441  14.548  65.862  1.00  0.00    -0.288 OA 
HETATM   11  C   UNL     1      -9.524  12.977  67.509  1.00  0.00    -0.198 C  
HETATM   12  H   UNL     1     -12.657  14.757  66.586  1.00  0.00     0.000 HD 
HETATM   13  H   UNL     1      -9.642  14.551  65.348  1.00  0.00     0.000 HD 
HETATM   14  O   UNL     1      -8.248  13.168  68.150  1.00  0.00    -0.145 OA 
BRANCH   6  15
HETATM   15  C   UNL     1     -11.704  15.701  68.754  1.00  0.00    -0.370 C  
HETATM   16  O   UNL     1     -12.731  15.574  69.742  1.00  0.00    -0.616 OA 
HETATM   17  H   UNL     1     -12.897  16.412  70.159  1.00  0.00     0.000 HD 
ENDBRANCH   6  15
ENDBRANCH   3   4
TORSDOF 2
ENDMDL
MODEL       67
REMARK 921   NORMALIZED FREE ENERGY PREDICTED BY IDOCK:   -3.82 KCAL/MOL
REMARK 922        TOTAL FREE ENERGY PREDICTED BY IDOCK:   -4.36 KCAL/MOL
REMARK 923 INTER-LIGAND FREE ENERGY PREDICTED BY IDOCK:   -4.09 KCAL/MOL
REMARK 924 INTRA-LIGAND FREE ENERGY PREDICTED BY IDOCK:   -0.27 KCAL/MOL
REMARK 927      BINDING AFFINITY PREDICTED BY RF-SCORE:    0.00 PKD
ROOT
HETATM    1  O   UNL     1     -11.847  12.587  70.367  1.00  0.00    -0.516 OA 
HETATM    2  H   UNL     1     -12.682  12.574  70.819  1.00  0.00     0.000 HD 
HETATM    3  C   UNL     1     -11.796  13.664  69.439  1.00  0.00    -0.339 C  
ENDROOT
BRANCH   3   4
HETATM    4  C   UNL     1     -10.447  13.685  68.708  1.00  0.00    -0.202 C  
HETATM    5  O   UNL     1     -10.497  14.601  67.596  1.00  0.00    -0.241 OA 
HETATM    6  C   UNL     1     -10.919  13.856  66.453  1.00  0.00    -0.303 C  
HETATM    7  H   UNL     1      -8.384  11.274  67.905  1.00  0.00     0.000 HD 
HETATM    8  O   UNL     1     -12.353  13.816  66.394  1.00  0.00    -0.439 OA 
HETATM    9  C   UNL     1     -10.360  12.432  66.624  1.00  0.00    -0.226 C  
HETATM   10  O   UNL     1     -11.335  11.461  66.216  1.00  0.00    -0.265 OA 
HETATM   11  C   UNL     1     -10.048  12.327  68.118  1.00  0.00    -0.211 C  
HETATM   12  H   UNL     1     -12.633  13.320  65.634  1.00  0.00     0.000 HD 
HETATM   13  H   UNL     1     -10.990  10.582  66.322  1.00  0.00     0.000 HD 
HETATM   14  O   UNL     1      -8.631  12.115  68.270  1.00  0.00    -0.173 OA 
BRANCH   6  15
HETATM   15  C   UNL     1     -10.435  14.521  65.158  1.00  0.00    -0.416 C  
HETATM   16  O   UNL     1     -10.136  13.532  64.168  1.00  0.00    -0.760 OA 
HETATM   17  H   UNL     1      -9.837  13.945  63.366  1.00  0.00     0.000 HD 
ENDBRANCH   6  15
ENDBRANCH   3   4
TORSDOF 2
ENDMDL
MODEL       68
REMARK 921   NORMALIZED FREE ENERGY PREDICTED BY IDOCK:   -3.81 KCAL/MOL
REMARK 922        TOTAL FREE ENERGY PREDICTED BY IDOCK:   -4.35 KCAL/MOL
REMARK 923 INTER-LIGAND FREE ENERGY PREDICTED BY IDOCK:   -4.23 KCAL/MOL
REMARK 924 INTRA-LIGAND FREE ENERGY PREDICTED BY IDOCK:   -0.13 KCAL/MOL
REMARK 927      BINDING AFFINITY PREDICTED BY RF-SCORE:    0.00 PKD
ROOT
HETATM    1  O   UNL     1     -13.063  12.827  64.765  1.00  0.00    -0.813 OA 
HETATM    2  H   UNL     1     -13.260  11.993  64.356  1.00  0.00     0.000 HD 
HETATM    3  C   UNL     1     -12.066  12.671  65.767  1.00  0.00    -0.423 C  
ENDROOT
BRANCH   3   4
HETATM    4  C   UNL     1     -11.747  14.018  66.427  1.00  0.00    -0.391 C  
HETATM    5  O   UNL     1     -10.507  14.545  65.914  1.00  0.00    -0.288 OA 
HETATM    6  C   UNL     1      -9.462  14.067  66.763  1.00  0.00    -0.282 C  
HETATM    7  H   UNL     1     -12.037  15.030  69.527  1.00  0.00     0.000 HD 
HETATM    8  O   UNL     1      -9.018  12.777  66.317  1.00  0.00    -0.424 OA 
HETATM    9  C   UNL     1     -10.058  13.959  68.178  1.00  0.00    -0.250 C  
HETATM   10  O   UNL     1      -9.595  12.764  68.823  1.00  0.00    -0.403 OA 
HETATM   11  C   UNL     1     -11.570  13.929  67.948  1.00  0.00    -0.342 C  
HETATM   12  H   UNL     1      -8.323  12.459  66.881  1.00  0.00     0.000 HD 
HETATM   13  H   UNL     1      -9.963  12.696  69.696  1.00  0.00     0.000 HD 
HETATM   14  O   UNL     1     -12.146  15.086  68.585  1.00  0.00    -0.265 OA 
BRANCH   6  15
HETATM   15  C   UNL     1      -8.247  15.002  66.711  1.00  0.00    -0.089 C  
HETATM   16  O   UNL     1      -7.103  14.369  67.293  1.00  0.00    -0.256 OA 
HETATM   17  H   UNL     1      -6.350  14.949  67.261  1.00  0.00     0.000 HD 
ENDBRANCH   6  15
ENDBRANCH   3   4
TORSDOF 2
ENDMDL
MODEL       69
REMARK 921   NORMALIZED FREE ENERGY PREDICTED BY IDOCK:   -3.81 KCAL/MOL
REMARK 922        TOTAL FREE ENERGY PREDICTED BY IDOCK:   -4.35 KCAL/MOL
REMARK 923 INTER-LIGAND FREE ENERGY PREDICTED BY IDOCK:   -4.29 KCAL/MOL
REMARK 924 INTRA-LIGAND FREE ENERGY PREDICTED BY IDOCK:   -0.06 KCAL/MOL
REMARK 927      BINDING AFFINITY PREDICTED BY RF-SCORE:    0.00 PKD
ROOT
HETATM    1  O   UNL     1     -12.342  16.505  71.857  1.00  0.00    -0.535 OA 
HETATM    2  H   UNL     1     -12.404  16.276  72.776  1.00  0.00     0.000 HD 
HETATM    3  C   UNL     1     -11.495  15.595  71.169  1.00  0.00    -0.411 C  
ENDROOT
BRANCH   3   4
HETATM    4  C   UNL     1     -11.394  15.966  69.683  1.00  0.00    -0.342 C  
HETATM    5  O   UNL     1     -12.150  15.035  68.884  1.00  0.00    -0.271 OA 
HETATM    6  C   UNL     1     -11.263  13.979  68.511  1.00  0.00    -0.265 C  
HETATM    7  H   UNL     1      -8.864  16.986  67.875  1.00  0.00     0.000 HD 
HETATM    8  O   UNL     1     -11.238  12.974  69.535  1.00  0.00    -0.421 OA 
HETATM    9  C   UNL     1      -9.867  14.610  68.360  1.00  0.00    -0.220 C  
HETATM   10  O   UNL     1      -8.865  13.742  68.909  1.00  0.00    -0.374 OA 
HETATM   11  C   UNL     1      -9.963  15.925  69.136  1.00  0.00    -0.245 C  
HETATM   12  H   UNL     1     -10.648  12.272  69.288  1.00  0.00     0.000 HD 
HETATM   13  H   UNL     1      -8.004  14.131  68.816  1.00  0.00     0.000 HD 
HETATM   14  O   UNL     1      -9.751  17.011  68.213  1.00  0.00    -0.256 OA 
BRANCH   6  15
HETATM   15  C   UNL     1     -11.737  13.296  67.223  1.00  0.00    -0.377 C  
HETATM   16  O   UNL     1     -11.787  11.876  67.398  1.00  0.00    -0.571 OA 
HETATM   17  H   UNL     1     -12.081  11.453  66.599  1.00  0.00     0.000 HD 
ENDBRANCH   6  15
ENDBRANCH   3   4
TORSDOF 2
ENDMDL
MODEL       70
REMARK 921   NORMALIZED FREE ENERGY PREDICTED BY IDOCK:   -3.79 KCAL/MOL
REMARK 922        TOTAL FREE ENERGY PREDICTED BY IDOCK:   -4.33 KCAL/MOL
REMARK 923 INTER-LIGAND FREE ENERGY PREDICTED BY IDOCK:   -3.99 KCAL/MOL
REMARK 924 INTRA-LIGAND FREE ENERGY PREDICTED BY IDOCK:   -0.34 KCAL/MOL
REMARK 927      BINDING AFFINITY PREDICTED BY RF-SCORE:    0.00 PKD
ROOT
HETATM    1  O   UNL     1     -12.318  10.897  68.406  1.00  0.00    -0.803 OA 
HETATM    2  H   UNL     1     -12.903  10.179  68.197  1.00  0.00     0.000 HD 
HETATM    3  C   UNL     1     -11.147  10.840  67.601  1.00  0.00    -0.319 C  
ENDROOT
BRANCH   3   4
HETATM    4  C   UNL     1     -10.201  12.000  67.940  1.00  0.00    -0.196 C  
HETATM    5  O   UNL     1     -10.952  13.210  68.157  1.00  0.00    -0.234 OA 
HETATM    6  C   UNL     1     -11.054  13.877  66.898  1.00  0.00    -0.301 C  
HETATM    7  H   UNL     1      -7.297  12.856  66.695  1.00  0.00     0.000 HD 
HETATM    8  O   UNL     1     -12.190  13.385  66.171  1.00  0.00    -0.416 OA 
HETATM    9  C   UNL     1      -9.760  13.562  66.127  1.00  0.00    -0.252 C  
HETATM   10  O   UNL     1     -10.052  13.310  64.745  1.00  0.00    -0.520 OA 
HETATM   11  C   UNL     1      -9.200  12.320  66.823  1.00  0.00    -0.210 C  
HETATM   12  H   UNL     1     -12.257  13.828  65.334  1.00  0.00     0.000 HD 
HETATM   13  H   UNL     1      -9.253  13.115  64.269  1.00  0.00     0.000 HD 
HETATM   14  O   UNL     1      -7.917  12.658  67.386  1.00  0.00    -0.160 OA 
BRANCH   6  15
HETATM   15  C   UNL     1     -11.265  15.384  67.094  1.00  0.00    -0.256 C  
HETATM   16  O   UNL     1     -10.659  16.117  66.025  1.00  0.00    -0.319 OA 
HETATM   17  H   UNL     1     -10.790  17.051  66.146  1.00  0.00     0.000 HD 
ENDBRANCH   6  15
ENDBRANCH   3   4
TORSDOF 2
ENDMDL
MODEL       71
REMARK 921   NORMALIZED FREE ENERGY PREDICTED BY IDOCK:   -3.78 KCAL/MOL
REMARK 922        TOTAL FREE ENERGY PREDICTED BY IDOCK:   -4.32 KCAL/MOL
REMARK 923 INTER-LIGAND FREE ENERGY PREDICTED BY IDOCK:   -4.21 KCAL/MOL
REMARK 924 INTRA-LIGAND FREE ENERGY PREDICTED BY IDOCK:   -0.11 KCAL/MOL
REMARK 927      BINDING AFFINITY PREDICTED BY RF-SCORE:    0.00 PKD
ROOT
HETATM    1  O   UNL     1      -8.855  12.077  65.876  1.00  0.00    -0.403 OA 
HETATM    2  H   UNL     1      -8.887  11.998  64.931  1.00  0.00     0.000 HD 
HETATM    3  C   UNL     1      -9.311  13.359  66.289  1.00  0.00    -0.121 C  
ENDROOT
BRANCH   3   4
HETATM    4  C   UNL     1      -9.258  13.486  67.817  1.00  0.00    -0.213 C  
HETATM    5  O   UNL     1      -9.792  12.299  68.436  1.00  0.00    -0.213 OA 
HETATM    6  C   UNL     1     -11.190  12.514  68.630  1.00  0.00    -0.278 C  
HETATM    7  H   UNL     1      -9.912  16.006  69.801  1.00  0.00     0.000 HD 
HETATM    8  O   UNL     1     -11.914  12.140  67.448  1.00  0.00    -0.563 OA 
HETATM    9  C   UNL     1     -11.370  14.019  68.902  1.00  0.00    -0.280 C  
HETATM   10  O   UNL     1     -12.533  14.512  68.223  1.00  0.00    -0.592 OA 
HETATM   11  C   UNL     1     -10.087  14.655  68.364  1.00  0.00    -0.237 C  
HETATM   12  H   UNL     1     -12.844  12.284  67.577  1.00  0.00     0.000 HD 
HETATM   13  H   UNL     1     -12.645  15.441  68.391  1.00  0.00     0.000 HD 
HETATM   14  O   UNL     1      -9.399  15.283  69.463  1.00  0.00    -0.240 OA 
BRANCH   6  15
HETATM   15  C   UNL     1     -11.723  11.646  69.776  1.00  0.00    -0.352 C  
HETATM   16  O   UNL     1     -12.619  10.649  69.275  1.00  0.00    -0.715 OA 
HETATM   17  H   UNL     1     -12.948  10.111  69.985  1.00  0.00     0.000 HD 
ENDBRANCH   6  15
ENDBRANCH   3   4
TORSDOF 2
ENDMDL
MODEL       72
REMARK 921   NORMALIZED FREE ENERGY PREDICTED BY IDOCK:   -3.77 KCAL/MOL
REMARK 922        TOTAL FREE ENERGY PREDICTED BY IDOCK:   -4.30 KCAL/MOL
REMARK 923 INTER-LIGAND FREE ENERGY PREDICTED BY IDOCK:   -4.04 KCAL/MOL
REMARK 924 INTRA-LIGAND FREE ENERGY PREDICTED BY IDOCK:   -0.27 KCAL/MOL
REMARK 927      BINDING AFFINITY PREDICTED BY RF-SCORE:    0.00 PKD
ROOT
HETATM    1  O   UNL     1      -9.022  17.606  68.235  1.00  0.00    -0.261 OA 
HETATM    2  H   UNL     1      -8.436  18.213  68.671  1.00  0.00     0.000 HD 
HETATM    3  C   UNL     1     -10.284  17.570  68.889  1.00  0.00    -0.353 C  
ENDROOT
BRANCH   3   4
HETATM    4  C   UNL     1     -11.231  16.590  68.185  1.00  0.00    -0.241 C  
HETATM    5  O   UNL     1     -12.076  15.933  69.149  1.00  0.00    -0.339 OA 
HETATM    6  C   UNL     1     -11.406  14.738  69.555  1.00  0.00    -0.283 C  
HETATM    7  H   UNL     1     -10.732  14.491  65.723  1.00  0.00     0.000 HD 
HETATM    8  O   UNL     1     -10.509  15.022  70.638  1.00  0.00    -0.520 OA 
HETATM    9  C   UNL     1     -10.614  14.241  68.332  1.00  0.00    -0.253 C  
HETATM   10  O   UNL     1      -9.324  13.761  68.736  1.00  0.00    -0.369 OA 
HETATM   11  C   UNL     1     -10.504  15.471  67.429  1.00  0.00    -0.281 C  
HETATM   12  H   UNL     1     -10.063  14.228  70.908  1.00  0.00     0.000 HD 
HETATM   13  H   UNL     1      -8.835  13.454  67.982  1.00  0.00     0.000 HD 
HETATM   14  O   UNL     1     -11.182  15.184  66.191  1.00  0.00    -0.336 OA 
BRANCH   6  15
HETATM   15  C   UNL     1     -12.410  13.696  70.064  1.00  0.00    -0.278 C  
HETATM   16  O   UNL     1     -11.724  12.546  70.569  1.00  0.00    -0.525 OA 
HETATM   17  H   UNL     1     -12.346  11.900  70.885  1.00  0.00     0.000 HD 
ENDBRANCH   6  15
ENDBRANCH   3   4
TORSDOF 2
ENDMDL
MODEL       73
REMARK 921   NORMALIZED FREE ENERGY PREDICTED BY IDOCK:   -3.76 KCAL/MOL
REMARK 922        TOTAL FREE ENERGY PREDICTED BY IDOCK:   -4.29 KCAL/MOL
REMARK 923 INTER-LIGAND FREE ENERGY PREDICTED BY IDOCK:   -4.01 KCAL/MOL
REMARK 924 INTRA-LIGAND FREE ENERGY PREDICTED BY IDOCK:   -0.28 KCAL/MOL
REMARK 927      BINDING AFFINITY PREDICTED BY RF-SCORE:    0.00 PKD
ROOT
HETATM    1  O   UNL     1     -12.485  15.484  69.422  1.00  0.00    -0.598 OA 
HETATM    2  H   UNL     1     -12.649  15.968  70.222  1.00  0.00     0.000 HD 
HETATM    3  C   UNL     1     -12.165  14.129  69.713  1.00  0.00    -0.344 C  
ENDROOT
BRANCH   3   4
HETATM    4  C   UNL     1     -11.900  13.346  68.421  1.00  0.00    -0.366 C  
HETATM    5  O   UNL     1     -10.634  12.663  68.502  1.00  0.00    -0.236 OA 
HETATM    6  C   UNL     1      -9.642  13.547  67.975  1.00  0.00    -0.221 C  
HETATM    7  H   UNL     1     -12.401  14.121  65.280  1.00  0.00     0.000 HD 
HETATM    8  O   UNL     1      -9.161  14.417  69.010  1.00  0.00    -0.356 OA 
HETATM    9  C   UNL     1     -10.329  14.371  66.872  1.00  0.00    -0.265 C  
HETATM   10  O   UNL     1      -9.901  15.739  66.932  1.00  0.00    -0.228 OA 
HETATM   11  C   UNL     1     -11.823  14.231  67.172  1.00  0.00    -0.425 C  
HETATM   12  H   UNL     1      -8.502  15.005  68.660  1.00  0.00     0.000 HD 
HETATM   13  H   UNL     1     -10.325  16.248  66.251  1.00  0.00     0.000 HD 
HETATM   14  O   UNL     1     -12.449  13.572  66.054  1.00  0.00    -0.432 OA 
BRANCH   6  15
HETATM   15  C   UNL     1      -8.434  12.761  67.451  1.00  0.00    -0.191 C  
HETATM   16  O   UNL     1      -7.360  13.651  67.130  1.00  0.00    -0.350 OA 
HETATM   17  H   UNL     1      -6.611  13.164  66.805  1.00  0.00     0.000 HD 
ENDBRANCH   6  15
ENDBRANCH   3   4
TORSDOF 2
ENDMDL
MODEL       74
REMARK 921   NORMALIZED FREE ENERGY PREDICTED BY IDOCK:   -3.75 KCAL/MOL
REMARK 922        TOTAL FREE ENERGY PREDICTED BY IDOCK:   -4.29 KCAL/MOL
REMARK 923 INTER-LIGAND FREE ENERGY PREDICTED BY IDOCK:   -4.16 KCAL/MOL
REMARK 924 INTRA-LIGAND FREE ENERGY PREDICTED BY IDOCK:   -0.13 KCAL/MOL
REMARK 927      BINDING AFFINITY PREDICTED BY RF-SCORE:    0.00 PKD
ROOT
HETATM    1  O   UNL     1      -7.589  17.730  65.603  1.00  0.00    -0.541 OA 
HETATM    2  H   UNL     1      -7.519  17.401  64.715  1.00  0.00     0.000 HD 
HETATM    3  C   UNL     1      -7.710  16.657  66.528  1.00  0.00    -0.302 C  
ENDROOT
BRANCH   3   4
HETATM    4  C   UNL     1      -7.824  17.189  67.962  1.00  0.00    -0.195 C  
HETATM    5  O   UNL     1      -8.624  16.296  68.763  1.00  0.00    -0.215 OA 
HETATM    6  C   UNL     1      -9.979  16.740  68.666  1.00  0.00    -0.276 C  
HETATM    7  H   UNL     1      -8.277  20.218  69.117  1.00  0.00     0.000 HD 
HETATM    8  O   UNL     1     -10.605  16.156  67.514  1.00  0.00    -0.304 OA 
HETATM    9  C   UNL     1      -9.931  18.271  68.519  1.00  0.00    -0.393 C  
HETATM   10  O   UNL     1     -10.900  18.710  67.557  1.00  0.00    -0.435 OA 
HETATM   11  C   UNL     1      -8.502  18.561  68.056  1.00  0.00    -0.283 C  
HETATM   12  H   UNL     1     -11.505  16.451  67.449  1.00  0.00     0.000 HD 
HETATM   13  H   UNL     1     -10.871  19.655  67.466  1.00  0.00     0.000 HD 
HETATM   14  O   UNL     1      -7.857  19.368  69.059  1.00  0.00    -0.357 OA 
BRANCH   6  15
HETATM   15  C   UNL     1     -10.788  16.295  69.891  1.00  0.00    -0.352 C  
HETATM   16  O   UNL     1     -10.246  15.089  70.438  1.00  0.00    -0.502 OA 
HETATM   17  H   UNL     1     -10.747  14.815  71.197  1.00  0.00     0.000 HD 
ENDBRANCH   6  15
ENDBRANCH   3   4
TORSDOF 2
ENDMDL
MODEL       75
REMARK 921   NORMALIZED FREE ENERGY PREDICTED BY IDOCK:   -3.74 KCAL/MOL
REMARK 922        TOTAL FREE ENERGY PREDICTED BY IDOCK:   -4.27 KCAL/MOL
REMARK 923 INTER-LIGAND FREE ENERGY PREDICTED BY IDOCK:   -3.80 KCAL/MOL
REMARK 924 INTRA-LIGAND FREE ENERGY PREDICTED BY IDOCK:   -0.47 KCAL/MOL
REMARK 927      BINDING AFFINITY PREDICTED BY RF-SCORE:    0.00 PKD
ROOT
HETATM    1  O   UNL     1      -9.271  10.610  69.535  1.00  0.00    -0.388 OA 
HETATM    2  H   UNL     1      -8.896  10.383  70.378  1.00  0.00     0.000 HD 
HETATM    3  C   UNL     1      -8.265  11.087  68.651  1.00  0.00    -0.151 C  
ENDROOT
BRANCH   3   4
HETATM    4  C   UNL     1      -8.871  11.454  67.289  1.00  0.00    -0.153 C  
HETATM    5  O   UNL     1      -9.130  12.870  67.224  1.00  0.00    -0.191 OA 
HETATM    6  C   UNL     1     -10.465  13.078  67.689  1.00  0.00    -0.225 C  
HETATM    7  H   UNL     1     -11.127   9.955  65.452  1.00  0.00     0.000 HD 
HETATM    8  O   UNL     1     -10.471  13.213  69.118  1.00  0.00    -0.431 OA 
HETATM    9  C   UNL     1     -11.274  11.836  67.275  1.00  0.00    -0.305 C  
HETATM   10  O   UNL     1     -12.166  11.448  68.330  1.00  0.00    -0.588 OA 
HETATM   11  C   UNL     1     -10.213  10.766  67.010  1.00  0.00    -0.217 C  
HETATM   12  H   UNL     1     -11.358  13.351  69.428  1.00  0.00     0.000 HD 
HETATM   13  H   UNL     1     -12.666  10.682  68.074  1.00  0.00     0.000 HD 
HETATM   14  O   UNL     1     -10.296  10.381  65.624  1.00  0.00    -0.255 OA 
BRANCH   6  15
HETATM   15  C   UNL     1     -11.048  14.374  67.113  1.00  0.00    -0.312 C  
HETATM   16  O   UNL     1     -12.475  14.290  67.036  1.00  0.00    -0.588 OA 
HETATM   17  H   UNL     1     -12.836  15.093  66.679  1.00  0.00     0.000 HD 
ENDBRANCH   6  15
ENDBRANCH   3   4
TORSDOF 2
ENDMDL
MODEL       76
REMARK 921   NORMALIZED FREE ENERGY PREDICTED BY IDOCK:   -3.74 KCAL/MOL
REMARK 922        TOTAL FREE ENERGY PREDICTED BY IDOCK:   -4.27 KCAL/MOL
REMARK 923 INTER-LIGAND FREE ENERGY PREDICTED BY IDOCK:   -3.96 KCAL/MOL
REMARK 924 INTRA-LIGAND FREE ENERGY PREDICTED BY IDOCK:   -0.31 KCAL/MOL
REMARK 927      BINDING AFFINITY PREDICTED BY RF-SCORE:    0.00 PKD
ROOT
HETATM    1  O   UNL     1     -11.874  14.218  67.291  1.00  0.00    -0.381 OA 
HETATM    2  H   UNL     1     -12.217  13.513  67.827  1.00  0.00     0.000 HD 
HETATM    3  C   UNL     1     -10.979  13.713  66.309  1.00  0.00    -0.299 C  
ENDROOT
BRANCH   3   4
HETATM    4  C   UNL     1     -10.425  14.853  65.444  1.00  0.00    -0.384 C  
HETATM    5  O   UNL     1      -9.045  15.104  65.775  1.00  0.00    -0.198 OA 
HETATM    6  C   UNL     1      -9.030  16.097  66.802  1.00  0.00    -0.241 C  
HETATM    7  H   UNL     1     -11.747  17.697  64.509  1.00  0.00     0.000 HD 
HETATM    8  O   UNL     1      -9.153  15.474  68.089  1.00  0.00    -0.181 OA 
HETATM    9  C   UNL     1     -10.239  17.015  66.545  1.00  0.00    -0.320 C  
HETATM   10  O   UNL     1     -10.878  17.355  67.783  1.00  0.00    -0.361 OA 
HETATM   11  C   UNL     1     -11.156  16.185  65.644  1.00  0.00    -0.023 C  
HETATM   12  H   UNL     1      -9.144  16.134  68.772  1.00  0.00     0.000 HD 
HETATM   13  H   UNL     1     -11.624  17.922  67.625  1.00  0.00     0.000 HD 
HETATM   14  O   UNL     1     -11.294  16.872  64.384  1.00  0.00    -1.133 OA 
BRANCH   6  15
HETATM   15  C   UNL     1      -7.703  16.865  66.800  1.00  0.00    -0.248 C  
HETATM   16  O   UNL     1      -6.600  15.960  66.686  1.00  0.00    -0.189 OA 
HETATM   17  H   UNL     1      -5.778  16.436  66.685  1.00  0.00     0.000 HD 
ENDBRANCH   6  15
ENDBRANCH   3   4
TORSDOF 2
ENDMDL
MODEL       77
REMARK 921   NORMALIZED FREE ENERGY PREDICTED BY IDOCK:   -3.73 KCAL/MOL
REMARK 922        TOTAL FREE ENERGY PREDICTED BY IDOCK:   -4.26 KCAL/MOL
REMARK 923 INTER-LIGAND FREE ENERGY PREDICTED BY IDOCK:   -3.78 KCAL/MOL
REMARK 924 INTRA-LIGAND FREE ENERGY PREDICTED BY IDOCK:   -0.48 KCAL/MOL
REMARK 927      BINDING AFFINITY PREDICTED BY RF-SCORE:    0.00 PKD
ROOT
HETATM    1  O   UNL     1      -8.301  20.511  65.988  1.00  0.00    -0.525 OA 
HETATM    2  H   UNL     1      -8.374  20.963  65.156  1.00  0.00     0.000 HD 
HETATM    3  C   UNL     1      -7.438  19.387  65.874  1.00  0.00    -0.279 C  
ENDROOT
BRANCH   3   4
HETATM    4  C   UNL     1      -7.320  18.656  67.218  1.00  0.00    -0.217 C  
HETATM    5  O   UNL     1      -8.037  17.407  67.172  1.00  0.00    -0.198 OA 
HETATM    6  C   UNL     1      -9.369  17.666  67.616  1.00  0.00    -0.246 C  
HETATM    7  H   UNL     1      -7.462  19.757  70.298  1.00  0.00     0.000 HD 
HETATM    8  O   UNL     1     -10.181  18.093  66.512  1.00  0.00    -0.353 OA 
HETATM    9  C   UNL     1      -9.273  18.790  68.663  1.00  0.00    -0.347 C  
HETATM   10  O   UNL     1     -10.350  19.723  68.493  1.00  0.00    -0.446 OA 
HETATM   11  C   UNL     1      -7.914  19.438  68.395  1.00  0.00    -0.341 C  
HETATM   12  H   UNL     1     -11.067  18.266  66.807  1.00  0.00     0.000 HD 
HETATM   13  H   UNL     1     -10.290  20.416  69.140  1.00  0.00     0.000 HD 
HETATM   14  O   UNL     1      -7.094  19.271  69.569  1.00  0.00    -0.287 OA 
BRANCH   6  15
HETATM   15  C   UNL     1     -10.014  16.394  68.181  1.00  0.00    -0.242 C  
HETATM   16  O   UNL     1     -11.223  16.713  68.878  1.00  0.00    -0.295 OA 
HETATM   17  H   UNL     1     -11.622  15.924  69.228  1.00  0.00     0.000 HD 
ENDBRANCH   6  15
ENDBRANCH   3   4
TORSDOF 2
ENDMDL
MODEL       78
REMARK 921   NORMALIZED FREE ENERGY PREDICTED BY IDOCK:   -3.73 KCAL/MOL
REMARK 922        TOTAL FREE ENERGY PREDICTED BY IDOCK:   -4.26 KCAL/MOL
REMARK 923 INTER-LIGAND FREE ENERGY PREDICTED BY IDOCK:   -3.76 KCAL/MOL
REMARK 924 INTRA-LIGAND FREE ENERGY PREDICTED BY IDOCK:   -0.50 KCAL/MOL
REMARK 927      BINDING AFFINITY PREDICTED BY RF-SCORE:    0.00 PKD
ROOT
HETATM    1  O   UNL     1      -8.754   8.719  72.858  1.00  0.00    -0.379 OA 
HETATM    2  H   UNL     1      -7.910   8.685  73.292  1.00  0.00     0.000 HD 
HETATM    3  C   UNL     1      -9.659   7.796  73.450  1.00  0.00    -0.290 C  
ENDROOT
BRANCH   3   4
HETATM    4  C   UNL     1     -11.023   7.850  72.748  1.00  0.00    -0.393 C  
HETATM    5  O   UNL     1     -11.205   6.683  71.922  1.00  0.00    -0.242 OA 
HETATM    6  C   UNL     1     -10.708   7.002  70.622  1.00  0.00    -0.231 C  
HETATM    7  H   UNL     1     -12.627  10.322  71.324  1.00  0.00     0.000 HD 
HETATM    8  O   UNL     1      -9.298   6.742  70.558  1.00  0.00    -0.162 OA 
HETATM    9  C   UNL     1     -10.976   8.502  70.404  1.00  0.00    -0.238 C  
HETATM   10  O   UNL     1      -9.856   9.119  69.753  1.00  0.00    -0.168 OA 
HETATM   11  C   UNL     1     -11.185   9.055  71.815  1.00  0.00    -0.378 C  
HETATM   12  H   UNL     1      -8.967   6.954  69.694  1.00  0.00     0.000 HD 
HETATM   13  H   UNL     1     -10.021  10.045  69.619  1.00  0.00     0.000 HD 
HETATM   14  O   UNL     1     -12.527   9.575  71.902  1.00  0.00    -0.369 OA 
BRANCH   6  15
HETATM   15  C   UNL     1     -11.375   6.128  69.552  1.00  0.00    -0.356 C  
HETATM   16  O   UNL     1     -11.470   6.839  68.313  1.00  0.00    -0.554 OA 
HETATM   17  H   UNL     1     -11.883   6.297  67.651  1.00  0.00     0.000 HD 
ENDBRANCH   6  15
ENDBRANCH   3   4
TORSDOF 2
ENDMDL
MODEL       79
REMARK 921   NORMALIZED FREE ENERGY PREDICTED BY IDOCK:   -3.72 KCAL/MOL
REMARK 922        TOTAL FREE ENERGY PREDICTED BY IDOCK:   -4.24 KCAL/MOL
REMARK 923 INTER-LIGAND FREE ENERGY PREDICTED BY IDOCK:   -3.88 KCAL/MOL
REMARK 924 INTRA-LIGAND FREE ENERGY PREDICTED BY IDOCK:   -0.36 KCAL/MOL
REMARK 927      BINDING AFFINITY PREDICTED BY RF-SCORE:    0.00 PKD
ROOT
HETATM    1  O   UNL     1     -11.486   5.106  72.785  1.00  0.00    -0.268 OA 
HETATM    2  H   UNL     1     -11.927   4.480  73.347  1.00  0.00     0.000 HD 
HETATM    3  C   UNL     1     -10.712   6.015  73.556  1.00  0.00    -0.250 C  
ENDROOT
BRANCH   3   4
HETATM    4  C   UNL     1     -10.000   7.026  72.648  1.00  0.00    -0.173 C  
HETATM    5  O   UNL     1     -10.636   8.316  72.741  1.00  0.00    -0.340 OA 
HETATM    6  C   UNL     1     -11.644   8.365  71.730  1.00  0.00    -0.308 C  
HETATM    7  H   UNL     1      -8.801   6.739  69.616  1.00  0.00     0.000 HD 
HETATM    8  O   UNL     1     -12.867   7.802  72.228  1.00  0.00    -0.489 OA 
HETATM    9  C   UNL     1     -11.123   7.527  70.548  1.00  0.00    -0.259 C  
HETATM   10  O   UNL     1     -12.185   6.745  69.986  1.00  0.00    -0.641 OA 
HETATM   11  C   UNL     1     -10.034   6.646  71.163  1.00  0.00    -0.182 C  
HETATM   12  H   UNL     1     -13.537   7.835  71.555  1.00  0.00     0.000 HD 
HETATM   13  H   UNL     1     -11.864   6.228  69.256  1.00  0.00     0.000 HD 
HETATM   14  O   UNL     1      -8.779   6.975  70.535  1.00  0.00    -0.150 OA 
BRANCH   6  15
HETATM   15  C   UNL     1     -11.947   9.814  71.330  1.00  0.00    -0.411 C  
HETATM   16  O   UNL     1     -10.839  10.380  70.622  1.00  0.00    -0.412 OA 
HETATM   17  H   UNL     1     -11.027  11.278  70.374  1.00  0.00     0.000 HD 
ENDBRANCH   6  15
ENDBRANCH   3   4
TORSDOF 2
ENDMDL
MODEL       80
REMARK 921   NORMALIZED FREE ENERGY PREDICTED BY IDOCK:   -3.72 KCAL/MOL
REMARK 922        TOTAL FREE ENERGY PREDICTED BY IDOCK:   -4.24 KCAL/MOL
REMARK 923 INTER-LIGAND FREE ENERGY PREDICTED BY IDOCK:   -4.18 KCAL/MOL
REMARK 924 INTRA-LIGAND FREE ENERGY PREDICTED BY IDOCK:   -0.06 KCAL/MOL
REMARK 927      BINDING AFFINITY PREDICTED BY RF-SCORE:    0.00 PKD
ROOT
HETATM    1  O   UNL     1      -8.628  14.222  66.710  1.00  0.00    -0.372 OA 
HETATM    2  H   UNL     1      -7.762  13.907  66.483  1.00  0.00     0.000 HD 
HETATM    3  C   UNL     1      -8.876  15.485  66.105  1.00  0.00    -0.238 C  
ENDROOT
BRANCH   3   4
HETATM    4  C   UNL     1     -10.276  15.995  66.472  1.00  0.00    -0.293 C  
HETATM    5  O   UNL     1     -10.556  17.227  65.779  1.00  0.00    -0.438 OA 
HETATM    6  C   UNL     1     -10.125  18.295  66.623  1.00  0.00    -0.375 C  
HETATM    7  H   UNL     1     -11.860  16.096  69.335  1.00  0.00     0.000 HD 
HETATM    8  O   UNL     1      -8.734  18.567  66.401  1.00  0.00    -0.299 OA 
HETATM    9  C   UNL     1     -10.344  17.826  68.073  1.00  0.00    -0.393 C  
HETATM   10  O   UNL     1      -9.241  18.227  68.898  1.00  0.00    -0.269 OA 
HETATM   11  C   UNL     1     -10.445  16.304  67.964  1.00  0.00    -0.293 C  
HETATM   12  H   UNL     1      -8.447  19.277  66.962  1.00  0.00     0.000 HD 
HETATM   13  H   UNL     1      -9.376  17.938  69.793  1.00  0.00     0.000 HD 
HETATM   14  O   UNL     1     -11.756  15.905  68.410  1.00  0.00    -0.358 OA 
BRANCH   6  15
HETATM   15  C   UNL     1     -10.891  19.586  66.306  1.00  0.00    -0.327 C  
HETATM   16  O   UNL     1     -10.094  20.454  65.493  1.00  0.00    -0.528 OA 
HETATM   17  H   UNL     1     -10.569  21.253  65.296  1.00  0.00     0.000 HD 
ENDBRANCH   6  15
ENDBRANCH   3   4
TORSDOF 2
ENDMDL
MODEL       81
REMARK 921   NORMALIZED FREE ENERGY PREDICTED BY IDOCK:   -3.70 KCAL/MOL
REMARK 922        TOTAL FREE ENERGY PREDICTED BY IDOCK:   -4.23 KCAL/MOL
REMARK 923 INTER-LIGAND FREE ENERGY PREDICTED BY IDOCK:   -3.89 KCAL/MOL
REMARK 924 INTRA-LIGAND FREE ENERGY PREDICTED BY IDOCK:   -0.34 KCAL/MOL
REMARK 927      BINDING AFFINITY PREDICTED BY RF-SCORE:    0.00 PKD
ROOT
HETATM    1  O   UNL     1     -11.280   7.679  67.677  1.00  0.00    -0.480 OA 
HETATM    2  H   UNL     1     -11.674   7.090  67.046  1.00  0.00     0.000 HD 
HETATM    3  C   UNL     1     -10.089   7.117  68.212  1.00  0.00    -0.167 C  
ENDROOT
BRANCH   3   4
HETATM    4  C   UNL     1      -9.451   8.070  69.232  1.00  0.00    -0.155 C  
HETATM    5  O   UNL     1      -9.706   7.609  70.573  1.00  0.00    -0.181 OA 
HETATM    6  C   UNL     1     -10.922   8.221  71.007  1.00  0.00    -0.245 C  
HETATM    7  H   UNL     1      -9.288  11.338  69.331  1.00  0.00     0.000 HD 
HETATM    8  O   UNL     1     -12.045   7.428  70.595  1.00  0.00    -0.486 OA 
HETATM    9  C   UNL     1     -10.981   9.605  70.338  1.00  0.00    -0.299 C  
HETATM   10  O   UNL     1     -12.316   9.886  69.893  1.00  0.00    -0.479 OA 
HETATM   11  C   UNL     1     -10.004   9.499  69.166  1.00  0.00    -0.183 C  
HETATM   12  H   UNL     1     -12.853   7.835  70.884  1.00  0.00     0.000 HD 
HETATM   13  H   UNL     1     -12.353  10.741  69.479  1.00  0.00     0.000 HD 
HETATM   14  O   UNL     1      -8.945  10.453  69.372  1.00  0.00    -0.194 OA 
BRANCH   6  15
HETATM   15  C   UNL     1     -10.972   8.309  72.538  1.00  0.00    -0.354 C  
HETATM   16  O   UNL     1     -12.323   8.214  73.001  1.00  0.00    -0.666 OA 
HETATM   17  H   UNL     1     -12.354   8.269  73.949  1.00  0.00     0.000 HD 
ENDBRANCH   6  15
ENDBRANCH   3   4
TORSDOF 2
ENDMDL
MODEL       82
REMARK 921   NORMALIZED FREE ENERGY PREDICTED BY IDOCK:   -3.69 KCAL/MOL
REMARK 922        TOTAL FREE ENERGY PREDICTED BY IDOCK:   -4.22 KCAL/MOL
REMARK 923 INTER-LIGAND FREE ENERGY PREDICTED BY IDOCK:   -3.96 KCAL/MOL
REMARK 924 INTRA-LIGAND FREE ENERGY PREDICTED BY IDOCK:   -0.26 KCAL/MOL
REMARK 927      BINDING AFFINITY PREDICTED BY RF-SCORE:    0.00 PKD
ROOT
HETATM    1  O   UNL     1      -6.919  14.896  66.789  1.00  0.00    -0.236 OA 
HETATM    2  H   UNL     1      -6.628  14.053  67.114  1.00  0.00     0.000 HD 
HETATM    3  C   UNL     1      -8.337  14.989  66.832  1.00  0.00    -0.212 C  
ENDROOT
BRANCH   3   4
HETATM    4  C   UNL     1      -8.807  16.352  66.307  1.00  0.00    -0.332 C  
HETATM    5  O   UNL     1      -8.306  17.410  67.147  1.00  0.00    -0.204 OA 
HETATM    6  C   UNL     1      -9.286  17.647  68.160  1.00  0.00    -0.282 C  
HETATM    7  H   UNL     1     -11.691  17.331  65.108  1.00  0.00     0.000 HD 
HETATM    8  O   UNL     1      -9.072  16.759  69.267  1.00  0.00    -0.175 OA 
HETATM    9  C   UNL     1     -10.657  17.366  67.519  1.00  0.00    -0.330 C  
HETATM   10  O   UNL     1     -11.505  16.669  68.443  1.00  0.00    -0.258 OA 
HETATM   11  C   UNL     1     -10.332  16.511  66.293  1.00  0.00    -0.320 C  
HETATM   12  H   UNL     1      -9.723  16.916  69.940  1.00  0.00     0.000 HD 
HETATM   13  H   UNL     1     -12.352  16.496  68.047  1.00  0.00     0.000 HD 
HETATM   14  O   UNL     1     -10.747  17.232  65.116  1.00  0.00    -0.687 OA 
BRANCH   6  15
HETATM   15  C   UNL     1      -9.176  19.077  68.702  1.00  0.00    -0.368 C  
HETATM   16  O   UNL     1     -10.286  19.375  69.555  1.00  0.00    -0.555 OA 
HETATM   17  H   UNL     1     -10.218  20.261  69.892  1.00  0.00     0.000 HD 
ENDBRANCH   6  15
ENDBRANCH   3   4
TORSDOF 2
ENDMDL
MODEL       83
REMARK 921   NORMALIZED FREE ENERGY PREDICTED BY IDOCK:   -3.69 KCAL/MOL
REMARK 922        TOTAL FREE ENERGY PREDICTED BY IDOCK:   -4.21 KCAL/MOL
REMARK 923 INTER-LIGAND FREE ENERGY PREDICTED BY IDOCK:   -4.09 KCAL/MOL
REMARK 924 INTRA-LIGAND FREE ENERGY PREDICTED BY IDOCK:   -0.12 KCAL/MOL
REMARK 927      BINDING AFFINITY PREDICTED BY RF-SCORE:    0.00 PKD
ROOT
HETATM    1  O   UNL     1      -9.467  14.377  65.854  1.00  0.00    -0.473 OA 
HETATM    2  H   UNL     1      -9.800  14.067  65.021  1.00  0.00     0.000 HD 
HETATM    3  C   UNL     1     -10.112  13.710  66.931  1.00  0.00    -0.260 C  
ENDROOT
BRANCH   3   4
HETATM    4  C   UNL     1      -9.575  14.211  68.278  1.00  0.00    -0.226 C  
HETATM    5  O   UNL     1     -10.610  14.158  69.279  1.00  0.00    -0.205 OA 
HETATM    6  C   UNL     1     -11.280  15.419  69.263  1.00  0.00    -0.296 C  
HETATM    7  H   UNL     1      -7.614  16.723  69.025  1.00  0.00     0.000 HD 
HETATM    8  O   UNL     1     -12.326  15.408  68.280  1.00  0.00    -0.458 OA 
HETATM    9  C   UNL     1     -10.222  16.475  68.893  1.00  0.00    -0.268 C  
HETATM   10  O   UNL     1     -10.776  17.438  67.985  1.00  0.00    -0.387 OA 
HETATM   11  C   UNL     1      -9.097  15.667  68.244  1.00  0.00    -0.187 C  
HETATM   12  H   UNL     1     -12.771  16.246  68.269  1.00  0.00     0.000 HD 
HETATM   13  H   UNL     1     -10.124  18.089  67.757  1.00  0.00     0.000 HD 
HETATM   14  O   UNL     1      -7.910  15.821  69.047  1.00  0.00    -0.175 OA 
BRANCH   6  15
HETATM   15  C   UNL     1     -11.940  15.705  70.618  1.00  0.00    -0.402 C  
HETATM   16  O   UNL     1     -13.352  15.480  70.544  1.00  0.00    -0.750 OA 
HETATM   17  H   UNL     1     -13.761  15.657  71.384  1.00  0.00     0.000 HD 
ENDBRANCH   6  15
ENDBRANCH   3   4
TORSDOF 2
ENDMDL
MODEL       84
REMARK 921   NORMALIZED FREE ENERGY PREDICTED BY IDOCK:   -3.68 KCAL/MOL
REMARK 922        TOTAL FREE ENERGY PREDICTED BY IDOCK:   -4.21 KCAL/MOL
REMARK 923 INTER-LIGAND FREE ENERGY PREDICTED BY IDOCK:   -3.71 KCAL/MOL
REMARK 924 INTRA-LIGAND FREE ENERGY PREDICTED BY IDOCK:   -0.50 KCAL/MOL
REMARK 927      BINDING AFFINITY PREDICTED BY RF-SCORE:    0.00 PKD
ROOT
HETATM    1  O   UNL     1      -7.559  17.488  66.201  1.00  0.00    -0.316 OA 
HETATM    2  H   UNL     1      -6.693  17.203  65.934  1.00  0.00     0.000 HD 
HETATM    3  C   UNL     1      -7.490  18.248  67.400  1.00  0.00    -0.213 C  
ENDROOT
BRANCH   3   4
HETATM    4  C   UNL     1      -8.889  18.707  67.831  1.00  0.00    -0.288 C  
HETATM    5  O   UNL     1      -9.368  17.893  68.920  1.00  0.00    -0.252 OA 
HETATM    6  C   UNL     1     -10.084  16.798  68.346  1.00  0.00    -0.285 C  
HETATM    7  H   UNL     1     -11.492  19.643  66.082  1.00  0.00     0.000 HD 
HETATM    8  O   UNL     1      -9.179  15.729  68.035  1.00  0.00    -0.187 OA 
HETATM    9  C   UNL     1     -10.736  17.327  67.055  1.00  0.00    -0.152 C  
HETATM   10  O   UNL     1     -10.638  16.348  66.011  1.00  0.00    -0.319 OA 
HETATM   11  C   UNL     1      -9.941  18.591  66.723  1.00  0.00    -0.360 C  
HETATM   12  H   UNL     1      -9.655  15.001  67.654  1.00  0.00     0.000 HD 
HETATM   13  H   UNL     1     -11.041  16.674  65.214  1.00  0.00     0.000 HD 
HETATM   14  O   UNL     1     -10.841  19.716  66.769  1.00  0.00    -0.474 OA 
BRANCH   6  15
HETATM   15  C   UNL     1     -11.115  16.242  69.335  1.00  0.00    -0.328 C  
HETATM   16  O   UNL     1     -12.268  15.759  68.638  1.00  0.00    -0.536 OA 
HETATM   17  H   UNL     1     -12.907  15.413  69.252  1.00  0.00     0.000 HD 
ENDBRANCH   6  15
ENDBRANCH   3   4
TORSDOF 2
ENDMDL
MODEL       85
REMARK 921   NORMALIZED FREE ENERGY PREDICTED BY IDOCK:   -3.67 KCAL/MOL
REMARK 922        TOTAL FREE ENERGY PREDICTED BY IDOCK:   -4.19 KCAL/MOL
REMARK 923 INTER-LIGAND FREE ENERGY PREDICTED BY IDOCK:   -3.86 KCAL/MOL
REMARK 924 INTRA-LIGAND FREE ENERGY PREDICTED BY IDOCK:   -0.33 KCAL/MOL
REMARK 927      BINDING AFFINITY PREDICTED BY RF-SCORE:    0.00 PKD
ROOT
HETATM    1  O   UNL     1     -11.057   8.532  68.589  1.00  0.00    -0.429 OA 
HETATM    2  H   UNL     1     -10.724   8.261  67.742  1.00  0.00     0.000 HD 
HETATM    3  C   UNL     1     -10.096   9.321  69.278  1.00  0.00    -0.200 C  
ENDROOT
BRANCH   3   4
HETATM    4  C   UNL     1     -10.635   9.757  70.647  1.00  0.00    -0.313 C  
HETATM    5  O   UNL     1     -10.053   8.954  71.692  1.00  0.00    -0.289 OA 
HETATM    6  C   UNL     1     -10.914   7.832  71.894  1.00  0.00    -0.249 C  
HETATM    7  H   UNL     1     -13.646  10.600  71.618  1.00  0.00     0.000 HD 
HETATM    8  O   UNL     1     -10.567   6.777  70.985  1.00  0.00    -0.217 OA 
HETATM    9  C   UNL     1     -12.346   8.321  71.612  1.00  0.00    -0.315 C  
HETATM   10  O   UNL     1     -13.077   7.324  70.884  1.00  0.00    -0.594 OA 
HETATM   11  C   UNL     1     -12.153   9.595  70.788  1.00  0.00    -0.248 C  
HETATM   12  H   UNL     1     -11.140   6.032  71.119  1.00  0.00     0.000 HD 
HETATM   13  H   UNL     1     -13.961   7.625  70.710  1.00  0.00     0.000 HD 
HETATM   14  O   UNL     1     -12.705  10.700  71.531  1.00  0.00    -0.391 OA 
BRANCH   6  15
HETATM   15  C   UNL     1     -10.757   7.272  73.313  1.00  0.00    -0.383 C  
HETATM   16  O   UNL     1     -10.785   5.841  73.292  1.00  0.00    -0.236 OA 
HETATM   17  H   UNL     1     -10.688   5.494  74.172  1.00  0.00     0.000 HD 
ENDBRANCH   6  15
ENDBRANCH   3   4
TORSDOF 2
ENDMDL
MODEL       86
REMARK 921   NORMALIZED FREE ENERGY PREDICTED BY IDOCK:   -3.66 KCAL/MOL
REMARK 922        TOTAL FREE ENERGY PREDICTED BY IDOCK:   -4.18 KCAL/MOL
REMARK 923 INTER-LIGAND FREE ENERGY PREDICTED BY IDOCK:   -3.81 KCAL/MOL
REMARK 924 INTRA-LIGAND FREE ENERGY PREDICTED BY IDOCK:   -0.36 KCAL/MOL
REMARK 927      BINDING AFFINITY PREDICTED BY RF-SCORE:    0.00 PKD
ROOT
HETATM    1  O   UNL     1      -9.397   4.607  69.907  1.00  0.00    -0.117 OA 
HETATM    2  H   UNL     1      -9.083   4.146  69.139  1.00  0.00     0.000 HD 
HETATM    3  C   UNL     1      -8.924   5.947  69.917  1.00  0.00    -0.139 C  
ENDROOT
BRANCH   3   4
HETATM    4  C   UNL     1      -9.431   6.692  71.159  1.00  0.00    -0.163 C  
HETATM    5  O   UNL     1     -10.751   6.233  71.511  1.00  0.00    -0.229 OA 
HETATM    6  C   UNL     1     -11.687   7.070  70.829  1.00  0.00    -0.349 C  
HETATM    7  H   UNL     1      -9.220   9.840  72.030  1.00  0.00     0.000 HD 
HETATM    8  O   UNL     1     -11.935   6.558  69.511  1.00  0.00    -0.601 OA 
HETATM    9  C   UNL     1     -11.043   8.466  70.737  1.00  0.00    -0.258 C  
HETATM   10  O   UNL     1     -11.296   9.047  69.450  1.00  0.00    -0.439 OA 
HETATM   11  C   UNL     1      -9.552   8.207  70.959  1.00  0.00    -0.159 C  
HETATM   12  H   UNL     1     -12.556   7.114  69.058  1.00  0.00     0.000 HD 
HETATM   13  H   UNL     1     -10.899   9.908  69.393  1.00  0.00     0.000 HD 
HETATM   14  O   UNL     1      -9.146   8.902  72.154  1.00  0.00    -0.375 OA 
BRANCH   6  15
HETATM   15  C   UNL     1     -13.034   7.095  71.562  1.00  0.00    -0.383 C  
HETATM   16  O   UNL     1     -13.963   7.938  70.873  1.00  0.00    -0.602 OA 
HETATM   17  H   UNL     1     -14.797   7.953  71.328  1.00  0.00     0.000 HD 
ENDBRANCH   6  15
ENDBRANCH   3   4
TORSDOF 2
ENDMDL
MODEL       87
REMARK 921   NORMALIZED FREE ENERGY PREDICTED BY IDOCK:   -3.65 KCAL/MOL
REMARK 922        TOTAL FREE ENERGY PREDICTED BY IDOCK:   -4.17 KCAL/MOL
REMARK 923 INTER-LIGAND FREE ENERGY PREDICTED BY IDOCK:   -3.67 KCAL/MOL
REMARK 924 INTRA-LIGAND FREE ENERGY PREDICTED BY IDOCK:   -0.50 KCAL/MOL
REMARK 927      BINDING AFFINITY PREDICTED BY RF-SCORE:    0.00 PKD
ROOT
HETATM    1  O   UNL     1      -6.953  14.928  67.620  1.00  0.00    -0.158 OA 
HETATM    2  H   UNL     1      -6.116  14.767  68.039  1.00  0.00     0.000 HD 
HETATM    3  C   UNL     1      -7.701  15.892  68.350  1.00  0.00    -0.140 C  
ENDROOT
BRANCH   3   4
HETATM    4  C   UNL     1      -9.054  16.152  67.673  1.00  0.00    -0.196 C  
HETATM    5  O   UNL     1     -10.111  15.501  68.404  1.00  0.00    -0.210 OA 
HETATM    6  C   UNL     1     -10.269  14.195  67.847  1.00  0.00    -0.235 C  
HETATM    7  H   UNL     1      -9.921  16.192  64.517  1.00  0.00     0.000 HD 
HETATM    8  O   UNL     1      -9.362  13.279  68.478  1.00  0.00    -0.315 OA 
HETATM    9  C   UNL     1      -9.939  14.313  66.348  1.00  0.00    -0.292 C  
HETATM   10  O   UNL     1      -9.174  13.179  65.916  1.00  0.00    -0.465 OA 
HETATM   11  C   UNL     1      -9.137  15.611  66.241  1.00  0.00    -0.341 C  
HETATM   12  H   UNL     1      -9.467  12.411  68.108  1.00  0.00     0.000 HD 
HETATM   13  H   UNL     1      -8.971  13.252  64.991  1.00  0.00     0.000 HD 
HETATM   14  O   UNL     1      -9.870  16.527  65.404  1.00  0.00    -0.530 OA 
BRANCH   6  15
HETATM   15  C   UNL     1     -11.687  13.665  68.093  1.00  0.00    -0.357 C  
HETATM   16  O   UNL     1     -12.095  12.810  67.020  1.00  0.00    -0.432 OA 
HETATM   17  H   UNL     1     -12.973  12.481  67.173  1.00  0.00     0.000 HD 
ENDBRANCH   6  15
ENDBRANCH   3   4
TORSDOF 2
ENDMDL
MODEL       88
REMARK 921   NORMALIZED FREE ENERGY PREDICTED BY IDOCK:   -3.65 KCAL/MOL
REMARK 922        TOTAL FREE ENERGY PREDICTED BY IDOCK:   -4.17 KCAL/MOL
REMARK 923 INTER-LIGAND FREE ENERGY PREDICTED BY IDOCK:   -3.82 KCAL/MOL
REMARK 924 INTRA-LIGAND FREE ENERGY PREDICTED BY IDOCK:   -0.34 KCAL/MOL
REMARK 927      BINDING AFFINITY PREDICTED BY RF-SCORE:    0.00 PKD
ROOT
HETATM    1  O   UNL     1      -9.619  12.411  68.655  1.00  0.00    -0.362 OA 
HETATM    2  H   UNL     1      -9.340  13.102  69.243  1.00  0.00     0.000 HD 
HETATM    3  C   UNL     1      -8.502  11.836  67.990  1.00  0.00    -0.157 C  
ENDROOT
BRANCH   3   4
HETATM    4  C   UNL     1      -8.953  10.719  67.040  1.00  0.00    -0.141 C  
HETATM    5  O   UNL     1      -8.638  11.065  65.677  1.00  0.00    -0.181 OA 
HETATM    6  C   UNL     1      -9.771  11.752  65.143  1.00  0.00    -0.203 C  
HETATM    7  H   UNL     1     -11.665   8.888  66.988  1.00  0.00     0.000 HD 
HETATM    8  O   UNL     1      -9.684  13.152  65.446  1.00  0.00    -0.478 OA 
HETATM    9  C   UNL     1     -11.013  11.144  65.818  1.00  0.00    -0.091 C  
HETATM   10  O   UNL     1     -11.957  12.174  66.146  1.00  0.00    -0.593 OA 
HETATM   11  C   UNL     1     -10.464  10.460  67.071  1.00  0.00    -0.251 C  
HETATM   12  H   UNL     1     -10.438  13.609  65.091  1.00  0.00     0.000 HD 
HETATM   13  H   UNL     1     -12.724  11.799  66.562  1.00  0.00     0.000 HD 
HETATM   14  O   UNL     1     -10.729   9.048  66.969  1.00  0.00    -0.242 OA 
BRANCH   6  15
HETATM   15  C   UNL     1      -9.816  11.625  63.615  1.00  0.00    -0.345 C  
HETATM   16  O   UNL     1     -11.024  10.980  63.201  1.00  0.00    -0.780 OA 
HETATM   17  H   UNL     1     -11.052  10.902  62.255  1.00  0.00     0.000 HD 
ENDBRANCH   6  15
ENDBRANCH   3   4
TORSDOF 2
ENDMDL
MODEL       89
REMARK 921   NORMALIZED FREE ENERGY PREDICTED BY IDOCK:   -3.64 KCAL/MOL
REMARK 922        TOTAL FREE ENERGY PREDICTED BY IDOCK:   -4.16 KCAL/MOL
REMARK 923 INTER-LIGAND FREE ENERGY PREDICTED BY IDOCK:   -3.80 KCAL/MOL
REMARK 924 INTRA-LIGAND FREE ENERGY PREDICTED BY IDOCK:   -0.37 KCAL/MOL
REMARK 927      BINDING AFFINITY PREDICTED BY RF-SCORE:    0.00 PKD
ROOT
HETATM    1  O   UNL     1      -6.700  15.756  66.923  1.00  0.00    -0.265 OA 
HETATM    2  H   UNL     1      -6.378  15.175  67.600  1.00  0.00     0.000 HD 
HETATM    3  C   UNL     1      -8.099  15.967  67.065  1.00  0.00    -0.230 C  
ENDROOT
BRANCH   3   4
HETATM    4  C   UNL     1      -8.619  16.907  65.969  1.00  0.00    -0.159 C  
HETATM    5  O   UNL     1      -7.523  17.613  65.356  1.00  0.00    -0.289 OA 
HETATM    6  C   UNL     1      -7.343  18.829  66.084  1.00  0.00    -0.262 C  
HETATM    7  H   UNL     1     -11.235  18.872  65.869  1.00  0.00     0.000 HD 
HETATM    8  O   UNL     1      -6.478  18.604  67.207  1.00  0.00    -0.192 OA 
HETATM    9  C   UNL     1      -8.737  19.261  66.571  1.00  0.00    -0.345 C  
HETATM   10  O   UNL     1      -8.662  19.763  67.913  1.00  0.00    -0.313 OA 
HETATM   11  C   UNL     1      -9.576  17.985  66.490  1.00  0.00    -0.315 C  
HETATM   12  H   UNL     1      -6.358  19.412  67.692  1.00  0.00     0.000 HD 
HETATM   13  H   UNL     1      -9.523  20.031  68.214  1.00  0.00     0.000 HD 
HETATM   14  O   UNL     1     -10.642  18.204  65.545  1.00  0.00    -0.638 OA 
BRANCH   6  15
HETATM   15  C   UNL     1      -6.673  19.895  65.208  1.00  0.00    -0.296 C  
HETATM   16  O   UNL     1      -6.770  21.183  65.825  1.00  0.00    -0.493 OA 
HETATM   17  H   UNL     1      -6.355  21.843  65.283  1.00  0.00     0.000 HD 
ENDBRANCH   6  15
ENDBRANCH   3   4
TORSDOF 2
ENDMDL
MODEL       90
REMARK 921   NORMALIZED FREE ENERGY PREDICTED BY IDOCK:   -3.64 KCAL/MOL
REMARK 922        TOTAL FREE ENERGY PREDICTED BY IDOCK:   -4.16 KCAL/MOL
REMARK 923 INTER-LIGAND FREE ENERGY PREDICTED BY IDOCK:   -3.66 KCAL/MOL
REMARK 924 INTRA-LIGAND FREE ENERGY PREDICTED BY IDOCK:   -0.49 KCAL/MOL
REMARK 927      BINDING AFFINITY PREDICTED BY RF-SCORE:    0.00 PKD
ROOT
HETATM    1  O   UNL     1      -8.900  11.764  66.982  1.00  0.00    -0.169 OA 
HETATM    2  H   UNL     1      -8.392  12.494  66.651  1.00  0.00     0.000 HD 
HETATM    3  C   UNL     1     -10.209  11.771  66.428  1.00  0.00    -0.215 C  
ENDROOT
BRANCH   3   4
HETATM    4  C   UNL     1     -11.031  10.591  66.964  1.00  0.00    -0.180 C  
HETATM    5  O   UNL     1     -12.033  11.059  67.889  1.00  0.00    -0.620 OA 
HETATM    6  C   UNL     1     -11.450  11.033  69.193  1.00  0.00    -0.301 C  
HETATM    7  H   UNL     1     -10.138   7.590  67.919  1.00  0.00     0.000 HD 
HETATM    8  O   UNL     1     -10.746  12.259  69.441  1.00  0.00    -0.441 OA 
HETATM    9  C   UNL     1     -10.466   9.850  69.212  1.00  0.00    -0.221 C  
HETATM   10  O   UNL     1      -9.266  10.210  69.911  1.00  0.00    -0.345 OA 
HETATM   11  C   UNL     1     -10.196   9.562  67.734  1.00  0.00    -0.216 C  
HETATM   12  H   UNL     1     -10.359  12.242  70.308  1.00  0.00     0.000 HD 
HETATM   13  H   UNL     1      -8.659   9.480  69.922  1.00  0.00     0.000 HD 
HETATM   14  O   UNL     1     -10.656   8.228  67.442  1.00  0.00    -0.284 OA 
BRANCH   6  15
HETATM   15  C   UNL     1     -12.533  10.910  70.272  1.00  0.00    -0.303 C  
HETATM   16  O   UNL     1     -12.032  10.192  71.404  1.00  0.00    -0.369 OA 
HETATM   17  H   UNL     1     -12.702  10.116  72.073  1.00  0.00     0.000 HD 
ENDBRANCH   6  15
ENDBRANCH   3   4
TORSDOF 2
ENDMDL
MODEL       91
REMARK 921   NORMALIZED FREE ENERGY PREDICTED BY IDOCK:   -3.63 KCAL/MOL
REMARK 922        TOTAL FREE ENERGY PREDICTED BY IDOCK:   -4.15 KCAL/MOL
REMARK 923 INTER-LIGAND FREE ENERGY PREDICTED BY IDOCK:   -3.78 KCAL/MOL
REMARK 924 INTRA-LIGAND FREE ENERGY PREDICTED BY IDOCK:   -0.37 KCAL/MOL
REMARK 927      BINDING AFFINITY PREDICTED BY RF-SCORE:    0.00 PKD
ROOT
HETATM    1  O   UNL     1      -8.715  10.817  68.345  1.00  0.00    -0.129 OA 
HETATM    2  H   UNL     1      -8.040  10.468  68.914  1.00  0.00     0.000 HD 
HETATM    3  C   UNL     1      -9.478   9.766  67.768  1.00  0.00    -0.133 C  
ENDROOT
BRANCH   3   4
HETATM    4  C   UNL     1     -10.570  10.330  66.849  1.00  0.00    -0.217 C  
HETATM    5  O   UNL     1     -10.209  10.134  65.467  1.00  0.00    -0.286 OA 
HETATM    6  C   UNL     1      -9.487  11.294  65.049  1.00  0.00    -0.209 C  
HETATM    7  H   UNL     1     -12.334  13.081  67.023  1.00  0.00     0.000 HD 
HETATM    8  O   UNL     1      -8.094  11.144  65.362  1.00  0.00    -0.364 OA 
HETATM    9  C   UNL     1     -10.076  12.483  65.828  1.00  0.00    -0.262 C  
HETATM   10  O   UNL     1      -9.029  13.366  66.256  1.00  0.00    -0.459 OA 
HETATM   11  C   UNL     1     -10.792  11.838  67.016  1.00  0.00    -0.263 C  
HETATM   12  H   UNL     1      -7.614  11.915  65.084  1.00  0.00     0.000 HD 
HETATM   13  H   UNL     1      -9.393  14.101  66.737  1.00  0.00     0.000 HD 
HETATM   14  O   UNL     1     -12.197  12.148  66.919  1.00  0.00    -0.537 OA 
BRANCH   6  15
HETATM   15  C   UNL     1      -9.589  11.482  63.530  1.00  0.00    -0.279 C  
HETATM   16  O   UNL     1     -10.805  12.154  63.190  1.00  0.00    -0.644 OA 
HETATM   17  H   UNL     1     -10.868  12.271  62.249  1.00  0.00     0.000 HD 
ENDBRANCH   6  15
ENDBRANCH   3   4
TORSDOF 2
ENDMDL
MODEL       92
REMARK 921   NORMALIZED FREE ENERGY PREDICTED BY IDOCK:   -3.62 KCAL/MOL
REMARK 922        TOTAL FREE ENERGY PREDICTED BY IDOCK:   -4.13 KCAL/MOL
REMARK 923 INTER-LIGAND FREE ENERGY PREDICTED BY IDOCK:   -4.03 KCAL/MOL
REMARK 924 INTRA-LIGAND FREE ENERGY PREDICTED BY IDOCK:   -0.10 KCAL/MOL
REMARK 927      BINDING AFFINITY PREDICTED BY RF-SCORE:    0.00 PKD
ROOT
HETATM    1  O   UNL     1     -12.425  10.840  68.718  1.00  0.00    -0.793 OA 
HETATM    2  H   UNL     1     -12.211   9.979  69.056  1.00  0.00     0.000 HD 
HETATM    3  C   UNL     1     -11.584  11.829  69.298  1.00  0.00    -0.315 C  
ENDROOT
BRANCH   3   4
HETATM    4  C   UNL     1     -11.930  13.221  68.752  1.00  0.00    -0.300 C  
HETATM    5  O   UNL     1     -11.450  13.360  67.400  1.00  0.00    -0.300 OA 
HETATM    6  C   UNL     1     -10.129  13.897  67.473  1.00  0.00    -0.244 C  
HETATM    7  H   UNL     1     -11.813  16.180  70.146  1.00  0.00     0.000 HD 
HETATM    8  O   UNL     1      -9.175  12.835  67.628  1.00  0.00    -0.178 OA 
HETATM    9  C   UNL     1     -10.095  14.818  68.705  1.00  0.00    -0.237 C  
HETATM   10  O   UNL     1      -8.857  14.658  69.413  1.00  0.00    -0.394 OA 
HETATM   11  C   UNL     1     -11.290  14.367  69.545  1.00  0.00    -0.276 C  
HETATM   12  H   UNL     1      -8.296  13.192  67.676  1.00  0.00     0.000 HD 
HETATM   13  H   UNL     1      -8.836  15.227  70.174  1.00  0.00     0.000 HD 
HETATM   14  O   UNL     1     -12.210  15.471  69.654  1.00  0.00    -0.343 OA 
BRANCH   6  15
HETATM   15  C   UNL     1      -9.768  14.638  66.179  1.00  0.00    -0.319 C  
HETATM   16  O   UNL     1     -10.930  15.257  65.616  1.00  0.00    -0.334 OA 
HETATM   17  H   UNL     1     -10.706  15.716  64.815  1.00  0.00     0.000 HD 
ENDBRANCH   6  15
ENDBRANCH   3   4
TORSDOF 2
ENDMDL
MODEL       93
REMARK 921   NORMALIZED FREE ENERGY PREDICTED BY IDOCK:   -3.60 KCAL/MOL
REMARK 922        TOTAL FREE ENERGY PREDICTED BY IDOCK:   -4.11 KCAL/MOL
REMARK 923 INTER-LIGAND FREE ENERGY PREDICTED BY IDOCK:   -3.81 KCAL/MOL
REMARK 924 INTRA-LIGAND FREE ENERGY PREDICTED BY IDOCK:   -0.31 KCAL/MOL
REMARK 927      BINDING AFFINITY PREDICTED BY RF-SCORE:    0.00 PKD
ROOT
HETATM    1  O   UNL     1      -9.095   9.975  69.154  1.00  0.00    -0.161 OA 
HETATM    2  H   UNL     1      -8.297   9.498  68.961  1.00  0.00     0.000 HD 
HETATM    3  C   UNL     1     -10.081   9.724  68.161  1.00  0.00    -0.165 C  
ENDROOT
BRANCH   3   4
HETATM    4  C   UNL     1     -11.371  10.494  68.473  1.00  0.00    -0.257 C  
HETATM    5  O   UNL     1     -11.871  11.133  67.282  1.00  0.00    -0.525 OA 
HETATM    6  C   UNL     1     -11.297  12.440  67.230  1.00  0.00    -0.323 C  
HETATM    7  H   UNL     1     -12.207  12.372  71.020  1.00  0.00     0.000 HD 
HETATM    8  O   UNL     1     -10.017  12.390  66.583  1.00  0.00    -0.217 OA 
HETATM    9  C   UNL     1     -11.131  12.906  68.688  1.00  0.00    -0.269 C  
HETATM   10  O   UNL     1      -9.880  13.588  68.853  1.00  0.00    -0.413 OA 
HETATM   11  C   UNL     1     -11.183  11.613  69.504  1.00  0.00    -0.213 C  
HETATM   12  H   UNL     1      -9.636  13.259  66.548  1.00  0.00     0.000 HD 
HETATM   13  H   UNL     1      -9.777  13.876  69.753  1.00  0.00     0.000 HD 
HETATM   14  O   UNL     1     -12.324  11.679  70.382  1.00  0.00    -0.321 OA 
BRANCH   6  15
HETATM   15  C   UNL     1     -12.178  13.391  66.410  1.00  0.00    -0.376 C  
HETATM   16  O   UNL     1     -12.523  14.546  67.182  1.00  0.00    -0.567 OA 
HETATM   17  H   UNL     1     -13.069  15.135  66.674  1.00  0.00     0.000 HD 
ENDBRANCH   6  15
ENDBRANCH   3   4
TORSDOF 2
ENDMDL
MODEL       94
REMARK 921   NORMALIZED FREE ENERGY PREDICTED BY IDOCK:   -3.59 KCAL/MOL
REMARK 922        TOTAL FREE ENERGY PREDICTED BY IDOCK:   -4.11 KCAL/MOL
REMARK 923 INTER-LIGAND FREE ENERGY PREDICTED BY IDOCK:   -3.88 KCAL/MOL
REMARK 924 INTRA-LIGAND FREE ENERGY PREDICTED BY IDOCK:   -0.23 KCAL/MOL
REMARK 927      BINDING AFFINITY PREDICTED BY RF-SCORE:    0.00 PKD
ROOT
HETATM    1  O   UNL     1     -12.039   7.182  69.866  1.00  0.00    -0.519 OA 
HETATM    2  H   UNL     1     -12.679   6.825  69.263  1.00  0.00     0.000 HD 
HETATM    3  C   UNL     1     -10.929   6.303  69.999  1.00  0.00    -0.358 C  
ENDROOT
BRANCH   3   4
HETATM    4  C   UNL     1      -9.895   6.879  70.975  1.00  0.00    -0.178 C  
HETATM    5  O   UNL     1      -9.708   5.986  72.090  1.00  0.00    -0.156 OA 
HETATM    6  C   UNL     1     -10.638   6.373  73.103  1.00  0.00    -0.255 C  
HETATM    7  H   UNL     1      -9.418   9.928  72.067  1.00  0.00     0.000 HD 
HETATM    8  O   UNL     1     -11.900   5.726  72.885  1.00  0.00    -0.522 OA 
HETATM    9  C   UNL     1     -10.803   7.899  72.989  1.00  0.00    -0.342 C  
HETATM   10  O   UNL     1     -12.178   8.266  73.167  1.00  0.00    -0.595 OA 
HETATM   11  C   UNL     1     -10.307   8.227  71.579  1.00  0.00    -0.214 C  
HETATM   12  H   UNL     1     -12.518   5.983  73.558  1.00  0.00     0.000 HD 
HETATM   13  H   UNL     1     -12.280   9.208  73.097  1.00  0.00     0.000 HD 
HETATM   14  O   UNL     1      -9.162   9.093  71.693  1.00  0.00    -0.320 OA 
BRANCH   6  15
HETATM   15  C   UNL     1     -10.146   5.941  74.490  1.00  0.00    -0.300 C  
HETATM   16  O   UNL     1      -8.718   6.008  74.557  1.00  0.00    -0.121 OA 
HETATM   17  H   UNL     1      -8.413   5.740  75.417  1.00  0.00     0.000 HD 
ENDBRANCH   6  15
ENDBRANCH   3   4
TORSDOF 2
ENDMDL
MODEL       95
REMARK 921   NORMALIZED FREE ENERGY PREDICTED BY IDOCK:   -3.59 KCAL/MOL
REMARK 922        TOTAL FREE ENERGY PREDICTED BY IDOCK:   -4.10 KCAL/MOL
REMARK 923 INTER-LIGAND FREE ENERGY PREDICTED BY IDOCK:   -3.87 KCAL/MOL
REMARK 924 INTRA-LIGAND FREE ENERGY PREDICTED BY IDOCK:   -0.23 KCAL/MOL
REMARK 927      BINDING AFFINITY PREDICTED BY RF-SCORE:    0.00 PKD
ROOT
HETATM    1  O   UNL     1     -12.119  11.977  65.668  1.00  0.00    -0.508 OA 
HETATM    2  H   UNL     1     -11.685  11.392  65.059  1.00  0.00     0.000 HD 
HETATM    3  C   UNL     1     -11.201  12.461  66.640  1.00  0.00    -0.315 C  
ENDROOT
BRANCH   3   4
HETATM    4  C   UNL     1     -11.902  13.405  67.625  1.00  0.00    -0.354 C  
HETATM    5  O   UNL     1     -11.816  14.766  67.160  1.00  0.00    -0.374 OA 
HETATM    6  C   UNL     1     -10.628  15.330  67.719  1.00  0.00    -0.266 C  
HETATM    7  H   UNL     1     -11.930  13.484  70.897  1.00  0.00     0.000 HD 
HETATM    8  O   UNL     1      -9.503  15.043  66.876  1.00  0.00    -0.219 OA 
HETATM    9  C   UNL     1     -10.435  14.670  69.097  1.00  0.00    -0.233 C  
HETATM   10  O   UNL     1      -9.049  14.373  69.316  1.00  0.00    -0.392 OA 
HETATM   11  C   UNL     1     -11.282  13.399  69.027  1.00  0.00    -0.275 C  
HETATM   12  H   UNL     1      -8.714  15.417  67.248  1.00  0.00     0.000 HD 
HETATM   13  H   UNL     1      -8.929  13.966  70.166  1.00  0.00     0.000 HD 
HETATM   14  O   UNL     1     -12.315  13.488  70.029  1.00  0.00    -0.307 OA 
BRANCH   6  15
HETATM   15  C   UNL     1     -10.741  16.857  67.814  1.00  0.00    -0.315 C  
HETATM   16  O   UNL     1     -10.213  17.321  69.060  1.00  0.00    -0.316 OA 
HETATM   17  H   UNL     1     -10.283  18.267  69.118  1.00  0.00     0.000 HD 
ENDBRANCH   6  15
ENDBRANCH   3   4
TORSDOF 2
ENDMDL
MODEL       96
REMARK 921   NORMALIZED FREE ENERGY PREDICTED BY IDOCK:   -3.59 KCAL/MOL
REMARK 922        TOTAL FREE ENERGY PREDICTED BY IDOCK:   -4.10 KCAL/MOL
REMARK 923 INTER-LIGAND FREE ENERGY PREDICTED BY IDOCK:   -3.78 KCAL/MOL
REMARK 924 INTRA-LIGAND FREE ENERGY PREDICTED BY IDOCK:   -0.32 KCAL/MOL
REMARK 927      BINDING AFFINITY PREDICTED BY RF-SCORE:    0.00 PKD
ROOT
HETATM    1  O   UNL     1      -9.390  11.495  63.709  1.00  0.00    -0.415 OA 
HETATM    2  H   UNL     1      -9.574  11.502  62.778  1.00  0.00     0.000 HD 
HETATM    3  C   UNL     1      -9.736  10.240  64.280  1.00  0.00    -0.308 C  
ENDROOT
BRANCH   3   4
HETATM    4  C   UNL     1      -9.438  10.229  65.786  1.00  0.00    -0.203 C  
HETATM    5  O   UNL     1     -10.661  10.351  66.537  1.00  0.00    -0.184 OA 
HETATM    6  C   UNL     1     -10.885  11.744  66.758  1.00  0.00    -0.270 C  
HETATM    7  H   UNL     1      -7.065  11.656  67.531  1.00  0.00     0.000 HD 
HETATM    8  O   UNL     1     -11.593  12.311  65.646  1.00  0.00    -0.359 OA 
HETATM    9  C   UNL     1      -9.498  12.398  66.886  1.00  0.00    -0.219 C  
HETATM   10  O   UNL     1      -9.476  13.659  66.202  1.00  0.00    -0.421 OA 
HETATM   11  C   UNL     1      -8.545  11.389  66.242  1.00  0.00    -0.156 C  
HETATM   12  H   UNL     1     -11.742  13.237  65.793  1.00  0.00     0.000 HD 
HETATM   13  H   UNL     1      -8.620  14.063  66.281  1.00  0.00     0.000 HD 
HETATM   14  O   UNL     1      -7.618  10.937  67.249  1.00  0.00    -0.097 OA 
BRANCH   6  15
HETATM   15  C   UNL     1     -11.753  11.967  68.004  1.00  0.00    -0.331 C  
HETATM   16  O   UNL     1     -12.372  10.742  68.408  1.00  0.00    -0.813 OA 
HETATM   17  H   UNL     1     -12.909  10.881  69.180  1.00  0.00     0.000 HD 
ENDBRANCH   6  15
ENDBRANCH   3   4
TORSDOF 2
ENDMDL
MODEL       97
REMARK 921   NORMALIZED FREE ENERGY PREDICTED BY IDOCK:   -3.58 KCAL/MOL
REMARK 922        TOTAL FREE ENERGY PREDICTED BY IDOCK:   -4.09 KCAL/MOL
REMARK 923 INTER-LIGAND FREE ENERGY PREDICTED BY IDOCK:   -3.76 KCAL/MOL
REMARK 924 INTRA-LIGAND FREE ENERGY PREDICTED BY IDOCK:   -0.33 KCAL/MOL
REMARK 927      BINDING AFFINITY PREDICTED BY RF-SCORE:    0.00 PKD
ROOT
HETATM    1  O   UNL     1     -10.127  14.428  64.473  1.00  0.00    -0.605 OA 
HETATM    2  H   UNL     1     -10.367  14.416  63.555  1.00  0.00     0.000 HD 
HETATM    3  C   UNL     1     -11.287  14.425  65.295  1.00  0.00    -0.346 C  
ENDROOT
BRANCH   3   4
HETATM    4  C   UNL     1     -10.899  14.443  66.780  1.00  0.00    -0.301 C  
HETATM    5  O   UNL     1      -9.629  13.790  66.972  1.00  0.00    -0.235 OA 
HETATM    6  C   UNL     1      -9.897  12.410  67.228  1.00  0.00    -0.207 C  
HETATM    7  H   UNL     1     -12.675  13.955  69.486  1.00  0.00     0.000 HD 
HETATM    8  O   UNL     1     -10.002  11.691  65.990  1.00  0.00    -0.214 OA 
HETATM    9  C   UNL     1     -11.238  12.355  67.982  1.00  0.00    -0.268 C  
HETATM   10  O   UNL     1     -12.033  11.261  67.506  1.00  0.00    -0.612 OA 
HETATM   11  C   UNL     1     -11.893  13.704  67.683  1.00  0.00    -0.369 C  
HETATM   12  H   UNL     1     -10.180  10.774  66.161  1.00  0.00     0.000 HD 
HETATM   13  H   UNL     1     -12.861  11.227  67.971  1.00  0.00     0.000 HD 
HETATM   14  O   UNL     1     -12.058  14.413  68.927  1.00  0.00    -0.311 OA 
BRANCH   6  15
HETATM   15  C   UNL     1      -8.753  11.770  68.024  1.00  0.00    -0.167 C  
HETATM   16  O   UNL     1      -8.889  10.345  68.039  1.00  0.00    -0.128 OA 
HETATM   17  H   UNL     1      -8.180   9.949  68.532  1.00  0.00     0.000 HD 
ENDBRANCH   6  15
ENDBRANCH   3   4
TORSDOF 2
ENDMDL
MODEL       98
REMARK 921   NORMALIZED FREE ENERGY PREDICTED BY IDOCK:   -3.56 KCAL/MOL
REMARK 922        TOTAL FREE ENERGY PREDICTED BY IDOCK:   -4.07 KCAL/MOL
REMARK 923 INTER-LIGAND FREE ENERGY PREDICTED BY IDOCK:   -3.73 KCAL/MOL
REMARK 924 INTRA-LIGAND FREE ENERGY PREDICTED BY IDOCK:   -0.34 KCAL/MOL
REMARK 927      BINDING AFFINITY PREDICTED BY RF-SCORE:    0.00 PKD
ROOT
HETATM    1  O   UNL     1      -6.231  18.509  69.497  1.00  0.00    -0.258 OA 
HETATM    2  H   UNL     1      -6.171  18.293  70.420  1.00  0.00     0.000 HD 
HETATM    3  C   UNL     1      -7.110  19.608  69.296  1.00  0.00    -0.331 C  
ENDROOT
BRANCH   3   4
HETATM    4  C   UNL     1      -7.207  19.958  67.805  1.00  0.00    -0.278 C  
HETATM    5  O   UNL     1      -8.569  20.274  67.455  1.00  0.00    -0.337 OA 
HETATM    6  C   UNL     1      -9.193  19.058  67.042  1.00  0.00    -0.299 C  
HETATM    7  H   UNL     1      -5.801  18.614  65.173  1.00  0.00     0.000 HD 
HETATM    8  O   UNL     1      -9.721  18.365  68.182  1.00  0.00    -0.301 OA 
HETATM    9  C   UNL     1      -8.100  18.208  66.370  1.00  0.00    -0.261 C  
HETATM   10  O   UNL     1      -8.234  16.831  66.751  1.00  0.00    -0.190 OA 
HETATM   11  C   UNL     1      -6.789  18.811  66.878  1.00  0.00    -0.198 C  
HETATM   12  H   UNL     1     -10.136  17.556  67.908  1.00  0.00     0.000 HD 
HETATM   13  H   UNL     1      -7.560  16.307  66.336  1.00  0.00     0.000 HD 
HETATM   14  O   UNL     1      -6.060  19.325  65.747  1.00  0.00    -0.178 OA 
BRANCH   6  15
HETATM   15  C   UNL     1     -10.373  19.341  66.103  1.00  0.00    -0.494 C  
HETATM   16  O   UNL     1     -10.682  18.181  65.323  1.00  0.00    -0.605 OA 
HETATM   17  H   UNL     1     -11.412  18.356  64.742  1.00  0.00     0.000 HD 
ENDBRANCH   6  15
ENDBRANCH   3   4
TORSDOF 2
ENDMDL
MODEL       99
REMARK 921   NORMALIZED FREE ENERGY PREDICTED BY IDOCK:   -3.54 KCAL/MOL
REMARK 922        TOTAL FREE ENERGY PREDICTED BY IDOCK:   -4.05 KCAL/MOL
REMARK 923 INTER-LIGAND FREE ENERGY PREDICTED BY IDOCK:   -3.94 KCAL/MOL
REMARK 924 INTRA-LIGAND FREE ENERGY PREDICTED BY IDOCK:   -0.11 KCAL/MOL
REMARK 927      BINDING AFFINITY PREDICTED BY RF-SCORE:    0.00 PKD
ROOT
HETATM    1  O   UNL     1     -12.504  14.412  68.716  1.00  0.00    -0.582 OA 
HETATM    2  H   UNL     1     -13.239  14.630  69.276  1.00  0.00     0.000 HD 
HETATM    3  C   UNL     1     -11.635  15.528  68.572  1.00  0.00    -0.368 C  
ENDROOT
BRANCH   3   4
HETATM    4  C   UNL     1     -10.447  15.175  67.666  1.00  0.00    -0.253 C  
HETATM    5  O   UNL     1      -9.258  15.853  68.117  1.00  0.00    -0.188 OA 
HETATM    6  C   UNL     1      -9.198  17.105  67.430  1.00  0.00    -0.232 C  
HETATM    7  H   UNL     1     -10.225  14.856  64.416  1.00  0.00     0.000 HD 
HETATM    8  O   UNL     1      -9.950  18.094  68.148  1.00  0.00    -0.320 OA 
HETATM    9  C   UNL     1      -9.821  16.875  66.042  1.00  0.00    -0.258 C  
HETATM   10  O   UNL     1     -10.643  17.992  65.674  1.00  0.00    -0.599 OA 
HETATM   11  C   UNL     1     -10.644  15.596  66.205  1.00  0.00    -0.307 C  
HETATM   12  H   UNL     1      -9.911  18.926  67.691  1.00  0.00     0.000 HD 
HETATM   13  H   UNL     1     -11.028  17.851  64.817  1.00  0.00     0.000 HD 
HETATM   14  O   UNL     1     -10.103  14.595  65.321  1.00  0.00    -0.371 OA 
BRANCH   6  15
HETATM   15  C   UNL     1      -7.753  17.613  67.346  1.00  0.00    -0.200 C  
HETATM   16  O   UNL     1      -7.108  17.094  66.179  1.00  0.00    -0.265 OA 
HETATM   17  H   UNL     1      -6.213  17.409  66.127  1.00  0.00     0.000 HD 
ENDBRANCH   6  15
ENDBRANCH   3   4
TORSDOF 2
ENDMDL
MODEL      100
REMARK 921   NORMALIZED FREE ENERGY PREDICTED BY IDOCK:   -3.54 KCAL/MOL
REMARK 922        TOTAL FREE ENERGY PREDICTED BY IDOCK:   -4.05 KCAL/MOL
REMARK 923 INTER-LIGAND FREE ENERGY PREDICTED BY IDOCK:   -3.71 KCAL/MOL
REMARK 924 INTRA-LIGAND FREE ENERGY PREDICTED BY IDOCK:   -0.33 KCAL/MOL
REMARK 927      BINDING AFFINITY PREDICTED BY RF-SCORE:    0.00 PKD
ROOT
HETATM    1  O   UNL     1     -11.272   9.308  68.929  1.00  0.00    -0.448 OA 
HETATM    2  H   UNL     1     -11.657   9.534  68.091  1.00  0.00     0.000 HD 
HETATM    3  C   UNL     1     -10.342   8.243  68.783  1.00  0.00    -0.205 C  
ENDROOT
BRANCH   3   4
HETATM    4  C   UNL     1      -9.720   7.878  70.138  1.00  0.00    -0.179 C  
HETATM    5  O   UNL     1     -10.301   6.660  70.642  1.00  0.00    -0.198 OA 
HETATM    6  C   UNL     1     -11.425   7.027  71.443  1.00  0.00    -0.276 C  
HETATM    7  H   UNL     1      -8.918   9.726  72.717  1.00  0.00     0.000 HD 
HETATM    8  O   UNL     1     -12.593   7.161  70.618  1.00  0.00    -0.602 OA 
HETATM    9  C   UNL     1     -11.081   8.380  72.091  1.00  0.00    -0.345 C  
HETATM   10  O   UNL     1     -12.228   9.242  72.084  1.00  0.00    -0.359 OA 
HETATM   11  C   UNL     1      -9.950   8.936  71.223  1.00  0.00    -0.288 C  
HETATM   12  H   UNL     1     -13.340   7.406  71.151  1.00  0.00     0.000 HD 
HETATM   13  H   UNL     1     -12.016  10.077  72.484  1.00  0.00     0.000 HD 
HETATM   14  O   UNL     1      -8.775   9.071  72.045  1.00  0.00    -0.367 OA 
BRANCH   6  15
HETATM   15  C   UNL     1     -11.733   5.943  72.483  1.00  0.00    -0.236 C  
HETATM   16  O   UNL     1     -10.719   4.933  72.468  1.00  0.00    -0.210 OA 
HETATM   17  H   UNL     1     -10.909   4.261  73.113  1.00  0.00     0.000 HD 
ENDBRANCH   6  15
ENDBRANCH   3   4
TORSDOF 2
ENDMDL
MODEL      101
REMARK 921   NORMALIZED FREE ENERGY PREDICTED BY IDOCK:   -3.54 KCAL/MOL
REMARK 922        TOTAL FREE ENERGY PREDICTED BY IDOCK:   -4.05 KCAL/MOL
REMARK 923 INTER-LIGAND FREE ENERGY PREDICTED BY IDOCK:   -3.86 KCAL/MOL
REMARK 924 INTRA-LIGAND FREE ENERGY PREDICTED BY IDOCK:   -0.18 KCAL/MOL
REMARK 927      BINDING AFFINITY PREDICTED BY RF-SCORE:    0.00 PKD
ROOT
HETATM    1  O   UNL     1     -11.802   9.930  69.032  1.00  0.00    -0.445 OA 
HETATM    2  H   UNL     1     -12.161   9.056  68.933  1.00  0.00     0.000 HD 
HETATM    3  C   UNL     1     -10.549  10.035  68.369  1.00  0.00    -0.220 C  
ENDROOT
BRANCH   3   4
HETATM    4  C   UNL     1      -9.969  11.447  68.528  1.00  0.00    -0.201 C  
HETATM    5  O   UNL     1     -11.020  12.430  68.444  1.00  0.00    -0.217 OA 
HETATM    6  C   UNL     1     -11.135  12.809  67.071  1.00  0.00    -0.278 C  
HETATM    7  H   UNL     1      -7.245  12.814  67.333  1.00  0.00     0.000 HD 
HETATM    8  O   UNL     1     -12.017  11.909  66.385  1.00  0.00    -0.572 OA 
HETATM    9  C   UNL     1      -9.721  12.721  66.470  1.00  0.00    -0.255 C  
HETATM   10  O   UNL     1      -9.775  12.157  65.152  1.00  0.00    -0.376 OA 
HETATM   11  C   UNL     1      -8.955  11.820  67.440  1.00  0.00    -0.173 C  
HETATM   12  H   UNL     1     -12.094  12.161  65.473  1.00  0.00     0.000 HD 
HETATM   13  H   UNL     1      -8.903  12.102  64.780  1.00  0.00     0.000 HD 
HETATM   14  O   UNL     1      -7.873  12.584  68.008  1.00  0.00    -0.124 OA 
BRANCH   6  15
HETATM   15  C   UNL     1     -11.738  14.214  66.942  1.00  0.00    -0.414 C  
HETATM   16  O   UNL     1     -12.487  14.547  68.115  1.00  0.00    -0.589 OA 
HETATM   17  H   UNL     1     -12.860  15.418  68.035  1.00  0.00     0.000 HD 
ENDBRANCH   6  15
ENDBRANCH   3   4
TORSDOF 2
ENDMDL
MODEL      102
REMARK 921   NORMALIZED FREE ENERGY PREDICTED BY IDOCK:   -3.52 KCAL/MOL
REMARK 922        TOTAL FREE ENERGY PREDICTED BY IDOCK:   -4.02 KCAL/MOL
REMARK 923 INTER-LIGAND FREE ENERGY PREDICTED BY IDOCK:   -3.70 KCAL/MOL
REMARK 924 INTRA-LIGAND FREE ENERGY PREDICTED BY IDOCK:   -0.33 KCAL/MOL
REMARK 927      BINDING AFFINITY PREDICTED BY RF-SCORE:    0.00 PKD
ROOT
HETATM    1  O   UNL     1     -10.575   6.945  73.593  1.00  0.00    -0.336 OA 
HETATM    2  H   UNL     1     -10.055   6.559  74.287  1.00  0.00     0.000 HD 
HETATM    3  C   UNL     1     -11.295   5.942  72.889  1.00  0.00    -0.226 C  
ENDROOT
BRANCH   3   4
HETATM    4  C   UNL     1     -12.136   6.566  71.766  1.00  0.00    -0.342 C  
HETATM    5  O   UNL     1     -11.565   6.250  70.481  1.00  0.00    -0.363 OA 
HETATM    6  C   UNL     1     -10.650   7.297  70.155  1.00  0.00    -0.232 C  
HETATM    7  H   UNL     1     -13.568   9.498  71.511  1.00  0.00     0.000 HD 
HETATM    8  O   UNL     1      -9.360   7.016  70.719  1.00  0.00    -0.161 OA 
HETATM    9  C   UNL     1     -11.222   8.588  70.767  1.00  0.00    -0.257 C  
HETATM   10  O   UNL     1     -10.169   9.376  71.341  1.00  0.00    -0.316 OA 
HETATM   11  C   UNL     1     -12.205   8.096  71.831  1.00  0.00    -0.331 C  
HETATM   12  H   UNL     1      -8.752   7.712  70.502  1.00  0.00     0.000 HD 
HETATM   13  H   UNL     1     -10.522  10.173  71.719  1.00  0.00     0.000 HD 
HETATM   14  O   UNL     1     -13.525   8.550  71.471  1.00  0.00    -0.333 OA 
BRANCH   6  15
HETATM   15  C   UNL     1     -10.462   7.404  68.636  1.00  0.00    -0.189 C  
HETATM   16  O   UNL     1     -11.510   6.711  67.952  1.00  0.00    -0.614 OA 
HETATM   17  H   UNL     1     -11.394   6.778  67.011  1.00  0.00     0.000 HD 
ENDBRANCH   6  15
ENDBRANCH   3   4
TORSDOF 2
ENDMDL
MODEL      103
REMARK 921   NORMALIZED FREE ENERGY PREDICTED BY IDOCK:   -3.52 KCAL/MOL
REMARK 922        TOTAL FREE ENERGY PREDICTED BY IDOCK:   -4.02 KCAL/MOL
REMARK 923 INTER-LIGAND FREE ENERGY PREDICTED BY IDOCK:   -3.77 KCAL/MOL
REMARK 924 INTRA-LIGAND FREE ENERGY PREDICTED BY IDOCK:   -0.26 KCAL/MOL
REMARK 927      BINDING AFFINITY PREDICTED BY RF-SCORE:    0.00 PKD
ROOT
HETATM    1  O   UNL     1      -9.973   9.261  65.779  1.00  0.00    -0.378 OA 
HETATM    2  H   UNL     1      -9.290   8.790  65.318  1.00  0.00     0.000 HD 
HETATM    3  C   UNL     1     -10.097  10.585  65.276  1.00  0.00    -0.300 C  
ENDROOT
BRANCH   3   4
HETATM    4  C   UNL     1     -11.201  11.347  66.022  1.00  0.00    -0.112 C  
HETATM    5  O   UNL     1     -11.273  12.707  65.552  1.00  0.00    -0.286 OA 
HETATM    6  C   UNL     1     -10.406  13.487  66.377  1.00  0.00    -0.289 C  
HETATM    7  H   UNL     1     -12.076  11.348  69.176  1.00  0.00     0.000 HD 
HETATM    8  O   UNL     1      -9.069  13.451  65.855  1.00  0.00    -0.454 OA 
HETATM    9  C   UNL     1     -10.441  12.850  67.778  1.00  0.00    -0.220 C  
HETATM   10  O   UNL     1      -9.126  12.834  68.351  1.00  0.00    -0.264 OA 
HETATM   11  C   UNL     1     -10.970  11.435  67.535  1.00  0.00    -0.260 C  
HETATM   12  H   UNL     1      -8.492  13.969  66.404  1.00  0.00     0.000 HD 
HETATM   13  H   UNL     1      -9.148  12.441  69.215  1.00  0.00     0.000 HD 
HETATM   14  O   UNL     1     -12.220  11.293  68.239  1.00  0.00    -0.611 OA 
BRANCH   6  15
HETATM   15  C   UNL     1     -10.842  14.957  66.392  1.00  0.00    -0.325 C  
HETATM   16  O   UNL     1     -10.459  15.580  67.622  1.00  0.00    -0.267 OA 
HETATM   17  H   UNL     1     -10.730  16.491  67.631  1.00  0.00     0.000 HD 
ENDBRANCH   6  15
ENDBRANCH   3   4
TORSDOF 2
ENDMDL
MODEL      104
REMARK 921   NORMALIZED FREE ENERGY PREDICTED BY IDOCK:   -3.51 KCAL/MOL
REMARK 922        TOTAL FREE ENERGY PREDICTED BY IDOCK:   -4.01 KCAL/MOL
REMARK 923 INTER-LIGAND FREE ENERGY PREDICTED BY IDOCK:   -3.64 KCAL/MOL
REMARK 924 INTRA-LIGAND FREE ENERGY PREDICTED BY IDOCK:   -0.38 KCAL/MOL
REMARK 927      BINDING AFFINITY PREDICTED BY RF-SCORE:    0.00 PKD
ROOT
HETATM    1  O   UNL     1     -13.653   7.413  70.848  1.00  0.00    -0.621 OA 
HETATM    2  H   UNL     1     -14.218   6.722  70.525  1.00  0.00     0.000 HD 
HETATM    3  C   UNL     1     -12.579   6.872  71.606  1.00  0.00    -0.367 C  
ENDROOT
BRANCH   3   4
HETATM    4  C   UNL     1     -11.667   7.990  72.129  1.00  0.00    -0.344 C  
HETATM    5  O   UNL     1     -11.719   9.129  71.247  1.00  0.00    -0.282 OA 
HETATM    6  C   UNL     1     -10.683   8.961  70.277  1.00  0.00    -0.221 C  
HETATM    7  H   UNL     1      -8.672   7.900  73.444  1.00  0.00     0.000 HD 
HETATM    8  O   UNL     1     -11.162   8.174  69.177  1.00  0.00    -0.423 OA 
HETATM    9  C   UNL     1      -9.532   8.226  70.987  1.00  0.00    -0.161 C  
HETATM   10  O   UNL     1      -8.960   7.239  70.117  1.00  0.00    -0.147 OA 
HETATM   11  C   UNL     1     -10.190   7.588  72.211  1.00  0.00    -0.206 C  
HETATM   12  H   UNL     1     -10.474   8.062  68.533  1.00  0.00     0.000 HD 
HETATM   13  H   UNL     1      -8.249   6.785  70.555  1.00  0.00     0.000 HD 
HETATM   14  O   UNL     1      -9.587   8.150  73.393  1.00  0.00    -0.254 OA 
BRANCH   6  15
HETATM   15  C   UNL     1     -10.246  10.315  69.705  1.00  0.00    -0.235 C  
HETATM   16  O   UNL     1      -8.840  10.506  69.888  1.00  0.00    -0.377 OA 
HETATM   17  H   UNL     1      -8.569  11.345  69.533  1.00  0.00     0.000 HD 
ENDBRANCH   6  15
ENDBRANCH   3   4
TORSDOF 2
ENDMDL
MODEL      105
REMARK 921   NORMALIZED FREE ENERGY PREDICTED BY IDOCK:   -3.51 KCAL/MOL
REMARK 922        TOTAL FREE ENERGY PREDICTED BY IDOCK:   -4.01 KCAL/MOL
REMARK 923 INTER-LIGAND FREE ENERGY PREDICTED BY IDOCK:   -3.64 KCAL/MOL
REMARK 924 INTRA-LIGAND FREE ENERGY PREDICTED BY IDOCK:   -0.37 KCAL/MOL
REMARK 927      BINDING AFFINITY PREDICTED BY RF-SCORE:    0.00 PKD
ROOT
HETATM    1  O   UNL     1     -11.288  15.002  68.661  1.00  0.00    -0.267 OA 
HETATM    2  H   UNL     1     -11.283  15.686  69.319  1.00  0.00     0.000 HD 
HETATM    3  C   UNL     1     -11.818  13.796  69.195  1.00  0.00    -0.354 C  
ENDROOT
BRANCH   3   4
HETATM    4  C   UNL     1     -11.825  12.690  68.132  1.00  0.00    -0.315 C  
HETATM    5  O   UNL     1     -10.792  11.723  68.409  1.00  0.00    -0.201 OA 
HETATM    6  C   UNL     1      -9.616  12.151  67.721  1.00  0.00    -0.195 C  
HETATM    7  H   UNL     1     -12.205  12.816  64.883  1.00  0.00     0.000 HD 
HETATM    8  O   UNL     1      -8.877  13.072  68.536  1.00  0.00    -0.309 OA 
HETATM    9  C   UNL     1     -10.089  12.851  66.434  1.00  0.00    -0.269 C  
HETATM   10  O   UNL     1      -9.300  14.022  66.185  1.00  0.00    -0.456 OA 
HETATM   11  C   UNL     1     -11.552  13.202  66.713  1.00  0.00    -0.366 C  
HETATM   12  H   UNL     1      -8.095  13.356  68.078  1.00  0.00     0.000 HD 
HETATM   13  H   UNL     1      -9.592  14.454  65.391  1.00  0.00     0.000 HD 
HETATM   14  O   UNL     1     -12.375  12.498  65.762  1.00  0.00    -0.627 OA 
BRANCH   6  15
HETATM   15  C   UNL     1      -8.690  10.963  67.433  1.00  0.00    -0.130 C  
HETATM   16  O   UNL     1      -8.889  10.484  66.099  1.00  0.00    -0.150 OA 
HETATM   17  H   UNL     1      -8.315   9.748  65.921  1.00  0.00     0.000 HD 
ENDBRANCH   6  15
ENDBRANCH   3   4
TORSDOF 2
ENDMDL
MODEL      106
REMARK 921   NORMALIZED FREE ENERGY PREDICTED BY IDOCK:   -3.49 KCAL/MOL
REMARK 922        TOTAL FREE ENERGY PREDICTED BY IDOCK:   -3.99 KCAL/MOL
REMARK 923 INTER-LIGAND FREE ENERGY PREDICTED BY IDOCK:   -3.76 KCAL/MOL
REMARK 924 INTRA-LIGAND FREE ENERGY PREDICTED BY IDOCK:   -0.23 KCAL/MOL
REMARK 927      BINDING AFFINITY PREDICTED BY RF-SCORE:    0.00 PKD
ROOT
HETATM    1  O   UNL     1      -9.450  20.306  67.902  1.00  0.00    -0.335 OA 
HETATM    2  H   UNL     1      -9.496  20.780  68.723  1.00  0.00     0.000 HD 
HETATM    3  C   UNL     1      -8.112  20.256  67.426  1.00  0.00    -0.336 C  
ENDROOT
BRANCH   3   4
HETATM    4  C   UNL     1      -8.038  19.490  66.098  1.00  0.00    -0.333 C  
HETATM    5  O   UNL     1      -9.068  18.484  66.044  1.00  0.00    -0.495 OA 
HETATM    6  C   UNL     1      -8.514  17.281  66.579  1.00  0.00    -0.271 C  
HETATM    7  H   UNL     1      -5.482  18.373  64.385  1.00  0.00     0.000 HD 
HETATM    8  O   UNL     1      -8.667  17.262  68.006  1.00  0.00    -0.220 OA 
HETATM    9  C   UNL     1      -7.020  17.283  66.210  1.00  0.00    -0.264 C  
HETATM   10  O   UNL     1      -6.235  16.803  67.311  1.00  0.00    -0.141 OA 
HETATM   11  C   UNL     1      -6.713  18.747  65.891  1.00  0.00    -0.259 C  
HETATM   12  H   UNL     1      -8.299  16.463  68.362  1.00  0.00     0.000 HD 
HETATM   13  H   UNL     1      -5.312  16.804  67.084  1.00  0.00     0.000 HD 
HETATM   14  O   UNL     1      -6.303  18.833  64.512  1.00  0.00    -0.462 OA 
BRANCH   6  15
HETATM   15  C   UNL     1      -9.249  16.051  66.032  1.00  0.00    -0.340 C  
HETATM   16  O   UNL     1     -10.573  15.979  66.570  1.00  0.00    -0.308 OA 
HETATM   17  H   UNL     1     -11.029  15.216  66.231  1.00  0.00     0.000 HD 
ENDBRANCH   6  15
ENDBRANCH   3   4
TORSDOF 2
ENDMDL
MODEL      107
REMARK 921   NORMALIZED FREE ENERGY PREDICTED BY IDOCK:   -3.49 KCAL/MOL
REMARK 922        TOTAL FREE ENERGY PREDICTED BY IDOCK:   -3.99 KCAL/MOL
REMARK 923 INTER-LIGAND FREE ENERGY PREDICTED BY IDOCK:   -3.82 KCAL/MOL
REMARK 924 INTRA-LIGAND FREE ENERGY PREDICTED BY IDOCK:   -0.17 KCAL/MOL
REMARK 927      BINDING AFFINITY PREDICTED BY RF-SCORE:    0.00 PKD
ROOT
HETATM    1  O   UNL     1      -8.562  11.718  68.961  1.00  0.00    -0.369 OA 
HETATM    2  H   UNL     1      -7.708  11.625  69.363  1.00  0.00     0.000 HD 
HETATM    3  C   UNL     1      -8.760  13.050  68.505  1.00  0.00    -0.042 C  
ENDROOT
BRANCH   3   4
HETATM    4  C   UNL     1     -10.141  13.201  67.854  1.00  0.00    -0.232 C  
HETATM    5  O   UNL     1     -10.612  14.556  67.990  1.00  0.00    -0.233 OA 
HETATM    6  C   UNL     1     -11.358  14.626  69.206  1.00  0.00    -0.286 C  
HETATM    7  H   UNL     1     -12.765  11.244  67.871  1.00  0.00     0.000 HD 
HETATM    8  O   UNL     1     -10.479  14.894  70.308  1.00  0.00    -0.478 OA 
HETATM    9  C   UNL     1     -12.028  13.252  69.390  1.00  0.00    -0.301 C  
HETATM   10  O   UNL     1     -11.970  12.850  70.766  1.00  0.00    -0.500 OA 
HETATM   11  C   UNL     1     -11.219  12.316  68.491  1.00  0.00    -0.271 C  
HETATM   12  H   UNL     1     -10.975  14.940  71.116  1.00  0.00     0.000 HD 
HETATM   13  H   UNL     1     -12.383  12.002  70.879  1.00  0.00     0.000 HD 
HETATM   14  O   UNL     1     -12.098  11.792  67.476  1.00  0.00    -0.599 OA 
BRANCH   6  15
HETATM   15  C   UNL     1     -12.378  15.771  69.156  1.00  0.00     0.074 C  
HETATM   16  O   UNL     1     -12.835  16.092  70.474  1.00  0.00    -0.586 OA 
HETATM   17  H   UNL     1     -13.466  16.801  70.443  1.00  0.00     0.000 HD 
ENDBRANCH   6  15
ENDBRANCH   3   4
TORSDOF 2
ENDMDL
MODEL      108
REMARK 921   NORMALIZED FREE ENERGY PREDICTED BY IDOCK:   -3.48 KCAL/MOL
REMARK 922        TOTAL FREE ENERGY PREDICTED BY IDOCK:   -3.98 KCAL/MOL
REMARK 923 INTER-LIGAND FREE ENERGY PREDICTED BY IDOCK:   -3.69 KCAL/MOL
REMARK 924 INTRA-LIGAND FREE ENERGY PREDICTED BY IDOCK:   -0.30 KCAL/MOL
REMARK 927      BINDING AFFINITY PREDICTED BY RF-SCORE:    0.00 PKD
ROOT
HETATM    1  O   UNL     1      -9.884  18.432  69.054  1.00  0.00    -0.344 OA 
HETATM    2  H   UNL     1     -10.289  19.210  69.418  1.00  0.00     0.000 HD 
HETATM    3  C   UNL     1      -9.980  18.434  67.635  1.00  0.00    -0.338 C  
ENDROOT
BRANCH   3   4
HETATM    4  C   UNL     1      -9.327  17.177  67.046  1.00  0.00    -0.243 C  
HETATM    5  O   UNL     1     -10.336  16.278  66.546  1.00  0.00    -0.293 OA 
HETATM    6  C   UNL     1     -10.685  15.397  67.615  1.00  0.00    -0.292 C  
HETATM    7  H   UNL     1      -6.816  15.354  68.088  1.00  0.00     0.000 HD 
HETATM    8  O   UNL     1     -11.712  15.988  68.424  1.00  0.00    -0.346 OA 
HETATM    9  C   UNL     1      -9.409  15.192  68.451  1.00  0.00    -0.197 C  
HETATM   10  O   UNL     1      -9.725  15.197  69.851  1.00  0.00    -0.446 OA 
HETATM   11  C   UNL     1      -8.515  16.372  68.068  1.00  0.00    -0.183 C  
HETATM   12  H   UNL     1     -11.944  15.403  69.135  1.00  0.00     0.000 HD 
HETATM   13  H   UNL     1      -8.937  15.071  70.367  1.00  0.00     0.000 HD 
HETATM   14  O   UNL     1      -7.318  15.852  67.455  1.00  0.00    -0.139 OA 
BRANCH   6  15
HETATM   15  C   UNL     1     -11.246  14.076  67.073  1.00  0.00    -0.313 C  
HETATM   16  O   UNL     1     -12.645  14.202  66.796  1.00  0.00    -0.554 OA 
HETATM   17  H   UNL     1     -12.992  13.384  66.460  1.00  0.00     0.000 HD 
ENDBRANCH   6  15
ENDBRANCH   3   4
TORSDOF 2
ENDMDL
MODEL      109
REMARK 921   NORMALIZED FREE ENERGY PREDICTED BY IDOCK:   -3.47 KCAL/MOL
REMARK 922        TOTAL FREE ENERGY PREDICTED BY IDOCK:   -3.97 KCAL/MOL
REMARK 923 INTER-LIGAND FREE ENERGY PREDICTED BY IDOCK:   -3.80 KCAL/MOL
REMARK 924 INTRA-LIGAND FREE ENERGY PREDICTED BY IDOCK:   -0.17 KCAL/MOL
REMARK 927      BINDING AFFINITY PREDICTED BY RF-SCORE:    0.00 PKD
ROOT
HETATM    1  O   UNL     1     -11.456  14.918  70.116  1.00  0.00    -0.255 OA 
HETATM    2  H   UNL     1     -11.736  15.157  70.991  1.00  0.00     0.000 HD 
HETATM    3  C   UNL     1     -12.390  14.030  69.516  1.00  0.00    -0.229 C  
ENDROOT
BRANCH   3   4
HETATM    4  C   UNL     1     -11.939  13.644  68.101  1.00  0.00    -0.355 C  
HETATM    5  O   UNL     1     -11.985  12.213  67.936  1.00  0.00    -0.489 OA 
HETATM    6  C   UNL     1     -10.703  11.703  68.307  1.00  0.00    -0.213 C  
HETATM    7  H   UNL     1      -9.507  14.773  66.223  1.00  0.00     0.000 HD 
HETATM    8  O   UNL     1     -10.658  11.469  69.723  1.00  0.00    -0.436 OA 
HETATM    9  C   UNL     1      -9.672  12.778  67.920  1.00  0.00    -0.217 C  
HETATM   10  O   UNL     1      -8.670  12.898  68.939  1.00  0.00    -0.365 OA 
HETATM   11  C   UNL     1     -10.498  14.059  67.783  1.00  0.00    -0.236 C  
HETATM   12  H   UNL     1      -9.806  11.130  69.969  1.00  0.00     0.000 HD 
HETATM   13  H   UNL     1      -8.034  13.562  68.700  1.00  0.00     0.000 HD 
HETATM   14  O   UNL     1     -10.400  14.516  66.420  1.00  0.00    -0.280 OA 
BRANCH   6  15
HETATM   15  C   UNL     1     -10.431  10.358  67.621  1.00  0.00    -0.233 C  
HETATM   16  O   UNL     1     -11.355   9.366  68.079  1.00  0.00    -0.494 OA 
HETATM   17  H   UNL     1     -11.186   8.533  67.653  1.00  0.00     0.000 HD 
ENDBRANCH   6  15
ENDBRANCH   3   4
TORSDOF 2
ENDMDL
MODEL      110
REMARK 921   NORMALIZED FREE ENERGY PREDICTED BY IDOCK:   -3.47 KCAL/MOL
REMARK 922        TOTAL FREE ENERGY PREDICTED BY IDOCK:   -3.97 KCAL/MOL
REMARK 923 INTER-LIGAND FREE ENERGY PREDICTED BY IDOCK:   -3.66 KCAL/MOL
REMARK 924 INTRA-LIGAND FREE ENERGY PREDICTED BY IDOCK:   -0.31 KCAL/MOL
REMARK 927      BINDING AFFINITY PREDICTED BY RF-SCORE:    0.00 PKD
ROOT
HETATM    1  O   UNL     1     -10.264  14.427  64.855  1.00  0.00    -0.429 OA 
HETATM    2  H   UNL     1     -10.507  14.194  63.968  1.00  0.00     0.000 HD 
HETATM    3  C   UNL     1     -11.420  14.580  65.669  1.00  0.00    -0.341 C  
ENDROOT
BRANCH   3   4
HETATM    4  C   UNL     1     -11.026  14.958  67.103  1.00  0.00    -0.323 C  
HETATM    5  O   UNL     1     -11.269  16.359  67.335  1.00  0.00    -0.135 OA 
HETATM    6  C   UNL     1     -10.070  17.058  66.997  1.00  0.00    -0.295 C  
HETATM    7  H   UNL     1      -8.463  14.087  68.943  1.00  0.00     0.000 HD 
HETATM    8  O   UNL     1     -10.057  17.363  65.595  1.00  0.00    -0.566 OA 
HETATM    9  C   UNL     1      -8.900  16.118  67.341  1.00  0.00    -0.187 C  
HETATM   10  O   UNL     1      -7.891  16.185  66.323  1.00  0.00    -0.236 OA 
HETATM   11  C   UNL     1      -9.542  14.731  67.412  1.00  0.00    -0.210 C  
HETATM   12  H   UNL     1      -9.260  17.827  65.370  1.00  0.00     0.000 HD 
HETATM   13  H   UNL     1      -7.170  15.605  66.535  1.00  0.00     0.000 HD 
HETATM   14  O   UNL     1      -9.383  14.228  68.752  1.00  0.00    -0.189 OA 
BRANCH   6  15
HETATM   15  C   UNL     1      -9.986  18.393  67.747  1.00  0.00    -0.346 C  
HETATM   16  O   UNL     1     -11.140  19.195  67.475  1.00  0.00    -0.405 OA 
HETATM   17  H   UNL     1     -11.087  20.021  67.940  1.00  0.00     0.000 HD 
ENDBRANCH   6  15
ENDBRANCH   3   4
TORSDOF 2
ENDMDL
MODEL      111
REMARK 921   NORMALIZED FREE ENERGY PREDICTED BY IDOCK:   -3.46 KCAL/MOL
REMARK 922        TOTAL FREE ENERGY PREDICTED BY IDOCK:   -3.96 KCAL/MOL
REMARK 923 INTER-LIGAND FREE ENERGY PREDICTED BY IDOCK:   -3.60 KCAL/MOL
REMARK 924 INTRA-LIGAND FREE ENERGY PREDICTED BY IDOCK:   -0.36 KCAL/MOL
REMARK 927      BINDING AFFINITY PREDICTED BY RF-SCORE:    0.00 PKD
ROOT
HETATM    1  O   UNL     1     -11.744   9.979  68.096  1.00  0.00    -0.660 OA 
HETATM    2  H   UNL     1     -12.166   9.467  68.775  1.00  0.00     0.000 HD 
HETATM    3  C   UNL     1     -12.015  11.364  68.270  1.00  0.00    -0.164 C  
ENDROOT
BRANCH   3   4
HETATM    4  C   UNL     1     -11.332  12.191  67.172  1.00  0.00    -0.331 C  
HETATM    5  O   UNL     1     -10.031  11.646  66.874  1.00  0.00    -0.198 OA 
HETATM    6  C   UNL     1      -9.091  12.303  67.725  1.00  0.00    -0.191 C  
HETATM    7  H   UNL     1     -11.182  15.423  66.677  1.00  0.00     0.000 HD 
HETATM    8  O   UNL     1      -9.011  11.622  68.986  1.00  0.00    -0.379 OA 
HETATM    9  C   UNL     1      -9.614  13.736  67.935  1.00  0.00    -0.222 C  
HETATM   10  O   UNL     1      -9.429  14.140  69.299  1.00  0.00    -0.401 OA 
HETATM   11  C   UNL     1     -11.096  13.654  67.565  1.00  0.00    -0.277 C  
HETATM   12  H   UNL     1      -8.386  12.059  69.552  1.00  0.00     0.000 HD 
HETATM   13  H   UNL     1      -9.751  15.024  69.428  1.00  0.00     0.000 HD 
HETATM   14  O   UNL     1     -11.328  14.517  66.434  1.00  0.00    -0.335 OA 
BRANCH   6  15
HETATM   15  C   UNL     1      -7.686  12.278  67.110  1.00  0.00    -0.134 C  
HETATM   16  O   UNL     1      -7.032  13.536  67.305  1.00  0.00    -0.311 OA 
HETATM   17  H   UNL     1      -6.161  13.519  66.925  1.00  0.00     0.000 HD 
ENDBRANCH   6  15
ENDBRANCH   3   4
TORSDOF 2
ENDMDL
MODEL      112
REMARK 921   NORMALIZED FREE ENERGY PREDICTED BY IDOCK:   -3.42 KCAL/MOL
REMARK 922        TOTAL FREE ENERGY PREDICTED BY IDOCK:   -3.91 KCAL/MOL
REMARK 923 INTER-LIGAND FREE ENERGY PREDICTED BY IDOCK:   -3.57 KCAL/MOL
REMARK 924 INTRA-LIGAND FREE ENERGY PREDICTED BY IDOCK:   -0.34 KCAL/MOL
REMARK 927      BINDING AFFINITY PREDICTED BY RF-SCORE:    0.00 PKD
ROOT
HETATM    1  O   UNL     1      -7.793  16.021  67.300  1.00  0.00    -0.149 OA 
HETATM    2  H   UNL     1      -7.769  15.142  67.656  1.00  0.00     0.000 HD 
HETATM    3  C   UNL     1      -6.799  16.836  67.909  1.00  0.00    -0.144 C  
ENDROOT
BRANCH   3   4
HETATM    4  C   UNL     1      -6.837  18.257  67.333  1.00  0.00    -0.197 C  
HETATM    5  O   UNL     1      -7.590  19.128  68.200  1.00  0.00    -0.267 OA 
HETATM    6  C   UNL     1      -8.949  19.090  67.761  1.00  0.00    -0.293 C  
HETATM    7  H   UNL     1      -7.233  19.340  64.269  1.00  0.00     0.000 HD 
HETATM    8  O   UNL     1      -9.635  17.993  68.381  1.00  0.00    -0.305 OA 
HETATM    9  C   UNL     1      -8.913  18.894  66.235  1.00  0.00    -0.259 C  
HETATM   10  O   UNL     1      -9.934  17.972  65.827  1.00  0.00    -0.550 OA 
HETATM   11  C   UNL     1      -7.512  18.345  65.959  1.00  0.00    -0.221 C  
HETATM   12  H   UNL     1     -10.538  17.968  68.089  1.00  0.00     0.000 HD 
HETATM   13  H   UNL     1      -9.912  17.851  64.885  1.00  0.00     0.000 HD 
HETATM   14  O   UNL     1      -6.815  19.286  65.120  1.00  0.00    -0.439 OA 
BRANCH   6  15
HETATM   15  C   UNL     1      -9.689  20.371  68.168  1.00  0.00    -0.151 C  
HETATM   16  O   UNL     1      -9.692  21.311  67.089  1.00  0.00    -0.593 OA 
HETATM   17  H   UNL     1     -10.152  22.104  67.342  1.00  0.00     0.000 HD 
ENDBRANCH   6  15
ENDBRANCH   3   4
TORSDOF 2
ENDMDL
MODEL      113
REMARK 921   NORMALIZED FREE ENERGY PREDICTED BY IDOCK:   -3.41 KCAL/MOL
REMARK 922        TOTAL FREE ENERGY PREDICTED BY IDOCK:   -3.90 KCAL/MOL
REMARK 923 INTER-LIGAND FREE ENERGY PREDICTED BY IDOCK:   -3.85 KCAL/MOL
REMARK 924 INTRA-LIGAND FREE ENERGY PREDICTED BY IDOCK:   -0.06 KCAL/MOL
REMARK 927      BINDING AFFINITY PREDICTED BY RF-SCORE:    0.00 PKD
ROOT
HETATM    1  O   UNL     1      -7.839   8.622  72.940  1.00  0.00    -0.367 OA 
HETATM    2  H   UNL     1      -7.341   8.288  73.676  1.00  0.00     0.000 HD 
HETATM    3  C   UNL     1      -9.167   8.117  72.963  1.00  0.00    -0.273 C  
ENDROOT
BRANCH   3   4
HETATM    4  C   UNL     1      -9.973   8.656  71.773  1.00  0.00    -0.301 C  
HETATM    5  O   UNL     1     -11.379   8.664  72.085  1.00  0.00    -0.338 OA 
HETATM    6  C   UNL     1     -11.913   7.407  71.665  1.00  0.00    -0.307 C  
HETATM    7  H   UNL     1      -9.682   8.142  68.554  1.00  0.00     0.000 HD 
HETATM    8  O   UNL     1     -11.757   6.434  72.709  1.00  0.00    -0.479 OA 
HETATM    9  C   UNL     1     -11.108   6.980  70.424  1.00  0.00    -0.287 C  
HETATM   10  O   UNL     1     -10.831   5.573  70.470  1.00  0.00    -0.269 OA 
HETATM   11  C   UNL     1      -9.827   7.812  70.501  1.00  0.00    -0.182 C  
HETATM   12  H   UNL     1     -12.112   5.598  72.429  1.00  0.00     0.000 HD 
HETATM   13  H   UNL     1     -10.334   5.309  69.704  1.00  0.00     0.000 HD 
HETATM   14  O   UNL     1      -9.772   8.665  69.341  1.00  0.00    -0.171 OA 
BRANCH   6  15
HETATM   15  C   UNL     1     -13.415   7.520  71.377  1.00  0.00    -0.317 C  
HETATM   16  O   UNL     1     -14.155   6.630  72.219  1.00  0.00    -0.555 OA 
HETATM   17  H   UNL     1     -15.086   6.700  72.040  1.00  0.00     0.000 HD 
ENDBRANCH   6  15
ENDBRANCH   3   4
TORSDOF 2
ENDMDL
MODEL      114
REMARK 921   NORMALIZED FREE ENERGY PREDICTED BY IDOCK:   -3.39 KCAL/MOL
REMARK 922        TOTAL FREE ENERGY PREDICTED BY IDOCK:   -3.87 KCAL/MOL
REMARK 923 INTER-LIGAND FREE ENERGY PREDICTED BY IDOCK:   -3.51 KCAL/MOL
REMARK 924 INTRA-LIGAND FREE ENERGY PREDICTED BY IDOCK:   -0.37 KCAL/MOL
REMARK 927      BINDING AFFINITY PREDICTED BY RF-SCORE:    0.00 PKD
ROOT
HETATM    1  O   UNL     1      -9.659   6.914  67.968  1.00  0.00    -0.124 OA 
HETATM    2  H   UNL     1      -9.599   7.072  67.034  1.00  0.00     0.000 HD 
HETATM    3  C   UNL     1     -10.816   6.147  68.275  1.00  0.00    -0.306 C  
ENDROOT
BRANCH   3   4
HETATM    4  C   UNL     1     -10.912   5.892  69.785  1.00  0.00    -0.382 C  
HETATM    5  O   UNL     1     -11.914   6.746  70.372  1.00  0.00    -0.373 OA 
HETATM    6  C   UNL     1     -11.258   7.947  70.783  1.00  0.00    -0.266 C  
HETATM    7  H   UNL     1      -8.599   5.392  72.045  1.00  0.00     0.000 HD 
HETATM    8  O   UNL     1     -11.206   8.876  69.690  1.00  0.00    -0.425 OA 
HETATM    9  C   UNL     1      -9.832   7.549  71.203  1.00  0.00    -0.173 C  
HETATM   10  O   UNL     1      -8.886   8.523  70.741  1.00  0.00    -0.139 OA 
HETATM   11  C   UNL     1      -9.611   6.188  70.541  1.00  0.00    -0.168 C  
HETATM   12  H   UNL     1     -10.770   9.675  69.963  1.00  0.00     0.000 HD 
HETATM   13  H   UNL     1      -8.006   8.278  71.000  1.00  0.00     0.000 HD 
HETATM   14  O   UNL     1      -9.405   5.209  71.578  1.00  0.00    -0.143 OA 
BRANCH   6  15
HETATM   15  C   UNL     1     -12.031   8.631  71.917  1.00  0.00    -0.356 C  
HETATM   16  O   UNL     1     -11.874   7.904  73.140  1.00  0.00    -0.651 OA 
HETATM   17  H   UNL     1     -12.353   8.328  73.842  1.00  0.00     0.000 HD 
ENDBRANCH   6  15
ENDBRANCH   3   4
TORSDOF 2
ENDMDL
MODEL      115
REMARK 921   NORMALIZED FREE ENERGY PREDICTED BY IDOCK:   -3.37 KCAL/MOL
REMARK 922        TOTAL FREE ENERGY PREDICTED BY IDOCK:   -3.86 KCAL/MOL
REMARK 923 INTER-LIGAND FREE ENERGY PREDICTED BY IDOCK:   -3.82 KCAL/MOL
REMARK 924 INTRA-LIGAND FREE ENERGY PREDICTED BY IDOCK:   -0.04 KCAL/MOL
REMARK 927      BINDING AFFINITY PREDICTED BY RF-SCORE:    0.00 PKD
ROOT
HETATM    1  O   UNL     1     -12.357  16.151  71.173  1.00  0.00    -0.563 OA 
HETATM    2  H   UNL     1     -12.356  15.816  72.061  1.00  0.00     0.000 HD 
HETATM    3  C   UNL     1     -11.155  15.797  70.502  1.00  0.00    -0.365 C  
ENDROOT
BRANCH   3   4
HETATM    4  C   UNL     1     -11.157  16.338  69.066  1.00  0.00    -0.331 C  
HETATM    5  O   UNL     1     -10.854  15.281  68.134  1.00  0.00    -0.256 OA 
HETATM    6  C   UNL     1      -9.437  15.269  67.953  1.00  0.00    -0.197 C  
HETATM    7  H   UNL     1      -9.993  19.125  67.804  1.00  0.00     0.000 HD 
HETATM    8  O   UNL     1      -8.819  14.460  68.965  1.00  0.00    -0.339 OA 
HETATM    9  C   UNL     1      -8.964  16.728  68.086  1.00  0.00    -0.224 C  
HETATM   10  O   UNL     1      -7.739  16.789  68.829  1.00  0.00    -0.220 OA 
HETATM   11  C   UNL     1     -10.108  17.429  68.821  1.00  0.00    -0.346 C  
HETATM   12  H   UNL     1      -7.877  14.452  68.845  1.00  0.00     0.000 HD 
HETATM   13  H   UNL     1      -7.446  17.689  68.911  1.00  0.00     0.000 HD 
HETATM   14  O   UNL     1     -10.643  18.449  67.955  1.00  0.00    -0.381 OA 
BRANCH   6  15
HETATM   15  C   UNL     1      -9.064  14.656  66.597  1.00  0.00    -0.258 C  
HETATM   16  O   UNL     1      -8.801  13.256  66.737  1.00  0.00    -0.337 OA 
HETATM   17  H   UNL     1      -8.571  12.876  65.897  1.00  0.00     0.000 HD 
ENDBRANCH   6  15
ENDBRANCH   3   4
TORSDOF 2
ENDMDL
MODEL      116
REMARK 921   NORMALIZED FREE ENERGY PREDICTED BY IDOCK:   -3.35 KCAL/MOL
REMARK 922        TOTAL FREE ENERGY PREDICTED BY IDOCK:   -3.83 KCAL/MOL
REMARK 923 INTER-LIGAND FREE ENERGY PREDICTED BY IDOCK:   -3.60 KCAL/MOL
REMARK 924 INTRA-LIGAND FREE ENERGY PREDICTED BY IDOCK:   -0.23 KCAL/MOL
REMARK 927      BINDING AFFINITY PREDICTED BY RF-SCORE:    0.00 PKD
ROOT
HETATM    1  O   UNL     1     -11.860   8.827  69.980  1.00  0.00    -0.444 OA 
HETATM    2  H   UNL     1     -11.897   8.552  70.888  1.00  0.00     0.000 HD 
HETATM    3  C   UNL     1     -10.852   9.813  69.795  1.00  0.00    -0.257 C  
ENDROOT
BRANCH   3   4
HETATM    4  C   UNL     1     -10.793  10.258  68.327  1.00  0.00    -0.255 C  
HETATM    5  O   UNL     1      -9.445  10.157  67.829  1.00  0.00    -0.143 OA 
HETATM    6  C   UNL     1      -8.811  11.416  68.066  1.00  0.00    -0.155 C  
HETATM    7  H   UNL     1     -12.237  12.744  66.762  1.00  0.00     0.000 HD 
HETATM    8  O   UNL     1      -8.248  11.442  69.385  1.00  0.00    -0.365 OA 
HETATM    9  C   UNL     1      -9.906  12.490  67.940  1.00  0.00    -0.207 C  
HETATM   10  O   UNL     1      -9.742  13.489  68.956  1.00  0.00    -0.415 OA 
HETATM   11  C   UNL     1     -11.214  11.716  68.112  1.00  0.00    -0.263 C  
HETATM   12  H   UNL     1      -7.827  12.278  69.543  1.00  0.00     0.000 HD 
HETATM   13  H   UNL     1     -10.418  14.153  68.879  1.00  0.00     0.000 HD 
HETATM   14  O   UNL     1     -11.976  11.840  66.895  1.00  0.00    -0.605 OA 
BRANCH   6  15
HETATM   15  C   UNL     1      -7.657  11.639  67.080  1.00  0.00    -0.152 C  
HETATM   16  O   UNL     1      -7.476  13.037  66.830  1.00  0.00    -0.336 OA 
HETATM   17  H   UNL     1      -6.761  13.175  66.220  1.00  0.00     0.000 HD 
ENDBRANCH   6  15
ENDBRANCH   3   4
TORSDOF 2
ENDMDL
MODEL      117
REMARK 921   NORMALIZED FREE ENERGY PREDICTED BY IDOCK:   -3.33 KCAL/MOL
REMARK 922        TOTAL FREE ENERGY PREDICTED BY IDOCK:   -3.81 KCAL/MOL
REMARK 923 INTER-LIGAND FREE ENERGY PREDICTED BY IDOCK:   -3.77 KCAL/MOL
REMARK 924 INTRA-LIGAND FREE ENERGY PREDICTED BY IDOCK:   -0.05 KCAL/MOL
REMARK 927      BINDING AFFINITY PREDICTED BY RF-SCORE:    0.00 PKD
ROOT
HETATM    1  O   UNL     1     -11.919  12.902  63.008  1.00  0.00    -0.790 OA 
HETATM    2  H   UNL     1     -12.456  12.460  62.361  1.00  0.00     0.000 HD 
HETATM    3  C   UNL     1     -11.275  11.958  63.854  1.00  0.00    -0.420 C  
ENDROOT
BRANCH   3   4
HETATM    4  C   UNL     1     -10.408  12.671  64.900  1.00  0.00    -0.308 C  
HETATM    5  O   UNL     1      -9.347  11.803  65.344  1.00  0.00    -0.190 OA 
HETATM    6  C   UNL     1      -9.835  11.084  66.478  1.00  0.00    -0.203 C  
HETATM    7  H   UNL     1     -11.208  14.612  67.412  1.00  0.00     0.000 HD 
HETATM    8  O   UNL     1     -10.528   9.903  66.050  1.00  0.00    -0.170 OA 
HETATM    9  C   UNL     1     -10.806  12.027  67.212  1.00  0.00    -0.246 C  
HETATM   10  O   UNL     1     -11.955  11.300  67.669  1.00  0.00    -0.634 OA 
HETATM   11  C   UNL     1     -11.179  13.075  66.162  1.00  0.00    -0.291 C  
HETATM   12  H   UNL     1     -10.852   9.425  66.804  1.00  0.00     0.000 HD 
HETATM   13  H   UNL     1     -12.555  11.881  68.122  1.00  0.00     0.000 HD 
HETATM   14  O   UNL     1     -10.730  14.362  66.630  1.00  0.00    -0.286 OA 
BRANCH   6  15
HETATM   15  C   UNL     1      -8.677  10.626  67.374  1.00  0.00    -0.125 C  
HETATM   16  O   UNL     1      -8.013   9.497  66.796  1.00  0.00    -0.107 OA 
HETATM   17  H   UNL     1      -7.296   9.214  67.351  1.00  0.00     0.000 HD 
ENDBRANCH   6  15
ENDBRANCH   3   4
TORSDOF 2
ENDMDL
MODEL      118
REMARK 921   NORMALIZED FREE ENERGY PREDICTED BY IDOCK:   -3.33 KCAL/MOL
REMARK 922        TOTAL FREE ENERGY PREDICTED BY IDOCK:   -3.81 KCAL/MOL
REMARK 923 INTER-LIGAND FREE ENERGY PREDICTED BY IDOCK:   -3.75 KCAL/MOL
REMARK 924 INTRA-LIGAND FREE ENERGY PREDICTED BY IDOCK:   -0.06 KCAL/MOL
REMARK 927      BINDING AFFINITY PREDICTED BY RF-SCORE:    0.00 PKD
ROOT
HETATM    1  O   UNL     1     -11.165   6.897  73.398  1.00  0.00    -0.520 OA 
HETATM    2  H   UNL     1     -11.946   6.635  73.868  1.00  0.00     0.000 HD 
HETATM    3  C   UNL     1     -11.403   8.084  72.652  1.00  0.00    -0.405 C  
ENDROOT
BRANCH   3   4
HETATM    4  C   UNL     1     -10.140   8.508  71.891  1.00  0.00    -0.297 C  
HETATM    5  O   UNL     1     -10.318   9.819  71.319  1.00  0.00    -0.201 OA 
HETATM    6  C   UNL     1     -10.850   9.639  70.006  1.00  0.00    -0.264 C  
HETATM    7  H   UNL     1      -8.145   6.834  69.908  1.00  0.00     0.000 HD 
HETATM    8  O   UNL     1     -12.281   9.546  70.064  1.00  0.00    -0.450 OA 
HETATM    9  C   UNL     1     -10.259   8.324  69.467  1.00  0.00    -0.210 C  
HETATM   10  O   UNL     1     -11.259   7.583  68.755  1.00  0.00    -0.423 OA 
HETATM   11  C   UNL     1      -9.789   7.582  70.720  1.00  0.00    -0.178 C  
HETATM   12  H   UNL     1     -12.635   9.427  69.191  1.00  0.00     0.000 HD 
HETATM   13  H   UNL     1     -10.895   6.771  68.423  1.00  0.00     0.000 HD 
HETATM   14  O   UNL     1      -8.361   7.408  70.633  1.00  0.00    -0.124 OA 
BRANCH   6  15
HETATM   15  C   UNL     1     -10.514  10.840  69.112  1.00  0.00    -0.218 C  
HETATM   16  O   UNL     1     -10.961  12.057  69.719  1.00  0.00    -0.463 OA 
HETATM   17  H   UNL     1     -10.752  12.800  69.165  1.00  0.00     0.000 HD 
ENDBRANCH   6  15
ENDBRANCH   3   4
TORSDOF 2
ENDMDL
MODEL      119
REMARK 921   NORMALIZED FREE ENERGY PREDICTED BY IDOCK:   -3.31 KCAL/MOL
REMARK 922        TOTAL FREE ENERGY PREDICTED BY IDOCK:   -3.79 KCAL/MOL
REMARK 923 INTER-LIGAND FREE ENERGY PREDICTED BY IDOCK:   -3.32 KCAL/MOL
REMARK 924 INTRA-LIGAND FREE ENERGY PREDICTED BY IDOCK:   -0.47 KCAL/MOL
REMARK 927      BINDING AFFINITY PREDICTED BY RF-SCORE:    0.00 PKD
ROOT
HETATM    1  O   UNL     1     -11.894  10.226  68.041  1.00  0.00    -0.708 OA 
HETATM    2  H   UNL     1     -12.465  10.944  67.794  1.00  0.00     0.000 HD 
HETATM    3  C   UNL     1     -10.627  10.715  68.462  1.00  0.00    -0.200 C  
ENDROOT
BRANCH   3   4
HETATM    4  C   UNL     1      -9.704   9.555  68.861  1.00  0.00    -0.164 C  
HETATM    5  O   UNL     1      -8.727   9.317  67.829  1.00  0.00    -0.120 OA 
HETATM    6  C   UNL     1      -9.282   8.352  66.934  1.00  0.00    -0.157 C  
HETATM    7  H   UNL     1     -10.339   6.682  70.295  1.00  0.00     0.000 HD 
HETATM    8  O   UNL     1     -10.076   9.007  65.935  1.00  0.00    -0.418 OA 
HETATM    9  C   UNL     1     -10.169   7.423  67.784  1.00  0.00    -0.196 C  
HETATM   10  O   UNL     1     -11.380   7.112  67.082  1.00  0.00    -0.565 OA 
HETATM   11  C   UNL     1     -10.442   8.225  69.057  1.00  0.00    -0.197 C  
HETATM   12  H   UNL     1     -10.446   8.366  65.340  1.00  0.00     0.000 HD 
HETATM   13  H   UNL     1     -11.928   6.539  67.606  1.00  0.00     0.000 HD 
HETATM   14  O   UNL     1      -9.882   7.506  70.173  1.00  0.00    -0.179 OA 
BRANCH   6  15
HETATM   15  C   UNL     1      -8.174   7.589  66.198  1.00  0.00    -0.125 C  
HETATM   16  O   UNL     1      -8.738   6.591  65.341  1.00  0.00    -0.294 OA 
HETATM   17  H   UNL     1      -8.051   6.118  64.885  1.00  0.00     0.000 HD 
ENDBRANCH   6  15
ENDBRANCH   3   4
TORSDOF 2
ENDMDL
MODEL      120
REMARK 921   NORMALIZED FREE ENERGY PREDICTED BY IDOCK:   -3.30 KCAL/MOL
REMARK 922        TOTAL FREE ENERGY PREDICTED BY IDOCK:   -3.78 KCAL/MOL
REMARK 923 INTER-LIGAND FREE ENERGY PREDICTED BY IDOCK:   -3.51 KCAL/MOL
REMARK 924 INTRA-LIGAND FREE ENERGY PREDICTED BY IDOCK:   -0.27 KCAL/MOL
REMARK 927      BINDING AFFINITY PREDICTED BY RF-SCORE:    0.00 PKD
ROOT
HETATM    1  O   UNL     1      -9.482   6.253  69.395  1.00  0.00    -0.139 OA 
HETATM    2  H   UNL     1      -9.551   5.663  68.654  1.00  0.00     0.000 HD 
HETATM    3  C   UNL     1     -10.510   7.234  69.353  1.00  0.00    -0.216 C  
ENDROOT
BRANCH   3   4
HETATM    4  C   UNL     1     -10.398   8.187  70.551  1.00  0.00    -0.202 C  
HETATM    5  O   UNL     1      -9.764   7.521  71.661  1.00  0.00    -0.161 OA 
HETATM    6  C   UNL     1     -10.799   6.923  72.443  1.00  0.00    -0.235 C  
HETATM    7  H   UNL     1     -12.505  10.366  71.785  1.00  0.00     0.000 HD 
HETATM    8  O   UNL     1     -11.113   5.620  71.929  1.00  0.00    -0.256 OA 
HETATM    9  C   UNL     1     -12.027   7.843  72.325  1.00  0.00    -0.337 C  
HETATM   10  O   UNL     1     -13.224   7.063  72.192  1.00  0.00    -0.534 OA 
HETATM   11  C   UNL     1     -11.753   8.678  71.073  1.00  0.00    -0.278 C  
HETATM   12  H   UNL     1     -11.801   5.222  72.449  1.00  0.00     0.000 HD 
HETATM   13  H   UNL     1     -13.982   7.631  72.120  1.00  0.00     0.000 HD 
HETATM   14  O   UNL     1     -11.665  10.062  71.463  1.00  0.00    -0.365 OA 
BRANCH   6  15
HETATM   15  C   UNL     1     -10.347   6.735  73.897  1.00  0.00    -0.368 C  
HETATM   16  O   UNL     1      -9.360   7.713  74.244  1.00  0.00    -0.419 OA 
HETATM   17  H   UNL     1      -9.081   7.597  75.144  1.00  0.00     0.000 HD 
ENDBRANCH   6  15
ENDBRANCH   3   4
TORSDOF 2
ENDMDL
MODEL      121
REMARK 921   NORMALIZED FREE ENERGY PREDICTED BY IDOCK:   -3.29 KCAL/MOL
REMARK 922        TOTAL FREE ENERGY PREDICTED BY IDOCK:   -3.76 KCAL/MOL
REMARK 923 INTER-LIGAND FREE ENERGY PREDICTED BY IDOCK:   -3.70 KCAL/MOL
REMARK 924 INTRA-LIGAND FREE ENERGY PREDICTED BY IDOCK:   -0.06 KCAL/MOL
REMARK 927      BINDING AFFINITY PREDICTED BY RF-SCORE:    0.00 PKD
ROOT
HETATM    1  O   UNL     1     -10.061  18.477  69.283  1.00  0.00    -0.391 OA 
HETATM    2  H   UNL     1     -10.095  19.242  68.720  1.00  0.00     0.000 HD 
HETATM    3  C   UNL     1     -10.456  17.313  68.569  1.00  0.00    -0.375 C  
ENDROOT
BRANCH   3   4
HETATM    4  C   UNL     1     -10.403  16.077  69.477  1.00  0.00    -0.278 C  
HETATM    5  O   UNL     1      -9.448  15.125  68.969  1.00  0.00    -0.202 OA 
HETATM    6  C   UNL     1     -10.152  14.246  68.091  1.00  0.00    -0.232 C  
HETATM    7  H   UNL     1     -12.775  14.388  70.972  1.00  0.00     0.000 HD 
HETATM    8  O   UNL     1     -10.196  14.803  66.769  1.00  0.00    -0.259 OA 
HETATM    9  C   UNL     1     -11.579  14.113  68.653  1.00  0.00    -0.317 C  
HETATM   10  O   UNL     1     -12.538  14.126  67.586  1.00  0.00    -0.468 OA 
HETATM   11  C   UNL     1     -11.736  15.327  69.571  1.00  0.00    -0.339 C  
HETATM   12  H   UNL     1     -10.665  14.219  66.185  1.00  0.00     0.000 HD 
HETATM   13  H   UNL     1     -13.419  14.044  67.933  1.00  0.00     0.000 HD 
HETATM   14  O   UNL     1     -11.948  14.852  70.915  1.00  0.00    -0.278 OA 
BRANCH   6  15
HETATM   15  C   UNL     1      -9.438  12.892  67.984  1.00  0.00    -0.213 C  
HETATM   16  O   UNL     1      -8.299  12.858  68.849  1.00  0.00    -0.345 OA 
HETATM   17  H   UNL     1      -7.857  12.019  68.783  1.00  0.00     0.000 HD 
ENDBRANCH   6  15
ENDBRANCH   3   4
TORSDOF 2
ENDMDL
MODEL      122
REMARK 921   NORMALIZED FREE ENERGY PREDICTED BY IDOCK:   -3.26 KCAL/MOL
REMARK 922        TOTAL FREE ENERGY PREDICTED BY IDOCK:   -3.74 KCAL/MOL
REMARK 923 INTER-LIGAND FREE ENERGY PREDICTED BY IDOCK:   -3.60 KCAL/MOL
REMARK 924 INTRA-LIGAND FREE ENERGY PREDICTED BY IDOCK:   -0.13 KCAL/MOL
REMARK 927      BINDING AFFINITY PREDICTED BY RF-SCORE:    0.00 PKD
ROOT
HETATM    1  O   UNL     1      -8.863   6.211  70.944  1.00  0.00    -0.134 OA 
HETATM    2  H   UNL     1      -8.911   5.272  71.078  1.00  0.00     0.000 HD 
HETATM    3  C   UNL     1      -9.564   6.901  71.971  1.00  0.00    -0.142 C  
ENDROOT
BRANCH   3   4
HETATM    4  C   UNL     1      -9.487   8.418  71.754  1.00  0.00    -0.233 C  
HETATM    5  O   UNL     1     -10.721   9.043  72.159  1.00  0.00    -0.332 OA 
HETATM    6  C   UNL     1     -11.570   9.088  71.011  1.00  0.00    -0.300 C  
HETATM    7  H   UNL     1      -8.246  10.192  69.299  1.00  0.00     0.000 HD 
HETATM    8  O   UNL     1     -12.308   7.862  70.898  1.00  0.00    -0.482 OA 
HETATM    9  C   UNL     1     -10.649   9.261  69.789  1.00  0.00    -0.231 C  
HETATM   10  O   UNL     1     -11.107   8.445  68.701  1.00  0.00    -0.422 OA 
HETATM   11  C   UNL     1      -9.273   8.818  70.289  1.00  0.00    -0.174 C  
HETATM   12  H   UNL     1     -12.872   7.892  70.135  1.00  0.00     0.000 HD 
HETATM   13  H   UNL     1     -10.539   8.552  67.947  1.00  0.00     0.000 HD 
HETATM   14  O   UNL     1      -8.378   9.944  70.206  1.00  0.00    -0.180 OA 
BRANCH   6  15
HETATM   15  C   UNL     1     -12.596  10.221  71.134  1.00  0.00    -0.400 C  
HETATM   16  O   UNL     1     -13.492   9.969  72.221  1.00  0.00    -0.573 OA 
HETATM   17  H   UNL     1     -14.128  10.671  72.297  1.00  0.00     0.000 HD 
ENDBRANCH   6  15
ENDBRANCH   3   4
TORSDOF 2
ENDMDL
MODEL      123
REMARK 921   NORMALIZED FREE ENERGY PREDICTED BY IDOCK:   -3.21 KCAL/MOL
REMARK 922        TOTAL FREE ENERGY PREDICTED BY IDOCK:   -3.68 KCAL/MOL
REMARK 923 INTER-LIGAND FREE ENERGY PREDICTED BY IDOCK:   -3.38 KCAL/MOL
REMARK 924 INTRA-LIGAND FREE ENERGY PREDICTED BY IDOCK:   -0.30 KCAL/MOL
REMARK 927      BINDING AFFINITY PREDICTED BY RF-SCORE:    0.00 PKD
ROOT
HETATM    1  O   UNL     1     -10.368   4.915  70.302  1.00  0.00    -0.254 OA 
HETATM    2  H   UNL     1      -9.957   4.074  70.461  1.00  0.00     0.000 HD 
HETATM    3  C   UNL     1     -10.778   5.512  71.526  1.00  0.00    -0.222 C  
ENDROOT
BRANCH   3   4
HETATM    4  C   UNL     1     -11.443   6.871  71.270  1.00  0.00    -0.296 C  
HETATM    5  O   UNL     1     -10.959   7.439  70.037  1.00  0.00    -0.257 OA 
HETATM    6  C   UNL     1      -9.821   8.240  70.358  1.00  0.00    -0.186 C  
HETATM    7  H   UNL     1     -12.141   9.352  73.288  1.00  0.00     0.000 HD 
HETATM    8  O   UNL     1      -8.637   7.430  70.369  1.00  0.00    -0.140 OA 
HETATM    9  C   UNL     1     -10.074   8.822  71.761  1.00  0.00    -0.333 C  
HETATM   10  O   UNL     1      -8.867   8.795  72.535  1.00  0.00    -0.402 OA 
HETATM   11  C   UNL     1     -11.149   7.912  72.357  1.00  0.00    -0.333 C  
HETATM   12  H   UNL     1      -7.880   7.963  70.582  1.00  0.00     0.000 HD 
HETATM   13  H   UNL     1      -9.023   9.154  73.401  1.00  0.00     0.000 HD 
HETATM   14  O   UNL     1     -12.323   8.708  72.614  1.00  0.00    -0.372 OA 
BRANCH   6  15
HETATM   15  C   UNL     1      -9.608   9.333  69.303  1.00  0.00    -0.161 C  
HETATM   16  O   UNL     1      -9.982  10.612  69.824  1.00  0.00    -0.429 OA 
HETATM   17  H   UNL     1      -9.850  11.289  69.170  1.00  0.00     0.000 HD 
ENDBRANCH   6  15
ENDBRANCH   3   4
TORSDOF 2
ENDMDL
MODEL      124
REMARK 921   NORMALIZED FREE ENERGY PREDICTED BY IDOCK:   -3.21 KCAL/MOL
REMARK 922        TOTAL FREE ENERGY PREDICTED BY IDOCK:   -3.68 KCAL/MOL
REMARK 923 INTER-LIGAND FREE ENERGY PREDICTED BY IDOCK:   -3.42 KCAL/MOL
REMARK 924 INTRA-LIGAND FREE ENERGY PREDICTED BY IDOCK:   -0.26 KCAL/MOL
REMARK 927      BINDING AFFINITY PREDICTED BY RF-SCORE:    0.00 PKD
ROOT
HETATM    1  O   UNL     1     -11.525   9.852  68.266  1.00  0.00    -0.532 OA 
HETATM    2  H   UNL     1     -11.634  10.752  67.985  1.00  0.00     0.000 HD 
HETATM    3  C   UNL     1     -10.195   9.624  68.714  1.00  0.00    -0.196 C  
ENDROOT
BRANCH   3   4
HETATM    4  C   UNL     1     -10.019   8.169  69.168  1.00  0.00    -0.192 C  
HETATM    5  O   UNL     1     -11.136   7.762  69.983  1.00  0.00    -0.248 OA 
HETATM    6  C   UNL     1     -10.799   8.054  71.340  1.00  0.00    -0.231 C  
HETATM    7  H   UNL     1      -7.385   6.537  70.224  1.00  0.00     0.000 HD 
HETATM    8  O   UNL     1     -11.153   9.409  71.654  1.00  0.00    -0.369 OA 
HETATM    9  C   UNL     1      -9.276   7.866  71.466  1.00  0.00    -0.136 C  
HETATM   10  O   UNL     1      -8.712   8.902  72.282  1.00  0.00    -0.395 OA 
HETATM   11  C   UNL     1      -8.768   7.941  70.025  1.00  0.00    -0.140 C  
HETATM   12  H   UNL     1     -10.929   9.603  72.556  1.00  0.00     0.000 HD 
HETATM   13  H   UNL     1      -7.772   8.786  72.360  1.00  0.00     0.000 HD 
HETATM   14  O   UNL     1      -8.160   6.677  69.693  1.00  0.00    -0.121 OA 
BRANCH   6  15
HETATM   15  C   UNL     1     -11.580   7.151  72.303  1.00  0.00    -0.271 C  
HETATM   16  O   UNL     1     -11.219   7.435  73.659  1.00  0.00    -0.588 OA 
HETATM   17  H   UNL     1     -11.704   6.875  74.255  1.00  0.00     0.000 HD 
ENDBRANCH   6  15
ENDBRANCH   3   4
TORSDOF 2
ENDMDL
MODEL      125
REMARK 921   NORMALIZED FREE ENERGY PREDICTED BY IDOCK:   -3.21 KCAL/MOL
REMARK 922        TOTAL FREE ENERGY PREDICTED BY IDOCK:   -3.68 KCAL/MOL
REMARK 923 INTER-LIGAND FREE ENERGY PREDICTED BY IDOCK:   -3.47 KCAL/MOL
REMARK 924 INTRA-LIGAND FREE ENERGY PREDICTED BY IDOCK:   -0.21 KCAL/MOL
REMARK 927      BINDING AFFINITY PREDICTED BY RF-SCORE:    0.00 PKD
ROOT
HETATM    1  O   UNL     1     -12.307  10.863  68.351  1.00  0.00    -0.803 OA 
HETATM    2  H   UNL     1     -13.008  10.552  67.791  1.00  0.00     0.000 HD 
HETATM    3  C   UNL     1     -11.088  10.953  67.624  1.00  0.00    -0.313 C  
ENDROOT
BRANCH   3   4
HETATM    4  C   UNL     1      -9.955  11.455  68.529  1.00  0.00    -0.201 C  
HETATM    5  O   UNL     1      -9.689  12.848  68.269  1.00  0.00    -0.219 OA 
HETATM    6  C   UNL     1      -8.684  12.905  67.255  1.00  0.00    -0.204 C  
HETATM    7  H   UNL     1      -7.131  10.067  69.430  1.00  0.00     0.000 HD 
HETATM    8  O   UNL     1      -9.293  12.851  65.957  1.00  0.00    -0.430 OA 
HETATM    9  C   UNL     1      -7.779  11.678  67.463  1.00  0.00    -0.136 C  
HETATM   10  O   UNL     1      -7.428  11.098  66.199  1.00  0.00    -0.286 OA 
HETATM   11  C   UNL     1      -8.625  10.725  68.308  1.00  0.00    -0.135 C  
HETATM   12  H   UNL     1      -8.625  12.889  65.283  1.00  0.00     0.000 HD 
HETATM   13  H   UNL     1      -6.869  10.341  66.327  1.00  0.00     0.000 HD 
HETATM   14  O   UNL     1      -7.955  10.520  69.567  1.00  0.00    -0.154 OA 
BRANCH   6  15
HETATM   15  C   UNL     1      -7.907  14.225  67.332  1.00  0.00    -0.187 C  
HETATM   16  O   UNL     1      -6.497  13.978  67.302  1.00  0.00    -0.400 OA 
HETATM   17  H   UNL     1      -6.016  14.796  67.349  1.00  0.00     0.000 HD 
ENDBRANCH   6  15
ENDBRANCH   3   4
TORSDOF 2
ENDMDL
MODEL      126
REMARK 921   NORMALIZED FREE ENERGY PREDICTED BY IDOCK:   -3.21 KCAL/MOL
REMARK 922        TOTAL FREE ENERGY PREDICTED BY IDOCK:   -3.68 KCAL/MOL
REMARK 923 INTER-LIGAND FREE ENERGY PREDICTED BY IDOCK:   -3.38 KCAL/MOL
REMARK 924 INTRA-LIGAND FREE ENERGY PREDICTED BY IDOCK:   -0.30 KCAL/MOL
REMARK 927      BINDING AFFINITY PREDICTED BY RF-SCORE:    0.00 PKD
ROOT
HETATM    1  O   UNL     1     -12.345  10.533  68.830  1.00  0.00    -0.790 OA 
HETATM    2  H   UNL     1     -13.061  11.042  68.470  1.00  0.00     0.000 HD 
HETATM    3  C   UNL     1     -11.104  11.192  68.615  1.00  0.00    -0.239 C  
ENDROOT
BRANCH   3   4
HETATM    4  C   UNL     1      -9.947  10.368  69.197  1.00  0.00    -0.223 C  
HETATM    5  O   UNL     1      -9.362   9.538  68.174  1.00  0.00    -0.133 OA 
HETATM    6  C   UNL     1     -10.049   8.286  68.201  1.00  0.00    -0.200 C  
HETATM    7  H   UNL     1      -9.635   8.786  72.045  1.00  0.00     0.000 HD 
HETATM    8  O   UNL     1     -11.224   8.353  67.378  1.00  0.00    -0.343 OA 
HETATM    9  C   UNL     1     -10.448   8.034  69.666  1.00  0.00    -0.224 C  
HETATM   10  O   UNL     1     -11.770   7.483  69.735  1.00  0.00    -0.471 OA 
HETATM   11  C   UNL     1     -10.375   9.415  70.319  1.00  0.00    -0.245 C  
HETATM   12  H   UNL     1     -11.681   7.521  67.396  1.00  0.00     0.000 HD 
HETATM   13  H   UNL     1     -12.016   7.327  70.639  1.00  0.00     0.000 HD 
HETATM   14  O   UNL     1      -9.369   9.376  71.350  1.00  0.00    -0.265 OA 
BRANCH   6  15
HETATM   15  C   UNL     1      -9.167   7.166  67.634  1.00  0.00    -0.125 C  
HETATM   16  O   UNL     1      -7.920   7.110  68.334  1.00  0.00    -0.119 OA 
HETATM   17  H   UNL     1      -7.374   6.416  67.982  1.00  0.00     0.000 HD 
ENDBRANCH   6  15
ENDBRANCH   3   4
TORSDOF 2
ENDMDL
MODEL      127
REMARK 921   NORMALIZED FREE ENERGY PREDICTED BY IDOCK:   -3.20 KCAL/MOL
REMARK 922        TOTAL FREE ENERGY PREDICTED BY IDOCK:   -3.67 KCAL/MOL
REMARK 923 INTER-LIGAND FREE ENERGY PREDICTED BY IDOCK:   -3.30 KCAL/MOL
REMARK 924 INTRA-LIGAND FREE ENERGY PREDICTED BY IDOCK:   -0.37 KCAL/MOL
REMARK 927      BINDING AFFINITY PREDICTED BY RF-SCORE:    0.00 PKD
ROOT
HETATM    1  O   UNL     1     -10.916  11.291  66.091  1.00  0.00    -0.266 OA 
HETATM    2  H   UNL     1     -11.225  10.771  65.360  1.00  0.00     0.000 HD 
HETATM    3  C   UNL     1      -9.834  12.123  65.693  1.00  0.00    -0.237 C  
ENDROOT
BRANCH   3   4
HETATM    4  C   UNL     1      -9.334  12.965  66.874  1.00  0.00    -0.240 C  
HETATM    5  O   UNL     1     -10.316  12.976  67.930  1.00  0.00    -0.221 OA 
HETATM    6  C   UNL     1     -11.169  14.099  67.702  1.00  0.00    -0.297 C  
HETATM    7  H   UNL     1      -7.751  15.828  66.974  1.00  0.00     0.000 HD 
HETATM    8  O   UNL     1     -12.233  13.736  66.811  1.00  0.00    -0.425 OA 
HETATM    9  C   UNL     1     -10.295  15.193  67.061  1.00  0.00    -0.271 C  
HETATM   10  O   UNL     1     -11.018  15.858  66.015  1.00  0.00    -0.261 OA 
HETATM   11  C   UNL     1      -9.083  14.435  66.517  1.00  0.00    -0.205 C  
HETATM   12  H   UNL     1     -12.800  14.483  66.659  1.00  0.00     0.000 HD 
HETATM   13  H   UNL     1     -10.479  16.532  65.619  1.00  0.00     0.000 HD 
HETATM   14  O   UNL     1      -7.907  14.918  67.195  1.00  0.00    -0.200 OA 
BRANCH   6  15
HETATM   15  C   UNL     1     -11.819  14.565  69.011  1.00  0.00    -0.318 C  
HETATM   16  O   UNL     1     -11.883  15.994  69.058  1.00  0.00    -0.362 OA 
HETATM   17  H   UNL     1     -12.286  16.282  69.869  1.00  0.00     0.000 HD 
ENDBRANCH   6  15
ENDBRANCH   3   4
TORSDOF 2
ENDMDL
MODEL      128
REMARK 921   NORMALIZED FREE ENERGY PREDICTED BY IDOCK:   -3.20 KCAL/MOL
REMARK 922        TOTAL FREE ENERGY PREDICTED BY IDOCK:   -3.67 KCAL/MOL
REMARK 923 INTER-LIGAND FREE ENERGY PREDICTED BY IDOCK:   -3.56 KCAL/MOL
REMARK 924 INTRA-LIGAND FREE ENERGY PREDICTED BY IDOCK:   -0.11 KCAL/MOL
REMARK 927      BINDING AFFINITY PREDICTED BY RF-SCORE:    0.00 PKD
ROOT
HETATM    1  O   UNL     1     -14.233   8.993  72.899  1.00  0.00    -1.042 OA 
HETATM    2  H   UNL     1     -14.625   8.676  73.704  1.00  0.00     0.000 HD 
HETATM    3  C   UNL     1     -13.132   8.176  72.523  1.00  0.00    -0.008 C  
ENDROOT
BRANCH   3   4
HETATM    4  C   UNL     1     -12.498   8.687  71.222  1.00  0.00    -0.252 C  
HETATM    5  O   UNL     1     -11.940   7.590  70.473  1.00  0.00    -0.194 OA 
HETATM    6  C   UNL     1     -10.581   7.443  70.886  1.00  0.00    -0.223 C  
HETATM    7  H   UNL     1     -10.668  11.330  70.602  1.00  0.00     0.000 HD 
HETATM    8  O   UNL     1     -10.507   6.599  72.044  1.00  0.00    -0.202 OA 
HETATM    9  C   UNL     1     -10.070   8.853  71.230  1.00  0.00    -0.295 C  
HETATM   10  O   UNL     1      -9.255   8.814  72.409  1.00  0.00    -0.361 OA 
HETATM   11  C   UNL     1     -11.344   9.671  71.449  1.00  0.00    -0.374 C  
HETATM   12  H   UNL     1      -9.603   6.501  72.319  1.00  0.00     0.000 HD 
HETATM   13  H   UNL     1      -8.939   9.685  72.622  1.00  0.00     0.000 HD 
HETATM   14  O   UNL     1     -11.383  10.720  70.461  1.00  0.00    -0.307 OA 
BRANCH   6  15
HETATM   15  C   UNL     1      -9.746   6.771  69.788  1.00  0.00    -0.156 C  
HETATM   16  O   UNL     1      -9.359   7.729  68.797  1.00  0.00    -0.146 OA 
HETATM   17  H   UNL     1      -8.842   7.312  68.117  1.00  0.00     0.000 HD 
ENDBRANCH   6  15
ENDBRANCH   3   4
TORSDOF 2
ENDMDL
MODEL      129
REMARK 921   NORMALIZED FREE ENERGY PREDICTED BY IDOCK:   -3.18 KCAL/MOL
REMARK 922        TOTAL FREE ENERGY PREDICTED BY IDOCK:   -3.65 KCAL/MOL
REMARK 923 INTER-LIGAND FREE ENERGY PREDICTED BY IDOCK:   -3.28 KCAL/MOL
REMARK 924 INTRA-LIGAND FREE ENERGY PREDICTED BY IDOCK:   -0.37 KCAL/MOL
REMARK 927      BINDING AFFINITY PREDICTED BY RF-SCORE:    0.00 PKD
ROOT
HETATM    1  O   UNL     1     -10.391  10.126  70.627  1.00  0.00    -0.392 OA 
HETATM    2  H   UNL     1     -10.208  11.048  70.498  1.00  0.00     0.000 HD 
HETATM    3  C   UNL     1     -11.641   9.949  71.280  1.00  0.00    -0.379 C  
ENDROOT
BRANCH   3   4
HETATM    4  C   UNL     1     -11.937   8.458  71.490  1.00  0.00    -0.299 C  
HETATM    5  O   UNL     1     -11.719   8.095  72.868  1.00  0.00    -0.373 OA 
HETATM    6  C   UNL     1     -10.359   7.674  72.985  1.00  0.00    -0.335 C  
HETATM    7  H   UNL     1     -11.236   5.836  69.660  1.00  0.00     0.000 HD 
HETATM    8  O   UNL     1      -9.512   8.808  73.222  1.00  0.00    -0.006 OA 
HETATM    9  C   UNL     1      -9.987   7.011  71.646  1.00  0.00    -0.178 C  
HETATM   10  O   UNL     1      -8.660   7.388  71.255  1.00  0.00    -0.117 OA 
HETATM   11  C   UNL     1     -11.037   7.532  70.663  1.00  0.00    -0.265 C  
HETATM   12  H   UNL     1      -8.608   8.528  73.299  1.00  0.00     0.000 HD 
HETATM   13  H   UNL     1      -8.430   6.978  70.429  1.00  0.00     0.000 HD 
HETATM   14  O   UNL     1     -11.794   6.409  70.173  1.00  0.00    -0.409 OA 
BRANCH   6  15
HETATM   15  C   UNL     1     -10.182   6.724  74.176  1.00  0.00    -0.339 C  
HETATM   16  O   UNL     1     -10.164   5.364  73.734  1.00  0.00    -0.185 OA 
HETATM   17  H   UNL     1     -10.054   4.776  74.472  1.00  0.00     0.000 HD 
ENDBRANCH   6  15
ENDBRANCH   3   4
TORSDOF 2
ENDMDL
MODEL      130
REMARK 921   NORMALIZED FREE ENERGY PREDICTED BY IDOCK:   -3.13 KCAL/MOL
REMARK 922        TOTAL FREE ENERGY PREDICTED BY IDOCK:   -3.59 KCAL/MOL
REMARK 923 INTER-LIGAND FREE ENERGY PREDICTED BY IDOCK:   -3.31 KCAL/MOL
REMARK 924 INTRA-LIGAND FREE ENERGY PREDICTED BY IDOCK:   -0.29 KCAL/MOL
REMARK 927      BINDING AFFINITY PREDICTED BY RF-SCORE:    0.00 PKD
ROOT
HETATM    1  O   UNL     1      -9.633   6.786  65.893  1.00  0.00    -0.393 OA 
HETATM    2  H   UNL     1      -9.287   5.931  65.666  1.00  0.00     0.000 HD 
HETATM    3  C   UNL     1      -8.621   7.598  66.475  1.00  0.00    -0.138 C  
ENDROOT
BRANCH   3   4
HETATM    4  C   UNL     1      -9.180   8.979  66.843  1.00  0.00    -0.142 C  
HETATM    5  O   UNL     1     -10.224   9.356  65.923  1.00  0.00    -0.259 OA 
HETATM    6  C   UNL     1      -9.606  10.072  64.853  1.00  0.00    -0.310 C  
HETATM    7  H   UNL     1      -7.690  11.725  67.818  1.00  0.00     0.000 HD 
HETATM    8  O   UNL     1      -9.148   9.156  63.848  1.00  0.00    -0.432 OA 
HETATM    9  C   UNL     1      -8.411  10.828  65.461  1.00  0.00    -0.129 C  
HETATM   10  O   UNL     1      -7.283  10.769  64.576  1.00  0.00    -0.351 OA 
HETATM   11  C   UNL     1      -8.136  10.100  66.778  1.00  0.00    -0.119 C  
HETATM   12  H   UNL     1      -8.737   9.632  63.137  1.00  0.00     0.000 HD 
HETATM   13  H   UNL     1      -6.545  11.235  64.951  1.00  0.00     0.000 HD 
HETATM   14  O   UNL     1      -8.337  11.031  67.859  1.00  0.00    -0.118 OA 
BRANCH   6  15
HETATM   15  C   UNL     1     -10.610  11.015  64.176  1.00  0.00    -0.342 C  
HETATM   16  O   UNL     1     -10.128  11.421  62.891  1.00  0.00    -0.577 OA 
HETATM   17  H   UNL     1     -10.750  12.004  62.472  1.00  0.00     0.000 HD 
ENDBRANCH   6  15
ENDBRANCH   3   4
TORSDOF 2
ENDMDL
MODEL      131
REMARK 921   NORMALIZED FREE ENERGY PREDICTED BY IDOCK:   -3.09 KCAL/MOL
REMARK 922        TOTAL FREE ENERGY PREDICTED BY IDOCK:   -3.55 KCAL/MOL
REMARK 923 INTER-LIGAND FREE ENERGY PREDICTED BY IDOCK:   -3.43 KCAL/MOL
REMARK 924 INTRA-LIGAND FREE ENERGY PREDICTED BY IDOCK:   -0.11 KCAL/MOL
REMARK 927      BINDING AFFINITY PREDICTED BY RF-SCORE:    0.00 PKD
ROOT
HETATM    1  O   UNL     1      -7.660  12.435  69.162  1.00  0.00    -0.326 OA 
HETATM    2  H   UNL     1      -7.007  13.121  69.232  1.00  0.00     0.000 HD 
HETATM    3  C   UNL     1      -8.617  12.755  68.160  1.00  0.00    -0.185 C  
ENDROOT
BRANCH   3   4
HETATM    4  C   UNL     1      -9.672  11.647  68.046  1.00  0.00    -0.182 C  
HETATM    5  O   UNL     1      -9.102  10.477  67.426  1.00  0.00    -0.139 OA 
HETATM    6  C   UNL     1      -9.315  10.598  66.019  1.00  0.00    -0.186 C  
HETATM    7  H   UNL     1     -12.839  11.751  67.223  1.00  0.00     0.000 HD 
HETATM    8  O   UNL     1      -8.246  11.350  65.423  1.00  0.00    -0.363 OA 
HETATM    9  C   UNL     1     -10.648  11.346  65.837  1.00  0.00    -0.263 C  
HETATM   10  O   UNL     1     -10.545  12.294  64.766  1.00  0.00    -0.275 OA 
HETATM   11  C   UNL     1     -10.879  12.035  67.183  1.00  0.00    -0.253 C  
HETATM   12  H   UNL     1      -8.388  11.430  64.488  1.00  0.00     0.000 HD 
HETATM   13  H   UNL     1     -11.368  12.756  64.654  1.00  0.00     0.000 HD 
HETATM   14  O   UNL     1     -12.092  11.510  67.758  1.00  0.00    -0.626 OA 
BRANCH   6  15
HETATM   15  C   UNL     1      -9.322   9.219  65.347  1.00  0.00    -0.226 C  
HETATM   16  O   UNL     1     -10.217   8.335  66.029  1.00  0.00    -0.410 OA 
HETATM   17  H   UNL     1     -10.222   7.481  65.613  1.00  0.00     0.000 HD 
ENDBRANCH   6  15
ENDBRANCH   3   4
TORSDOF 2
ENDMDL
MODEL      132
REMARK 921   NORMALIZED FREE ENERGY PREDICTED BY IDOCK:   -3.09 KCAL/MOL
REMARK 922        TOTAL FREE ENERGY PREDICTED BY IDOCK:   -3.54 KCAL/MOL
REMARK 923 INTER-LIGAND FREE ENERGY PREDICTED BY IDOCK:   -3.50 KCAL/MOL
REMARK 924 INTRA-LIGAND FREE ENERGY PREDICTED BY IDOCK:   -0.04 KCAL/MOL
REMARK 927      BINDING AFFINITY PREDICTED BY RF-SCORE:    0.00 PKD
ROOT
HETATM    1  O   UNL     1     -12.634  15.092  70.147  1.00  0.00    -0.470 OA 
HETATM    2  H   UNL     1     -13.532  15.346  70.318  1.00  0.00     0.000 HD 
HETATM    3  C   UNL     1     -12.157  15.705  68.956  1.00  0.00    -0.205 C  
ENDROOT
BRANCH   3   4
HETATM    4  C   UNL     1     -10.704  15.294  68.680  1.00  0.00    -0.245 C  
HETATM    5  O   UNL     1      -9.828  16.429  68.827  1.00  0.00    -0.229 OA 
HETATM    6  C   UNL     1      -9.723  17.052  67.546  1.00  0.00    -0.251 C  
HETATM    7  H   UNL     1      -9.406  13.340  66.397  1.00  0.00     0.000 HD 
HETATM    8  O   UNL     1     -10.794  17.990  67.367  1.00  0.00    -0.356 OA 
HETATM    9  C   UNL     1      -9.828  15.928  66.500  1.00  0.00    -0.261 C  
HETATM   10  O   UNL     1     -10.632  16.353  65.391  1.00  0.00    -0.480 OA 
HETATM   11  C   UNL     1     -10.476  14.768  67.258  1.00  0.00    -0.264 C  
HETATM   12  H   UNL     1     -10.724  18.404  66.515  1.00  0.00     0.000 HD 
HETATM   13  H   UNL     1     -10.697  15.659  64.745  1.00  0.00     0.000 HD 
HETATM   14  O   UNL     1      -9.547  13.666  67.278  1.00  0.00    -0.224 OA 
BRANCH   6  15
HETATM   15  C   UNL     1      -8.412  17.839  67.428  1.00  0.00    -0.226 C  
HETATM   16  O   UNL     1      -8.620  19.213  67.771  1.00  0.00    -0.289 OA 
HETATM   17  H   UNL     1      -7.808  19.701  67.698  1.00  0.00     0.000 HD 
ENDBRANCH   6  15
ENDBRANCH   3   4
TORSDOF 2
ENDMDL
MODEL      133
REMARK 921   NORMALIZED FREE ENERGY PREDICTED BY IDOCK:   -3.06 KCAL/MOL
REMARK 922        TOTAL FREE ENERGY PREDICTED BY IDOCK:   -3.51 KCAL/MOL
REMARK 923 INTER-LIGAND FREE ENERGY PREDICTED BY IDOCK:   -3.39 KCAL/MOL
REMARK 924 INTRA-LIGAND FREE ENERGY PREDICTED BY IDOCK:   -0.13 KCAL/MOL
REMARK 927      BINDING AFFINITY PREDICTED BY RF-SCORE:    0.00 PKD
ROOT
HETATM    1  O   UNL     1     -12.570  14.755  67.555  1.00  0.00    -0.365 OA 
HETATM    2  H   UNL     1     -12.769  15.595  67.160  1.00  0.00     0.000 HD 
HETATM    3  C   UNL     1     -11.171  14.503  67.521  1.00  0.00    -0.321 C  
ENDROOT
BRANCH   3   4
HETATM    4  C   UNL     1     -10.849  13.145  68.158  1.00  0.00    -0.251 C  
HETATM    5  O   UNL     1      -9.455  12.826  67.976  1.00  0.00    -0.201 OA 
HETATM    6  C   UNL     1      -9.344  12.095  66.754  1.00  0.00    -0.212 C  
HETATM    7  H   UNL     1     -12.507  10.323  68.187  1.00  0.00     0.000 HD 
HETATM    8  O   UNL     1      -9.209  13.002  65.649  1.00  0.00    -0.443 OA 
HETATM    9  C   UNL     1     -10.641  11.279  66.609  1.00  0.00    -0.262 C  
HETATM   10  O   UNL     1     -11.092  11.298  65.247  1.00  0.00    -0.196 OA 
HETATM   11  C   UNL     1     -11.631  11.979  67.542  1.00  0.00    -0.330 C  
HETATM   12  H   UNL     1      -9.136  12.516  64.837  1.00  0.00     0.000 HD 
HETATM   13  H   UNL     1     -11.893  10.794  65.158  1.00  0.00     0.000 HD 
HETATM   14  O   UNL     1     -12.022  11.045  68.568  1.00  0.00    -0.535 OA 
BRANCH   6  15
HETATM   15  C   UNL     1      -8.093  11.207  66.761  1.00  0.00    -0.155 C  
HETATM   16  O   UNL     1      -8.291  10.071  67.609  1.00  0.00    -0.114 OA 
HETATM   17  H   UNL     1      -7.516   9.521  67.613  1.00  0.00     0.000 HD 
ENDBRANCH   6  15
ENDBRANCH   3   4
TORSDOF 2
ENDMDL
MODEL      134
REMARK 921   NORMALIZED FREE ENERGY PREDICTED BY IDOCK:   -3.03 KCAL/MOL
REMARK 922        TOTAL FREE ENERGY PREDICTED BY IDOCK:   -3.48 KCAL/MOL
REMARK 923 INTER-LIGAND FREE ENERGY PREDICTED BY IDOCK:   -3.16 KCAL/MOL
REMARK 924 INTRA-LIGAND FREE ENERGY PREDICTED BY IDOCK:   -0.32 KCAL/MOL
REMARK 927      BINDING AFFINITY PREDICTED BY RF-SCORE:    0.00 PKD
ROOT
HETATM    1  O   UNL     1     -13.225  16.122  69.839  1.00  0.00    -0.385 OA 
HETATM    2  H   UNL     1     -13.927  16.557  70.309  1.00  0.00     0.000 HD 
HETATM    3  C   UNL     1     -12.336  15.483  70.746  1.00  0.00    -0.414 C  
ENDROOT
BRANCH   3   4
HETATM    4  C   UNL     1     -11.201  14.781  69.987  1.00  0.00    -0.235 C  
HETATM    5  O   UNL     1      -9.955  15.470  70.204  1.00  0.00    -0.275 OA 
HETATM    6  C   UNL     1      -9.824  16.444  69.168  1.00  0.00    -0.272 C  
HETATM    7  H   UNL     1     -11.092  13.470  66.990  1.00  0.00     0.000 HD 
HETATM    8  O   UNL     1     -10.483  17.661  69.550  1.00  0.00    -0.362 OA 
HETATM    9  C   UNL     1     -10.499  15.851  67.918  1.00  0.00    -0.288 C  
HETATM   10  O   UNL     1     -11.248  16.862  67.229  1.00  0.00    -0.001 OA 
HETATM   11  C   UNL     1     -11.407  14.750  68.468  1.00  0.00    -0.290 C  
HETATM   12  H   UNL     1     -10.396  18.308  68.861  1.00  0.00     0.000 HD 
HETATM   13  H   UNL     1     -11.665  16.496  66.458  1.00  0.00     0.000 HD 
HETATM   14  O   UNL     1     -10.964  13.488  67.931  1.00  0.00    -0.245 OA 
BRANCH   6  15
HETATM   15  C   UNL     1      -8.349  16.790  68.926  1.00  0.00    -0.222 C  
HETATM   16  O   UNL     1      -7.523  15.642  69.149  1.00  0.00    -0.168 OA 
HETATM   17  H   UNL     1      -6.609  15.857  68.999  1.00  0.00     0.000 HD 
ENDBRANCH   6  15
ENDBRANCH   3   4
TORSDOF 2
ENDMDL
MODEL      135
REMARK 921   NORMALIZED FREE ENERGY PREDICTED BY IDOCK:   -3.03 KCAL/MOL
REMARK 922        TOTAL FREE ENERGY PREDICTED BY IDOCK:   -3.48 KCAL/MOL
REMARK 923 INTER-LIGAND FREE ENERGY PREDICTED BY IDOCK:   -3.13 KCAL/MOL
REMARK 924 INTRA-LIGAND FREE ENERGY PREDICTED BY IDOCK:   -0.35 KCAL/MOL
REMARK 927      BINDING AFFINITY PREDICTED BY RF-SCORE:    0.00 PKD
ROOT
HETATM    1  O   UNL     1     -12.203  12.193  66.414  1.00  0.00    -0.592 OA 
HETATM    2  H   UNL     1     -13.031  12.626  66.583  1.00  0.00     0.000 HD 
HETATM    3  C   UNL     1     -11.239  12.553  67.395  1.00  0.00    -0.293 C  
ENDROOT
BRANCH   3   4
HETATM    4  C   UNL     1      -9.901  11.854  67.120  1.00  0.00    -0.194 C  
HETATM    5  O   UNL     1     -10.126  10.503  66.670  1.00  0.00    -0.206 OA 
HETATM    6  C   UNL     1     -10.138   9.668  67.828  1.00  0.00    -0.187 C  
HETATM    7  H   UNL     1      -7.069  11.883  68.761  1.00  0.00     0.000 HD 
HETATM    8  O   UNL     1     -11.458   9.627  68.391  1.00  0.00    -0.498 OA 
HETATM    9  C   UNL     1      -9.156  10.295  68.834  1.00  0.00    -0.168 C  
HETATM   10  O   UNL     1      -9.694  10.228  70.163  1.00  0.00    -0.404 OA 
HETATM   11  C   UNL     1      -9.003  11.741  68.358  1.00  0.00    -0.168 C  
HETATM   12  H   UNL     1     -11.465   9.071  69.162  1.00  0.00     0.000 HD 
HETATM   13  H   UNL     1      -9.088  10.616  70.784  1.00  0.00     0.000 HD 
HETATM   14  O   UNL     1      -7.625  11.953  67.994  1.00  0.00    -0.106 OA 
BRANCH   6  15
HETATM   15  C   UNL     1      -9.760   8.226  67.465  1.00  0.00    -0.165 C  
HETATM   16  O   UNL     1      -9.399   7.492  68.640  1.00  0.00    -0.144 OA 
HETATM   17  H   UNL     1      -9.165   6.599  68.415  1.00  0.00     0.000 HD 
ENDBRANCH   6  15
ENDBRANCH   3   4
TORSDOF 2
ENDMDL
MODEL      136
REMARK 921   NORMALIZED FREE ENERGY PREDICTED BY IDOCK:   -3.02 KCAL/MOL
REMARK 922        TOTAL FREE ENERGY PREDICTED BY IDOCK:   -3.47 KCAL/MOL
REMARK 923 INTER-LIGAND FREE ENERGY PREDICTED BY IDOCK:   -3.09 KCAL/MOL
REMARK 924 INTRA-LIGAND FREE ENERGY PREDICTED BY IDOCK:   -0.38 KCAL/MOL
REMARK 927      BINDING AFFINITY PREDICTED BY RF-SCORE:    0.00 PKD
ROOT
HETATM    1  O   UNL     1     -11.406   6.656  67.458  1.00  0.00    -0.662 OA 
HETATM    2  H   UNL     1     -11.476   5.726  67.284  1.00  0.00     0.000 HD 
HETATM    3  C   UNL     1     -10.242   6.937  68.225  1.00  0.00    -0.180 C  
ENDROOT
BRANCH   3   4
HETATM    4  C   UNL     1     -10.129   8.441  68.507  1.00  0.00    -0.197 C  
HETATM    5  O   UNL     1     -10.750   9.195  67.447  1.00  0.00    -0.277 OA 
HETATM    6  C   UNL     1      -9.740   9.468  66.474  1.00  0.00    -0.222 C  
HETATM    7  H   UNL     1      -7.660  10.242  69.679  1.00  0.00     0.000 HD 
HETATM    8  O   UNL     1      -9.644   8.377  65.547  1.00  0.00    -0.426 OA 
HETATM    9  C   UNL     1      -8.417   9.623  67.244  1.00  0.00    -0.132 C  
HETATM   10  O   UNL     1      -7.348   8.987  66.530  1.00  0.00    -0.084 OA 
HETATM   11  C   UNL     1      -8.682   8.943  68.589  1.00  0.00    -0.134 C  
HETATM   12  H   UNL     1      -8.972   8.559  64.900  1.00  0.00     0.000 HD 
HETATM   13  H   UNL     1      -6.530   9.082  67.005  1.00  0.00     0.000 HD 
HETATM   14  O   UNL     1      -8.557   9.932  69.628  1.00  0.00    -0.166 OA 
BRANCH   6  15
HETATM   15  C   UNL     1     -10.091  10.720  65.660  1.00  0.00    -0.267 C  
HETATM   16  O   UNL     1      -9.028  11.676  65.727  1.00  0.00    -0.341 OA 
HETATM   17  H   UNL     1      -9.246  12.451  65.222  1.00  0.00     0.000 HD 
ENDBRANCH   6  15
ENDBRANCH   3   4
TORSDOF 2
ENDMDL
MODEL      137
REMARK 921   NORMALIZED FREE ENERGY PREDICTED BY IDOCK:   -3.02 KCAL/MOL
REMARK 922        TOTAL FREE ENERGY PREDICTED BY IDOCK:   -3.46 KCAL/MOL
REMARK 923 INTER-LIGAND FREE ENERGY PREDICTED BY IDOCK:   -3.22 KCAL/MOL
REMARK 924 INTRA-LIGAND FREE ENERGY PREDICTED BY IDOCK:   -0.25 KCAL/MOL
REMARK 927      BINDING AFFINITY PREDICTED BY RF-SCORE:    0.00 PKD
ROOT
HETATM    1  O   UNL     1     -11.872   9.855  69.290  1.00  0.00    -0.464 OA 
HETATM    2  H   UNL     1     -12.448  10.334  68.707  1.00  0.00     0.000 HD 
HETATM    3  C   UNL     1     -10.540   9.858  68.793  1.00  0.00    -0.222 C  
ENDROOT
BRANCH   3   4
HETATM    4  C   UNL     1      -9.609   9.083  69.735  1.00  0.00    -0.175 C  
HETATM    5  O   UNL     1      -9.489   7.713  69.303  1.00  0.00    -0.158 OA 
HETATM    6  C   UNL     1     -10.512   6.969  69.966  1.00  0.00    -0.215 C  
HETATM    7  H   UNL     1      -9.318   9.113  72.995  1.00  0.00     0.000 HD 
HETATM    8  O   UNL     1     -11.731   7.028  69.212  1.00  0.00    -0.502 OA 
HETATM    9  C   UNL     1     -10.713   7.627  71.343  1.00  0.00    -0.222 C  
HETATM   10  O   UNL     1     -12.109   7.685  71.668  1.00  0.00    -0.284 OA 
HETATM   11  C   UNL     1     -10.111   9.025  71.183  1.00  0.00    -0.295 C  
HETATM   12  H   UNL     1     -12.411   6.533  69.653  1.00  0.00     0.000 HD 
HETATM   13  H   UNL     1     -12.233   8.091  72.518  1.00  0.00     0.000 HD 
HETATM   14  O   UNL     1      -9.006   9.149  72.099  1.00  0.00    -0.315 OA 
BRANCH   6  15
HETATM   15  C   UNL     1     -10.124   5.489  70.078  1.00  0.00    -0.241 C  
HETATM   16  O   UNL     1      -9.472   5.050  68.883  1.00  0.00    -0.122 OA 
HETATM   17  H   UNL     1      -9.231   4.133  68.953  1.00  0.00     0.000 HD 
ENDBRANCH   6  15
ENDBRANCH   3   4
TORSDOF 2
ENDMDL
MODEL      138
REMARK 921   NORMALIZED FREE ENERGY PREDICTED BY IDOCK:   -3.00 KCAL/MOL
REMARK 922        TOTAL FREE ENERGY PREDICTED BY IDOCK:   -3.44 KCAL/MOL
REMARK 923 INTER-LIGAND FREE ENERGY PREDICTED BY IDOCK:   -3.37 KCAL/MOL
REMARK 924 INTRA-LIGAND FREE ENERGY PREDICTED BY IDOCK:   -0.07 KCAL/MOL
REMARK 927      BINDING AFFINITY PREDICTED BY RF-SCORE:    0.00 PKD
ROOT
HETATM    1  O   UNL     1     -10.542  18.600  68.457  1.00  0.00    -0.369 OA 
HETATM    2  H   UNL     1     -10.902  19.114  69.169  1.00  0.00     0.000 HD 
HETATM    3  C   UNL     1     -10.473  17.226  68.816  1.00  0.00    -0.340 C  
ENDROOT
BRANCH   3   4
HETATM    4  C   UNL     1      -9.891  16.394  67.666  1.00  0.00    -0.243 C  
HETATM    5  O   UNL     1     -10.527  15.102  67.611  1.00  0.00    -0.246 OA 
HETATM    6  C   UNL     1      -9.756  14.216  68.425  1.00  0.00    -0.226 C  
HETATM    7  H   UNL     1      -6.815  16.020  66.609  1.00  0.00     0.000 HD 
HETATM    8  O   UNL     1     -10.193  14.297  69.789  1.00  0.00    -0.413 OA 
HETATM    9  C   UNL     1      -8.292  14.677  68.313  1.00  0.00    -0.148 C  
HETATM   10  O   UNL     1      -7.648  14.605  69.592  1.00  0.00    -0.347 OA 
HETATM   11  C   UNL     1      -8.389  16.118  67.808  1.00  0.00    -0.154 C  
HETATM   12  H   UNL     1      -9.680  13.708  70.330  1.00  0.00     0.000 HD 
HETATM   13  H   UNL     1      -6.744  14.890  69.523  1.00  0.00     0.000 HD 
HETATM   14  O   UNL     1      -7.745  16.190  66.521  1.00  0.00    -0.249 OA 
BRANCH   6  15
HETATM   15  C   UNL     1      -9.946  12.761  67.978  1.00  0.00    -0.225 C  
HETATM   16  O   UNL     1      -9.935  11.884  69.109  1.00  0.00    -0.415 OA 
HETATM   17  H   UNL     1     -10.053  10.983  68.832  1.00  0.00     0.000 HD 
ENDBRANCH   6  15
ENDBRANCH   3   4
TORSDOF 2
ENDMDL
MODEL      139
REMARK 921   NORMALIZED FREE ENERGY PREDICTED BY IDOCK:   -2.99 KCAL/MOL
REMARK 922        TOTAL FREE ENERGY PREDICTED BY IDOCK:   -3.43 KCAL/MOL
REMARK 923 INTER-LIGAND FREE ENERGY PREDICTED BY IDOCK:   -3.00 KCAL/MOL
REMARK 924 INTRA-LIGAND FREE ENERGY PREDICTED BY IDOCK:   -0.42 KCAL/MOL
REMARK 927      BINDING AFFINITY PREDICTED BY RF-SCORE:    0.00 PKD
ROOT
HETATM    1  O   UNL     1      -9.272  14.031  65.972  1.00  0.00    -0.494 OA 
HETATM    2  H   UNL     1      -9.428  13.118  66.181  1.00  0.00     0.000 HD 
HETATM    3  C   UNL     1     -10.042  14.878  66.816  1.00  0.00    -0.251 C  
ENDROOT
BRANCH   3   4
HETATM    4  C   UNL     1      -9.789  16.353  66.478  1.00  0.00    -0.274 C  
HETATM    5  O   UNL     1      -8.446  16.529  65.986  1.00  0.00    -0.381 OA 
HETATM    6  C   UNL     1      -7.616  16.815  67.113  1.00  0.00    -0.188 C  
HETATM    7  H   UNL     1     -10.632  19.104  68.038  1.00  0.00     0.000 HD 
HETATM    8  O   UNL     1      -7.162  15.592  67.711  1.00  0.00    -0.128 OA 
HETATM    9  C   UNL     1      -8.485  17.598  68.112  1.00  0.00    -0.260 C  
HETATM   10  O   UNL     1      -8.224  17.157  69.452  1.00  0.00     0.030 OA 
HETATM   11  C   UNL     1      -9.921  17.290  67.685  1.00  0.00    -0.297 C  
HETATM   12  H   UNL     1      -6.610  15.781  68.460  1.00  0.00     0.000 HD 
HETATM   13  H   UNL     1      -8.760  17.640  70.070  1.00  0.00     0.000 HD 
HETATM   14  O   UNL     1     -10.550  18.525  67.291  1.00  0.00    -0.405 OA 
BRANCH   6  15
HETATM   15  C   UNL     1      -6.367  17.597  66.687  1.00  0.00    -0.200 C  
HETATM   16  O   UNL     1      -5.836  18.333  67.793  1.00  0.00    -0.157 OA 
HETATM   17  H   UNL     1      -5.062  18.817  67.529  1.00  0.00     0.000 HD 
ENDBRANCH   6  15
ENDBRANCH   3   4
TORSDOF 2
ENDMDL
MODEL      140
REMARK 921   NORMALIZED FREE ENERGY PREDICTED BY IDOCK:   -2.97 KCAL/MOL
REMARK 922        TOTAL FREE ENERGY PREDICTED BY IDOCK:   -3.41 KCAL/MOL
REMARK 923 INTER-LIGAND FREE ENERGY PREDICTED BY IDOCK:   -3.12 KCAL/MOL
REMARK 924 INTRA-LIGAND FREE ENERGY PREDICTED BY IDOCK:   -0.29 KCAL/MOL
REMARK 927      BINDING AFFINITY PREDICTED BY RF-SCORE:    0.00 PKD
ROOT
HETATM    1  O   UNL     1      -9.828  13.742  65.307  1.00  0.00    -0.530 OA 
HETATM    2  H   UNL     1      -9.734  13.491  64.396  1.00  0.00     0.000 HD 
HETATM    3  C   UNL     1     -10.583  14.941  65.422  1.00  0.00    -0.373 C  
ENDROOT
BRANCH   3   4
HETATM    4  C   UNL     1     -10.734  15.347  66.894  1.00  0.00    -0.314 C  
HETATM    5  O   UNL     1      -9.932  16.511  67.175  1.00  0.00    -0.254 OA 
HETATM    6  C   UNL     1      -8.651  16.049  67.605  1.00  0.00    -0.166 C  
HETATM    7  H   UNL     1     -10.860  13.555  69.630  1.00  0.00     0.000 HD 
HETATM    8  O   UNL     1      -7.803  15.825  66.469  1.00  0.00    -0.233 OA 
HETATM    9  C   UNL     1      -8.889  14.724  68.352  1.00  0.00    -0.181 C  
HETATM   10  O   UNL     1      -7.870  13.772  68.015  1.00  0.00    -0.124 OA 
HETATM   11  C   UNL     1     -10.270  14.268  67.878  1.00  0.00    -0.237 C  
HETATM   12  H   UNL     1      -6.951  15.517  66.754  1.00  0.00     0.000 HD 
HETATM   13  H   UNL     1      -8.017  12.954  68.477  1.00  0.00     0.000 HD 
HETATM   14  O   UNL     1     -11.148  14.224  69.020  1.00  0.00    -0.242 OA 
BRANCH   6  15
HETATM   15  C   UNL     1      -7.957  17.098  68.483  1.00  0.00    -0.259 C  
HETATM   16  O   UNL     1      -7.376  18.124  67.672  1.00  0.00    -0.208 OA 
HETATM   17  H   UNL     1      -6.947  18.775  68.216  1.00  0.00     0.000 HD 
ENDBRANCH   6  15
ENDBRANCH   3   4
TORSDOF 2
ENDMDL
MODEL      141
REMARK 921   NORMALIZED FREE ENERGY PREDICTED BY IDOCK:   -2.91 KCAL/MOL
REMARK 922        TOTAL FREE ENERGY PREDICTED BY IDOCK:   -3.35 KCAL/MOL
REMARK 923 INTER-LIGAND FREE ENERGY PREDICTED BY IDOCK:   -3.28 KCAL/MOL
REMARK 924 INTRA-LIGAND FREE ENERGY PREDICTED BY IDOCK:   -0.06 KCAL/MOL
REMARK 927      BINDING AFFINITY PREDICTED BY RF-SCORE:    0.00 PKD
ROOT
HETATM    1  O   UNL     1     -10.962  18.518  64.931  1.00  0.00    -0.547 OA 
HETATM    2  H   UNL     1     -11.719  18.515  64.358  1.00  0.00     0.000 HD 
HETATM    3  C   UNL     1     -10.802  17.251  65.556  1.00  0.00    -0.023 C  
ENDROOT
BRANCH   3   4
HETATM    4  C   UNL     1      -9.579  17.255  66.483  1.00  0.00    -0.273 C  
HETATM    5  O   UNL     1      -9.119  15.908  66.708  1.00  0.00    -0.214 OA 
HETATM    6  C   UNL     1      -9.792  15.420  67.870  1.00  0.00    -0.219 C  
HETATM    7  H   UNL     1      -8.917  18.985  69.181  1.00  0.00     0.000 HD 
HETATM    8  O   UNL     1     -11.058  14.852  67.501  1.00  0.00    -0.297 OA 
HETATM    9  C   UNL     1     -10.009  16.631  68.795  1.00  0.00    -0.265 C  
HETATM   10  O   UNL     1     -11.311  16.573  69.394  1.00  0.00    -0.252 OA 
HETATM   11  C   UNL     1      -9.864  17.841  67.871  1.00  0.00    -0.306 C  
HETATM   12  H   UNL     1     -11.506  14.528  68.273  1.00  0.00     0.000 HD 
HETATM   13  H   UNL     1     -11.444  17.321  69.966  1.00  0.00     0.000 HD 
HETATM   14  O   UNL     1      -8.740  18.622  68.322  1.00  0.00    -0.304 OA 
BRANCH   6  15
HETATM   15  C   UNL     1      -8.980  14.307  68.544  1.00  0.00    -0.185 C  
HETATM   16  O   UNL     1      -9.799  13.154  68.766  1.00  0.00    -0.399 OA 
HETATM   17  H   UNL     1      -9.295  12.465  69.184  1.00  0.00     0.000 HD 
ENDBRANCH   6  15
ENDBRANCH   3   4
TORSDOF 2
ENDMDL
MODEL      142
REMARK 921   NORMALIZED FREE ENERGY PREDICTED BY IDOCK:   -2.91 KCAL/MOL
REMARK 922        TOTAL FREE ENERGY PREDICTED BY IDOCK:   -3.34 KCAL/MOL
REMARK 923 INTER-LIGAND FREE ENERGY PREDICTED BY IDOCK:   -3.17 KCAL/MOL
REMARK 924 INTRA-LIGAND FREE ENERGY PREDICTED BY IDOCK:   -0.17 KCAL/MOL
REMARK 927      BINDING AFFINITY PREDICTED BY RF-SCORE:    0.00 PKD
ROOT
HETATM    1  O   UNL     1      -7.642   8.787  74.164  1.00  0.00    -0.419 OA 
HETATM    2  H   UNL     1      -7.145   8.601  74.951  1.00  0.00     0.000 HD 
HETATM    3  C   UNL     1      -7.101   8.087  73.051  1.00  0.00    -0.099 C  
ENDROOT
BRANCH   3   4
HETATM    4  C   UNL     1      -7.905   8.389  71.779  1.00  0.00    -0.126 C  
HETATM    5  O   UNL     1      -9.157   9.018  72.117  1.00  0.00    -0.372 OA 
HETATM    6  C   UNL     1     -10.122   7.977  72.282  1.00  0.00    -0.246 C  
HETATM    7  H   UNL     1      -8.388   6.634  69.058  1.00  0.00     0.000 HD 
HETATM    8  O   UNL     1     -10.086   7.483  73.629  1.00  0.00    -0.327 OA 
HETATM    9  C   UNL     1      -9.733   6.857  71.300  1.00  0.00    -0.172 C  
HETATM   10  O   UNL     1      -9.903   5.573  71.917  1.00  0.00    -0.162 OA 
HETATM   11  C   UNL     1      -8.266   7.138  70.970  1.00  0.00    -0.109 C  
HETATM   12  H   UNL     1     -10.727   6.791  73.738  1.00  0.00     0.000 HD 
HETATM   13  H   UNL     1      -9.663   4.882  71.312  1.00  0.00     0.000 HD 
HETATM   14  O   UNL     1      -8.165   7.410  69.559  1.00  0.00    -0.127 OA 
BRANCH   6  15
HETATM   15  C   UNL     1     -11.541   8.505  72.035  1.00  0.00    -0.362 C  
HETATM   16  O   UNL     1     -12.395   8.178  73.136  1.00  0.00    -0.652 OA 
HETATM   17  H   UNL     1     -13.274   8.505  72.982  1.00  0.00     0.000 HD 
ENDBRANCH   6  15
ENDBRANCH   3   4
TORSDOF 2
ENDMDL
MODEL      143
REMARK 921   NORMALIZED FREE ENERGY PREDICTED BY IDOCK:   -2.91 KCAL/MOL
REMARK 922        TOTAL FREE ENERGY PREDICTED BY IDOCK:   -3.34 KCAL/MOL
REMARK 923 INTER-LIGAND FREE ENERGY PREDICTED BY IDOCK:   -2.86 KCAL/MOL
REMARK 924 INTRA-LIGAND FREE ENERGY PREDICTED BY IDOCK:   -0.48 KCAL/MOL
REMARK 927      BINDING AFFINITY PREDICTED BY RF-SCORE:    0.00 PKD
ROOT
HETATM    1  O   UNL     1      -7.878   7.065  68.472  1.00  0.00    -0.117 OA 
HETATM    2  H   UNL     1      -7.369   7.866  68.508  1.00  0.00     0.000 HD 
HETATM    3  C   UNL     1      -7.112   6.011  67.902  1.00  0.00    -0.074 C  
ENDROOT
BRANCH   3   4
HETATM    4  C   UNL     1      -7.934   4.716  67.843  1.00  0.00    -0.089 C  
HETATM    5  O   UNL     1      -8.290   4.413  66.480  1.00  0.00    -0.106 OA 
HETATM    6  C   UNL     1      -9.552   5.032  66.224  1.00  0.00    -0.166 C  
HETATM    7  H   UNL     1     -10.336   3.589  69.760  1.00  0.00     0.000 HD 
HETATM    8  O   UNL     1      -9.357   6.389  65.799  1.00  0.00    -0.368 OA 
HETATM    9  C   UNL     1     -10.332   5.004  67.551  1.00  0.00    -0.089 C  
HETATM   10  O   UNL     1     -11.033   6.241  67.742  1.00  0.00    -0.308 OA 
HETATM   11  C   UNL     1      -9.256   4.793  68.616  1.00  0.00    -0.124 C  
HETATM   12  H   UNL     1     -10.195   6.801  65.629  1.00  0.00     0.000 HD 
HETATM   13  H   UNL     1     -11.515   6.225  68.561  1.00  0.00     0.000 HD 
HETATM   14  O   UNL     1      -9.517   3.541  69.281  1.00  0.00    -0.173 OA 
BRANCH   6  15
HETATM   15  C   UNL     1     -10.296   4.310  65.094  1.00  0.00    -0.195 C  
HETATM   16  O   UNL     1     -11.678   4.681  65.086  1.00  0.00    -1.054 OA 
HETATM   17  H   UNL     1     -12.138   4.234  64.386  1.00  0.00     0.000 HD 
ENDBRANCH   6  15
ENDBRANCH   3   4
TORSDOF 2
ENDMDL
MODEL      144
REMARK 921   NORMALIZED FREE ENERGY PREDICTED BY IDOCK:   -2.89 KCAL/MOL
REMARK 922        TOTAL FREE ENERGY PREDICTED BY IDOCK:   -3.32 KCAL/MOL
REMARK 923 INTER-LIGAND FREE ENERGY PREDICTED BY IDOCK:   -3.26 KCAL/MOL
REMARK 924 INTRA-LIGAND FREE ENERGY PREDICTED BY IDOCK:   -0.06 KCAL/MOL
REMARK 927      BINDING AFFINITY PREDICTED BY RF-SCORE:    0.00 PKD
ROOT
HETATM    1  O   UNL     1     -12.818  10.390  70.132  1.00  0.00    -0.545 OA 
HETATM    2  H   UNL     1     -13.536  10.744  70.643  1.00  0.00     0.000 HD 
HETATM    3  C   UNL     1     -11.994  11.436  69.633  1.00  0.00    -0.348 C  
ENDROOT
BRANCH   3   4
HETATM    4  C   UNL     1     -10.835  10.864  68.806  1.00  0.00    -0.209 C  
HETATM    5  O   UNL     1      -9.772  11.831  68.701  1.00  0.00    -0.191 OA 
HETATM    6  C   UNL     1     -10.015  12.601  67.523  1.00  0.00    -0.205 C  
HETATM    7  H   UNL     1     -10.809   9.073  66.066  1.00  0.00     0.000 HD 
HETATM    8  O   UNL     1     -10.890  13.698  67.825  1.00  0.00    -0.247 OA 
HETATM    9  C   UNL     1     -10.687  11.656  66.510  1.00  0.00    -0.272 C  
HETATM   10  O   UNL     1     -11.740  12.339  65.815  1.00  0.00    -0.387 OA 
HETATM   11  C   UNL     1     -11.224  10.508  67.367  1.00  0.00    -0.173 C  
HETATM   12  H   UNL     1     -11.052  14.210  67.042  1.00  0.00     0.000 HD 
HETATM   13  H   UNL     1     -12.154  11.756  65.190  1.00  0.00     0.000 HD 
HETATM   14  O   UNL     1     -10.567   9.293  66.958  1.00  0.00    -0.246 OA 
BRANCH   6  15
HETATM   15  C   UNL     1      -8.711  13.203  66.984  1.00  0.00    -0.189 C  
HETATM   16  O   UNL     1      -8.839  14.620  66.830  1.00  0.00    -0.250 OA 
HETATM   17  H   UNL     1      -8.031  14.992  66.496  1.00  0.00     0.000 HD 
ENDBRANCH   6  15
ENDBRANCH   3   4
TORSDOF 2
ENDMDL
MODEL      145
REMARK 921   NORMALIZED FREE ENERGY PREDICTED BY IDOCK:   -2.89 KCAL/MOL
REMARK 922        TOTAL FREE ENERGY PREDICTED BY IDOCK:   -3.32 KCAL/MOL
REMARK 923 INTER-LIGAND FREE ENERGY PREDICTED BY IDOCK:   -3.10 KCAL/MOL
REMARK 924 INTRA-LIGAND FREE ENERGY PREDICTED BY IDOCK:   -0.22 KCAL/MOL
REMARK 927      BINDING AFFINITY PREDICTED BY RF-SCORE:    0.00 PKD
ROOT
HETATM    1  O   UNL     1     -10.965   7.760  66.794  1.00  0.00    -0.428 OA 
HETATM    2  H   UNL     1     -11.371   7.051  67.278  1.00  0.00     0.000 HD 
HETATM    3  C   UNL     1     -10.365   8.694  67.683  1.00  0.00    -0.254 C  
ENDROOT
BRANCH   3   4
HETATM    4  C   UNL     1      -9.709   9.840  66.901  1.00  0.00    -0.192 C  
HETATM    5  O   UNL     1      -8.926  10.664  67.787  1.00  0.00    -0.138 OA 
HETATM    6  C   UNL     1      -9.783  11.701  68.268  1.00  0.00    -0.197 C  
HETATM    7  H   UNL     1     -10.858  11.771  64.521  1.00  0.00     0.000 HD 
HETATM    8  O   UNL     1     -10.496  11.251  69.429  1.00  0.00    -0.392 OA 
HETATM    9  C   UNL     1     -10.773  12.016  67.132  1.00  0.00    -0.239 C  
HETATM   10  O   UNL     1     -12.089  12.227  67.663  1.00  0.00    -0.502 OA 
HETATM   11  C   UNL     1     -10.716  10.781  66.231  1.00  0.00    -0.138 C  
HETATM   12  H   UNL     1     -11.066  11.940  69.749  1.00  0.00     0.000 HD 
HETATM   13  H   UNL     1     -12.700  12.421  66.962  1.00  0.00     0.000 HD 
HETATM   14  O   UNL     1     -10.233  11.189  64.936  1.00  0.00    -0.265 OA 
BRANCH   6  15
HETATM   15  C   UNL     1      -8.968  12.931  68.690  1.00  0.00     0.051 C  
HETATM   16  O   UNL     1      -9.839  14.008  69.052  1.00  0.00    -0.405 OA 
HETATM   17  H   UNL     1      -9.334  14.769  69.314  1.00  0.00     0.000 HD 
ENDBRANCH   6  15
ENDBRANCH   3   4
TORSDOF 2
ENDMDL
MODEL      146
REMARK 921   NORMALIZED FREE ENERGY PREDICTED BY IDOCK:   -2.88 KCAL/MOL
REMARK 922        TOTAL FREE ENERGY PREDICTED BY IDOCK:   -3.31 KCAL/MOL
REMARK 923 INTER-LIGAND FREE ENERGY PREDICTED BY IDOCK:   -3.07 KCAL/MOL
REMARK 924 INTRA-LIGAND FREE ENERGY PREDICTED BY IDOCK:   -0.23 KCAL/MOL
REMARK 927      BINDING AFFINITY PREDICTED BY RF-SCORE:    0.00 PKD
ROOT
HETATM    1  O   UNL     1      -7.446  10.317  70.374  1.00  0.00    -0.389 OA 
HETATM    2  H   UNL     1      -6.977   9.798  71.016  1.00  0.00     0.000 HD 
HETATM    3  C   UNL     1      -7.556   9.611  69.144  1.00  0.00    -0.082 C  
ENDROOT
BRANCH   3   4
HETATM    4  C   UNL     1      -8.313  10.449  68.105  1.00  0.00    -0.117 C  
HETATM    5  O   UNL     1      -9.240  11.338  68.760  1.00  0.00    -0.182 OA 
HETATM    6  C   UNL     1     -10.485  10.646  68.868  1.00  0.00    -0.210 C  
HETATM    7  H   UNL     1      -9.601   9.649  65.204  1.00  0.00     0.000 HD 
HETATM    8  O   UNL     1     -10.505   9.855  70.066  1.00  0.00    -0.247 OA 
HETATM    9  C   UNL     1     -10.590   9.733  67.633  1.00  0.00    -0.276 C  
HETATM   10  O   UNL     1     -11.136   8.459  68.001  1.00  0.00    -0.454 OA 
HETATM   11  C   UNL     1      -9.150   9.610  67.133  1.00  0.00    -0.134 C  
HETATM   12  H   UNL     1     -11.332   9.395  70.138  1.00  0.00     0.000 HD 
HETATM   13  H   UNL     1     -11.201   7.895  67.239  1.00  0.00     0.000 HD 
HETATM   14  O   UNL     1      -9.083  10.170  65.806  1.00  0.00    -0.157 OA 
BRANCH   6  15
HETATM   15  C   UNL     1     -11.653  11.636  68.965  1.00  0.00    -0.316 C  
HETATM   16  O   UNL     1     -11.707  12.220  70.270  1.00  0.00    -0.509 OA 
HETATM   17  H   UNL     1     -12.430  12.834  70.329  1.00  0.00     0.000 HD 
ENDBRANCH   6  15
ENDBRANCH   3   4
TORSDOF 2
ENDMDL
MODEL      147
REMARK 921   NORMALIZED FREE ENERGY PREDICTED BY IDOCK:   -2.87 KCAL/MOL
REMARK 922        TOTAL FREE ENERGY PREDICTED BY IDOCK:   -3.30 KCAL/MOL
REMARK 923 INTER-LIGAND FREE ENERGY PREDICTED BY IDOCK:   -3.14 KCAL/MOL
REMARK 924 INTRA-LIGAND FREE ENERGY PREDICTED BY IDOCK:   -0.16 KCAL/MOL
REMARK 927      BINDING AFFINITY PREDICTED BY RF-SCORE:    0.00 PKD
ROOT
HETATM    1  O   UNL     1     -11.467   6.814  67.164  1.00  0.00    -0.756 OA 
HETATM    2  H   UNL     1     -11.238   6.573  66.275  1.00  0.00     0.000 HD 
HETATM    3  C   UNL     1     -10.865   5.923  68.095  1.00  0.00    -0.236 C  
ENDROOT
BRANCH   3   4
HETATM    4  C   UNL     1     -11.235   6.313  69.533  1.00  0.00    -0.430 C  
HETATM    5  O   UNL     1     -11.216   7.746  69.682  1.00  0.00    -0.110 OA 
HETATM    6  C   UNL     1      -9.899   8.111  70.096  1.00  0.00    -0.184 C  
HETATM    7  H   UNL     1     -10.380   5.013  72.413  1.00  0.00     0.000 HD 
HETATM    8  O   UNL     1      -9.055   8.289  68.949  1.00  0.00    -0.146 OA 
HETATM    9  C   UNL     1      -9.372   6.952  70.962  1.00  0.00    -0.156 C  
HETATM   10  O   UNL     1      -7.992   6.696  70.665  1.00  0.00    -0.107 OA 
HETATM   11  C   UNL     1     -10.262   5.767  70.585  1.00  0.00    -0.218 C  
HETATM   12  H   UNL     1      -8.179   8.532  69.225  1.00  0.00     0.000 HD 
HETATM   13  H   UNL     1      -7.667   5.981  71.199  1.00  0.00     0.000 HD 
HETATM   14  O   UNL     1     -10.983   5.351  71.761  1.00  0.00    -0.213 OA 
BRANCH   6  15
HETATM   15  C   UNL     1      -9.915   9.445  70.854  1.00  0.00    -0.283 C  
HETATM   16  O   UNL     1     -11.087  10.196  70.521  1.00  0.00    -0.294 OA 
HETATM   17  H   UNL     1     -11.096  11.022  70.990  1.00  0.00     0.000 HD 
ENDBRANCH   6  15
ENDBRANCH   3   4
TORSDOF 2
ENDMDL
MODEL      148
REMARK 921   NORMALIZED FREE ENERGY PREDICTED BY IDOCK:   -2.86 KCAL/MOL
REMARK 922        TOTAL FREE ENERGY PREDICTED BY IDOCK:   -3.29 KCAL/MOL
REMARK 923 INTER-LIGAND FREE ENERGY PREDICTED BY IDOCK:   -3.16 KCAL/MOL
REMARK 924 INTRA-LIGAND FREE ENERGY PREDICTED BY IDOCK:   -0.14 KCAL/MOL
REMARK 927      BINDING AFFINITY PREDICTED BY RF-SCORE:    0.00 PKD
ROOT
HETATM    1  O   UNL     1     -11.607  15.087  66.478  1.00  0.00    -0.302 OA 
HETATM    2  H   UNL     1     -12.448  15.377  66.810  1.00  0.00     0.000 HD 
HETATM    3  C   UNL     1     -10.546  15.766  67.136  1.00  0.00    -0.313 C  
ENDROOT
BRANCH   3   4
HETATM    4  C   UNL     1      -9.187  15.297  66.600  1.00  0.00    -0.274 C  
HETATM    5  O   UNL     1      -9.171  13.862  66.470  1.00  0.00    -0.260 OA 
HETATM    6  C   UNL     1      -8.684  13.330  67.703  1.00  0.00    -0.195 C  
HETATM    7  H   UNL     1      -6.137  16.255  67.302  1.00  0.00     0.000 HD 
HETATM    8  O   UNL     1      -9.767  13.165  68.629  1.00  0.00    -0.368 OA 
HETATM    9  C   UNL     1      -7.673  14.352  68.254  1.00  0.00    -0.129 C  
HETATM   10  O   UNL     1      -7.828  14.491  69.673  1.00  0.00    -0.382 OA 
HETATM   11  C   UNL     1      -8.011  15.650  67.518  1.00  0.00    -0.162 C  
HETATM   12  H   UNL     1      -9.443  12.812  69.449  1.00  0.00     0.000 HD 
HETATM   13  H   UNL     1      -7.204  15.122  70.013  1.00  0.00     0.000 HD 
HETATM   14  O   UNL     1      -6.866  16.036  66.733  1.00  0.00    -0.241 OA 
BRANCH   6  15
HETATM   15  C   UNL     1      -8.058  11.946  67.492  1.00  0.00    -0.156 C  
HETATM   16  O   UNL     1      -7.684  11.769  66.122  1.00  0.00    -0.373 OA 
HETATM   17  H   UNL     1      -7.296  10.911  65.991  1.00  0.00     0.000 HD 
ENDBRANCH   6  15
ENDBRANCH   3   4
TORSDOF 2
ENDMDL
MODEL      149
REMARK 921   NORMALIZED FREE ENERGY PREDICTED BY IDOCK:   -2.86 KCAL/MOL
REMARK 922        TOTAL FREE ENERGY PREDICTED BY IDOCK:   -3.29 KCAL/MOL
REMARK 923 INTER-LIGAND FREE ENERGY PREDICTED BY IDOCK:   -3.04 KCAL/MOL
REMARK 924 INTRA-LIGAND FREE ENERGY PREDICTED BY IDOCK:   -0.25 KCAL/MOL
REMARK 927      BINDING AFFINITY PREDICTED BY RF-SCORE:    0.00 PKD
ROOT
HETATM    1  O   UNL     1     -10.413   2.953  74.157  1.00  0.00    -0.146 OA 
HETATM    2  H   UNL     1     -10.939   2.177  74.307  1.00  0.00     0.000 HD 
HETATM    3  C   UNL     1     -10.101   3.089  72.777  1.00  0.00    -0.152 C  
ENDROOT
BRANCH   3   4
HETATM    4  C   UNL     1      -9.251   4.343  72.535  1.00  0.00    -0.123 C  
HETATM    5  O   UNL     1      -9.657   5.401  73.425  1.00  0.00    -0.144 OA 
HETATM    6  C   UNL     1     -10.667   6.156  72.752  1.00  0.00    -0.239 C  
HETATM    7  H   UNL     1      -8.191   5.738  69.770  1.00  0.00     0.000 HD 
HETATM    8  O   UNL     1     -11.955   5.565  72.978  1.00  0.00    -0.554 OA 
HETATM    9  C   UNL     1     -10.323   6.111  71.253  1.00  0.00    -0.217 C  
HETATM   10  O   UNL     1     -11.516   5.943  70.473  1.00  0.00    -0.246 OA 
HETATM   11  C   UNL     1      -9.385   4.911  71.117  1.00  0.00    -0.150 C  
HETATM   12  H   UNL     1     -12.626   6.066  72.531  1.00  0.00     0.000 HD 
HETATM   13  H   UNL     1     -11.304   5.916  69.548  1.00  0.00     0.000 HD 
HETATM   14  O   UNL     1      -8.108   5.387  70.648  1.00  0.00    -0.104 OA 
BRANCH   6  15
HETATM   15  C   UNL     1     -10.729   7.590  73.295  1.00  0.00    -0.382 C  
HETATM   16  O   UNL     1     -11.974   8.203  72.944  1.00  0.00    -0.581 OA 
HETATM   17  H   UNL     1     -12.012   9.091  73.281  1.00  0.00     0.000 HD 
ENDBRANCH   6  15
ENDBRANCH   3   4
TORSDOF 2
ENDMDL
MODEL      150
REMARK 921   NORMALIZED FREE ENERGY PREDICTED BY IDOCK:   -2.85 KCAL/MOL
REMARK 922        TOTAL FREE ENERGY PREDICTED BY IDOCK:   -3.28 KCAL/MOL
REMARK 923 INTER-LIGAND FREE ENERGY PREDICTED BY IDOCK:   -3.18 KCAL/MOL
REMARK 924 INTRA-LIGAND FREE ENERGY PREDICTED BY IDOCK:   -0.10 KCAL/MOL
REMARK 927      BINDING AFFINITY PREDICTED BY RF-SCORE:    0.00 PKD
ROOT
HETATM    1  O   UNL     1      -7.255  13.158  69.440  1.00  0.00    -0.317 OA 
HETATM    2  H   UNL     1      -7.244  12.271  69.102  1.00  0.00     0.000 HD 
HETATM    3  C   UNL     1      -7.905  14.034  68.529  1.00  0.00    -0.140 C  
ENDROOT
BRANCH   3   4
HETATM    4  C   UNL     1      -7.922  15.468  69.075  1.00  0.00    -0.205 C  
HETATM    5  O   UNL     1      -9.279  15.924  69.239  1.00  0.00    -0.238 OA 
HETATM    6  C   UNL     1      -9.663  16.559  68.018  1.00  0.00    -0.236 C  
HETATM    7  H   UNL     1      -6.089  18.081  68.350  1.00  0.00     0.000 HD 
HETATM    8  O   UNL     1     -10.174  15.585  67.096  1.00  0.00    -0.251 OA 
HETATM    9  C   UNL     1      -8.392  17.211  67.443  1.00  0.00    -0.190 C  
HETATM   10  O   UNL     1      -8.340  17.030  66.021  1.00  0.00    -0.473 OA 
HETATM   11  C   UNL     1      -7.245  16.485  68.149  1.00  0.00    -0.152 C  
HETATM   12  H   UNL     1     -10.429  16.008  66.285  1.00  0.00     0.000 HD 
HETATM   13  H   UNL     1      -7.555  17.432  65.666  1.00  0.00     0.000 HD 
HETATM   14  O   UNL     1      -6.508  17.451  68.924  1.00  0.00    -0.187 OA 
BRANCH   6  15
HETATM   15  C   UNL     1     -10.783  17.579  68.261  1.00  0.00    -0.309 C  
HETATM   16  O   UNL     1     -10.288  18.698  69.003  1.00  0.00    -0.483 OA 
HETATM   17  H   UNL     1     -10.982  19.330  69.153  1.00  0.00     0.000 HD 
ENDBRANCH   6  15
ENDBRANCH   3   4
TORSDOF 2
ENDMDL
MODEL      151
REMARK 921   NORMALIZED FREE ENERGY PREDICTED BY IDOCK:   -2.83 KCAL/MOL
REMARK 922        TOTAL FREE ENERGY PREDICTED BY IDOCK:   -3.26 KCAL/MOL
REMARK 923 INTER-LIGAND FREE ENERGY PREDICTED BY IDOCK:   -3.01 KCAL/MOL
REMARK 924 INTRA-LIGAND FREE ENERGY PREDICTED BY IDOCK:   -0.25 KCAL/MOL
REMARK 927      BINDING AFFINITY PREDICTED BY RF-SCORE:    0.00 PKD
ROOT
HETATM    1  O   UNL     1     -11.535   6.424  68.248  1.00  0.00    -0.522 OA 
HETATM    2  H   UNL     1     -12.363   5.989  68.081  1.00  0.00     0.000 HD 
HETATM    3  C   UNL     1     -10.711   6.398  67.090  1.00  0.00    -0.361 C  
ENDROOT
BRANCH   3   4
HETATM    4  C   UNL     1      -9.374   7.099  67.361  1.00  0.00    -0.127 C  
HETATM    5  O   UNL     1      -9.530   8.087  68.399  1.00  0.00    -0.144 OA 
HETATM    6  C   UNL     1      -9.860   9.322  67.762  1.00  0.00    -0.171 C  
HETATM    7  H   UNL     1      -7.041   8.168  65.329  1.00  0.00     0.000 HD 
HETATM    8  O   UNL     1     -11.279   9.408  67.563  1.00  0.00    -0.423 OA 
HETATM    9  C   UNL     1      -9.138   9.323  66.403  1.00  0.00    -0.160 C  
HETATM   10  O   UNL     1      -9.991   9.866  65.385  1.00  0.00    -0.313 OA 
HETATM   11  C   UNL     1      -8.817   7.850  66.146  1.00  0.00    -0.166 C  
HETATM   12  H   UNL     1     -11.499  10.229  67.139  1.00  0.00     0.000 HD 
HETATM   13  H   UNL     1      -9.546   9.867  64.546  1.00  0.00     0.000 HD 
HETATM   14  O   UNL     1      -7.385   7.703  66.082  1.00  0.00    -0.075 OA 
BRANCH   6  15
HETATM   15  C   UNL     1      -9.457  10.514  68.639  1.00  0.00    -0.172 C  
HETATM   16  O   UNL     1      -9.438  10.137  70.019  1.00  0.00    -0.375 OA 
HETATM   17  H   UNL     1      -9.188  10.875  70.562  1.00  0.00     0.000 HD 
ENDBRANCH   6  15
ENDBRANCH   3   4
TORSDOF 2
ENDMDL
MODEL      152
REMARK 921   NORMALIZED FREE ENERGY PREDICTED BY IDOCK:   -2.82 KCAL/MOL
REMARK 922        TOTAL FREE ENERGY PREDICTED BY IDOCK:   -3.25 KCAL/MOL
REMARK 923 INTER-LIGAND FREE ENERGY PREDICTED BY IDOCK:   -3.01 KCAL/MOL
REMARK 924 INTRA-LIGAND FREE ENERGY PREDICTED BY IDOCK:   -0.24 KCAL/MOL
REMARK 927      BINDING AFFINITY PREDICTED BY RF-SCORE:    0.00 PKD
ROOT
HETATM    1  O   UNL     1      -6.731   9.567  70.575  1.00  0.00    -0.076 OA 
HETATM    2  H   UNL     1      -6.081  10.051  71.070  1.00  0.00     0.000 HD 
HETATM    3  C   UNL     1      -7.454  10.435  69.712  1.00  0.00    -0.149 C  
ENDROOT
BRANCH   3   4
HETATM    4  C   UNL     1      -8.504   9.653  68.912  1.00  0.00    -0.125 C  
HETATM    5  O   UNL     1      -8.869  10.380  67.723  1.00  0.00    -0.128 OA 
HETATM    6  C   UNL     1      -9.982  11.211  68.059  1.00  0.00    -0.176 C  
HETATM    7  H   UNL     1     -11.135   7.959  69.874  1.00  0.00     0.000 HD 
HETATM    8  O   UNL     1      -9.519  12.458  68.596  1.00  0.00    -0.368 OA 
HETATM    9  C   UNL     1     -10.794  10.449  69.122  1.00  0.00    -0.236 C  
HETATM   10  O   UNL     1     -11.253  11.351  70.139  1.00  0.00    -0.476 OA 
HETATM   11  C   UNL     1      -9.811   9.419  69.680  1.00  0.00    -0.193 C  
HETATM   12  H   UNL     1     -10.259  13.010  68.820  1.00  0.00     0.000 HD 
HETATM   13  H   UNL     1     -11.754  10.882  70.795  1.00  0.00     0.000 HD 
HETATM   14  O   UNL     1     -10.326   8.103  69.398  1.00  0.00    -0.211 OA 
BRANCH   6  15
HETATM   15  C   UNL     1     -10.814  11.539  66.813  1.00  0.00    -0.282 C  
HETATM   16  O   UNL     1     -12.157  11.869  67.180  1.00  0.00    -0.590 OA 
HETATM   17  H   UNL     1     -12.673  12.073  66.408  1.00  0.00     0.000 HD 
ENDBRANCH   6  15
ENDBRANCH   3   4
TORSDOF 2
ENDMDL
MODEL      153
REMARK 921   NORMALIZED FREE ENERGY PREDICTED BY IDOCK:   -2.81 KCAL/MOL
REMARK 922        TOTAL FREE ENERGY PREDICTED BY IDOCK:   -3.23 KCAL/MOL
REMARK 923 INTER-LIGAND FREE ENERGY PREDICTED BY IDOCK:   -3.04 KCAL/MOL
REMARK 924 INTRA-LIGAND FREE ENERGY PREDICTED BY IDOCK:   -0.19 KCAL/MOL
REMARK 927      BINDING AFFINITY PREDICTED BY RF-SCORE:    0.00 PKD
ROOT
HETATM    1  O   UNL     1     -10.866  20.085  68.302  1.00  0.00    -0.251 OA 
HETATM    2  H   UNL     1     -11.598  19.817  68.845  1.00  0.00     0.000 HD 
HETATM    3  C   UNL     1     -10.003  18.985  68.045  1.00  0.00    -0.368 C  
ENDROOT
BRANCH   3   4
HETATM    4  C   UNL     1      -8.820  19.418  67.168  1.00  0.00    -0.295 C  
HETATM    5  O   UNL     1      -8.247  18.274  66.504  1.00  0.00    -0.254 OA 
HETATM    6  C   UNL     1      -7.218  17.764  67.353  1.00  0.00    -0.186 C  
HETATM    7  H   UNL     1      -6.404  21.561  67.698  1.00  0.00     0.000 HD 
HETATM    8  O   UNL     1      -7.776  16.845  68.304  1.00  0.00    -0.189 OA 
HETATM    9  C   UNL     1      -6.611  18.974  68.086  1.00  0.00    -0.229 C  
HETATM   10  O   UNL     1      -6.350  18.647  69.458  1.00  0.00    -0.270 OA 
HETATM   11  C   UNL     1      -7.676  20.065  67.956  1.00  0.00    -0.266 C  
HETATM   12  H   UNL     1      -7.092  16.506  68.869  1.00  0.00     0.000 HD 
HETATM   13  H   UNL     1      -5.975  19.394  69.910  1.00  0.00     0.000 HD 
HETATM   14  O   UNL     1      -7.113  21.160  67.209  1.00  0.00    -0.433 OA 
BRANCH   6  15
HETATM   15  C   UNL     1      -6.173  16.989  66.540  1.00  0.00    -0.170 C  
HETATM   16  O   UNL     1      -5.181  16.428  67.406  1.00  0.00    -0.128 OA 
HETATM   17  H   UNL     1      -4.534  15.948  66.902  1.00  0.00     0.000 HD 
ENDBRANCH   6  15
ENDBRANCH   3   4
TORSDOF 2
ENDMDL
MODEL      154
REMARK 921   NORMALIZED FREE ENERGY PREDICTED BY IDOCK:   -2.81 KCAL/MOL
REMARK 922        TOTAL FREE ENERGY PREDICTED BY IDOCK:   -3.23 KCAL/MOL
REMARK 923 INTER-LIGAND FREE ENERGY PREDICTED BY IDOCK:   -3.13 KCAL/MOL
REMARK 924 INTRA-LIGAND FREE ENERGY PREDICTED BY IDOCK:   -0.10 KCAL/MOL
REMARK 927      BINDING AFFINITY PREDICTED BY RF-SCORE:    0.00 PKD
ROOT
HETATM    1  O   UNL     1     -12.651  10.537  69.278  1.00  0.00    -0.726 OA 
HETATM    2  H   UNL     1     -13.493  10.919  69.064  1.00  0.00     0.000 HD 
HETATM    3  C   UNL     1     -11.598  11.262  68.657  1.00  0.00    -0.318 C  
ENDROOT
BRANCH   3   4
HETATM    4  C   UNL     1     -10.237  10.644  69.003  1.00  0.00    -0.215 C  
HETATM    5  O   UNL     1      -9.252  11.025  68.024  1.00  0.00    -0.150 OA 
HETATM    6  C   UNL     1      -9.261  10.027  67.002  1.00  0.00    -0.146 C  
HETATM    7  H   UNL     1      -9.430   7.668  70.102  1.00  0.00     0.000 HD 
HETATM    8  O   UNL     1     -10.259  10.339  66.019  1.00  0.00    -0.253 OA 
HETATM    9  C   UNL     1      -9.603   8.694  67.693  1.00  0.00    -0.155 C  
HETATM   10  O   UNL     1     -10.505   7.929  66.882  1.00  0.00    -0.325 OA 
HETATM   11  C   UNL     1     -10.246   9.111  69.017  1.00  0.00    -0.207 C  
HETATM   12  H   UNL     1     -10.265   9.675  65.340  1.00  0.00     0.000 HD 
HETATM   13  H   UNL     1     -10.716   7.107  67.308  1.00  0.00     0.000 HD 
HETATM   14  O   UNL     1      -9.424   8.617  70.093  1.00  0.00    -0.158 OA 
BRANCH   6  15
HETATM   15  C   UNL     1      -7.912   9.978  66.273  1.00  0.00    -0.111 C  
HETATM   16  O   UNL     1      -7.531  11.287  65.838  1.00  0.00    -0.363 OA 
HETATM   17  H   UNL     1      -6.695  11.256  65.387  1.00  0.00     0.000 HD 
ENDBRANCH   6  15
ENDBRANCH   3   4
TORSDOF 2
ENDMDL
MODEL      155
REMARK 921   NORMALIZED FREE ENERGY PREDICTED BY IDOCK:   -2.79 KCAL/MOL
REMARK 922        TOTAL FREE ENERGY PREDICTED BY IDOCK:   -3.21 KCAL/MOL
REMARK 923 INTER-LIGAND FREE ENERGY PREDICTED BY IDOCK:   -3.41 KCAL/MOL
REMARK 924 INTRA-LIGAND FREE ENERGY PREDICTED BY IDOCK:    0.20 KCAL/MOL
REMARK 927      BINDING AFFINITY PREDICTED BY RF-SCORE:    0.00 PKD
ROOT
HETATM    1  O   UNL     1     -10.373  19.573  69.234  1.00  0.00    -0.596 OA 
HETATM    2  H   UNL     1     -11.124  20.109  69.456  1.00  0.00     0.000 HD 
HETATM    3  C   UNL     1     -10.435  19.160  67.875  1.00  0.00    -0.399 C  
ENDROOT
BRANCH   3   4
HETATM    4  C   UNL     1      -9.221  18.294  67.516  1.00  0.00    -0.254 C  
HETATM    5  O   UNL     1      -8.374  18.119  68.669  1.00  0.00    -0.308 OA 
HETATM    6  C   UNL     1      -7.416  19.179  68.654  1.00  0.00    -0.334 C  
HETATM    7  H   UNL     1      -7.297  18.257  64.868  1.00  0.00     0.000 HD 
HETATM    8  O   UNL     1      -7.953  20.337  69.310  1.00  0.00     0.234 OA 
HETATM    9  C   UNL     1      -7.134  19.497  67.174  1.00  0.00    -0.203 C  
HETATM   10  O   UNL     1      -7.033  20.914  66.980  1.00  0.00    -0.311 OA 
HETATM   11  C   UNL     1      -8.331  18.906  66.428  1.00  0.00    -0.296 C  
HETATM   12  H   UNL     1      -7.316  21.041  69.300  1.00  0.00     0.000 HD 
HETATM   13  H   UNL     1      -6.859  21.111  66.067  1.00  0.00     0.000 HD 
HETATM   14  O   UNL     1      -7.848  17.877  65.542  1.00  0.00    -0.459 OA 
BRANCH   6  15
HETATM   15  C   UNL     1      -6.147  18.778  69.418  1.00  0.00    -0.260 C  
HETATM   16  O   UNL     1      -5.629  19.895  70.148  1.00  0.00    -0.227 OA 
HETATM   17  H   UNL     1      -4.843  19.646  70.621  1.00  0.00     0.000 HD 
ENDBRANCH   6  15
ENDBRANCH   3   4
TORSDOF 2
ENDMDL
MODEL      156
REMARK 921   NORMALIZED FREE ENERGY PREDICTED BY IDOCK:   -2.79 KCAL/MOL
REMARK 922        TOTAL FREE ENERGY PREDICTED BY IDOCK:   -3.21 KCAL/MOL
REMARK 923 INTER-LIGAND FREE ENERGY PREDICTED BY IDOCK:   -3.13 KCAL/MOL
REMARK 924 INTRA-LIGAND FREE ENERGY PREDICTED BY IDOCK:   -0.08 KCAL/MOL
REMARK 927      BINDING AFFINITY PREDICTED BY RF-SCORE:    0.00 PKD
ROOT
HETATM    1  O   UNL     1     -10.583  10.832  69.972  1.00  0.00    -0.450 OA 
HETATM    2  H   UNL     1     -10.180  11.636  70.277  1.00  0.00     0.000 HD 
HETATM    3  C   UNL     1      -9.696   9.733  70.131  1.00  0.00    -0.248 C  
ENDROOT
BRANCH   3   4
HETATM    4  C   UNL     1     -10.348   8.434  69.638  1.00  0.00    -0.218 C  
HETATM    5  O   UNL     1     -11.480   8.100  70.465  1.00  0.00    -0.259 OA 
HETATM    6  C   UNL     1     -11.000   7.265  71.521  1.00  0.00    -0.233 C  
HETATM    7  H   UNL     1      -9.043   5.627  68.574  1.00  0.00     0.000 HD 
HETATM    8  O   UNL     1     -10.531   8.073  72.611  1.00  0.00    -0.289 OA 
HETATM    9  C   UNL     1      -9.838   6.442  70.938  1.00  0.00    -0.184 C  
HETATM   10  O   UNL     1      -8.771   6.342  71.891  1.00  0.00    -0.134 OA 
HETATM   11  C   UNL     1      -9.413   7.220  69.692  1.00  0.00    -0.155 C  
HETATM   12  H   UNL     1     -10.212   7.518  73.312  1.00  0.00     0.000 HD 
HETATM   13  H   UNL     1      -8.053   5.834  71.532  1.00  0.00     0.000 HD 
HETATM   14  O   UNL     1      -9.623   6.379  68.540  1.00  0.00    -0.124 OA 
BRANCH   6  15
HETATM   15  C   UNL     1     -12.126   6.379  72.071  1.00  0.00    -0.303 C  
HETATM   16  O   UNL     1     -13.375   7.076  72.031  1.00  0.00    -0.529 OA 
HETATM   17  H   UNL     1     -14.072   6.526  72.371  1.00  0.00     0.000 HD 
ENDBRANCH   6  15
ENDBRANCH   3   4
TORSDOF 2
ENDMDL
MODEL      157
REMARK 921   NORMALIZED FREE ENERGY PREDICTED BY IDOCK:   -2.78 KCAL/MOL
REMARK 922        TOTAL FREE ENERGY PREDICTED BY IDOCK:   -3.20 KCAL/MOL
REMARK 923 INTER-LIGAND FREE ENERGY PREDICTED BY IDOCK:   -2.96 KCAL/MOL
REMARK 924 INTRA-LIGAND FREE ENERGY PREDICTED BY IDOCK:   -0.24 KCAL/MOL
REMARK 927      BINDING AFFINITY PREDICTED BY RF-SCORE:    0.00 PKD
ROOT
HETATM    1  O   UNL     1      -7.226  14.660  68.130  1.00  0.00    -0.103 OA 
HETATM    2  H   UNL     1      -6.805  14.476  68.961  1.00  0.00     0.000 HD 
HETATM    3  C   UNL     1      -8.408  13.884  67.984  1.00  0.00    -0.166 C  
ENDROOT
BRANCH   3   4
HETATM    4  C   UNL     1      -9.088  14.181  66.641  1.00  0.00    -0.216 C  
HETATM    5  O   UNL     1      -8.845  15.547  66.250  1.00  0.00    -0.306 OA 
HETATM    6  C   UNL     1      -9.913  16.335  66.779  1.00  0.00    -0.261 C  
HETATM    7  H   UNL     1     -12.023  13.330  65.468  1.00  0.00     0.000 HD 
HETATM    8  O   UNL     1      -9.608  16.738  68.122  1.00  0.00    -0.232 OA 
HETATM    9  C   UNL     1     -11.166  15.441  66.770  1.00  0.00    -0.197 C  
HETATM   10  O   UNL     1     -11.927  15.637  67.971  1.00  0.00    -0.360 OA 
HETATM   11  C   UNL     1     -10.612  14.018  66.676  1.00  0.00    -0.274 C  
HETATM   12  H   UNL     1     -10.318  17.261  68.474  1.00  0.00     0.000 HD 
HETATM   13  H   UNL     1     -12.700  15.085  67.965  1.00  0.00     0.000 HD 
HETATM   14  O   UNL     1     -11.079  13.432  65.445  1.00  0.00    -0.285 OA 
BRANCH   6  15
HETATM   15  C   UNL     1     -10.104  17.617  65.958  1.00  0.00    -0.254 C  
HETATM   16  O   UNL     1      -9.793  18.768  66.749  1.00  0.00    -0.309 OA 
HETATM   17  H   UNL     1      -9.912  19.562  66.240  1.00  0.00     0.000 HD 
ENDBRANCH   6  15
ENDBRANCH   3   4
TORSDOF 2
ENDMDL
MODEL      158
REMARK 921   NORMALIZED FREE ENERGY PREDICTED BY IDOCK:   -2.78 KCAL/MOL
REMARK 922        TOTAL FREE ENERGY PREDICTED BY IDOCK:   -3.19 KCAL/MOL
REMARK 923 INTER-LIGAND FREE ENERGY PREDICTED BY IDOCK:   -2.94 KCAL/MOL
REMARK 924 INTRA-LIGAND FREE ENERGY PREDICTED BY IDOCK:   -0.26 KCAL/MOL
REMARK 927      BINDING AFFINITY PREDICTED BY RF-SCORE:    0.00 PKD
ROOT
HETATM    1  O   UNL     1     -11.105  14.274  69.546  1.00  0.00    -0.274 OA 
HETATM    2  H   UNL     1     -11.628  14.319  70.337  1.00  0.00     0.000 HD 
HETATM    3  C   UNL     1     -11.198  15.490  68.814  1.00  0.00    -0.315 C  
ENDROOT
BRANCH   3   4
HETATM    4  C   UNL     1     -10.352  15.417  67.536  1.00  0.00    -0.264 C  
HETATM    5  O   UNL     1      -9.259  14.495  67.712  1.00  0.00    -0.186 OA 
HETATM    6  C   UNL     1      -8.148  15.245  68.208  1.00  0.00    -0.137 C  
HETATM    7  H   UNL     1      -9.347  17.751  65.473  1.00  0.00     0.000 HD 
HETATM    8  O   UNL     1      -8.214  15.332  69.639  1.00  0.00    -0.305 OA 
HETATM    9  C   UNL     1      -8.255  16.650  67.589  1.00  0.00    -0.172 C  
HETATM   10  O   UNL     1      -7.923  17.650  68.564  1.00  0.00    -0.267 OA 
HETATM   11  C   UNL     1      -9.715  16.756  67.145  1.00  0.00    -0.251 C  
HETATM   12  H   UNL     1      -7.476  15.831  69.968  1.00  0.00     0.000 HD 
HETATM   13  H   UNL     1      -7.989  18.517  68.182  1.00  0.00     0.000 HD 
HETATM   14  O   UNL     1      -9.741  16.922  65.714  1.00  0.00    -0.517 OA 
BRANCH   6  15
HETATM   15  C   UNL     1      -6.824  14.553  67.861  1.00  0.00    -0.165 C  
HETATM   16  O   UNL     1      -5.979  14.482  69.014  1.00  0.00    -0.086 OA 
HETATM   17  H   UNL     1      -5.159  14.053  68.798  1.00  0.00     0.000 HD 
ENDBRANCH   6  15
ENDBRANCH   3   4
TORSDOF 2
ENDMDL
MODEL      159
REMARK 921   NORMALIZED FREE ENERGY PREDICTED BY IDOCK:   -2.76 KCAL/MOL
REMARK 922        TOTAL FREE ENERGY PREDICTED BY IDOCK:   -3.17 KCAL/MOL
REMARK 923 INTER-LIGAND FREE ENERGY PREDICTED BY IDOCK:   -2.73 KCAL/MOL
REMARK 924 INTRA-LIGAND FREE ENERGY PREDICTED BY IDOCK:   -0.45 KCAL/MOL
REMARK 927      BINDING AFFINITY PREDICTED BY RF-SCORE:    0.00 PKD
ROOT
HETATM    1  O   UNL     1     -10.124  11.809  65.815  1.00  0.00    -0.221 OA 
HETATM    2  H   UNL     1      -9.862  11.903  64.908  1.00  0.00     0.000 HD 
HETATM    3  C   UNL     1      -9.503  12.801  66.622  1.00  0.00    -0.249 C  
ENDROOT
BRANCH   3   4
HETATM    4  C   UNL     1      -9.927  12.649  68.089  1.00  0.00    -0.225 C  
HETATM    5  O   UNL     1      -8.941  11.891  68.817  1.00  0.00    -0.087 OA 
HETATM    6  C   UNL     1      -9.320  10.516  68.736  1.00  0.00    -0.180 C  
HETATM    7  H   UNL     1     -12.841  12.032  69.446  1.00  0.00     0.000 HD 
HETATM    8  O   UNL     1      -8.787   9.929  67.539  1.00  0.00    -0.128 OA 
HETATM    9  C   UNL     1     -10.858  10.485  68.697  1.00  0.00    -0.237 C  
HETATM   10  O   UNL     1     -11.313   9.501  67.756  1.00  0.00    -0.467 OA 
HETATM   11  C   UNL     1     -11.252  11.900  68.270  1.00  0.00    -0.261 C  
HETATM   12  H   UNL     1      -9.039   9.015  67.485  1.00  0.00     0.000 HD 
HETATM   13  H   UNL     1     -12.262   9.482  67.732  1.00  0.00     0.000 HD 
HETATM   14  O   UNL     1     -12.019  12.496  69.335  1.00  0.00    -0.298 OA 
BRANCH   6  15
HETATM   15  C   UNL     1      -8.750   9.721  69.918  1.00  0.00    -0.217 C  
HETATM   16  O   UNL     1      -9.364   8.431  69.996  1.00  0.00    -0.157 OA 
HETATM   17  H   UNL     1      -9.010   7.939  70.729  1.00  0.00     0.000 HD 
ENDBRANCH   6  15
ENDBRANCH   3   4
TORSDOF 2
ENDMDL
MODEL      160
REMARK 921   NORMALIZED FREE ENERGY PREDICTED BY IDOCK:   -2.75 KCAL/MOL
REMARK 922        TOTAL FREE ENERGY PREDICTED BY IDOCK:   -3.17 KCAL/MOL
REMARK 923 INTER-LIGAND FREE ENERGY PREDICTED BY IDOCK:   -3.10 KCAL/MOL
REMARK 924 INTRA-LIGAND FREE ENERGY PREDICTED BY IDOCK:   -0.07 KCAL/MOL
REMARK 927      BINDING AFFINITY PREDICTED BY RF-SCORE:    0.00 PKD
ROOT
HETATM    1  O   UNL     1      -9.308  18.227  66.128  1.00  0.00    -0.469 OA 
HETATM    2  H   UNL     1     -10.089  18.277  65.590  1.00  0.00     0.000 HD 
HETATM    3  C   UNL     1      -8.883  16.878  66.273  1.00  0.00    -0.279 C  
ENDROOT
BRANCH   3   4
HETATM    4  C   UNL     1      -7.621  16.798  67.142  1.00  0.00    -0.188 C  
HETATM    5  O   UNL     1      -6.971  15.525  66.962  1.00  0.00    -0.222 OA 
HETATM    6  C   UNL     1      -7.505  14.634  67.943  1.00  0.00    -0.148 C  
HETATM    7  H   UNL     1      -7.046  17.769  70.215  1.00  0.00     0.000 HD 
HETATM    8  O   UNL     1      -8.701  14.016  67.447  1.00  0.00    -0.184 OA 
HETATM    9  C   UNL     1      -7.830  15.488  69.182  1.00  0.00    -0.215 C  
HETATM   10  O   UNL     1      -9.075  15.073  69.760  1.00  0.00    -0.448 OA 
HETATM   11  C   UNL     1      -7.903  16.918  68.645  1.00  0.00    -0.244 C  
HETATM   12  H   UNL     1      -9.056  13.424  68.099  1.00  0.00     0.000 HD 
HETATM   13  H   UNL     1      -9.276  15.600  70.525  1.00  0.00     0.000 HD 
HETATM   14  O   UNL     1      -6.871  17.694  69.284  1.00  0.00    -0.252 OA 
BRANCH   6  15
HETATM   15  C   UNL     1      -6.512  13.506  68.255  1.00  0.00    -0.104 C  
HETATM   16  O   UNL     1      -5.512  13.424  67.234  1.00  0.00    -0.349 OA 
HETATM   17  H   UNL     1      -4.897  12.726  67.428  1.00  0.00     0.000 HD 
ENDBRANCH   6  15
ENDBRANCH   3   4
TORSDOF 2
ENDMDL
MODEL      161
REMARK 921   NORMALIZED FREE ENERGY PREDICTED BY IDOCK:   -2.74 KCAL/MOL
REMARK 922        TOTAL FREE ENERGY PREDICTED BY IDOCK:   -3.15 KCAL/MOL
REMARK 923 INTER-LIGAND FREE ENERGY PREDICTED BY IDOCK:   -2.79 KCAL/MOL
REMARK 924 INTRA-LIGAND FREE ENERGY PREDICTED BY IDOCK:   -0.36 KCAL/MOL
REMARK 927      BINDING AFFINITY PREDICTED BY RF-SCORE:    0.00 PKD
ROOT
HETATM    1  O   UNL     1     -11.183   5.851  69.659  1.00  0.00    -0.395 OA 
HETATM    2  H   UNL     1     -11.238   6.002  68.723  1.00  0.00     0.000 HD 
HETATM    3  C   UNL     1     -11.806   6.910  70.375  1.00  0.00    -0.299 C  
ENDROOT
BRANCH   3   4
HETATM    4  C   UNL     1     -11.718   6.666  71.887  1.00  0.00    -0.313 C  
HETATM    5  O   UNL     1     -10.966   7.721  72.520  1.00  0.00    -0.280 OA 
HETATM    6  C   UNL     1      -9.597   7.311  72.540  1.00  0.00    -0.152 C  
HETATM    7  H   UNL     1     -11.215   3.930  73.611  1.00  0.00     0.000 HD 
HETATM    8  O   UNL     1      -8.955   7.684  71.312  1.00  0.00    -0.132 OA 
HETATM    9  C   UNL     1      -9.598   5.779  72.689  1.00  0.00    -0.153 C  
HETATM   10  O   UNL     1      -8.590   5.197  71.851  1.00  0.00    -0.126 OA 
HETATM   11  C   UNL     1     -11.005   5.360  72.258  1.00  0.00    -0.216 C  
HETATM   12  H   UNL     1      -8.045   7.412  71.325  1.00  0.00     0.000 HD 
HETATM   13  H   UNL     1      -8.591   4.251  71.943  1.00  0.00     0.000 HD 
HETATM   14  O   UNL     1     -11.656   4.739  73.383  1.00  0.00    -0.323 OA 
BRANCH   6  15
HETATM   15  C   UNL     1      -8.836   8.008  73.675  1.00  0.00    -0.260 C  
HETATM   16  O   UNL     1      -8.164   7.044  74.492  1.00  0.00    -0.144 OA 
HETATM   17  H   UNL     1      -7.692   7.476  75.195  1.00  0.00     0.000 HD 
ENDBRANCH   6  15
ENDBRANCH   3   4
TORSDOF 2
ENDMDL
MODEL      162
REMARK 921   NORMALIZED FREE ENERGY PREDICTED BY IDOCK:   -2.74 KCAL/MOL
REMARK 922        TOTAL FREE ENERGY PREDICTED BY IDOCK:   -3.15 KCAL/MOL
REMARK 923 INTER-LIGAND FREE ENERGY PREDICTED BY IDOCK:   -2.80 KCAL/MOL
REMARK 924 INTRA-LIGAND FREE ENERGY PREDICTED BY IDOCK:   -0.36 KCAL/MOL
REMARK 927      BINDING AFFINITY PREDICTED BY RF-SCORE:    0.00 PKD
ROOT
HETATM    1  O   UNL     1     -11.414   6.465  67.341  1.00  0.00    -0.705 OA 
HETATM    2  H   UNL     1     -11.860   5.800  66.831  1.00  0.00     0.000 HD 
HETATM    3  C   UNL     1     -10.019   6.456  67.067  1.00  0.00    -0.163 C  
ENDROOT
BRANCH   3   4
HETATM    4  C   UNL     1      -9.298   7.530  67.892  1.00  0.00    -0.138 C  
HETATM    5  O   UNL     1      -8.633   6.930  69.021  1.00  0.00    -0.127 OA 
HETATM    6  C   UNL     1      -9.555   6.944  70.112  1.00  0.00    -0.161 C  
HETATM    7  H   UNL     1     -10.203  10.549  68.776  1.00  0.00     0.000 HD 
HETATM    8  O   UNL     1     -10.387   5.775  70.068  1.00  0.00    -0.213 OA 
HETATM    9  C   UNL     1     -10.416   8.209  69.943  1.00  0.00    -0.226 C  
HETATM   10  O   UNL     1     -11.787   7.924  70.257  1.00  0.00    -0.482 OA 
HETATM   11  C   UNL     1     -10.239   8.592  68.473  1.00  0.00    -0.198 C  
HETATM   12  H   UNL     1     -11.000   5.785  70.793  1.00  0.00     0.000 HD 
HETATM   13  H   UNL     1     -12.318   8.704  70.153  1.00  0.00     0.000 HD 
HETATM   14  O   UNL     1      -9.620   9.891  68.416  1.00  0.00    -0.145 OA 
BRANCH   6  15
HETATM   15  C   UNL     1      -8.813   6.917  71.454  1.00  0.00    -0.133 C  
HETATM   16  O   UNL     1      -8.076   8.129  71.643  1.00  0.00    -0.103 OA 
HETATM   17  H   UNL     1      -7.617   8.112  72.475  1.00  0.00     0.000 HD 
ENDBRANCH   6  15
ENDBRANCH   3   4
TORSDOF 2
ENDMDL
MODEL      163
REMARK 921   NORMALIZED FREE ENERGY PREDICTED BY IDOCK:   -2.69 KCAL/MOL
REMARK 922        TOTAL FREE ENERGY PREDICTED BY IDOCK:   -3.10 KCAL/MOL
REMARK 923 INTER-LIGAND FREE ENERGY PREDICTED BY IDOCK:   -2.90 KCAL/MOL
REMARK 924 INTRA-LIGAND FREE ENERGY PREDICTED BY IDOCK:   -0.20 KCAL/MOL
REMARK 927      BINDING AFFINITY PREDICTED BY RF-SCORE:    0.00 PKD
ROOT
HETATM    1  O   UNL     1      -7.536   9.657  71.024  1.00  0.00    -0.327 OA 
HETATM    2  H   UNL     1      -6.608   9.838  71.117  1.00  0.00     0.000 HD 
HETATM    3  C   UNL     1      -7.748   8.297  70.667  1.00  0.00    -0.083 C  
ENDROOT
BRANCH   3   4
HETATM    4  C   UNL     1      -9.247   8.005  70.517  1.00  0.00    -0.154 C  
HETATM    5  O   UNL     1      -9.495   7.285  69.294  1.00  0.00    -0.154 OA 
HETATM    6  C   UNL     1      -9.750   8.254  68.276  1.00  0.00    -0.158 C  
HETATM    7  H   UNL     1     -11.882   9.849  71.124  1.00  0.00     0.000 HD 
HETATM    8  O   UNL     1      -8.514   8.687  67.690  1.00  0.00    -0.123 OA 
HETATM    9  C   UNL     1     -10.449   9.440  68.964  1.00  0.00    -0.217 C  
HETATM   10  O   UNL     1      -9.949  10.682  68.448  1.00  0.00    -0.154 OA 
HETATM   11  C   UNL     1     -10.114   9.267  70.446  1.00  0.00    -0.236 C  
HETATM   12  H   UNL     1      -8.683   9.332  67.013  1.00  0.00     0.000 HD 
HETATM   13  H   UNL     1     -10.380  11.414  68.872  1.00  0.00     0.000 HD 
HETATM   14  O   UNL     1     -11.345   9.067  71.168  1.00  0.00    -0.264 OA 
BRANCH   6  15
HETATM   15  C   UNL     1     -10.596   7.652  67.148  1.00  0.00    -0.340 C  
HETATM   16  O   UNL     1     -11.483   6.654  67.664  1.00  0.00    -0.687 OA 
HETATM   17  H   UNL     1     -12.007   6.282  66.965  1.00  0.00     0.000 HD 
ENDBRANCH   6  15
ENDBRANCH   3   4
TORSDOF 2
ENDMDL
MODEL      164
REMARK 921   NORMALIZED FREE ENERGY PREDICTED BY IDOCK:   -2.68 KCAL/MOL
REMARK 922        TOTAL FREE ENERGY PREDICTED BY IDOCK:   -3.09 KCAL/MOL
REMARK 923 INTER-LIGAND FREE ENERGY PREDICTED BY IDOCK:   -2.91 KCAL/MOL
REMARK 924 INTRA-LIGAND FREE ENERGY PREDICTED BY IDOCK:   -0.18 KCAL/MOL
REMARK 927      BINDING AFFINITY PREDICTED BY RF-SCORE:    0.00 PKD
ROOT
HETATM    1  O   UNL     1     -12.171  10.702  68.215  1.00  0.00    -0.799 OA 
HETATM    2  H   UNL     1     -12.695  11.393  68.601  1.00  0.00     0.000 HD 
HETATM    3  C   UNL     1     -10.886  10.649  68.820  1.00  0.00    -0.229 C  
ENDROOT
BRANCH   3   4
HETATM    4  C   UNL     1     -10.039   9.531  68.196  1.00  0.00    -0.182 C  
HETATM    5  O   UNL     1      -8.692   9.992  67.971  1.00  0.00    -0.124 OA 
HETATM    6  C   UNL     1      -8.647  10.539  66.652  1.00  0.00    -0.131 C  
HETATM    7  H   UNL     1     -10.730   7.339  65.866  1.00  0.00     0.000 HD 
HETATM    8  O   UNL     1      -9.041  11.919  66.678  1.00  0.00    -0.194 OA 
HETATM    9  C   UNL     1      -9.640   9.725  65.804  1.00  0.00    -0.254 C  
HETATM   10  O   UNL     1     -10.370  10.591  64.924  1.00  0.00    -0.328 OA 
HETATM   11  C   UNL     1     -10.556   9.059  66.832  1.00  0.00    -0.173 C  
HETATM   12  H   UNL     1      -9.011  12.282  65.802  1.00  0.00     0.000 HD 
HETATM   13  H   UNL     1     -10.983  10.089  64.400  1.00  0.00     0.000 HD 
HETATM   14  O   UNL     1     -10.409   7.631  66.711  1.00  0.00    -0.297 OA 
BRANCH   6  15
HETATM   15  C   UNL     1      -7.220  10.490  66.090  1.00  0.00    -0.136 C  
HETATM   16  O   UNL     1      -6.315   9.967  67.066  1.00  0.00    -0.062 OA 
HETATM   17  H   UNL     1      -5.431   9.937  66.717  1.00  0.00     0.000 HD 
ENDBRANCH   6  15
ENDBRANCH   3   4
TORSDOF 2
ENDMDL
MODEL      165
REMARK 921   NORMALIZED FREE ENERGY PREDICTED BY IDOCK:   -2.67 KCAL/MOL
REMARK 922        TOTAL FREE ENERGY PREDICTED BY IDOCK:   -3.08 KCAL/MOL
REMARK 923 INTER-LIGAND FREE ENERGY PREDICTED BY IDOCK:   -2.95 KCAL/MOL
REMARK 924 INTRA-LIGAND FREE ENERGY PREDICTED BY IDOCK:   -0.12 KCAL/MOL
REMARK 927      BINDING AFFINITY PREDICTED BY RF-SCORE:    0.00 PKD
ROOT
HETATM    1  O   UNL     1     -11.658   6.469  67.230  1.00  0.00    -0.737 OA 
HETATM    2  H   UNL     1     -11.604   6.341  66.291  1.00  0.00     0.000 HD 
HETATM    3  C   UNL     1     -10.559   7.240  67.696  1.00  0.00    -0.246 C  
ENDROOT
BRANCH   3   4
HETATM    4  C   UNL     1     -10.646   7.446  69.214  1.00  0.00    -0.213 C  
HETATM    5  O   UNL     1      -9.326   7.568  69.779  1.00  0.00    -0.151 OA 
HETATM    6  C   UNL     1      -8.900   6.255  70.147  1.00  0.00    -0.149 C  
HETATM    7  H   UNL     1     -12.559   6.057  71.478  1.00  0.00     0.000 HD 
HETATM    8  O   UNL     1      -8.286   5.605  69.024  1.00  0.00    -0.099 OA 
HETATM    9  C   UNL     1     -10.164   5.486  70.572  1.00  0.00    -0.242 C  
HETATM   10  O   UNL     1     -10.120   4.141  70.074  1.00  0.00    -0.159 OA 
HETATM   11  C   UNL     1     -11.315   6.281  69.954  1.00  0.00    -0.434 C  
HETATM   12  H   UNL     1      -8.003   4.732  69.269  1.00  0.00     0.000 HD 
HETATM   13  H   UNL     1     -10.900   3.666  70.337  1.00  0.00     0.000 HD 
HETATM   14  O   UNL     1     -12.145   6.779  71.021  1.00  0.00    -0.366 OA 
BRANCH   6  15
HETATM   15  C   UNL     1      -7.849   6.314  71.262  1.00  0.00    -0.108 C  
HETATM   16  O   UNL     1      -6.841   7.281  70.949  1.00  0.00    -0.051 OA 
HETATM   17  H   UNL     1      -6.190   7.318  71.641  1.00  0.00     0.000 HD 
ENDBRANCH   6  15
ENDBRANCH   3   4
TORSDOF 2
ENDMDL
MODEL      166
REMARK 921   NORMALIZED FREE ENERGY PREDICTED BY IDOCK:   -2.66 KCAL/MOL
REMARK 922        TOTAL FREE ENERGY PREDICTED BY IDOCK:   -3.06 KCAL/MOL
REMARK 923 INTER-LIGAND FREE ENERGY PREDICTED BY IDOCK:   -2.98 KCAL/MOL
REMARK 924 INTRA-LIGAND FREE ENERGY PREDICTED BY IDOCK:   -0.08 KCAL/MOL
REMARK 927      BINDING AFFINITY PREDICTED BY RF-SCORE:    0.00 PKD
ROOT
HETATM    1  O   UNL     1     -10.640  19.496  68.574  1.00  0.00    -0.468 OA 
HETATM    2  H   UNL     1     -11.047  19.764  69.389  1.00  0.00     0.000 HD 
HETATM    3  C   UNL     1     -10.237  18.134  68.638  1.00  0.00    -0.366 C  
ENDROOT
BRANCH   3   4
HETATM    4  C   UNL     1      -9.580  17.702  67.321  1.00  0.00    -0.271 C  
HETATM    5  O   UNL     1      -9.435  16.268  67.282  1.00  0.00    -0.223 OA 
HETATM    6  C   UNL     1      -8.154  15.957  67.833  1.00  0.00    -0.141 C  
HETATM    7  H   UNL     1      -7.098  18.986  65.618  1.00  0.00     0.000 HD 
HETATM    8  O   UNL     1      -8.248  15.841  69.260  1.00  0.00    -0.228 OA 
HETATM    9  C   UNL     1      -7.221  17.124  67.461  1.00  0.00    -0.157 C  
HETATM   10  O   UNL     1      -6.367  17.450  68.567  1.00  0.00    -0.166 OA 
HETATM   11  C   UNL     1      -8.171  18.273  67.121  1.00  0.00    -0.234 C  
HETATM   12  H   UNL     1      -7.397  15.634  69.626  1.00  0.00     0.000 HD 
HETATM   13  H   UNL     1      -5.791  18.170  68.338  1.00  0.00     0.000 HD 
HETATM   14  O   UNL     1      -7.970  18.632  65.741  1.00  0.00    -0.487 OA 
BRANCH   6  15
HETATM   15  C   UNL     1      -7.645  14.610  67.305  1.00  0.00    -0.143 C  
HETATM   16  O   UNL     1      -6.640  14.079  68.174  1.00  0.00    -0.095 OA 
HETATM   17  H   UNL     1      -6.325  13.245  67.847  1.00  0.00     0.000 HD 
ENDBRANCH   6  15
ENDBRANCH   3   4
TORSDOF 2
ENDMDL
MODEL      167
REMARK 921   NORMALIZED FREE ENERGY PREDICTED BY IDOCK:   -2.65 KCAL/MOL
REMARK 922        TOTAL FREE ENERGY PREDICTED BY IDOCK:   -3.06 KCAL/MOL
REMARK 923 INTER-LIGAND FREE ENERGY PREDICTED BY IDOCK:   -2.80 KCAL/MOL
REMARK 924 INTRA-LIGAND FREE ENERGY PREDICTED BY IDOCK:   -0.26 KCAL/MOL
REMARK 927      BINDING AFFINITY PREDICTED BY RF-SCORE:    0.00 PKD
ROOT
HETATM    1  O   UNL     1     -12.455  10.626  68.780  1.00  0.00    -0.795 OA 
HETATM    2  H   UNL     1     -12.820  11.449  69.080  1.00  0.00     0.000 HD 
HETATM    3  C   UNL     1     -11.258  10.847  68.045  1.00  0.00    -0.314 C  
ENDROOT
BRANCH   3   4
HETATM    4  C   UNL     1     -10.667   9.516  67.559  1.00  0.00    -0.245 C  
HETATM    5  O   UNL     1     -10.533   8.598  68.662  1.00  0.00    -0.211 OA 
HETATM    6  C   UNL     1      -9.229   8.787  69.214  1.00  0.00    -0.149 C  
HETATM    7  H   UNL     1      -8.261   8.864  65.438  1.00  0.00     0.000 HD 
HETATM    8  O   UNL     1      -9.255   9.842  70.186  1.00  0.00    -0.311 OA 
HETATM    9  C   UNL     1      -8.308   9.173  68.043  1.00  0.00    -0.120 C  
HETATM   10  O   UNL     1      -7.400  10.209  68.445  1.00  0.00    -0.078 OA 
HETATM   11  C   UNL     1      -9.266   9.653  66.952  1.00  0.00    -0.143 C  
HETATM   12  H   UNL     1      -8.389   9.968  70.553  1.00  0.00     0.000 HD 
HETATM   13  H   UNL     1      -6.831  10.448  67.722  1.00  0.00     0.000 HD 
HETATM   14  O   UNL     1      -9.129   8.779  65.814  1.00  0.00    -0.200 OA 
BRANCH   6  15
HETATM   15  C   UNL     1      -8.754   7.521  69.938  1.00  0.00    -0.140 C  
HETATM   16  O   UNL     1      -7.455   7.137  69.475  1.00  0.00    -0.090 OA 
HETATM   17  H   UNL     1      -7.161   6.353  69.924  1.00  0.00     0.000 HD 
ENDBRANCH   6  15
ENDBRANCH   3   4
TORSDOF 2
ENDMDL
MODEL      168
REMARK 921   NORMALIZED FREE ENERGY PREDICTED BY IDOCK:   -2.65 KCAL/MOL
REMARK 922        TOTAL FREE ENERGY PREDICTED BY IDOCK:   -3.05 KCAL/MOL
REMARK 923 INTER-LIGAND FREE ENERGY PREDICTED BY IDOCK:   -2.86 KCAL/MOL
REMARK 924 INTRA-LIGAND FREE ENERGY PREDICTED BY IDOCK:   -0.19 KCAL/MOL
REMARK 927      BINDING AFFINITY PREDICTED BY RF-SCORE:    0.00 PKD
ROOT
HETATM    1  O   UNL     1     -11.524   6.668  67.424  1.00  0.00    -0.747 OA 
HETATM    2  H   UNL     1     -11.469   5.722  67.363  1.00  0.00     0.000 HD 
HETATM    3  C   UNL     1     -10.429   7.187  68.168  1.00  0.00    -0.200 C  
ENDROOT
BRANCH   3   4
HETATM    4  C   UNL     1     -10.518   8.716  68.267  1.00  0.00    -0.184 C  
HETATM    5  O   UNL     1      -9.288   9.318  67.818  1.00  0.00    -0.129 OA 
HETATM    6  C   UNL     1      -8.443   9.457  68.961  1.00  0.00    -0.129 C  
HETATM    7  H   UNL     1     -11.780  10.664  70.575  1.00  0.00     0.000 HD 
HETATM    8  O   UNL     1      -7.696   8.250  69.169  1.00  0.00    -0.093 OA 
HETATM    9  C   UNL     1      -9.369   9.717  70.163  1.00  0.00    -0.251 C  
HETATM   10  O   UNL     1      -8.908   8.991  71.312  1.00  0.00    -0.215 OA 
HETATM   11  C   UNL     1     -10.740   9.226  69.695  1.00  0.00    -0.230 C  
HETATM   12  H   UNL     1      -7.134   8.342  69.929  1.00  0.00     0.000 HD 
HETATM   13  H   UNL     1      -9.479   9.151  72.054  1.00  0.00     0.000 HD 
HETATM   14  O   UNL     1     -11.643  10.348  69.689  1.00  0.00    -0.248 OA 
BRANCH   6  15
HETATM   15  C   UNL     1      -7.425  10.585  68.753  1.00  0.00    -0.097 C  
HETATM   16  O   UNL     1      -7.493  11.525  69.830  1.00  0.00    -0.335 OA 
HETATM   17  H   UNL     1      -6.862  12.224  69.701  1.00  0.00     0.000 HD 
ENDBRANCH   6  15
ENDBRANCH   3   4
TORSDOF 2
ENDMDL
MODEL      169
REMARK 921   NORMALIZED FREE ENERGY PREDICTED BY IDOCK:   -2.63 KCAL/MOL
REMARK 922        TOTAL FREE ENERGY PREDICTED BY IDOCK:   -3.03 KCAL/MOL
REMARK 923 INTER-LIGAND FREE ENERGY PREDICTED BY IDOCK:   -3.92 KCAL/MOL
REMARK 924 INTRA-LIGAND FREE ENERGY PREDICTED BY IDOCK:    0.89 KCAL/MOL
REMARK 927      BINDING AFFINITY PREDICTED BY RF-SCORE:    0.00 PKD
ROOT
HETATM    1  O   UNL     1      -9.041  13.069  68.694  1.00  0.00    -0.368 OA 
HETATM    2  H   UNL     1      -8.615  12.263  68.427  1.00  0.00     0.000 HD 
HETATM    3  C   UNL     1      -8.590  14.161  67.902  1.00  0.00    -0.178 C  
ENDROOT
BRANCH   3   4
HETATM    4  C   UNL     1      -9.278  15.463  68.334  1.00  0.00    -0.192 C  
HETATM    5  O   UNL     1      -9.694  15.375  69.711  1.00  0.00    -0.272 OA 
HETATM    6  C   UNL     1     -11.026  14.861  69.719  1.00  0.00    -0.258 C  
HETATM    7  H   UNL     1     -11.415  17.397  66.784  1.00  0.00     0.000 HD 
HETATM    8  O   UNL     1     -11.000  13.426  69.707  1.00  0.00    -0.456 OA 
HETATM    9  C   UNL     1     -11.707  15.384  68.441  1.00  0.00    -0.316 C  
HETATM   10  O   UNL     1     -12.516  14.357  67.851  1.00  0.00    -0.586 OA 
HETATM   11  C   UNL     1     -10.544  15.783  67.531  1.00  0.00    -0.309 C  
HETATM   12  H   UNL     1     -11.886  13.084  69.712  1.00  0.00     0.000 HD 
HETATM   13  H   UNL     1     -12.936  14.680  67.062  1.00  0.00     0.000 HD 
HETATM   14  O   UNL     1     -10.631  17.199  67.281  1.00  0.00    -0.325 OA 
BRANCH   6  15
HETATM   15  C   UNL     1     -11.768  15.286  70.992  1.00  0.00    -0.348 C  
HETATM   16  O   UNL     1     -12.735  14.297  71.362  1.00  0.00    -0.314 OA 
HETATM   17  H   UNL     1     -13.194  14.560  72.151  1.00  0.00     0.000 HD 
ENDBRANCH   6  15
ENDBRANCH   3   4
TORSDOF 2
ENDMDL
MODEL      170
REMARK 921   NORMALIZED FREE ENERGY PREDICTED BY IDOCK:   -2.62 KCAL/MOL
REMARK 922        TOTAL FREE ENERGY PREDICTED BY IDOCK:   -3.02 KCAL/MOL
REMARK 923 INTER-LIGAND FREE ENERGY PREDICTED BY IDOCK:   -2.78 KCAL/MOL
REMARK 924 INTRA-LIGAND FREE ENERGY PREDICTED BY IDOCK:   -0.24 KCAL/MOL
REMARK 927      BINDING AFFINITY PREDICTED BY RF-SCORE:    0.00 PKD
ROOT
HETATM    1  O   UNL     1     -10.373   7.731  70.114  1.00  0.00    -0.209 OA 
HETATM    2  H   UNL     1     -10.820   6.895  70.169  1.00  0.00     0.000 HD 
HETATM    3  C   UNL     1      -9.420   7.722  69.060  1.00  0.00    -0.150 C  
ENDROOT
BRANCH   3   4
HETATM    4  C   UNL     1      -8.697   9.072  68.971  1.00  0.00    -0.138 C  
HETATM    5  O   UNL     1      -9.530  10.121  69.503  1.00  0.00    -0.211 OA 
HETATM    6  C   UNL     1     -10.296  10.645  68.417  1.00  0.00    -0.175 C  
HETATM    7  H   UNL     1      -6.852  10.387  66.609  1.00  0.00     0.000 HD 
HETATM    8  O   UNL     1     -11.494   9.875  68.244  1.00  0.00    -0.532 OA 
HETATM    9  C   UNL     1      -9.413  10.533  67.162  1.00  0.00    -0.159 C  
HETATM   10  O   UNL     1     -10.197  10.112  66.037  1.00  0.00    -0.252 OA 
HETATM   11  C   UNL     1      -8.356   9.493  67.537  1.00  0.00    -0.125 C  
HETATM   12  H   UNL     1     -12.003  10.223  67.522  1.00  0.00     0.000 HD 
HETATM   13  H   UNL     1      -9.652  10.042  65.262  1.00  0.00     0.000 HD 
HETATM   14  O   UNL     1      -7.063  10.128  67.498  1.00  0.00    -0.085 OA 
BRANCH   6  15
HETATM   15  C   UNL     1     -10.728  12.089  68.701  1.00  0.00    -0.236 C  
HETATM   16  O   UNL     1     -11.400  12.173  69.961  1.00  0.00    -0.506 OA 
HETATM   17  H   UNL     1     -11.667  13.067  70.137  1.00  0.00     0.000 HD 
ENDBRANCH   6  15
ENDBRANCH   3   4
TORSDOF 2
ENDMDL
MODEL      171
REMARK 921   NORMALIZED FREE ENERGY PREDICTED BY IDOCK:   -2.61 KCAL/MOL
REMARK 922        TOTAL FREE ENERGY PREDICTED BY IDOCK:   -3.01 KCAL/MOL
REMARK 923 INTER-LIGAND FREE ENERGY PREDICTED BY IDOCK:   -2.90 KCAL/MOL
REMARK 924 INTRA-LIGAND FREE ENERGY PREDICTED BY IDOCK:   -0.10 KCAL/MOL
REMARK 927      BINDING AFFINITY PREDICTED BY RF-SCORE:    0.00 PKD
ROOT
HETATM    1  O   UNL     1      -7.194  20.658  66.006  1.00  0.00    -0.464 OA 
HETATM    2  H   UNL     1      -6.384  20.898  65.571  1.00  0.00     0.000 HD 
HETATM    3  C   UNL     1      -7.384  19.250  65.972  1.00  0.00    -0.279 C  
ENDROOT
BRANCH   3   4
HETATM    4  C   UNL     1      -8.692  18.863  66.675  1.00  0.00    -0.312 C  
HETATM    5  O   UNL     1      -8.422  18.390  68.009  1.00  0.00    -0.263 OA 
HETATM    6  C   UNL     1      -8.238  16.975  67.928  1.00  0.00    -0.200 C  
HETATM    7  H   UNL     1     -11.343  17.279  65.589  1.00  0.00     0.000 HD 
HETATM    8  O   UNL     1      -6.870  16.674  67.618  1.00  0.00    -0.126 OA 
HETATM    9  C   UNL     1      -9.156  16.477  66.796  1.00  0.00    -0.237 C  
HETATM   10  O   UNL     1      -8.486  15.477  66.016  1.00  0.00    -0.356 OA 
HETATM   11  C   UNL     1      -9.453  17.731  65.973  1.00  0.00    -0.063 C  
HETATM   12  H   UNL     1      -6.748  15.734  67.564  1.00  0.00     0.000 HD 
HETATM   13  H   UNL     1      -9.052  15.169  65.318  1.00  0.00     0.000 HD 
HETATM   14  O   UNL     1     -10.872  17.979  66.024  1.00  0.00    -0.213 OA 
BRANCH   6  15
HETATM   15  C   UNL     1      -8.553  16.306  69.272  1.00  0.00    -0.148 C  
HETATM   16  O   UNL     1      -9.960  16.334  69.528  1.00  0.00    -0.244 OA 
HETATM   17  H   UNL     1     -10.154  15.919  70.360  1.00  0.00     0.000 HD 
ENDBRANCH   6  15
ENDBRANCH   3   4
TORSDOF 2
ENDMDL
MODEL      172
REMARK 921   NORMALIZED FREE ENERGY PREDICTED BY IDOCK:   -2.59 KCAL/MOL
REMARK 922        TOTAL FREE ENERGY PREDICTED BY IDOCK:   -2.99 KCAL/MOL
REMARK 923 INTER-LIGAND FREE ENERGY PREDICTED BY IDOCK:   -2.90 KCAL/MOL
REMARK 924 INTRA-LIGAND FREE ENERGY PREDICTED BY IDOCK:   -0.09 KCAL/MOL
REMARK 927      BINDING AFFINITY PREDICTED BY RF-SCORE:    0.00 PKD
ROOT
HETATM    1  O   UNL     1      -8.941   6.118  68.291  1.00  0.00    -0.116 OA 
HETATM    2  H   UNL     1      -8.171   5.652  67.990  1.00  0.00     0.000 HD 
HETATM    3  C   UNL     1      -8.794   7.517  68.082  1.00  0.00    -0.127 C  
ENDROOT
BRANCH   3   4
HETATM    4  C   UNL     1     -10.039   8.271  68.568  1.00  0.00    -0.197 C  
HETATM    5  O   UNL     1     -10.568   9.095  67.511  1.00  0.00    -0.267 OA 
HETATM    6  C   UNL     1      -9.948  10.377  67.623  1.00  0.00    -0.174 C  
HETATM    7  H   UNL     1     -10.688   9.773  71.403  1.00  0.00     0.000 HD 
HETATM    8  O   UNL     1      -8.702  10.385  66.912  1.00  0.00    -0.127 OA 
HETATM    9  C   UNL     1      -9.699  10.616  69.123  1.00  0.00    -0.189 C  
HETATM   10  O   UNL     1      -8.417  11.227  69.324  1.00  0.00    -0.376 OA 
HETATM   11  C   UNL     1      -9.763   9.218  69.742  1.00  0.00    -0.189 C  
HETATM   12  H   UNL     1      -8.290  11.238  66.987  1.00  0.00     0.000 HD 
HETATM   13  H   UNL     1      -8.263  11.375  70.250  1.00  0.00     0.000 HD 
HETATM   14  O   UNL     1     -10.859   9.187  70.676  1.00  0.00    -0.230 OA 
BRANCH   6  15
HETATM   15  C   UNL     1     -10.829  11.466  66.997  1.00  0.00    -0.282 C  
HETATM   16  O   UNL     1     -12.115  11.493  67.626  1.00  0.00    -0.623 OA 
HETATM   17  H   UNL     1     -12.660  12.168  67.239  1.00  0.00     0.000 HD 
ENDBRANCH   6  15
ENDBRANCH   3   4
TORSDOF 2
ENDMDL
MODEL      173
REMARK 921   NORMALIZED FREE ENERGY PREDICTED BY IDOCK:   -2.59 KCAL/MOL
REMARK 922        TOTAL FREE ENERGY PREDICTED BY IDOCK:   -2.98 KCAL/MOL
REMARK 923 INTER-LIGAND FREE ENERGY PREDICTED BY IDOCK:   -2.89 KCAL/MOL
REMARK 924 INTRA-LIGAND FREE ENERGY PREDICTED BY IDOCK:   -0.10 KCAL/MOL
REMARK 927      BINDING AFFINITY PREDICTED BY RF-SCORE:    0.00 PKD
ROOT
HETATM    1  O   UNL     1      -7.098   8.201  67.433  1.00  0.00    -0.079 OA 
HETATM    2  H   UNL     1      -7.425   7.586  68.078  1.00  0.00     0.000 HD 
HETATM    3  C   UNL     1      -8.074   9.195  67.149  1.00  0.00    -0.109 C  
ENDROOT
BRANCH   3   4
HETATM    4  C   UNL     1      -7.547  10.189  66.105  1.00  0.00    -0.114 C  
HETATM    5  O   UNL     1      -8.561  11.162  65.785  1.00  0.00    -0.176 OA 
HETATM    6  C   UNL     1      -9.306  10.649  64.679  1.00  0.00    -0.238 C  
HETATM    7  H   UNL     1      -5.729   9.745  63.420  1.00  0.00     0.000 HD 
HETATM    8  O   UNL     1     -10.364   9.802  65.151  1.00  0.00    -0.236 OA 
HETATM    9  C   UNL     1      -8.319   9.832  63.826  1.00  0.00    -0.170 C  
HETATM   10  O   UNL     1      -8.944   8.629  63.357  1.00  0.00    -0.394 OA 
HETATM   11  C   UNL     1      -7.158   9.534  64.775  1.00  0.00    -0.108 C  
HETATM   12  H   UNL     1     -10.859   9.461  64.416  1.00  0.00     0.000 HD 
HETATM   13  H   UNL     1      -8.336   8.124  62.830  1.00  0.00     0.000 HD 
HETATM   14  O   UNL     1      -5.969  10.152  64.244  1.00  0.00    -0.121 OA 
BRANCH   6  15
HETATM   15  C   UNL     1      -9.960  11.787  63.887  1.00  0.00    -0.331 C  
HETATM   16  O   UNL     1     -11.088  11.302  63.152  1.00  0.00    -0.811 OA 
HETATM   17  H   UNL     1     -11.494  12.007  62.661  1.00  0.00     0.000 HD 
ENDBRANCH   6  15
ENDBRANCH   3   4
TORSDOF 2
ENDMDL
MODEL      174
REMARK 921   NORMALIZED FREE ENERGY PREDICTED BY IDOCK:   -2.58 KCAL/MOL
REMARK 922        TOTAL FREE ENERGY PREDICTED BY IDOCK:   -2.98 KCAL/MOL
REMARK 923 INTER-LIGAND FREE ENERGY PREDICTED BY IDOCK:   -2.83 KCAL/MOL
REMARK 924 INTRA-LIGAND FREE ENERGY PREDICTED BY IDOCK:   -0.15 KCAL/MOL
REMARK 927      BINDING AFFINITY PREDICTED BY RF-SCORE:    0.00 PKD
ROOT
HETATM    1  O   UNL     1      -8.222   8.082  67.852  1.00  0.00    -0.126 OA 
HETATM    2  H   UNL     1      -8.260   7.151  67.671  1.00  0.00     0.000 HD 
HETATM    3  C   UNL     1      -9.530   8.613  68.024  1.00  0.00    -0.140 C  
ENDROOT
BRANCH   3   4
HETATM    4  C   UNL     1      -9.469  10.118  68.317  1.00  0.00    -0.140 C  
HETATM    5  O   UNL     1     -10.545  10.801  67.644  1.00  0.00    -0.199 OA 
HETATM    6  C   UNL     1     -10.058  11.198  66.361  1.00  0.00    -0.226 C  
HETATM    7  H   UNL     1      -6.939  12.189  68.480  1.00  0.00     0.000 HD 
HETATM    8  O   UNL     1     -10.237  10.132  65.417  1.00  0.00    -0.298 OA 
HETATM    9  C   UNL     1      -8.559  11.501  66.533  1.00  0.00    -0.172 C  
HETATM   10  O   UNL     1      -7.817  11.000  65.412  1.00  0.00    -0.359 OA 
HETATM   11  C   UNL     1      -8.177  10.786  67.830  1.00  0.00    -0.113 C  
HETATM   12  H   UNL     1      -9.913  10.395  64.564  1.00  0.00     0.000 HD 
HETATM   13  H   UNL     1      -6.891  11.187  65.519  1.00  0.00     0.000 HD 
HETATM   14  O   UNL     1      -7.740  11.776  68.781  1.00  0.00    -0.130 OA 
BRANCH   6  15
HETATM   15  C   UNL     1     -10.841  12.405  65.829  1.00  0.00    -0.276 C  
HETATM   16  O   UNL     1     -12.244  12.224  66.041  1.00  0.00    -0.646 OA 
HETATM   17  H   UNL     1     -12.729  12.972  65.711  1.00  0.00     0.000 HD 
ENDBRANCH   6  15
ENDBRANCH   3   4
TORSDOF 2
ENDMDL
MODEL      175
REMARK 921   NORMALIZED FREE ENERGY PREDICTED BY IDOCK:   -2.57 KCAL/MOL
REMARK 922        TOTAL FREE ENERGY PREDICTED BY IDOCK:   -2.96 KCAL/MOL
REMARK 923 INTER-LIGAND FREE ENERGY PREDICTED BY IDOCK:   -2.76 KCAL/MOL
REMARK 924 INTRA-LIGAND FREE ENERGY PREDICTED BY IDOCK:   -0.20 KCAL/MOL
REMARK 927      BINDING AFFINITY PREDICTED BY RF-SCORE:    0.00 PKD
ROOT
HETATM    1  O   UNL     1      -8.750   6.382  68.895  1.00  0.00    -0.125 OA 
HETATM    2  H   UNL     1      -7.849   6.109  69.016  1.00  0.00     0.000 HD 
HETATM    3  C   UNL     1      -9.360   6.671  70.146  1.00  0.00    -0.158 C  
ENDROOT
BRANCH   3   4
HETATM    4  C   UNL     1     -10.817   7.113  69.949  1.00  0.00    -0.254 C  
HETATM    5  O   UNL     1     -10.886   8.542  69.776  1.00  0.00    -0.229 OA 
HETATM    6  C   UNL     1     -11.058   9.117  71.072  1.00  0.00    -0.305 C  
HETATM    7  H   UNL     1     -13.581   6.166  71.424  1.00  0.00     0.000 HD 
HETATM    8  O   UNL     1      -9.781   9.324  71.692  1.00  0.00    -0.257 OA 
HETATM    9  C   UNL     1     -11.885   8.112  71.893  1.00  0.00    -0.317 C  
HETATM   10  O   UNL     1     -11.380   8.029  73.233  1.00  0.00    -0.436 OA 
HETATM   11  C   UNL     1     -11.722   6.789  71.143  1.00  0.00    -0.345 C  
HETATM   12  H   UNL     1      -9.895   9.706  72.554  1.00  0.00     0.000 HD 
HETATM   13  H   UNL     1     -11.890   7.408  73.741  1.00  0.00     0.000 HD 
HETATM   14  O   UNL     1     -13.021   6.367  70.684  1.00  0.00     0.402 OA 
BRANCH   6  15
HETATM   15  C   UNL     1     -11.737  10.490  70.974  1.00  0.00    -0.289 C  
HETATM   16  O   UNL     1     -12.880  10.546  71.833  1.00  0.00    -0.444 OA 
HETATM   17  H   UNL     1     -13.300  11.396  71.773  1.00  0.00     0.000 HD 
ENDBRANCH   6  15
ENDBRANCH   3   4
TORSDOF 2
ENDMDL
MODEL      176
REMARK 921   NORMALIZED FREE ENERGY PREDICTED BY IDOCK:   -2.55 KCAL/MOL
REMARK 922        TOTAL FREE ENERGY PREDICTED BY IDOCK:   -2.95 KCAL/MOL
REMARK 923 INTER-LIGAND FREE ENERGY PREDICTED BY IDOCK:   -2.75 KCAL/MOL
REMARK 924 INTRA-LIGAND FREE ENERGY PREDICTED BY IDOCK:   -0.20 KCAL/MOL
REMARK 927      BINDING AFFINITY PREDICTED BY RF-SCORE:    0.00 PKD
ROOT
HETATM    1  O   UNL     1     -10.159   4.663  70.245  1.00  0.00    -0.239 OA 
HETATM    2  H   UNL     1      -9.606   4.012  70.661  1.00  0.00     0.000 HD 
HETATM    3  C   UNL     1     -10.138   5.881  70.978  1.00  0.00    -0.200 C  
ENDROOT
BRANCH   3   4
HETATM    4  C   UNL     1     -11.031   6.932  70.307  1.00  0.00    -0.281 C  
HETATM    5  O   UNL     1     -10.959   6.806  68.873  1.00  0.00    -0.242 OA 
HETATM    6  C   UNL     1      -9.903   7.656  68.425  1.00  0.00    -0.166 C  
HETATM    7  H   UNL     1     -11.541  10.092  70.990  1.00  0.00     0.000 HD 
HETATM    8  O   UNL     1      -8.651   6.956  68.481  1.00  0.00    -0.123 OA 
HETATM    9  C   UNL     1      -9.873   8.862  69.382  1.00  0.00    -0.183 C  
HETATM   10  O   UNL     1      -8.519   9.222  69.688  1.00  0.00    -0.120 OA 
HETATM   11  C   UNL     1     -10.624   8.376  70.623  1.00  0.00    -0.208 C  
HETATM   12  H   UNL     1      -7.949   7.522  68.183  1.00  0.00     0.000 HD 
HETATM   13  H   UNL     1      -8.500   9.966  70.278  1.00  0.00     0.000 HD 
HETATM   14  O   UNL     1     -11.795   9.198  70.794  1.00  0.00    -0.281 OA 
BRANCH   6  15
HETATM   15  C   UNL     1     -10.119   8.074  66.965  1.00  0.00    -0.279 C  
HETATM   16  O   UNL     1     -10.222   6.921  66.124  1.00  0.00    -0.426 OA 
HETATM   17  H   UNL     1     -10.356   7.180  65.220  1.00  0.00     0.000 HD 
ENDBRANCH   6  15
ENDBRANCH   3   4
TORSDOF 2
ENDMDL
MODEL      177
REMARK 921   NORMALIZED FREE ENERGY PREDICTED BY IDOCK:   -2.54 KCAL/MOL
REMARK 922        TOTAL FREE ENERGY PREDICTED BY IDOCK:   -2.93 KCAL/MOL
REMARK 923 INTER-LIGAND FREE ENERGY PREDICTED BY IDOCK:   -2.64 KCAL/MOL
REMARK 924 INTRA-LIGAND FREE ENERGY PREDICTED BY IDOCK:   -0.29 KCAL/MOL
REMARK 927      BINDING AFFINITY PREDICTED BY RF-SCORE:    0.00 PKD
ROOT
HETATM    1  O   UNL     1     -11.370   9.770  69.091  1.00  0.00    -0.430 OA 
HETATM    2  H   UNL     1     -11.483   9.933  70.020  1.00  0.00     0.000 HD 
HETATM    3  C   UNL     1     -11.198  10.992  68.385  1.00  0.00    -0.274 C  
ENDROOT
BRANCH   3   4
HETATM    4  C   UNL     1     -11.017  10.729  66.884  1.00  0.00    -0.190 C  
HETATM    5  O   UNL     1     -10.123   9.618  66.677  1.00  0.00    -0.215 OA 
HETATM    6  C   UNL     1      -8.801  10.151  66.576  1.00  0.00    -0.140 C  
HETATM    7  H   UNL     1     -10.642  12.777  64.359  1.00  0.00     0.000 HD 
HETATM    8  O   UNL     1      -8.223  10.283  67.883  1.00  0.00    -0.109 OA 
HETATM    9  C   UNL     1      -8.935  11.536  65.918  1.00  0.00    -0.147 C  
HETATM   10  O   UNL     1      -8.054  12.476  66.551  1.00  0.00    -0.401 OA 
HETATM   11  C   UNL     1     -10.404  11.911  66.124  1.00  0.00    -0.226 C  
HETATM   12  H   UNL     1      -7.345  10.638  67.816  1.00  0.00     0.000 HD 
HETATM   13  H   UNL     1      -8.136  13.331  66.145  1.00  0.00     0.000 HD 
HETATM   14  O   UNL     1     -11.022  12.045  64.829  1.00  0.00    -0.292 OA 
BRANCH   6  15
HETATM   15  C   UNL     1      -7.892   9.210  65.776  1.00  0.00    -0.098 C  
HETATM   16  O   UNL     1      -7.086   9.954  64.856  1.00  0.00    -0.119 OA 
HETATM   17  H   UNL     1      -6.523   9.371  64.361  1.00  0.00     0.000 HD 
ENDBRANCH   6  15
ENDBRANCH   3   4
TORSDOF 2
ENDMDL
MODEL      178
REMARK 921   NORMALIZED FREE ENERGY PREDICTED BY IDOCK:   -2.54 KCAL/MOL
REMARK 922        TOTAL FREE ENERGY PREDICTED BY IDOCK:   -2.93 KCAL/MOL
REMARK 923 INTER-LIGAND FREE ENERGY PREDICTED BY IDOCK:   -2.60 KCAL/MOL
REMARK 924 INTRA-LIGAND FREE ENERGY PREDICTED BY IDOCK:   -0.33 KCAL/MOL
REMARK 927      BINDING AFFINITY PREDICTED BY RF-SCORE:    0.00 PKD
ROOT
HETATM    1  O   UNL     1      -8.215   5.035  67.053  1.00  0.00    -0.107 OA 
HETATM    2  H   UNL     1      -7.970   4.126  66.932  1.00  0.00     0.000 HD 
HETATM    3  C   UNL     1      -7.463   5.621  68.108  1.00  0.00    -0.074 C  
ENDROOT
BRANCH   3   4
HETATM    4  C   UNL     1      -7.858   7.091  68.304  1.00  0.00    -0.118 C  
HETATM    5  O   UNL     1      -8.714   7.228  69.456  1.00  0.00    -0.133 OA 
HETATM    6  C   UNL     1     -10.061   7.096  69.000  1.00  0.00    -0.183 C  
HETATM    7  H   UNL     1      -8.725   9.402  66.155  1.00  0.00     0.000 HD 
HETATM    8  O   UNL     1     -10.438   5.712  68.972  1.00  0.00    -0.223 OA 
HETATM    9  C   UNL     1     -10.104   7.682  67.577  1.00  0.00    -0.202 C  
HETATM   10  O   UNL     1     -10.926   6.868  66.728  1.00  0.00    -0.513 OA 
HETATM   11  C   UNL     1      -8.643   7.677  67.125  1.00  0.00    -0.121 C  
HETATM   12  H   UNL     1     -11.333   5.624  68.669  1.00  0.00     0.000 HD 
HETATM   13  H   UNL     1     -10.952   7.229  65.850  1.00  0.00     0.000 HD 
HETATM   14  O   UNL     1      -8.239   9.039  66.886  1.00  0.00    -0.113 OA 
BRANCH   6  15
HETATM   15  C   UNL     1     -11.032   7.806  69.953  1.00  0.00    -0.190 C  
HETATM   16  O   UNL     1     -12.236   7.047  70.098  1.00  0.00    -0.618 OA 
HETATM   17  H   UNL     1     -12.837   7.487  70.688  1.00  0.00     0.000 HD 
ENDBRANCH   6  15
ENDBRANCH   3   4
TORSDOF 2
ENDMDL
MODEL      179
REMARK 921   NORMALIZED FREE ENERGY PREDICTED BY IDOCK:   -2.49 KCAL/MOL
REMARK 922        TOTAL FREE ENERGY PREDICTED BY IDOCK:   -2.87 KCAL/MOL
REMARK 923 INTER-LIGAND FREE ENERGY PREDICTED BY IDOCK:   -2.57 KCAL/MOL
REMARK 924 INTRA-LIGAND FREE ENERGY PREDICTED BY IDOCK:   -0.30 KCAL/MOL
REMARK 927      BINDING AFFINITY PREDICTED BY RF-SCORE:    0.00 PKD
ROOT
HETATM    1  O   UNL     1     -11.906   6.710  69.345  1.00  0.00    -0.651 OA 
HETATM    2  H   UNL     1     -12.437   6.313  68.666  1.00  0.00     0.000 HD 
HETATM    3  C   UNL     1     -11.014   5.757  69.908  1.00  0.00    -0.319 C  
ENDROOT
BRANCH   3   4
HETATM    4  C   UNL     1     -10.157   6.399  71.006  1.00  0.00    -0.182 C  
HETATM    5  O   UNL     1     -10.062   7.822  70.797  1.00  0.00    -0.192 OA 
HETATM    6  C   UNL     1      -8.908   8.055  69.988  1.00  0.00    -0.143 C  
HETATM    7  H   UNL     1      -7.371   5.426  72.423  1.00  0.00     0.000 HD 
HETATM    8  O   UNL     1      -9.250   7.943  68.599  1.00  0.00    -0.143 OA 
HETATM    9  C   UNL     1      -7.881   6.972  70.365  1.00  0.00    -0.108 C  
HETATM   10  O   UNL     1      -7.218   6.483  69.190  1.00  0.00    -0.085 OA 
HETATM   11  C   UNL     1      -8.714   5.881  71.040  1.00  0.00    -0.135 C  
HETATM   12  H   UNL     1      -8.483   8.097  68.061  1.00  0.00     0.000 HD 
HETATM   13  H   UNL     1      -6.584   5.815  69.422  1.00  0.00     0.000 HD 
HETATM   14  O   UNL     1      -8.265   5.747  72.402  1.00  0.00    -0.107 OA 
BRANCH   6  15
HETATM   15  C   UNL     1      -8.366   9.473  70.205  1.00  0.00    -0.192 C  
HETATM   16  O   UNL     1      -7.338   9.470  71.200  1.00  0.00    -0.318 OA 
HETATM   17  H   UNL     1      -7.002  10.349  71.333  1.00  0.00     0.000 HD 
ENDBRANCH   6  15
ENDBRANCH   3   4
TORSDOF 2
ENDMDL
MODEL      180
REMARK 921   NORMALIZED FREE ENERGY PREDICTED BY IDOCK:   -2.48 KCAL/MOL
REMARK 922        TOTAL FREE ENERGY PREDICTED BY IDOCK:   -2.86 KCAL/MOL
REMARK 923 INTER-LIGAND FREE ENERGY PREDICTED BY IDOCK:   -2.77 KCAL/MOL
REMARK 924 INTRA-LIGAND FREE ENERGY PREDICTED BY IDOCK:   -0.09 KCAL/MOL
REMARK 927      BINDING AFFINITY PREDICTED BY RF-SCORE:    0.00 PKD
ROOT
HETATM    1  O   UNL     1      -8.172  10.182  70.415  1.00  0.00    -0.392 OA 
HETATM    2  H   UNL     1      -7.364  10.319  70.894  1.00  0.00     0.000 HD 
HETATM    3  C   UNL     1      -7.940   9.389  69.258  1.00  0.00    -0.093 C  
ENDROOT
BRANCH   3   4
HETATM    4  C   UNL     1      -9.246   9.166  68.483  1.00  0.00    -0.136 C  
HETATM    5  O   UNL     1     -10.160   8.371  69.264  1.00  0.00    -0.191 OA 
HETATM    6  C   UNL     1      -9.921   7.002  68.931  1.00  0.00    -0.160 C  
HETATM    7  H   UNL     1      -9.801   8.489  65.329  1.00  0.00     0.000 HD 
HETATM    8  O   UNL     1      -8.869   6.473  69.752  1.00  0.00    -0.141 OA 
HETATM    9  C   UNL     1      -9.497   6.977  67.452  1.00  0.00    -0.133 C  
HETATM   10  O   UNL     1      -8.427   6.041  67.256  1.00  0.00    -0.106 OA 
HETATM   11  C   UNL     1      -9.054   8.412  67.162  1.00  0.00    -0.138 C  
HETATM   12  H   UNL     1      -8.710   5.564  69.530  1.00  0.00     0.000 HD 
HETATM   13  H   UNL     1      -8.166   6.025  66.343  1.00  0.00     0.000 HD 
HETATM   14  O   UNL     1      -9.920   8.956  66.148  1.00  0.00    -0.291 OA 
BRANCH   6  15
HETATM   15  C   UNL     1     -11.168   6.150  69.196  1.00  0.00    -0.339 C  
HETATM   16  O   UNL     1     -12.065   6.835  70.076  1.00  0.00    -0.650 OA 
HETATM   17  H   UNL     1     -12.838   6.307  70.240  1.00  0.00     0.000 HD 
ENDBRANCH   6  15
ENDBRANCH   3   4
TORSDOF 2
ENDMDL
MODEL      181
REMARK 921   NORMALIZED FREE ENERGY PREDICTED BY IDOCK:   -2.44 KCAL/MOL
REMARK 922        TOTAL FREE ENERGY PREDICTED BY IDOCK:   -2.82 KCAL/MOL
REMARK 923 INTER-LIGAND FREE ENERGY PREDICTED BY IDOCK:   -2.72 KCAL/MOL
REMARK 924 INTRA-LIGAND FREE ENERGY PREDICTED BY IDOCK:   -0.10 KCAL/MOL
REMARK 927      BINDING AFFINITY PREDICTED BY RF-SCORE:    0.00 PKD
ROOT
HETATM    1  O   UNL     1      -9.088   9.053  63.761  1.00  0.00    -0.418 OA 
HETATM    2  H   UNL     1      -8.843   8.219  63.379  1.00  0.00     0.000 HD 
HETATM    3  C   UNL     1      -8.305   9.324  64.916  1.00  0.00    -0.158 C  
ENDROOT
BRANCH   3   4
HETATM    4  C   UNL     1      -8.700  10.671  65.535  1.00  0.00    -0.188 C  
HETATM    5  O   UNL     1      -7.992  10.880  66.772  1.00  0.00    -0.131 OA 
HETATM    6  C   UNL     1      -8.804  10.347  67.820  1.00  0.00    -0.128 C  
HETATM    7  H   UNL     1     -11.603  12.161  65.800  1.00  0.00     0.000 HD 
HETATM    8  O   UNL     1      -8.539   8.946  67.984  1.00  0.00    -0.128 OA 
HETATM    9  C   UNL     1     -10.268  10.558  67.392  1.00  0.00    -0.211 C  
HETATM   10  O   UNL     1     -11.055   9.406  67.724  1.00  0.00    -0.504 OA 
HETATM   11  C   UNL     1     -10.190  10.774  65.880  1.00  0.00    -0.259 C  
HETATM   12  H   UNL     1      -9.079   8.592  68.680  1.00  0.00     0.000 HD 
HETATM   13  H   UNL     1     -11.958   9.536  67.460  1.00  0.00     0.000 HD 
HETATM   14  O   UNL     1     -10.679  12.098  65.587  1.00  0.00    -0.258 OA 
BRANCH   6  15
HETATM   15  C   UNL     1      -8.483  11.025  69.158  1.00  0.00    -0.012 C  
HETATM   16  O   UNL     1      -8.752  10.135  70.246  1.00  0.00    -0.329 OA 
HETATM   17  H   UNL     1      -8.553  10.555  71.075  1.00  0.00     0.000 HD 
ENDBRANCH   6  15
ENDBRANCH   3   4
TORSDOF 2
ENDMDL
MODEL      182
REMARK 921   NORMALIZED FREE ENERGY PREDICTED BY IDOCK:   -2.44 KCAL/MOL
REMARK 922        TOTAL FREE ENERGY PREDICTED BY IDOCK:   -2.82 KCAL/MOL
REMARK 923 INTER-LIGAND FREE ENERGY PREDICTED BY IDOCK:   -2.70 KCAL/MOL
REMARK 924 INTRA-LIGAND FREE ENERGY PREDICTED BY IDOCK:   -0.12 KCAL/MOL
REMARK 927      BINDING AFFINITY PREDICTED BY RF-SCORE:    0.00 PKD
ROOT
HETATM    1  O   UNL     1     -12.312   6.824  69.923  1.00  0.00    -0.581 OA 
HETATM    2  H   UNL     1     -12.992   6.457  69.372  1.00  0.00     0.000 HD 
HETATM    3  C   UNL     1     -11.118   6.057  69.824  1.00  0.00    -0.406 C  
ENDROOT
BRANCH   3   4
HETATM    4  C   UNL     1     -10.018   6.651  70.713  1.00  0.00    -0.184 C  
HETATM    5  O   UNL     1      -8.932   5.714  70.856  1.00  0.00    -0.137 OA 
HETATM    6  C   UNL     1      -9.209   4.918  72.010  1.00  0.00    -0.136 C  
HETATM    7  H   UNL     1     -10.179   8.398  73.477  1.00  0.00     0.000 HD 
HETATM    8  O   UNL     1     -10.034   3.801  71.651  1.00  0.00    -0.182 OA 
HETATM    9  C   UNL     1      -9.957   5.827  73.002  1.00  0.00    -0.174 C  
HETATM   10  O   UNL     1     -11.021   5.103  73.636  1.00  0.00    -0.292 OA 
HETATM   11  C   UNL     1     -10.487   6.972  72.137  1.00  0.00    -0.209 C  
HETATM   12  H   UNL     1     -10.218   3.272  72.418  1.00  0.00     0.000 HD 
HETATM   13  H   UNL     1     -11.483   5.664  74.248  1.00  0.00     0.000 HD 
HETATM   14  O   UNL     1      -9.887   8.199  72.595  1.00  0.00    -0.248 OA 
BRANCH   6  15
HETATM   15  C   UNL     1      -7.914   4.348  72.603  1.00  0.00    -0.086 C  
HETATM   16  O   UNL     1      -6.846   5.291  72.472  1.00  0.00    -0.070 OA 
HETATM   17  H   UNL     1      -6.044   4.937  72.840  1.00  0.00     0.000 HD 
ENDBRANCH   6  15
ENDBRANCH   3   4
TORSDOF 2
ENDMDL
MODEL      183
REMARK 921   NORMALIZED FREE ENERGY PREDICTED BY IDOCK:   -2.44 KCAL/MOL
REMARK 922        TOTAL FREE ENERGY PREDICTED BY IDOCK:   -2.82 KCAL/MOL
REMARK 923 INTER-LIGAND FREE ENERGY PREDICTED BY IDOCK:   -2.58 KCAL/MOL
REMARK 924 INTRA-LIGAND FREE ENERGY PREDICTED BY IDOCK:   -0.24 KCAL/MOL
REMARK 927      BINDING AFFINITY PREDICTED BY RF-SCORE:    0.00 PKD
ROOT
HETATM    1  O   UNL     1      -7.368  10.904  70.575  1.00  0.00    -0.340 OA 
HETATM    2  H   UNL     1      -6.573  11.233  70.977  1.00  0.00     0.000 HD 
HETATM    3  C   UNL     1      -7.137   9.638  69.970  1.00  0.00    -0.104 C  
ENDROOT
BRANCH   3   4
HETATM    4  C   UNL     1      -8.421   9.107  69.319  1.00  0.00    -0.132 C  
HETATM    5  O   UNL     1      -9.577   9.571  70.044  1.00  0.00    -0.206 OA 
HETATM    6  C   UNL     1      -9.872   8.592  71.041  1.00  0.00    -0.195 C  
HETATM    7  H   UNL     1      -9.158   6.174  68.067  1.00  0.00     0.000 HD 
HETATM    8  O   UNL     1      -9.109   8.853  72.228  1.00  0.00    -0.381 OA 
HETATM    9  C   UNL     1      -9.474   7.227  70.449  1.00  0.00    -0.165 C  
HETATM   10  O   UNL     1      -8.838   6.418  71.448  1.00  0.00    -0.137 OA 
HETATM   11  C   UNL     1      -8.516   7.577  69.309  1.00  0.00    -0.136 C  
HETATM   12  H   UNL     1      -9.305   8.201  72.890  1.00  0.00     0.000 HD 
HETATM   13  H   UNL     1      -8.593   5.576  71.083  1.00  0.00     0.000 HD 
HETATM   14  O   UNL     1      -9.099   7.122  68.072  1.00  0.00    -0.133 OA 
BRANCH   6  15
HETATM   15  C   UNL     1     -11.353   8.646  71.438  1.00  0.00    -0.284 C  
HETATM   16  O   UNL     1     -11.838   9.992  71.380  1.00  0.00    -0.370 OA 
HETATM   17  H   UNL     1     -12.755  10.025  71.626  1.00  0.00     0.000 HD 
ENDBRANCH   6  15
ENDBRANCH   3   4
TORSDOF 2
ENDMDL
MODEL      184
REMARK 921   NORMALIZED FREE ENERGY PREDICTED BY IDOCK:   -2.44 KCAL/MOL
REMARK 922        TOTAL FREE ENERGY PREDICTED BY IDOCK:   -2.82 KCAL/MOL
REMARK 923 INTER-LIGAND FREE ENERGY PREDICTED BY IDOCK:   -2.74 KCAL/MOL
REMARK 924 INTRA-LIGAND FREE ENERGY PREDICTED BY IDOCK:   -0.07 KCAL/MOL
REMARK 927      BINDING AFFINITY PREDICTED BY RF-SCORE:    0.00 PKD
ROOT
HETATM    1  O   UNL     1     -12.810   6.782  72.228  1.00  0.00    -0.539 OA 
HETATM    2  H   UNL     1     -13.094   6.367  73.034  1.00  0.00     0.000 HD 
HETATM    3  C   UNL     1     -11.654   6.135  71.711  1.00  0.00    -0.275 C  
ENDROOT
BRANCH   3   4
HETATM    4  C   UNL     1     -11.195   6.806  70.410  1.00  0.00    -0.328 C  
HETATM    5  O   UNL     1     -11.323   5.890  69.304  1.00  0.00    -0.325 OA 
HETATM    6  C   UNL     1     -10.083   5.191  69.189  1.00  0.00    -0.204 C  
HETATM    7  H   UNL     1      -8.660   8.774  69.768  1.00  0.00     0.000 HD 
HETATM    8  O   UNL     1     -10.084   4.043  70.050  1.00  0.00    -0.113 OA 
HETATM    9  C   UNL     1      -8.981   6.174  69.624  1.00  0.00    -0.134 C  
HETATM   10  O   UNL     1      -7.997   5.499  70.419  1.00  0.00    -0.097 OA 
HETATM   11  C   UNL     1      -9.725   7.241  70.429  1.00  0.00    -0.172 C  
HETATM   12  H   UNL     1      -9.259   3.578  69.973  1.00  0.00     0.000 HD 
HETATM   13  H   UNL     1      -7.317   6.105  70.688  1.00  0.00     0.000 HD 
HETATM   14  O   UNL     1      -9.571   8.505  69.755  1.00  0.00    -0.168 OA 
BRANCH   6  15
HETATM   15  C   UNL     1      -9.877   4.678  67.758  1.00  0.00    -0.128 C  
HETATM   16  O   UNL     1     -10.630   5.466  66.830  1.00  0.00    -0.264 OA 
HETATM   17  H   UNL     1     -10.501   5.148  65.944  1.00  0.00     0.000 HD 
ENDBRANCH   6  15
ENDBRANCH   3   4
TORSDOF 2
ENDMDL
MODEL      185
REMARK 921   NORMALIZED FREE ENERGY PREDICTED BY IDOCK:   -2.44 KCAL/MOL
REMARK 922        TOTAL FREE ENERGY PREDICTED BY IDOCK:   -2.82 KCAL/MOL
REMARK 923 INTER-LIGAND FREE ENERGY PREDICTED BY IDOCK:   -2.69 KCAL/MOL
REMARK 924 INTRA-LIGAND FREE ENERGY PREDICTED BY IDOCK:   -0.13 KCAL/MOL
REMARK 927      BINDING AFFINITY PREDICTED BY RF-SCORE:    0.00 PKD
ROOT
HETATM    1  O   UNL     1     -10.955   6.889  68.068  1.00  0.00    -0.414 OA 
HETATM    2  H   UNL     1     -10.874   6.772  67.129  1.00  0.00     0.000 HD 
HETATM    3  C   UNL     1     -10.503   8.180  68.454  1.00  0.00    -0.161 C  
ENDROOT
BRANCH   3   4
HETATM    4  C   UNL     1     -10.635   8.370  69.971  1.00  0.00    -0.235 C  
HETATM    5  O   UNL     1     -12.015   8.573  70.331  1.00  0.00    -0.039 OA 
HETATM    6  C   UNL     1     -12.258   9.981  70.299  1.00  0.00    -0.112 C  
HETATM    7  H   UNL     1      -8.805  10.042  72.108  1.00  0.00     0.000 HD 
HETATM    8  O   UNL     1     -12.616  10.388  68.971  1.00  0.00    -0.594 OA 
HETATM    9  C   UNL     1     -10.944  10.663  70.723  1.00  0.00     0.315 C  
HETATM   10  O   UNL     1     -10.704  11.824  69.915  1.00  0.00    -0.397 OA 
HETATM   11  C   UNL     1      -9.876   9.590  70.505  1.00  0.00    -0.269 C  
HETATM   12  H   UNL     1     -12.777  11.324  68.950  1.00  0.00     0.000 HD 
HETATM   13  H   UNL     1      -9.893  12.245  70.176  1.00  0.00     0.000 HD 
HETATM   14  O   UNL     1      -9.275   9.285  71.778  1.00  0.00    -0.306 OA 
BRANCH   6  15
HETATM   15  C   UNL     1     -13.431  10.353  71.215  1.00  0.00    -0.125 C  
HETATM   16  O   UNL     1     -12.955  10.990  72.405  1.00  0.00    -0.353 OA 
HETATM   17  H   UNL     1     -13.682  11.221  72.971  1.00  0.00     0.000 HD 
ENDBRANCH   6  15
ENDBRANCH   3   4
TORSDOF 2
ENDMDL
MODEL      186
REMARK 921   NORMALIZED FREE ENERGY PREDICTED BY IDOCK:   -2.43 KCAL/MOL
REMARK 922        TOTAL FREE ENERGY PREDICTED BY IDOCK:   -2.80 KCAL/MOL
REMARK 923 INTER-LIGAND FREE ENERGY PREDICTED BY IDOCK:   -2.74 KCAL/MOL
REMARK 924 INTRA-LIGAND FREE ENERGY PREDICTED BY IDOCK:   -0.07 KCAL/MOL
REMARK 927      BINDING AFFINITY PREDICTED BY RF-SCORE:    0.00 PKD
ROOT
HETATM    1  O   UNL     1     -11.968   6.644  69.585  1.00  0.00    -0.653 OA 
HETATM    2  H   UNL     1     -12.521   5.881  69.705  1.00  0.00     0.000 HD 
HETATM    3  C   UNL     1     -10.673   6.259  69.140  1.00  0.00    -0.301 C  
ENDROOT
BRANCH   3   4
HETATM    4  C   UNL     1      -9.779   7.491  68.946  1.00  0.00    -0.151 C  
HETATM    5  O   UNL     1     -10.070   8.125  67.686  1.00  0.00    -0.179 OA 
HETATM    6  C   UNL     1      -9.202   7.545  66.710  1.00  0.00    -0.156 C  
HETATM    7  H   UNL     1      -6.606   7.982  69.585  1.00  0.00     0.000 HD 
HETATM    8  O   UNL     1      -9.796   6.356  66.169  1.00  0.00    -0.381 OA 
HETATM    9  C   UNL     1      -7.892   7.195  67.438  1.00  0.00    -0.112 C  
HETATM   10  O   UNL     1      -7.399   5.924  66.991  1.00  0.00    -0.074 OA 
HETATM   11  C   UNL     1      -8.281   7.163  68.917  1.00  0.00    -0.125 C  
HETATM   12  H   UNL     1      -9.220   5.971  65.521  1.00  0.00     0.000 HD 
HETATM   13  H   UNL     1      -6.590   5.708  67.440  1.00  0.00     0.000 HD 
HETATM   14  O   UNL     1      -7.534   8.186  69.603  1.00  0.00    -0.081 OA 
BRANCH   6  15
HETATM   15  C   UNL     1      -8.979   8.509  65.537  1.00  0.00    -0.132 C  
HETATM   16  O   UNL     1     -10.095   9.394  65.397  1.00  0.00    -0.392 OA 
HETATM   17  H   UNL     1      -9.956   9.991  64.670  1.00  0.00     0.000 HD 
ENDBRANCH   6  15
ENDBRANCH   3   4
TORSDOF 2
ENDMDL
MODEL      187
REMARK 921   NORMALIZED FREE ENERGY PREDICTED BY IDOCK:   -2.40 KCAL/MOL
REMARK 922        TOTAL FREE ENERGY PREDICTED BY IDOCK:   -2.78 KCAL/MOL
REMARK 923 INTER-LIGAND FREE ENERGY PREDICTED BY IDOCK:   -2.49 KCAL/MOL
REMARK 924 INTRA-LIGAND FREE ENERGY PREDICTED BY IDOCK:   -0.29 KCAL/MOL
REMARK 927      BINDING AFFINITY PREDICTED BY RF-SCORE:    0.00 PKD
ROOT
HETATM    1  O   UNL     1      -7.284   5.934  70.871  1.00  0.00    -0.072 OA 
HETATM    2  H   UNL     1      -6.715   5.567  70.206  1.00  0.00     0.000 HD 
HETATM    3  C   UNL     1      -8.082   4.918  71.465  1.00  0.00    -0.111 C  
ENDROOT
BRANCH   3   4
HETATM    4  C   UNL     1      -9.002   5.511  72.540  1.00  0.00    -0.133 C  
HETATM    5  O   UNL     1     -10.327   5.710  72.009  1.00  0.00    -0.199 OA 
HETATM    6  C   UNL     1     -10.373   7.033  71.472  1.00  0.00    -0.203 C  
HETATM    7  H   UNL     1      -8.486   7.833  74.788  1.00  0.00     0.000 HD 
HETATM    8  O   UNL     1      -9.905   7.030  70.116  1.00  0.00    -0.175 OA 
HETATM    9  C   UNL     1      -9.446   7.895  72.347  1.00  0.00    -0.192 C  
HETATM   10  O   UNL     1      -8.691   8.801  71.530  1.00  0.00    -0.192 OA 
HETATM   11  C   UNL     1      -8.544   6.881  73.052  1.00  0.00    -0.118 C  
HETATM   12  H   UNL     1      -9.935   7.909  69.759  1.00  0.00     0.000 HD 
HETATM   13  H   UNL     1      -8.118   9.333  72.070  1.00  0.00     0.000 HD 
HETATM   14  O   UNL     1      -8.771   6.984  74.472  1.00  0.00    -0.179 OA 
BRANCH   6  15
HETATM   15  C   UNL     1     -11.813   7.562  71.449  1.00  0.00    -0.294 C  
HETATM   16  O   UNL     1     -12.534   7.002  70.346  1.00  0.00    -0.622 OA 
HETATM   17  H   UNL     1     -13.426   7.330  70.332  1.00  0.00     0.000 HD 
ENDBRANCH   6  15
ENDBRANCH   3   4
TORSDOF 2
ENDMDL
MODEL      188
REMARK 921   NORMALIZED FREE ENERGY PREDICTED BY IDOCK:   -2.37 KCAL/MOL
REMARK 922        TOTAL FREE ENERGY PREDICTED BY IDOCK:   -2.74 KCAL/MOL
REMARK 923 INTER-LIGAND FREE ENERGY PREDICTED BY IDOCK:   -2.33 KCAL/MOL
REMARK 924 INTRA-LIGAND FREE ENERGY PREDICTED BY IDOCK:   -0.41 KCAL/MOL
REMARK 927      BINDING AFFINITY PREDICTED BY RF-SCORE:    0.00 PKD
ROOT
HETATM    1  O   UNL     1     -10.498   7.809  67.821  1.00  0.00    -0.213 OA 
HETATM    2  H   UNL     1     -11.211   8.436  67.798  1.00  0.00     0.000 HD 
HETATM    3  C   UNL     1     -10.952   6.517  67.439  1.00  0.00    -0.378 C  
ENDROOT
BRANCH   3   4
HETATM    4  C   UNL     1      -9.800   5.505  67.475  1.00  0.00    -0.144 C  
HETATM    5  O   UNL     1      -8.551   6.160  67.181  1.00  0.00    -0.105 OA 
HETATM    6  C   UNL     1      -8.355   6.084  65.768  1.00  0.00    -0.142 C  
HETATM    7  H   UNL     1      -9.584   2.433  66.366  1.00  0.00     0.000 HD 
HETATM    8  O   UNL     1      -9.006   7.187  65.122  1.00  0.00    -0.359 OA 
HETATM    9  C   UNL     1      -8.986   4.758  65.307  1.00  0.00    -0.151 C  
HETATM   10  O   UNL     1      -9.684   4.943  64.068  1.00  0.00    -0.345 OA 
HETATM   11  C   UNL     1      -9.939   4.380  66.443  1.00  0.00    -0.232 C  
HETATM   12  H   UNL     1      -8.876   7.137  64.183  1.00  0.00     0.000 HD 
HETATM   13  H   UNL     1     -10.073   4.124  63.783  1.00  0.00     0.000 HD 
HETATM   14  O   UNL     1      -9.498   3.129  67.006  1.00  0.00    -0.178 OA 
BRANCH   6  15
HETATM   15  C   UNL     1      -6.864   6.174  65.418  1.00  0.00    -0.048 C  
HETATM   16  O   UNL     1      -6.527   5.213  64.413  1.00  0.00    -0.036 OA 
HETATM   17  H   UNL     1      -5.604   5.269  64.196  1.00  0.00     0.000 HD 
ENDBRANCH   6  15
ENDBRANCH   3   4
TORSDOF 2
ENDMDL
MODEL      189
REMARK 921   NORMALIZED FREE ENERGY PREDICTED BY IDOCK:   -2.37 KCAL/MOL
REMARK 922        TOTAL FREE ENERGY PREDICTED BY IDOCK:   -2.74 KCAL/MOL
REMARK 923 INTER-LIGAND FREE ENERGY PREDICTED BY IDOCK:   -2.70 KCAL/MOL
REMARK 924 INTRA-LIGAND FREE ENERGY PREDICTED BY IDOCK:   -0.04 KCAL/MOL
REMARK 927      BINDING AFFINITY PREDICTED BY RF-SCORE:    0.00 PKD
ROOT
HETATM    1  O   UNL     1      -6.760   5.165  70.257  1.00  0.00    -0.037 OA 
HETATM    2  H   UNL     1      -6.688   4.220  70.210  1.00  0.00     0.000 HD 
HETATM    3  C   UNL     1      -8.120   5.570  70.159  1.00  0.00    -0.098 C  
ENDROOT
BRANCH   3   4
HETATM    4  C   UNL     1      -8.237   7.098  70.236  1.00  0.00    -0.131 C  
HETATM    5  O   UNL     1      -9.020   7.482  71.383  1.00  0.00    -0.132 OA 
HETATM    6  C   UNL     1     -10.382   7.563  70.958  1.00  0.00    -0.199 C  
HETATM    7  H   UNL     1      -8.732   9.348  67.910  1.00  0.00     0.000 HD 
HETATM    8  O   UNL     1     -11.003   6.272  71.052  1.00  0.00    -0.256 OA 
HETATM    9  C   UNL     1     -10.358   8.029  69.491  1.00  0.00    -0.221 C  
HETATM   10  O   UNL     1     -11.338   7.314  68.725  1.00  0.00    -0.443 OA 
HETATM   11  C   UNL     1      -8.936   7.721  69.021  1.00  0.00    -0.145 C  
HETATM   12  H   UNL     1     -11.908   6.326  70.769  1.00  0.00     0.000 HD 
HETATM   13  H   UNL     1     -11.324   7.602  67.820  1.00  0.00     0.000 HD 
HETATM   14  O   UNL     1      -8.299   8.963  68.663  1.00  0.00    -0.121 OA 
BRANCH   6  15
HETATM   15  C   UNL     1     -11.180   8.512  71.860  1.00  0.00    -0.327 C  
HETATM   16  O   UNL     1     -12.062   7.772  72.710  1.00  0.00    -0.586 OA 
HETATM   17  H   UNL     1     -12.556   8.361  73.269  1.00  0.00     0.000 HD 
ENDBRANCH   6  15
ENDBRANCH   3   4
TORSDOF 2
ENDMDL
MODEL      190
REMARK 921   NORMALIZED FREE ENERGY PREDICTED BY IDOCK:   -2.36 KCAL/MOL
REMARK 922        TOTAL FREE ENERGY PREDICTED BY IDOCK:   -2.73 KCAL/MOL
REMARK 923 INTER-LIGAND FREE ENERGY PREDICTED BY IDOCK:   -2.67 KCAL/MOL
REMARK 924 INTRA-LIGAND FREE ENERGY PREDICTED BY IDOCK:   -0.06 KCAL/MOL
REMARK 927      BINDING AFFINITY PREDICTED BY RF-SCORE:    0.00 PKD
ROOT
HETATM    1  O   UNL     1     -10.817   9.789  70.013  1.00  0.00    -0.239 OA 
HETATM    2  H   UNL     1     -11.681  10.173  69.925  1.00  0.00     0.000 HD 
HETATM    3  C   UNL     1     -10.648   9.221  71.305  1.00  0.00    -0.347 C  
ENDROOT
BRANCH   3   4
HETATM    4  C   UNL     1      -9.252   8.601  71.446  1.00  0.00    -0.235 C  
HETATM    5  O   UNL     1      -9.201   7.328  70.774  1.00  0.00    -0.156 OA 
HETATM    6  C   UNL     1      -9.561   6.329  71.730  1.00  0.00    -0.153 C  
HETATM    7  H   UNL     1      -7.199   8.451  73.991  1.00  0.00     0.000 HD 
HETATM    8  O   UNL     1     -10.988   6.175  71.766  1.00  0.00    -0.244 OA 
HETATM    9  C   UNL     1      -9.051   6.823  73.095  1.00  0.00    -0.127 C  
HETATM   10  O   UNL     1     -10.019   6.548  74.118  1.00  0.00    -0.256 OA 
HETATM   11  C   UNL     1      -8.847   8.326  72.899  1.00  0.00    -0.232 C  
HETATM   12  H   UNL     1     -11.227   5.512  72.401  1.00  0.00     0.000 HD 
HETATM   13  H   UNL     1      -9.704   6.853  74.961  1.00  0.00     0.000 HD 
HETATM   14  O   UNL     1      -7.449   8.621  73.091  1.00  0.00    -0.346 OA 
BRANCH   6  15
HETATM   15  C   UNL     1      -8.972   4.966  71.344  1.00  0.00    -0.134 C  
HETATM   16  O   UNL     1      -9.860   4.267  70.466  1.00  0.00    -0.200 OA 
HETATM   17  H   UNL     1      -9.495   3.423  70.228  1.00  0.00     0.000 HD 
ENDBRANCH   6  15
ENDBRANCH   3   4
TORSDOF 2
ENDMDL
MODEL      191
REMARK 921   NORMALIZED FREE ENERGY PREDICTED BY IDOCK:   -2.34 KCAL/MOL
REMARK 922        TOTAL FREE ENERGY PREDICTED BY IDOCK:   -2.71 KCAL/MOL
REMARK 923 INTER-LIGAND FREE ENERGY PREDICTED BY IDOCK:   -2.51 KCAL/MOL
REMARK 924 INTRA-LIGAND FREE ENERGY PREDICTED BY IDOCK:   -0.20 KCAL/MOL
REMARK 927      BINDING AFFINITY PREDICTED BY RF-SCORE:    0.00 PKD
ROOT
HETATM    1  O   UNL     1      -9.988   5.397  72.353  1.00  0.00    -0.164 OA 
HETATM    2  H   UNL     1      -9.948   5.176  73.275  1.00  0.00     0.000 HD 
HETATM    3  C   UNL     1      -8.947   6.301  72.008  1.00  0.00    -0.142 C  
ENDROOT
BRANCH   3   4
HETATM    4  C   UNL     1      -9.012   6.659  70.517  1.00  0.00    -0.152 C  
HETATM    5  O   UNL     1      -8.609   8.028  70.314  1.00  0.00    -0.129 OA 
HETATM    6  C   UNL     1      -9.788   8.832  70.391  1.00  0.00    -0.182 C  
HETATM    7  H   UNL     1     -11.222   5.933  68.214  1.00  0.00     0.000 HD 
HETATM    8  O   UNL     1     -10.054   9.185  71.756  1.00  0.00    -0.329 OA 
HETATM    9  C   UNL     1     -10.941   7.977  69.835  1.00  0.00    -0.172 C  
HETATM   10  O   UNL     1     -12.123   8.160  70.626  1.00  0.00    -0.489 OA 
HETATM   11  C   UNL     1     -10.419   6.541  69.919  1.00  0.00    -0.213 C  
HETATM   12  H   UNL     1     -10.837   9.719  71.807  1.00  0.00     0.000 HD 
HETATM   13  H   UNL     1     -12.835   7.633  70.283  1.00  0.00     0.000 HD 
HETATM   14  O   UNL     1     -10.350   6.006  68.583  1.00  0.00    -0.172 OA 
BRANCH   6  15
HETATM   15  C   UNL     1      -9.606  10.143  69.615  1.00  0.00    -0.210 C  
HETATM   16  O   UNL     1     -10.169  10.031  68.305  1.00  0.00    -0.159 OA 
HETATM   17  H   UNL     1     -10.057  10.844  67.825  1.00  0.00     0.000 HD 
ENDBRANCH   6  15
ENDBRANCH   3   4
TORSDOF 2
ENDMDL
MODEL      192
REMARK 921   NORMALIZED FREE ENERGY PREDICTED BY IDOCK:   -2.34 KCAL/MOL
REMARK 922        TOTAL FREE ENERGY PREDICTED BY IDOCK:   -2.71 KCAL/MOL
REMARK 923 INTER-LIGAND FREE ENERGY PREDICTED BY IDOCK:   -2.48 KCAL/MOL
REMARK 924 INTRA-LIGAND FREE ENERGY PREDICTED BY IDOCK:   -0.23 KCAL/MOL
REMARK 927      BINDING AFFINITY PREDICTED BY RF-SCORE:    0.00 PKD
ROOT
HETATM    1  O   UNL     1      -8.620   8.681  72.766  1.00  0.00    -0.394 OA 
HETATM    2  H   UNL     1      -7.750   8.992  72.984  1.00  0.00     0.000 HD 
HETATM    3  C   UNL     1      -8.860   7.409  73.352  1.00  0.00    -0.168 C  
ENDROOT
BRANCH   3   4
HETATM    4  C   UNL     1     -10.267   6.907  73.000  1.00  0.00    -0.218 C  
HETATM    5  O   UNL     1     -10.636   5.811  73.860  1.00  0.00    -0.264 OA 
HETATM    6  C   UNL     1     -10.223   4.607  73.212  1.00  0.00    -0.169 C  
HETATM    7  H   UNL     1     -11.732   6.427  70.112  1.00  0.00     0.000 HD 
HETATM    8  O   UNL     1      -8.857   4.315  73.543  1.00  0.00    -0.095 OA 
HETATM    9  C   UNL     1     -10.357   4.853  71.699  1.00  0.00    -0.170 C  
HETATM   10  O   UNL     1      -9.241   4.282  71.001  1.00  0.00    -0.122 OA 
HETATM   11  C   UNL     1     -10.388   6.376  71.566  1.00  0.00    -0.207 C  
HETATM   12  H   UNL     1      -8.582   3.515  73.112  1.00  0.00     0.000 HD 
HETATM   13  H   UNL     1      -9.324   4.433  70.066  1.00  0.00     0.000 HD 
HETATM   14  O   UNL     1     -11.658   6.755  71.000  1.00  0.00    -0.300 OA 
BRANCH   6  15
HETATM   15  C   UNL     1     -11.064   3.415  73.687  1.00  0.00    -0.222 C  
HETATM   16  O   UNL     1     -10.787   2.258  72.892  1.00  0.00    -0.154 OA 
HETATM   17  H   UNL     1     -11.308   1.520  73.186  1.00  0.00     0.000 HD 
ENDBRANCH   6  15
ENDBRANCH   3   4
TORSDOF 2
ENDMDL
MODEL      193
REMARK 921   NORMALIZED FREE ENERGY PREDICTED BY IDOCK:   -2.33 KCAL/MOL
REMARK 922        TOTAL FREE ENERGY PREDICTED BY IDOCK:   -2.70 KCAL/MOL
REMARK 923 INTER-LIGAND FREE ENERGY PREDICTED BY IDOCK:   -2.46 KCAL/MOL
REMARK 924 INTRA-LIGAND FREE ENERGY PREDICTED BY IDOCK:   -0.24 KCAL/MOL
REMARK 927      BINDING AFFINITY PREDICTED BY RF-SCORE:    0.00 PKD
ROOT
HETATM    1  O   UNL     1      -8.042   4.393  68.466  1.00  0.00    -0.081 OA 
HETATM    2  H   UNL     1      -7.570   3.787  69.024  1.00  0.00     0.000 HD 
HETATM    3  C   UNL     1      -8.508   5.507  69.215  1.00  0.00    -0.101 C  
ENDROOT
BRANCH   3   4
HETATM    4  C   UNL     1      -9.272   6.486  68.313  1.00  0.00    -0.116 C  
HETATM    5  O   UNL     1      -9.174   7.826  68.835  1.00  0.00    -0.141 OA 
HETATM    6  C   UNL     1     -10.285   8.022  69.710  1.00  0.00    -0.206 C  
HETATM    7  H   UNL     1     -12.165   6.227  66.804  1.00  0.00     0.000 HD 
HETATM    8  O   UNL     1      -9.959   7.559  71.029  1.00  0.00    -0.186 OA 
HETATM    9  C   UNL     1     -11.449   7.194  69.136  1.00  0.00     0.243 C  
HETATM   10  O   UNL     1     -12.170   6.547  70.194  1.00  0.00    -0.516 OA 
HETATM   11  C   UNL     1     -10.771   6.182  68.211  1.00  0.00    -0.290 C  
HETATM   12  H   UNL     1     -10.698   7.689  71.611  1.00  0.00     0.000 HD 
HETATM   13  H   UNL     1     -12.889   6.037  69.839  1.00  0.00     0.000 HD 
HETATM   14  O   UNL     1     -11.236   6.416  66.867  1.00  0.00    -0.368 OA 
BRANCH   6  15
HETATM   15  C   UNL     1     -10.631   9.511  69.830  1.00  0.00    -0.236 C  
HETATM   16  O   UNL     1     -12.037   9.685  70.033  1.00  0.00    -0.465 OA 
HETATM   17  H   UNL     1     -12.250  10.608  70.107  1.00  0.00     0.000 HD 
ENDBRANCH   6  15
ENDBRANCH   3   4
TORSDOF 2
ENDMDL
MODEL      194
REMARK 921   NORMALIZED FREE ENERGY PREDICTED BY IDOCK:   -2.33 KCAL/MOL
REMARK 922        TOTAL FREE ENERGY PREDICTED BY IDOCK:   -2.69 KCAL/MOL
REMARK 923 INTER-LIGAND FREE ENERGY PREDICTED BY IDOCK:   -2.22 KCAL/MOL
REMARK 924 INTRA-LIGAND FREE ENERGY PREDICTED BY IDOCK:   -0.47 KCAL/MOL
REMARK 927      BINDING AFFINITY PREDICTED BY RF-SCORE:    0.00 PKD
ROOT
HETATM    1  O   UNL     1      -6.964   6.232  70.520  1.00  0.00    -0.060 OA 
HETATM    2  H   UNL     1      -6.275   5.637  70.789  1.00  0.00     0.000 HD 
HETATM    3  C   UNL     1      -8.071   6.151  71.409  1.00  0.00    -0.118 C  
ENDROOT
BRANCH   3   4
HETATM    4  C   UNL     1      -9.185   7.113  70.975  1.00  0.00    -0.158 C  
HETATM    5  O   UNL     1     -10.212   6.398  70.260  1.00  0.00    -0.186 OA 
HETATM    6  C   UNL     1      -9.866   6.434  68.874  1.00  0.00    -0.137 C  
HETATM    7  H   UNL     1      -9.068  10.147  69.753  1.00  0.00     0.000 HD 
HETATM    8  O   UNL     1      -8.985   5.346  68.559  1.00  0.00    -0.107 OA 
HETATM    9  C   UNL     1      -9.151   7.776  68.634  1.00  0.00    -0.136 C  
HETATM   10  O   UNL     1      -8.034   7.594  67.752  1.00  0.00    -0.117 OA 
HETATM   11  C   UNL     1      -8.706   8.220  70.028  1.00  0.00    -0.133 C  
HETATM   12  H   UNL     1      -8.755   5.370  67.638  1.00  0.00     0.000 HD 
HETATM   13  H   UNL     1      -7.593   8.422  67.604  1.00  0.00     0.000 HD 
HETATM   14  O   UNL     1      -9.366   9.462  70.339  1.00  0.00    -0.232 OA 
BRANCH   6  15
HETATM   15  C   UNL     1     -11.113   6.271  67.996  1.00  0.00    -0.265 C  
HETATM   16  O   UNL     1     -11.083   7.199  66.907  1.00  0.00    -0.569 OA 
HETATM   17  H   UNL     1     -11.856   7.097  66.363  1.00  0.00     0.000 HD 
ENDBRANCH   6  15
ENDBRANCH   3   4
TORSDOF 2
ENDMDL
MODEL      195
REMARK 921   NORMALIZED FREE ENERGY PREDICTED BY IDOCK:   -2.30 KCAL/MOL
REMARK 922        TOTAL FREE ENERGY PREDICTED BY IDOCK:   -2.66 KCAL/MOL
REMARK 923 INTER-LIGAND FREE ENERGY PREDICTED BY IDOCK:   -2.18 KCAL/MOL
REMARK 924 INTRA-LIGAND FREE ENERGY PREDICTED BY IDOCK:   -0.48 KCAL/MOL
REMARK 927      BINDING AFFINITY PREDICTED BY RF-SCORE:    0.00 PKD
ROOT
HETATM    1  O   UNL     1      -7.326   3.396  68.704  1.00  0.00    -0.050 OA 
HETATM    2  H   UNL     1      -6.977   2.517  68.795  1.00  0.00     0.000 HD 
HETATM    3  C   UNL     1      -6.942   4.204  69.809  1.00  0.00    -0.042 C  
ENDROOT
BRANCH   3   4
HETATM    4  C   UNL     1      -7.507   5.624  69.663  1.00  0.00    -0.075 C  
HETATM    5  O   UNL     1      -8.641   5.802  70.534  1.00  0.00    -0.133 OA 
HETATM    6  C   UNL     1      -9.806   5.439  69.791  1.00  0.00    -0.201 C  
HETATM    7  H   UNL     1      -7.989   7.498  67.023  1.00  0.00     0.000 HD 
HETATM    8  O   UNL     1     -10.035   4.026  69.896  1.00  0.00    -0.186 OA 
HETATM    9  C   UNL     1      -9.530   5.820  68.325  1.00  0.00    -0.118 C  
HETATM   10  O   UNL     1     -10.025   4.802  67.445  1.00  0.00    -0.179 OA 
HETATM   11  C   UNL     1      -8.007   5.942  68.249  1.00  0.00    -0.109 C  
HETATM   12  H   UNL     1     -10.810   3.785  69.402  1.00  0.00     0.000 HD 
HETATM   13  H   UNL     1      -9.855   5.037  66.540  1.00  0.00     0.000 HD 
HETATM   14  O   UNL     1      -7.680   7.301  67.899  1.00  0.00    -0.108 OA 
BRANCH   6  15
HETATM   15  C   UNL     1     -11.051   6.139  70.352  1.00  0.00    -0.352 C  
HETATM   16  O   UNL     1     -11.846   6.674  69.288  1.00  0.00    -0.629 OA 
HETATM   17  H   UNL     1     -12.617   7.107  69.636  1.00  0.00     0.000 HD 
ENDBRANCH   6  15
ENDBRANCH   3   4
TORSDOF 2
ENDMDL
MODEL      196
REMARK 921   NORMALIZED FREE ENERGY PREDICTED BY IDOCK:   -2.26 KCAL/MOL
REMARK 922        TOTAL FREE ENERGY PREDICTED BY IDOCK:   -2.62 KCAL/MOL
REMARK 923 INTER-LIGAND FREE ENERGY PREDICTED BY IDOCK:   -2.29 KCAL/MOL
REMARK 924 INTRA-LIGAND FREE ENERGY PREDICTED BY IDOCK:   -0.33 KCAL/MOL
REMARK 927      BINDING AFFINITY PREDICTED BY RF-SCORE:    0.00 PKD
ROOT
HETATM    1  O   UNL     1      -7.497   8.883  73.964  1.00  0.00    -0.409 OA 
HETATM    2  H   UNL     1      -6.718   9.195  74.409  1.00  0.00     0.000 HD 
HETATM    3  C   UNL     1      -7.900   7.623  74.483  1.00  0.00    -0.192 C  
ENDROOT
BRANCH   3   4
HETATM    4  C   UNL     1      -9.159   7.119  73.763  1.00  0.00    -0.200 C  
HETATM    5  O   UNL     1      -8.811   6.098  72.807  1.00  0.00    -0.124 OA 
HETATM    6  C   UNL     1      -8.560   6.751  71.562  1.00  0.00    -0.120 C  
HETATM    7  H   UNL     1     -11.767   8.714  72.594  1.00  0.00     0.000 HD 
HETATM    8  O   UNL     1      -7.192   7.179  71.499  1.00  0.00    -0.075 OA 
HETATM    9  C   UNL     1      -9.496   7.973  71.510  1.00  0.00    -0.160 C  
HETATM   10  O   UNL     1      -8.808   9.104  70.956  1.00  0.00    -0.215 OA 
HETATM   11  C   UNL     1      -9.889   8.208  72.969  1.00  0.00    -0.249 C  
HETATM   12  H   UNL     1      -7.025   7.614  70.671  1.00  0.00     0.000 HD 
HETATM   13  H   UNL     1      -9.385   9.858  70.924  1.00  0.00     0.000 HD 
HETATM   14  O   UNL     1     -11.315   8.039  73.086  1.00  0.00    -0.317 OA 
BRANCH   6  15
HETATM   15  C   UNL     1      -8.786   5.792  70.386  1.00  0.00    -0.142 C  
HETATM   16  O   UNL     1      -7.747   5.940  69.413  1.00  0.00    -0.090 OA 
HETATM   17  H   UNL     1      -7.887   5.345  68.685  1.00  0.00     0.000 HD 
ENDBRANCH   6  15
ENDBRANCH   3   4
TORSDOF 2
ENDMDL
MODEL      197
REMARK 921   NORMALIZED FREE ENERGY PREDICTED BY IDOCK:   -2.26 KCAL/MOL
REMARK 922        TOTAL FREE ENERGY PREDICTED BY IDOCK:   -2.62 KCAL/MOL
REMARK 923 INTER-LIGAND FREE ENERGY PREDICTED BY IDOCK:   -2.49 KCAL/MOL
REMARK 924 INTRA-LIGAND FREE ENERGY PREDICTED BY IDOCK:   -0.13 KCAL/MOL
REMARK 927      BINDING AFFINITY PREDICTED BY RF-SCORE:    0.00 PKD
ROOT
HETATM    1  O   UNL     1     -10.863   8.511  67.731  1.00  0.00    -0.473 OA 
HETATM    2  H   UNL     1     -10.900   8.058  66.898  1.00  0.00     0.000 HD 
HETATM    3  C   UNL     1     -10.790   7.581  68.805  1.00  0.00    -0.015 C  
ENDROOT
BRANCH   3   4
HETATM    4  C   UNL     1     -10.730   8.314  70.152  1.00  0.00    -0.239 C  
HETATM    5  O   UNL     1      -9.434   8.916  70.336  1.00  0.00    -0.170 OA 
HETATM    6  C   UNL     1      -8.613   7.957  71.006  1.00  0.00    -0.131 C  
HETATM    7  H   UNL     1     -11.861   7.492  73.112  1.00  0.00     0.000 HD 
HETATM    8  O   UNL     1      -7.996   7.084  70.049  1.00  0.00    -0.111 OA 
HETATM    9  C   UNL     1      -9.544   7.151  71.930  1.00  0.00    -0.149 C  
HETATM   10  O   UNL     1      -9.192   5.760  71.900  1.00  0.00    -0.145 OA 
HETATM   11  C   UNL     1     -10.942   7.393  71.360  1.00  0.00    -0.235 C  
HETATM   12  H   UNL     1      -7.450   6.447  70.495  1.00  0.00     0.000 HD 
HETATM   13  H   UNL     1      -9.766   5.263  72.470  1.00  0.00     0.000 HD 
HETATM   14  O   UNL     1     -11.730   8.063  72.364  1.00  0.00    -0.343 OA 
BRANCH   6  15
HETATM   15  C   UNL     1      -7.482   8.651  71.777  1.00  0.00    -0.081 C  
HETATM   16  O   UNL     1      -7.844   8.820  73.151  1.00  0.00    -0.395 OA 
HETATM   17  H   UNL     1      -7.143   9.249  73.628  1.00  0.00     0.000 HD 
ENDBRANCH   6  15
ENDBRANCH   3   4
TORSDOF 2
ENDMDL
MODEL      198
REMARK 921   NORMALIZED FREE ENERGY PREDICTED BY IDOCK:   -2.24 KCAL/MOL
REMARK 922        TOTAL FREE ENERGY PREDICTED BY IDOCK:   -2.60 KCAL/MOL
REMARK 923 INTER-LIGAND FREE ENERGY PREDICTED BY IDOCK:   -2.43 KCAL/MOL
REMARK 924 INTRA-LIGAND FREE ENERGY PREDICTED BY IDOCK:   -0.17 KCAL/MOL
REMARK 927      BINDING AFFINITY PREDICTED BY RF-SCORE:    0.00 PKD
ROOT
HETATM    1  O   UNL     1      -8.097   5.520  68.906  1.00  0.00    -0.094 OA 
HETATM    2  H   UNL     1      -8.378   4.667  69.214  1.00  0.00     0.000 HD 
HETATM    3  C   UNL     1      -8.812   6.554  69.570  1.00  0.00    -0.138 C  
ENDROOT
BRANCH   3   4
HETATM    4  C   UNL     1      -8.358   7.933  69.073  1.00  0.00    -0.130 C  
HETATM    5  O   UNL     1      -9.446   8.875  69.151  1.00  0.00    -0.154 OA 
HETATM    6  C   UNL     1     -10.134   8.831  67.899  1.00  0.00    -0.207 C  
HETATM    7  H   UNL     1      -6.481   8.807  66.537  1.00  0.00     0.000 HD 
HETATM    8  O   UNL     1     -11.123   7.792  67.918  1.00  0.00    -0.472 OA 
HETATM    9  C   UNL     1      -9.074   8.529  66.825  1.00  0.00    -0.151 C  
HETATM   10  O   UNL     1      -9.592   7.600  65.862  1.00  0.00    -0.424 OA 
HETATM   11  C   UNL     1      -7.902   7.937  67.609  1.00  0.00    -0.122 C  
HETATM   12  H   UNL     1     -11.581   7.763  67.087  1.00  0.00     0.000 HD 
HETATM   13  H   UNL     1      -8.938   7.413  65.199  1.00  0.00     0.000 HD 
HETATM   14  O   UNL     1      -6.763   8.805  67.444  1.00  0.00    -0.064 OA 
BRANCH   6  15
HETATM   15  C   UNL     1     -10.872  10.150  67.636  1.00  0.00    -0.290 C  
HETATM   16  O   UNL     1      -9.940  11.228  67.504  1.00  0.00    -0.179 OA 
HETATM   17  H   UNL     1     -10.398  12.044  67.341  1.00  0.00     0.000 HD 
ENDBRANCH   6  15
ENDBRANCH   3   4
TORSDOF 2
ENDMDL
MODEL      199
REMARK 921   NORMALIZED FREE ENERGY PREDICTED BY IDOCK:   -2.21 KCAL/MOL
REMARK 922        TOTAL FREE ENERGY PREDICTED BY IDOCK:   -2.56 KCAL/MOL
REMARK 923 INTER-LIGAND FREE ENERGY PREDICTED BY IDOCK:   -2.45 KCAL/MOL
REMARK 924 INTRA-LIGAND FREE ENERGY PREDICTED BY IDOCK:   -0.11 KCAL/MOL
REMARK 927      BINDING AFFINITY PREDICTED BY RF-SCORE:    0.00 PKD
ROOT
HETATM    1  O   UNL     1     -13.628   7.490  71.750  1.00  0.00    -0.397 OA 
HETATM    2  H   UNL     1     -14.465   7.057  71.633  1.00  0.00     0.000 HD 
HETATM    3  C   UNL     1     -12.630   6.555  72.141  1.00  0.00    -0.110 C  
ENDROOT
BRANCH   3   4
HETATM    4  C   UNL     1     -11.277   7.255  72.330  1.00  0.00    -0.281 C  
HETATM    5  O   UNL     1     -10.665   7.512  71.051  1.00  0.00    -0.227 OA 
HETATM    6  C   UNL     1      -9.851   6.381  70.737  1.00  0.00    -0.184 C  
HETATM    7  H   UNL     1      -8.870   6.757  74.491  1.00  0.00     0.000 HD 
HETATM    8  O   UNL     1     -10.638   5.376  70.080  1.00  0.00    -0.296 OA 
HETATM    9  C   UNL     1      -9.315   5.838  72.074  1.00  0.00    -0.150 C  
HETATM   10  O   UNL     1      -9.341   4.404  72.076  1.00  0.00    -0.124 OA 
HETATM   11  C   UNL     1     -10.263   6.423  73.123  1.00  0.00    -0.205 C  
HETATM   12  H   UNL     1     -10.097   4.624  69.871  1.00  0.00     0.000 HD 
HETATM   13  H   UNL     1      -9.010   4.069  72.901  1.00  0.00     0.000 HD 
HETATM   14  O   UNL     1      -9.498   7.273  74.000  1.00  0.00    -0.249 OA 
BRANCH   6  15
HETATM   15  C   UNL     1      -8.724   6.770  69.771  1.00  0.00    -0.141 C  
HETATM   16  O   UNL     1      -7.856   7.732  70.378  1.00  0.00    -0.087 OA 
HETATM   17  H   UNL     1      -7.158   7.973  69.780  1.00  0.00     0.000 HD 
ENDBRANCH   6  15
ENDBRANCH   3   4
TORSDOF 2
ENDMDL
MODEL      200
REMARK 921   NORMALIZED FREE ENERGY PREDICTED BY IDOCK:   -2.21 KCAL/MOL
REMARK 922        TOTAL FREE ENERGY PREDICTED BY IDOCK:   -2.56 KCAL/MOL
REMARK 923 INTER-LIGAND FREE ENERGY PREDICTED BY IDOCK:   -2.32 KCAL/MOL
REMARK 924 INTRA-LIGAND FREE ENERGY PREDICTED BY IDOCK:   -0.24 KCAL/MOL
REMARK 927      BINDING AFFINITY PREDICTED BY RF-SCORE:    0.00 PKD
ROOT
HETATM    1  O   UNL     1      -8.825  10.054  70.513  1.00  0.00    -0.332 OA 
HETATM    2  H   UNL     1      -8.118  10.239  71.119  1.00  0.00     0.000 HD 
HETATM    3  C   UNL     1      -8.323   9.451  69.327  1.00  0.00    -0.131 C  
ENDROOT
BRANCH   3   4
HETATM    4  C   UNL     1      -9.466   9.152  68.347  1.00  0.00    -0.142 C  
HETATM    5  O   UNL     1      -9.056   8.153  67.393  1.00  0.00    -0.132 OA 
HETATM    6  C   UNL     1      -8.496   8.842  66.273  1.00  0.00    -0.124 C  
HETATM    7  H   UNL     1     -11.603  11.126  66.847  1.00  0.00     0.000 HD 
HETATM    8  O   UNL     1      -7.102   9.098  66.501  1.00  0.00    -0.080 OA 
HETATM    9  C   UNL     1      -9.261  10.171  66.148  1.00  0.00    -0.159 C  
HETATM   10  O   UNL     1      -8.357  11.238  65.825  1.00  0.00    -0.336 OA 
HETATM   11  C   UNL     1      -9.902  10.368  67.523  1.00  0.00    -0.172 C  
HETATM   12  H   UNL     1      -6.730   9.556  65.756  1.00  0.00     0.000 HD 
HETATM   13  H   UNL     1      -8.829  12.059  65.748  1.00  0.00     0.000 HD 
HETATM   14  O   UNL     1     -11.333  10.372  67.358  1.00  0.00    -0.355 OA 
BRANCH   6  15
HETATM   15  C   UNL     1      -8.595   7.989  65.002  1.00  0.00    -0.011 C  
HETATM   16  O   UNL     1      -8.583   8.821  63.838  1.00  0.00    -0.351 OA 
HETATM   17  H   UNL     1      -8.644   8.293  63.051  1.00  0.00     0.000 HD 
ENDBRANCH   6  15
ENDBRANCH   3   4
TORSDOF 2
ENDMDL
MODEL      201
REMARK 921   NORMALIZED FREE ENERGY PREDICTED BY IDOCK:   -2.20 KCAL/MOL
REMARK 922        TOTAL FREE ENERGY PREDICTED BY IDOCK:   -2.55 KCAL/MOL
REMARK 923 INTER-LIGAND FREE ENERGY PREDICTED BY IDOCK:   -2.19 KCAL/MOL
REMARK 924 INTRA-LIGAND FREE ENERGY PREDICTED BY IDOCK:   -0.36 KCAL/MOL
REMARK 927      BINDING AFFINITY PREDICTED BY RF-SCORE:    0.00 PKD
ROOT
HETATM    1  O   UNL     1      -7.594  12.063  68.663  1.00  0.00    -0.122 OA 
HETATM    2  H   UNL     1      -7.105  12.806  68.995  1.00  0.00     0.000 HD 
HETATM    3  C   UNL     1      -8.984  12.358  68.614  1.00  0.00     0.036 C  
ENDROOT
BRANCH   3   4
HETATM    4  C   UNL     1      -9.774  11.157  68.079  1.00  0.00    -0.176 C  
HETATM    5  O   UNL     1     -10.431  10.469  69.162  1.00  0.00    -0.202 OA 
HETATM    6  C   UNL     1      -9.533   9.461  69.630  1.00  0.00    -0.189 C  
HETATM    7  H   UNL     1      -9.038   8.926  65.800  1.00  0.00     0.000 HD 
HETATM    8  O   UNL     1      -8.643  10.013  70.611  1.00  0.00    -0.356 OA 
HETATM    9  C   UNL     1      -8.733   8.982  68.405  1.00  0.00    -0.130 C  
HETATM   10  O   UNL     1      -7.356   8.783  68.756  1.00  0.00    -0.080 OA 
HETATM   11  C   UNL     1      -8.899  10.108  67.383  1.00  0.00    -0.131 C  
HETATM   12  H   UNL     1      -8.046   9.343  70.922  1.00  0.00     0.000 HD 
HETATM   13  H   UNL     1      -6.862   8.487  68.001  1.00  0.00     0.000 HD 
HETATM   14  O   UNL     1      -9.581   9.575  66.231  1.00  0.00    -0.188 OA 
BRANCH   6  15
HETATM   15  C   UNL     1     -10.299   8.319  70.309  1.00  0.00    -0.209 C  
HETATM   16  O   UNL     1     -11.193   7.695  69.383  1.00  0.00    -0.449 OA 
HETATM   17  H   UNL     1     -11.668   6.988  69.804  1.00  0.00     0.000 HD 
ENDBRANCH   6  15
ENDBRANCH   3   4
TORSDOF 2
ENDMDL
MODEL      202
REMARK 921   NORMALIZED FREE ENERGY PREDICTED BY IDOCK:   -2.20 KCAL/MOL
REMARK 922        TOTAL FREE ENERGY PREDICTED BY IDOCK:   -2.55 KCAL/MOL
REMARK 923 INTER-LIGAND FREE ENERGY PREDICTED BY IDOCK:   -2.21 KCAL/MOL
REMARK 924 INTRA-LIGAND FREE ENERGY PREDICTED BY IDOCK:   -0.34 KCAL/MOL
REMARK 927      BINDING AFFINITY PREDICTED BY RF-SCORE:    0.00 PKD
ROOT
HETATM    1  O   UNL     1     -10.387   7.327  67.294  1.00  0.00    -0.219 OA 
HETATM    2  H   UNL     1     -10.954   7.804  66.700  1.00  0.00     0.000 HD 
HETATM    3  C   UNL     1     -10.890   6.017  67.525  1.00  0.00    -0.302 C  
ENDROOT
BRANCH   3   4
HETATM    4  C   UNL     1      -9.974   5.247  68.485  1.00  0.00    -0.163 C  
HETATM    5  O   UNL     1     -10.580   5.159  69.790  1.00  0.00    -0.272 OA 
HETATM    6  C   UNL     1     -10.138   6.292  70.538  1.00  0.00    -0.189 C  
HETATM    7  H   UNL     1      -6.730   5.327  68.911  1.00  0.00     0.000 HD 
HETATM    8  O   UNL     1     -11.000   7.412  70.290  1.00  0.00    -0.248 OA 
HETATM    9  C   UNL     1      -8.711   6.610  70.056  1.00  0.00    -0.141 C  
HETATM   10  O   UNL     1      -8.529   8.028  69.940  1.00  0.00    -0.123 OA 
HETATM   11  C   UNL     1      -8.610   5.913  68.698  1.00  0.00    -0.110 C  
HETATM   12  H   UNL     1     -10.706   8.166  70.787  1.00  0.00     0.000 HD 
HETATM   13  H   UNL     1      -7.648   8.224  69.642  1.00  0.00     0.000 HD 
HETATM   14  O   UNL     1      -7.575   4.913  68.779  1.00  0.00    -0.068 OA 
BRANCH   6  15
HETATM   15  C   UNL     1     -10.195   6.008  72.045  1.00  0.00    -0.194 C  
HETATM   16  O   UNL     1     -10.181   4.598  72.289  1.00  0.00    -0.183 OA 
HETATM   17  H   UNL     1     -10.216   4.422  73.222  1.00  0.00     0.000 HD 
ENDBRANCH   6  15
ENDBRANCH   3   4
TORSDOF 2
ENDMDL
MODEL      203
REMARK 921   NORMALIZED FREE ENERGY PREDICTED BY IDOCK:   -2.19 KCAL/MOL
REMARK 922        TOTAL FREE ENERGY PREDICTED BY IDOCK:   -2.54 KCAL/MOL
REMARK 923 INTER-LIGAND FREE ENERGY PREDICTED BY IDOCK:   -2.24 KCAL/MOL
REMARK 924 INTRA-LIGAND FREE ENERGY PREDICTED BY IDOCK:   -0.30 KCAL/MOL
REMARK 927      BINDING AFFINITY PREDICTED BY RF-SCORE:    0.00 PKD
ROOT
HETATM    1  O   UNL     1      -7.011   2.862  66.568  1.00  0.00    -0.051 OA 
HETATM    2  H   UNL     1      -6.539   2.128  66.941  1.00  0.00     0.000 HD 
HETATM    3  C   UNL     1      -6.713   4.060  67.274  1.00  0.00    -0.047 C  
ENDROOT
BRANCH   3   4
HETATM    4  C   UNL     1      -7.476   5.248  66.672  1.00  0.00    -0.087 C  
HETATM    5  O   UNL     1      -8.422   5.768  67.627  1.00  0.00    -0.105 OA 
HETATM    6  C   UNL     1      -9.656   5.080  67.418  1.00  0.00    -0.145 C  
HETATM    7  H   UNL     1      -8.729   5.723  63.686  1.00  0.00     0.000 HD 
HETATM    8  O   UNL     1      -9.672   3.860  68.172  1.00  0.00    -0.146 OA 
HETATM    9  C   UNL     1      -9.737   4.769  65.912  1.00  0.00    -0.193 C  
HETATM   10  O   UNL     1     -10.265   3.451  65.704  1.00  0.00    -0.380 OA 
HETATM   11  C   UNL     1      -8.292   4.884  65.426  1.00  0.00    -0.125 C  
HETATM   12  H   UNL     1     -10.493   3.402  68.033  1.00  0.00     0.000 HD 
HETATM   13  H   UNL     1     -10.315   3.259  64.775  1.00  0.00     0.000 HD 
HETATM   14  O   UNL     1      -8.224   5.949  64.458  1.00  0.00    -0.133 OA 
BRANCH   6  15
HETATM   15  C   UNL     1     -10.841   5.924  67.904  1.00  0.00    -0.233 C  
HETATM   16  O   UNL     1     -11.200   6.899  66.919  1.00  0.00    -0.597 OA 
HETATM   17  H   UNL     1     -11.934   7.421  67.221  1.00  0.00     0.000 HD 
ENDBRANCH   6  15
ENDBRANCH   3   4
TORSDOF 2
ENDMDL
MODEL      204
REMARK 921   NORMALIZED FREE ENERGY PREDICTED BY IDOCK:   -2.17 KCAL/MOL
REMARK 922        TOTAL FREE ENERGY PREDICTED BY IDOCK:   -2.52 KCAL/MOL
REMARK 923 INTER-LIGAND FREE ENERGY PREDICTED BY IDOCK:   -2.20 KCAL/MOL
REMARK 924 INTRA-LIGAND FREE ENERGY PREDICTED BY IDOCK:   -0.32 KCAL/MOL
REMARK 927      BINDING AFFINITY PREDICTED BY RF-SCORE:    0.00 PKD
ROOT
HETATM    1  O   UNL     1     -11.205  12.283  69.689  1.00  0.00    -0.449 OA 
HETATM    2  H   UNL     1     -11.634  12.107  70.518  1.00  0.00     0.000 HD 
HETATM    3  C   UNL     1     -10.763  11.073  69.086  1.00  0.00    -0.234 C  
ENDROOT
BRANCH   3   4
HETATM    4  C   UNL     1     -10.071  11.357  67.747  1.00  0.00    -0.181 C  
HETATM    5  O   UNL     1      -9.026  10.393  67.511  1.00  0.00    -0.134 OA 
HETATM    6  C   UNL     1      -7.822  10.931  68.060  1.00  0.00    -0.107 C  
HETATM    7  H   UNL     1      -9.152  14.166  66.339  1.00  0.00     0.000 HD 
HETATM    8  O   UNL     1      -7.723  10.594  69.452  1.00  0.00    -0.139 OA 
HETATM    9  C   UNL     1      -7.906  12.459  67.894  1.00  0.00    -0.145 C  
HETATM   10  O   UNL     1      -7.404  13.116  69.066  1.00  0.00    -0.246 OA 
HETATM   11  C   UNL     1      -9.396  12.733  67.685  1.00  0.00    -0.191 C  
HETATM   12  H   UNL     1      -6.923  10.952  69.817  1.00  0.00     0.000 HD 
HETATM   13  H   UNL     1      -7.456  14.059  68.964  1.00  0.00     0.000 HD 
HETATM   14  O   UNL     1      -9.570  13.314  66.377  1.00  0.00    -0.265 OA 
BRANCH   6  15
HETATM   15  C   UNL     1      -6.591  10.334  67.366  1.00  0.00    -0.068 C  
HETATM   16  O   UNL     1      -5.506  11.268  67.382  1.00  0.00    -0.043 OA 
HETATM   17  H   UNL     1      -4.743  10.898  66.951  1.00  0.00     0.000 HD 
ENDBRANCH   6  15
ENDBRANCH   3   4
TORSDOF 2
ENDMDL
MODEL      205
REMARK 921   NORMALIZED FREE ENERGY PREDICTED BY IDOCK:   -2.16 KCAL/MOL
REMARK 922        TOTAL FREE ENERGY PREDICTED BY IDOCK:   -2.51 KCAL/MOL
REMARK 923 INTER-LIGAND FREE ENERGY PREDICTED BY IDOCK:   -2.24 KCAL/MOL
REMARK 924 INTRA-LIGAND FREE ENERGY PREDICTED BY IDOCK:   -0.27 KCAL/MOL
REMARK 927      BINDING AFFINITY PREDICTED BY RF-SCORE:    0.00 PKD
ROOT
HETATM    1  O   UNL     1      -8.176   9.136  71.731  1.00  0.00    -0.340 OA 
HETATM    2  H   UNL     1      -7.369   8.794  72.096  1.00  0.00     0.000 HD 
HETATM    3  C   UNL     1      -8.574   8.379  70.595  1.00  0.00    -0.141 C  
ENDROOT
BRANCH   3   4
HETATM    4  C   UNL     1      -9.879   8.930  70.006  1.00  0.00    -0.174 C  
HETATM    5  O   UNL     1      -9.983   8.583  68.612  1.00  0.00    -0.173 OA 
HETATM    6  C   UNL     1      -9.389   9.646  67.865  1.00  0.00    -0.128 C  
HETATM    7  H   UNL     1     -11.395  11.802  70.420  1.00  0.00     0.000 HD 
HETATM    8  O   UNL     1      -7.976   9.430  67.742  1.00  0.00    -0.095 OA 
HETATM    9  C   UNL     1      -9.656  10.940  68.653  1.00  0.00    -0.190 C  
HETATM   10  O   UNL     1      -8.496  11.784  68.633  1.00  0.00    -0.248 OA 
HETATM   11  C   UNL     1      -9.982  10.459  70.068  1.00  0.00     0.039 C  
HETATM   12  H   UNL     1      -7.581  10.136  67.245  1.00  0.00     0.000 HD 
HETATM   13  H   UNL     1      -8.661  12.583  69.120  1.00  0.00     0.000 HD 
HETATM   14  O   UNL     1     -11.331  10.855  70.381  1.00  0.00    -0.294 OA 
BRANCH   6  15
HETATM   15  C   UNL     1      -9.961   9.700  66.442  1.00  0.00    -0.255 C  
HETATM   16  O   UNL     1     -10.329  11.040  66.101  1.00  0.00    -0.239 OA 
HETATM   17  H   UNL     1     -10.683  11.073  65.220  1.00  0.00     0.000 HD 
ENDBRANCH   6  15
ENDBRANCH   3   4
TORSDOF 2
ENDMDL
MODEL      206
REMARK 921   NORMALIZED FREE ENERGY PREDICTED BY IDOCK:   -2.16 KCAL/MOL
REMARK 922        TOTAL FREE ENERGY PREDICTED BY IDOCK:   -2.51 KCAL/MOL
REMARK 923 INTER-LIGAND FREE ENERGY PREDICTED BY IDOCK:   -2.39 KCAL/MOL
REMARK 924 INTRA-LIGAND FREE ENERGY PREDICTED BY IDOCK:   -0.12 KCAL/MOL
REMARK 927      BINDING AFFINITY PREDICTED BY RF-SCORE:    0.00 PKD
ROOT
HETATM    1  O   UNL     1      -9.097   7.404  69.821  1.00  0.00    -0.142 OA 
HETATM    2  H   UNL     1      -9.039   8.314  70.087  1.00  0.00     0.000 HD 
HETATM    3  C   UNL     1      -8.167   7.125  68.783  1.00  0.00    -0.122 C  
ENDROOT
BRANCH   3   4
HETATM    4  C   UNL     1      -8.261   5.655  68.353  1.00  0.00    -0.103 C  
HETATM    5  O   UNL     1      -7.708   5.485  67.033  1.00  0.00    -0.098 OA 
HETATM    6  C   UNL     1      -8.777   5.656  66.100  1.00  0.00    -0.136 C  
HETATM    7  H   UNL     1     -10.650   3.446  68.709  1.00  0.00     0.000 HD 
HETATM    8  O   UNL     1      -8.932   7.046  65.781  1.00  0.00    -0.309 OA 
HETATM    9  C   UNL     1     -10.049   5.129  66.788  1.00  0.00    -0.232 C  
HETATM   10  O   UNL     1     -11.161   5.989  66.504  1.00  0.00    -0.741 OA 
HETATM   11  C   UNL     1      -9.699   5.129  68.277  1.00  0.00    -0.142 C  
HETATM   12  H   UNL     1      -9.643   7.160  65.161  1.00  0.00     0.000 HD 
HETATM   13  H   UNL     1     -11.947   5.664  66.928  1.00  0.00     0.000 HD 
HETATM   14  O   UNL     1      -9.759   3.771  68.756  1.00  0.00    -0.143 OA 
BRANCH   6  15
HETATM   15  C   UNL     1      -8.477   4.924  64.786  1.00  0.00    -0.145 C  
HETATM   16  O   UNL     1      -7.444   3.952  64.978  1.00  0.00    -0.074 OA 
HETATM   17  H   UNL     1      -7.259   3.499  64.164  1.00  0.00     0.000 HD 
ENDBRANCH   6  15
ENDBRANCH   3   4
TORSDOF 2
ENDMDL
MODEL      207
REMARK 921   NORMALIZED FREE ENERGY PREDICTED BY IDOCK:   -2.15 KCAL/MOL
REMARK 922        TOTAL FREE ENERGY PREDICTED BY IDOCK:   -2.50 KCAL/MOL
REMARK 923 INTER-LIGAND FREE ENERGY PREDICTED BY IDOCK:   -2.07 KCAL/MOL
REMARK 924 INTRA-LIGAND FREE ENERGY PREDICTED BY IDOCK:   -0.42 KCAL/MOL
REMARK 927      BINDING AFFINITY PREDICTED BY RF-SCORE:    0.00 PKD
ROOT
HETATM    1  O   UNL     1      -7.697   5.428  69.694  1.00  0.00    -0.072 OA 
HETATM    2  H   UNL     1      -7.142   4.965  69.078  1.00  0.00     0.000 HD 
HETATM    3  C   UNL     1      -6.920   5.987  70.746  1.00  0.00    -0.067 C  
ENDROOT
BRANCH   3   4
HETATM    4  C   UNL     1      -7.816   6.735  71.742  1.00  0.00    -0.101 C  
HETATM    5  O   UNL     1      -8.183   5.868  72.832  1.00  0.00    -0.117 OA 
HETATM    6  C   UNL     1      -9.405   5.224  72.469  1.00  0.00    -0.139 C  
HETATM    7  H   UNL     1     -10.288   8.829  71.277  1.00  0.00     0.000 HD 
HETATM    8  O   UNL     1      -9.129   4.038  71.709  1.00  0.00    -0.114 OA 
HETATM    9  C   UNL     1     -10.192   6.228  71.607  1.00  0.00    -0.194 C  
HETATM   10  O   UNL     1     -10.820   5.555  70.507  1.00  0.00    -0.269 OA 
HETATM   11  C   UNL     1      -9.134   7.226  71.132  1.00  0.00    -0.152 C  
HETATM   12  H   UNL     1      -9.941   3.610  71.467  1.00  0.00     0.000 HD 
HETATM   13  H   UNL     1     -11.306   6.175  69.975  1.00  0.00     0.000 HD 
HETATM   14  O   UNL     1      -9.472   8.525  71.655  1.00  0.00    -0.196 OA 
BRANCH   6  15
HETATM   15  C   UNL     1     -10.185   4.787  73.715  1.00  0.00    -0.194 C  
HETATM   16  O   UNL     1     -11.576   5.088  73.567  1.00  0.00    -0.462 OA 
HETATM   17  H   UNL     1     -12.059   4.817  74.339  1.00  0.00     0.000 HD 
ENDBRANCH   6  15
ENDBRANCH   3   4
TORSDOF 2
ENDMDL
MODEL      208
REMARK 921   NORMALIZED FREE ENERGY PREDICTED BY IDOCK:   -2.12 KCAL/MOL
REMARK 922        TOTAL FREE ENERGY PREDICTED BY IDOCK:   -2.46 KCAL/MOL
REMARK 923 INTER-LIGAND FREE ENERGY PREDICTED BY IDOCK:   -2.29 KCAL/MOL
REMARK 924 INTRA-LIGAND FREE ENERGY PREDICTED BY IDOCK:   -0.16 KCAL/MOL
REMARK 927      BINDING AFFINITY PREDICTED BY RF-SCORE:    0.00 PKD
ROOT
HETATM    1  O   UNL     1     -12.069   9.484  70.132  1.00  0.00    -0.469 OA 
HETATM    2  H   UNL     1     -12.164  10.297  70.612  1.00  0.00     0.000 HD 
HETATM    3  C   UNL     1     -10.734   9.328  69.668  1.00  0.00    -0.230 C  
ENDROOT
BRANCH   3   4
HETATM    4  C   UNL     1     -10.581   8.013  68.892  1.00  0.00    -0.140 C  
HETATM    5  O   UNL     1     -11.068   6.909  69.679  1.00  0.00    -0.266 OA 
HETATM    6  C   UNL     1      -9.962   6.404  70.430  1.00  0.00    -0.183 C  
HETATM    7  H   UNL     1      -8.153   6.883  67.010  1.00  0.00     0.000 HD 
HETATM    8  O   UNL     1      -9.829   7.132  71.659  1.00  0.00    -0.164 OA 
HETATM    9  C   UNL     1      -8.709   6.609  69.559  1.00  0.00    -0.135 C  
HETATM   10  O   UNL     1      -7.608   7.049  70.367  1.00  0.00    -0.087 OA 
HETATM   11  C   UNL     1      -9.127   7.673  68.543  1.00  0.00    -0.131 C  
HETATM   12  H   UNL     1      -9.094   6.797  72.158  1.00  0.00     0.000 HD 
HETATM   13  H   UNL     1      -6.835   7.175  69.830  1.00  0.00     0.000 HD 
HETATM   14  O   UNL     1      -9.053   7.094  67.226  1.00  0.00    -0.120 OA 
BRANCH   6  15
HETATM   15  C   UNL     1     -10.181   4.932  70.801  1.00  0.00    -0.206 C  
HETATM   16  O   UNL     1      -9.517   4.076  69.866  1.00  0.00    -0.160 OA 
HETATM   17  H   UNL     1      -9.653   3.164  70.097  1.00  0.00     0.000 HD 
ENDBRANCH   6  15
ENDBRANCH   3   4
TORSDOF 2
ENDMDL
MODEL      209
REMARK 921   NORMALIZED FREE ENERGY PREDICTED BY IDOCK:   -2.08 KCAL/MOL
REMARK 922        TOTAL FREE ENERGY PREDICTED BY IDOCK:   -2.41 KCAL/MOL
REMARK 923 INTER-LIGAND FREE ENERGY PREDICTED BY IDOCK:   -1.92 KCAL/MOL
REMARK 924 INTRA-LIGAND FREE ENERGY PREDICTED BY IDOCK:   -0.50 KCAL/MOL
REMARK 927      BINDING AFFINITY PREDICTED BY RF-SCORE:    0.00 PKD
ROOT
HETATM    1  O   UNL     1      -7.749  11.855  69.398  1.00  0.00    -0.336 OA 
HETATM    2  H   UNL     1      -7.923  12.604  69.954  1.00  0.00     0.000 HD 
HETATM    3  C   UNL     1      -6.715  12.150  68.468  1.00  0.00    -0.071 C  
ENDROOT
BRANCH   3   4
HETATM    4  C   UNL     1      -6.435  10.940  67.568  1.00  0.00    -0.058 C  
HETATM    5  O   UNL     1      -6.987  11.155  66.254  1.00  0.00    -0.123 OA 
HETATM    6  C   UNL     1      -8.317  10.633  66.263  1.00  0.00    -0.155 C  
HETATM    7  H   UNL     1      -6.554   7.724  68.169  1.00  0.00     0.000 HD 
HETATM    8  O   UNL     1      -9.233  11.631  66.737  1.00  0.00    -0.175 OA 
HETATM    9  C   UNL     1      -8.310   9.428  67.221  1.00  0.00    -0.125 C  
HETATM   10  O   UNL     1      -9.504   9.417  68.016  1.00  0.00    -0.133 OA 
HETATM   11  C   UNL     1      -7.061   9.637  68.079  1.00  0.00    -0.080 C  
HETATM   12  H   UNL     1     -10.117  11.284  66.743  1.00  0.00     0.000 HD 
HETATM   13  H   UNL     1      -9.500   8.673  68.607  1.00  0.00     0.000 HD 
HETATM   14  O   UNL     1      -6.166   8.531  67.851  1.00  0.00    -0.053 OA 
BRANCH   6  15
HETATM   15  C   UNL     1      -8.763  10.250  64.847  1.00  0.00    -0.185 C  
HETATM   16  O   UNL     1      -9.767   9.232  64.896  1.00  0.00    -0.421 OA 
HETATM   17  H   UNL     1     -10.043   8.995  64.018  1.00  0.00     0.000 HD 
ENDBRANCH   6  15
ENDBRANCH   3   4
TORSDOF 2
ENDMDL
MODEL      210
REMARK 921   NORMALIZED FREE ENERGY PREDICTED BY IDOCK:   -2.03 KCAL/MOL
REMARK 922        TOTAL FREE ENERGY PREDICTED BY IDOCK:   -2.36 KCAL/MOL
REMARK 923 INTER-LIGAND FREE ENERGY PREDICTED BY IDOCK:   -2.40 KCAL/MOL
REMARK 924 INTRA-LIGAND FREE ENERGY PREDICTED BY IDOCK:    0.05 KCAL/MOL
REMARK 927      BINDING AFFINITY PREDICTED BY RF-SCORE:    0.00 PKD
ROOT
HETATM    1  O   UNL     1      -7.787  12.006  69.033  1.00  0.00    -0.325 OA 
HETATM    2  H   UNL     1      -6.843  11.931  69.098  1.00  0.00     0.000 HD 
HETATM    3  C   UNL     1      -8.147  12.930  68.014  1.00  0.00    -0.159 C  
ENDROOT
BRANCH   3   4
HETATM    4  C   UNL     1      -9.673  13.052  67.909  1.00  0.00    -0.218 C  
HETATM    5  O   UNL     1     -10.311  12.122  68.806  1.00  0.00    -0.215 OA 
HETATM    6  C   UNL     1     -10.522  10.910  68.080  1.00  0.00    -0.191 C  
HETATM    7  H   UNL     1     -11.640  13.426  65.319  1.00  0.00     0.000 HD 
HETATM    8  O   UNL     1      -9.355  10.080  68.160  1.00  0.00    -0.131 OA 
HETATM    9  C   UNL     1     -10.782  11.314  66.617  1.00  0.00    -0.272 C  
HETATM   10  O   UNL     1     -10.113  10.410  65.725  1.00  0.00    -0.251 OA 
HETATM   11  C   UNL     1     -10.220  12.732  66.513  1.00  0.00    -0.253 C  
HETATM   12  H   UNL     1      -9.495   9.274  67.677  1.00  0.00     0.000 HD 
HETATM   13  H   UNL     1     -10.273  10.659  64.823  1.00  0.00     0.000 HD 
HETATM   14  O   UNL     1     -11.302  13.625  66.185  1.00  0.00    -0.304 OA 
BRANCH   6  15
HETATM   15  C   UNL     1     -11.685  10.110  68.680  1.00  0.00     0.193 C  
HETATM   16  O   UNL     1     -11.338   9.620  69.979  1.00  0.00    -0.279 OA 
HETATM   17  H   UNL     1     -12.058   9.124  70.351  1.00  0.00     0.000 HD 
ENDBRANCH   6  15
ENDBRANCH   3   4
TORSDOF 2
ENDMDL
MODEL      211
REMARK 921   NORMALIZED FREE ENERGY PREDICTED BY IDOCK:   -2.01 KCAL/MOL
REMARK 922        TOTAL FREE ENERGY PREDICTED BY IDOCK:   -2.34 KCAL/MOL
REMARK 923 INTER-LIGAND FREE ENERGY PREDICTED BY IDOCK:   -2.12 KCAL/MOL
REMARK 924 INTRA-LIGAND FREE ENERGY PREDICTED BY IDOCK:   -0.21 KCAL/MOL
REMARK 927      BINDING AFFINITY PREDICTED BY RF-SCORE:    0.00 PKD
ROOT
HETATM    1  O   UNL     1      -9.695  13.275  68.973  1.00  0.00    -0.401 OA 
HETATM    2  H   UNL     1     -10.350  13.182  69.654  1.00  0.00     0.000 HD 
HETATM    3  C   UNL     1      -9.630  12.099  68.176  1.00  0.00    -0.208 C  
ENDROOT
BRANCH   3   4
HETATM    4  C   UNL     1      -8.571  12.248  67.076  1.00  0.00    -0.191 C  
HETATM    5  O   UNL     1      -9.016  11.606  65.864  1.00  0.00    -0.192 OA 
HETATM    6  C   UNL     1      -8.548  10.257  65.904  1.00  0.00    -0.152 C  
HETATM    7  H   UNL     1      -5.308  12.017  67.169  1.00  0.00     0.000 HD 
HETATM    8  O   UNL     1      -9.489   9.431  66.605  1.00  0.00    -0.156 OA 
HETATM    9  C   UNL     1      -7.205  10.279  66.655  1.00  0.00    -0.109 C  
HETATM   10  O   UNL     1      -7.109   9.151  67.537  1.00  0.00    -0.078 OA 
HETATM   11  C   UNL     1      -7.227  11.600  67.426  1.00  0.00    -0.128 C  
HETATM   12  H   UNL     1      -9.178   8.534  66.632  1.00  0.00     0.000 HD 
HETATM   13  H   UNL     1      -6.280   9.165  68.001  1.00  0.00     0.000 HD 
HETATM   14  O   UNL     1      -6.140  12.419  66.951  1.00  0.00    -0.244 OA 
BRANCH   6  15
HETATM   15  C   UNL     1      -8.416   9.683  64.487  1.00  0.00    -0.178 C  
HETATM   16  O   UNL     1      -7.152   9.030  64.328  1.00  0.00    -0.089 OA 
HETATM   17  H   UNL     1      -7.070   8.675  63.451  1.00  0.00     0.000 HD 
ENDBRANCH   6  15
ENDBRANCH   3   4
TORSDOF 2
ENDMDL
MODEL      212
REMARK 921   NORMALIZED FREE ENERGY PREDICTED BY IDOCK:   -2.01 KCAL/MOL
REMARK 922        TOTAL FREE ENERGY PREDICTED BY IDOCK:   -2.33 KCAL/MOL
REMARK 923 INTER-LIGAND FREE ENERGY PREDICTED BY IDOCK:   -2.05 KCAL/MOL
REMARK 924 INTRA-LIGAND FREE ENERGY PREDICTED BY IDOCK:   -0.29 KCAL/MOL
REMARK 927      BINDING AFFINITY PREDICTED BY RF-SCORE:    0.00 PKD
ROOT
HETATM    1  O   UNL     1     -11.510   5.102  72.796  1.00  0.00    -0.268 OA 
HETATM    2  H   UNL     1     -11.929   4.477  73.376  1.00  0.00     0.000 HD 
HETATM    3  C   UNL     1     -10.690   5.999  73.534  1.00  0.00    -0.250 C  
ENDROOT
BRANCH   3   4
HETATM    4  C   UNL     1     -10.013   7.008  72.598  1.00  0.00    -0.173 C  
HETATM    5  O   UNL     1      -9.935   6.475  71.261  1.00  0.00    -0.181 OA 
HETATM    6  C   UNL     1      -8.688   5.786  71.152  1.00  0.00    -0.135 C  
HETATM    7  H   UNL     1      -7.419   8.958  73.031  1.00  0.00     0.000 HD 
HETATM    8  O   UNL     1      -8.832   4.433  71.609  1.00  0.00    -0.114 OA 
HETATM    9  C   UNL     1      -7.689   6.540  72.048  1.00  0.00    -0.098 C  
HETATM   10  O   UNL     1      -6.856   5.611  72.757  1.00  0.00    -0.071 OA 
HETATM   11  C   UNL     1      -8.573   7.348  73.000  1.00  0.00    -0.129 C  
HETATM   12  H   UNL     1      -8.004   3.975  71.537  1.00  0.00     0.000 HD 
HETATM   13  H   UNL     1      -6.239   6.076  73.310  1.00  0.00     0.000 HD 
HETATM   14  O   UNL     1      -8.311   8.748  72.781  1.00  0.00    -0.412 OA 
BRANCH   6  15
HETATM   15  C   UNL     1      -8.227   5.719  69.691  1.00  0.00    -0.108 C  
HETATM   16  O   UNL     1      -7.848   7.019  69.226  1.00  0.00    -0.109 OA 
HETATM   17  H   UNL     1      -7.562   6.977  68.320  1.00  0.00     0.000 HD 
ENDBRANCH   6  15
ENDBRANCH   3   4
TORSDOF 2
ENDMDL
MODEL      213
REMARK 921   NORMALIZED FREE ENERGY PREDICTED BY IDOCK:   -2.00 KCAL/MOL
REMARK 922        TOTAL FREE ENERGY PREDICTED BY IDOCK:   -2.33 KCAL/MOL
REMARK 923 INTER-LIGAND FREE ENERGY PREDICTED BY IDOCK:   -2.08 KCAL/MOL
REMARK 924 INTRA-LIGAND FREE ENERGY PREDICTED BY IDOCK:   -0.25 KCAL/MOL
REMARK 927      BINDING AFFINITY PREDICTED BY RF-SCORE:    0.00 PKD
ROOT
HETATM    1  O   UNL     1      -9.691   8.129  69.603  1.00  0.00    -0.168 OA 
HETATM    2  H   UNL     1      -9.375   8.968  69.291  1.00  0.00     0.000 HD 
HETATM    3  C   UNL     1      -8.611   7.224  69.794  1.00  0.00    -0.141 C  
ENDROOT
BRANCH   3   4
HETATM    4  C   UNL     1      -9.122   5.868  70.298  1.00  0.00    -0.147 C  
HETATM    5  O   UNL     1     -10.308   6.048  71.097  1.00  0.00    -0.200 OA 
HETATM    6  C   UNL     1      -9.884   6.207  72.452  1.00  0.00    -0.164 C  
HETATM    7  H   UNL     1      -7.534   3.257  71.468  1.00  0.00     0.000 HD 
HETATM    8  O   UNL     1      -9.583   7.586  72.714  1.00  0.00    -0.152 OA 
HETATM    9  C   UNL     1      -8.617   5.350  72.621  1.00  0.00    -0.120 C  
HETATM   10  O   UNL     1      -7.648   6.046  73.418  1.00  0.00    -0.096 OA 
HETATM   11  C   UNL     1      -8.120   5.129  71.191  1.00  0.00    -0.108 C  
HETATM   12  H   UNL     1      -9.301   7.691  73.615  1.00  0.00     0.000 HD 
HETATM   13  H   UNL     1      -6.866   5.517  73.522  1.00  0.00     0.000 HD 
HETATM   14  O   UNL     1      -8.155   3.715  70.915  1.00  0.00    -0.063 OA 
BRANCH   6  15
HETATM   15  C   UNL     1     -10.999   5.799  73.424  1.00  0.00    -0.222 C  
HETATM   16  O   UNL     1     -12.193   5.471  72.707  1.00  0.00    -0.497 OA 
HETATM   17  H   UNL     1     -12.883   5.218  73.309  1.00  0.00     0.000 HD 
ENDBRANCH   6  15
ENDBRANCH   3   4
TORSDOF 2
ENDMDL
MODEL      214
REMARK 921   NORMALIZED FREE ENERGY PREDICTED BY IDOCK:   -2.00 KCAL/MOL
REMARK 922        TOTAL FREE ENERGY PREDICTED BY IDOCK:   -2.32 KCAL/MOL
REMARK 923 INTER-LIGAND FREE ENERGY PREDICTED BY IDOCK:   -2.03 KCAL/MOL
REMARK 924 INTRA-LIGAND FREE ENERGY PREDICTED BY IDOCK:   -0.29 KCAL/MOL
REMARK 927      BINDING AFFINITY PREDICTED BY RF-SCORE:    0.00 PKD
ROOT
HETATM    1  O   UNL     1     -10.385   4.860  71.365  1.00  0.00    -0.199 OA 
HETATM    2  H   UNL     1     -10.935   4.481  72.039  1.00  0.00     0.000 HD 
HETATM    3  C   UNL     1      -9.145   5.290  71.912  1.00  0.00    -0.138 C  
ENDROOT
BRANCH   3   4
HETATM    4  C   UNL     1      -8.256   5.904  70.822  1.00  0.00    -0.124 C  
HETATM    5  O   UNL     1      -8.336   7.343  70.865  1.00  0.00    -0.113 OA 
HETATM    6  C   UNL     1      -9.396   7.733  69.990  1.00  0.00    -0.157 C  
HETATM    7  H   UNL     1      -7.744   5.040  67.707  1.00  0.00     0.000 HD 
HETATM    8  O   UNL     1     -10.647   7.712  70.694  1.00  0.00    -0.215 OA 
HETATM    9  C   UNL     1      -9.421   6.708  68.843  1.00  0.00    -0.130 C  
HETATM   10  O   UNL     1     -10.774   6.374  68.503  1.00  0.00    -0.228 OA 
HETATM   11  C   UNL     1      -8.663   5.502  69.400  1.00  0.00    -0.107 C  
HETATM   12  H   UNL     1     -11.351   7.972  70.113  1.00  0.00     0.000 HD 
HETATM   13  H   UNL     1     -10.790   5.741  67.794  1.00  0.00     0.000 HD 
HETATM   14  O   UNL     1      -7.492   5.289  68.588  1.00  0.00    -0.069 OA 
BRANCH   6  15
HETATM   15  C   UNL     1      -9.188   9.168  69.488  1.00  0.00    -0.159 C  
HETATM   16  O   UNL     1      -9.818  10.103  70.369  1.00  0.00    -0.393 OA 
HETATM   17  H   UNL     1      -9.688  10.992  70.057  1.00  0.00     0.000 HD 
ENDBRANCH   6  15
ENDBRANCH   3   4
TORSDOF 2
ENDMDL
MODEL      215
REMARK 921   NORMALIZED FREE ENERGY PREDICTED BY IDOCK:   -1.99 KCAL/MOL
REMARK 922        TOTAL FREE ENERGY PREDICTED BY IDOCK:   -2.32 KCAL/MOL
REMARK 923 INTER-LIGAND FREE ENERGY PREDICTED BY IDOCK:   -1.99 KCAL/MOL
REMARK 924 INTRA-LIGAND FREE ENERGY PREDICTED BY IDOCK:   -0.33 KCAL/MOL
REMARK 927      BINDING AFFINITY PREDICTED BY RF-SCORE:    0.00 PKD
ROOT
HETATM    1  O   UNL     1     -11.552   6.433  68.256  1.00  0.00    -0.524 OA 
HETATM    2  H   UNL     1     -12.369   5.976  68.096  1.00  0.00     0.000 HD 
HETATM    3  C   UNL     1     -10.751   6.453  67.081  1.00  0.00    -0.361 C  
ENDROOT
BRANCH   3   4
HETATM    4  C   UNL     1      -9.430   7.191  67.339  1.00  0.00    -0.131 C  
HETATM    5  O   UNL     1      -8.362   6.246  67.545  1.00  0.00    -0.112 OA 
HETATM    6  C   UNL     1      -8.297   5.980  68.947  1.00  0.00    -0.107 C  
HETATM    7  H   UNL     1      -8.751   9.848  69.127  1.00  0.00     0.000 HD 
HETATM    8  O   UNL     1      -9.205   4.923  69.289  1.00  0.00    -0.098 OA 
HETATM    9  C   UNL     1      -8.709   7.279  69.661  1.00  0.00    -0.141 C  
HETATM   10  O   UNL     1      -9.549   6.984  70.786  1.00  0.00    -0.165 OA 
HETATM   11  C   UNL     1      -9.457   8.076  68.591  1.00  0.00    -0.147 C  
HETATM   12  H   UNL     1      -9.161   4.746  70.221  1.00  0.00     0.000 HD 
HETATM   13  H   UNL     1      -9.804   7.786  71.228  1.00  0.00     0.000 HD 
HETATM   14  O   UNL     1      -8.734   9.300  68.351  1.00  0.00    -0.127 OA 
BRANCH   6  15
HETATM   15  C   UNL     1      -6.892   5.513  69.349  1.00  0.00    -0.061 C  
HETATM   16  O   UNL     1      -5.961   5.759  68.291  1.00  0.00    -0.015 OA 
HETATM   17  H   UNL     1      -5.090   5.470  68.540  1.00  0.00     0.000 HD 
ENDBRANCH   6  15
ENDBRANCH   3   4
TORSDOF 2
ENDMDL
MODEL      216
REMARK 921   NORMALIZED FREE ENERGY PREDICTED BY IDOCK:   -1.97 KCAL/MOL
REMARK 922        TOTAL FREE ENERGY PREDICTED BY IDOCK:   -2.30 KCAL/MOL
REMARK 923 INTER-LIGAND FREE ENERGY PREDICTED BY IDOCK:   -1.97 KCAL/MOL
REMARK 924 INTRA-LIGAND FREE ENERGY PREDICTED BY IDOCK:   -0.33 KCAL/MOL
REMARK 927      BINDING AFFINITY PREDICTED BY RF-SCORE:    0.00 PKD
ROOT
HETATM    1  O   UNL     1      -7.332   6.945  69.698  1.00  0.00    -0.081 OA 
HETATM    2  H   UNL     1      -6.743   6.228  69.900  1.00  0.00     0.000 HD 
HETATM    3  C   UNL     1      -7.681   6.936  68.320  1.00  0.00    -0.113 C  
ENDROOT
BRANCH   3   4
HETATM    4  C   UNL     1      -8.633   8.094  67.994  1.00  0.00    -0.129 C  
HETATM    5  O   UNL     1      -7.940   9.116  67.251  1.00  0.00    -0.101 OA 
HETATM    6  C   UNL     1      -7.404  10.039  68.201  1.00  0.00    -0.083 C  
HETATM    7  H   UNL     1     -10.932   9.575  69.793  1.00  0.00     0.000 HD 
HETATM    8  O   UNL     1      -6.117   9.591  68.650  1.00  0.00    -0.043 OA 
HETATM    9  C   UNL     1      -8.390  10.078  69.382  1.00  0.00    -0.165 C  
HETATM   10  O   UNL     1      -7.676  10.119  70.626  1.00  0.00    -0.428 OA 
HETATM   11  C   UNL     1      -9.201   8.789  69.237  1.00  0.00    -0.149 C  
HETATM   12  H   UNL     1      -5.761  10.204  69.282  1.00  0.00     0.000 HD 
HETATM   13  H   UNL     1      -8.284  10.143  71.355  1.00  0.00     0.000 HD 
HETATM   14  O   UNL     1     -10.581   9.145  69.022  1.00  0.00    -0.222 OA 
BRANCH   6  15
HETATM   15  C   UNL     1      -7.200  11.420  67.564  1.00  0.00    -0.107 C  
HETATM   16  O   UNL     1      -7.614  11.406  66.194  1.00  0.00    -0.349 OA 
HETATM   17  H   UNL     1      -7.488  12.262  65.801  1.00  0.00     0.000 HD 
ENDBRANCH   6  15
ENDBRANCH   3   4
TORSDOF 2
ENDMDL
MODEL      217
REMARK 921   NORMALIZED FREE ENERGY PREDICTED BY IDOCK:   -1.92 KCAL/MOL
REMARK 922        TOTAL FREE ENERGY PREDICTED BY IDOCK:   -2.24 KCAL/MOL
REMARK 923 INTER-LIGAND FREE ENERGY PREDICTED BY IDOCK:   -2.14 KCAL/MOL
REMARK 924 INTRA-LIGAND FREE ENERGY PREDICTED BY IDOCK:   -0.09 KCAL/MOL
REMARK 927      BINDING AFFINITY PREDICTED BY RF-SCORE:    0.00 PKD
ROOT
HETATM    1  O   UNL     1      -6.360   6.985  71.925  1.00  0.00    -0.041 OA 
HETATM    2  H   UNL     1      -5.580   6.539  72.233  1.00  0.00     0.000 HD 
HETATM    3  C   UNL     1      -7.026   6.207  70.940  1.00  0.00    -0.068 C  
ENDROOT
BRANCH   3   4
HETATM    4  C   UNL     1      -8.287   6.927  70.442  1.00  0.00    -0.130 C  
HETATM    5  O   UNL     1      -9.174   7.198  71.544  1.00  0.00    -0.146 OA 
HETATM    6  C   UNL     1     -10.058   6.082  71.661  1.00  0.00    -0.190 C  
HETATM    7  H   UNL     1     -10.136   6.462  67.782  1.00  0.00     0.000 HD 
HETATM    8  O   UNL     1      -9.461   5.066  72.481  1.00  0.00    -0.140 OA 
HETATM    9  C   UNL     1     -10.277   5.544  70.236  1.00  0.00    -0.255 C  
HETATM   10  O   UNL     1     -10.276   4.109  70.239  1.00  0.00    -0.070 OA 
HETATM   11  C   UNL     1      -9.103   6.109  69.435  1.00  0.00    -0.134 C  
HETATM   12  H   UNL     1     -10.048   4.324  72.559  1.00  0.00     0.000 HD 
HETATM   13  H   UNL     1     -10.412   3.777  69.359  1.00  0.00     0.000 HD 
HETATM   14  O   UNL     1      -9.630   6.969  68.406  1.00  0.00    -0.136 OA 
BRANCH   6  15
HETATM   15  C   UNL     1     -11.371   6.492  72.339  1.00  0.00    -0.279 C  
HETATM   16  O   UNL     1     -11.112   7.360  73.447  1.00  0.00    -0.555 OA 
HETATM   17  H   UNL     1     -11.926   7.614  73.867  1.00  0.00     0.000 HD 
ENDBRANCH   6  15
ENDBRANCH   3   4
TORSDOF 2
ENDMDL
MODEL      218
REMARK 921   NORMALIZED FREE ENERGY PREDICTED BY IDOCK:   -1.88 KCAL/MOL
REMARK 922        TOTAL FREE ENERGY PREDICTED BY IDOCK:   -2.19 KCAL/MOL
REMARK 923 INTER-LIGAND FREE ENERGY PREDICTED BY IDOCK:   -1.98 KCAL/MOL
REMARK 924 INTRA-LIGAND FREE ENERGY PREDICTED BY IDOCK:   -0.21 KCAL/MOL
REMARK 927      BINDING AFFINITY PREDICTED BY RF-SCORE:    0.00 PKD
ROOT
HETATM    1  O   UNL     1      -6.084   4.153  67.559  1.00  0.00    -0.026 OA 
HETATM    2  H   UNL     1      -5.998   3.232  67.346  1.00  0.00     0.000 HD 
HETATM    3  C   UNL     1      -6.569   4.883  66.439  1.00  0.00    -0.049 C  
ENDROOT
BRANCH   3   4
HETATM    4  C   UNL     1      -6.708   6.372  66.783  1.00  0.00    -0.060 C  
HETATM    5  O   UNL     1      -8.014   6.638  67.331  1.00  0.00    -0.111 OA 
HETATM    6  C   UNL     1      -8.870   6.978  66.240  1.00  0.00    -0.148 C  
HETATM    7  H   UNL     1      -5.749   9.061  65.181  1.00  0.00     0.000 HD 
HETATM    8  O   UNL     1      -9.430   5.789  65.665  1.00  0.00    -0.350 OA 
HETATM    9  C   UNL     1      -7.994   7.702  65.202  1.00  0.00    -0.130 C  
HETATM   10  O   UNL     1      -8.341   7.280  63.876  1.00  0.00    -0.355 OA 
HETATM   11  C   UNL     1      -6.565   7.298  65.569  1.00  0.00    -0.048 C  
HETATM   12  H   UNL     1      -9.999   6.015  64.939  1.00  0.00     0.000 HD 
HETATM   13  H   UNL     1      -7.800   7.726  63.235  1.00  0.00     0.000 HD 
HETATM   14  O   UNL     1      -5.838   8.488  65.934  1.00  0.00    -0.046 OA 
BRANCH   6  15
HETATM   15  C   UNL     1     -10.045   7.842  66.716  1.00  0.00    -0.281 C  
HETATM   16  O   UNL     1     -10.161   9.018  65.909  1.00  0.00    -0.381 OA 
HETATM   17  H   UNL     1     -10.889   9.553  66.204  1.00  0.00     0.000 HD 
ENDBRANCH   6  15
ENDBRANCH   3   4
TORSDOF 2
ENDMDL
MODEL      219
REMARK 921   NORMALIZED FREE ENERGY PREDICTED BY IDOCK:   -1.88 KCAL/MOL
REMARK 922        TOTAL FREE ENERGY PREDICTED BY IDOCK:   -2.19 KCAL/MOL
REMARK 923 INTER-LIGAND FREE ENERGY PREDICTED BY IDOCK:   -1.85 KCAL/MOL
REMARK 924 INTRA-LIGAND FREE ENERGY PREDICTED BY IDOCK:   -0.34 KCAL/MOL
REMARK 927      BINDING AFFINITY PREDICTED BY RF-SCORE:    0.00 PKD
ROOT
HETATM    1  O   UNL     1      -8.288  11.308  68.593  1.00  0.00    -0.149 OA 
HETATM    2  H   UNL     1      -8.487  12.029  68.008  1.00  0.00     0.000 HD 
HETATM    3  C   UNL     1      -7.813  10.186  67.861  1.00  0.00    -0.101 C  
ENDROOT
BRANCH   3   4
HETATM    4  C   UNL     1      -7.491   9.020  68.805  1.00  0.00    -0.076 C  
HETATM    5  O   UNL     1      -8.380   7.914  68.555  1.00  0.00    -0.126 OA 
HETATM    6  C   UNL     1      -9.512   8.080  69.410  1.00  0.00    -0.159 C  
HETATM    7  H   UNL     1      -6.724   8.963  71.987  1.00  0.00     0.000 HD 
HETATM    8  O   UNL     1     -10.489   8.919  68.776  1.00  0.00    -0.217 OA 
HETATM    9  C   UNL     1      -8.998   8.751  70.696  1.00  0.00    -0.186 C  
HETATM   10  O   UNL     1      -9.929   9.746  71.145  1.00  0.00    -0.277 OA 
HETATM   11  C   UNL     1      -7.660   9.369  70.289  1.00  0.00    -0.138 C  
HETATM   12  H   UNL     1     -11.241   9.029  69.344  1.00  0.00     0.000 HD 
HETATM   13  H   UNL     1      -9.611  10.161  71.939  1.00  0.00     0.000 HD 
HETATM   14  O   UNL     1      -6.619   8.747  71.068  1.00  0.00    -0.047 OA 
BRANCH   6  15
HETATM   15  C   UNL     1     -10.190   6.731  69.685  1.00  0.00    -0.187 C  
HETATM   16  O   UNL     1     -10.136   6.420  71.081  1.00  0.00    -0.183 OA 
HETATM   17  H   UNL     1     -10.557   5.585  71.251  1.00  0.00     0.000 HD 
ENDBRANCH   6  15
ENDBRANCH   3   4
TORSDOF 2
ENDMDL
MODEL      220
REMARK 921   NORMALIZED FREE ENERGY PREDICTED BY IDOCK:   -1.76 KCAL/MOL
REMARK 922        TOTAL FREE ENERGY PREDICTED BY IDOCK:   -2.06 KCAL/MOL
REMARK 923 INTER-LIGAND FREE ENERGY PREDICTED BY IDOCK:   -1.81 KCAL/MOL
REMARK 924 INTRA-LIGAND FREE ENERGY PREDICTED BY IDOCK:   -0.25 KCAL/MOL
REMARK 927      BINDING AFFINITY PREDICTED BY RF-SCORE:    0.00 PKD
ROOT
HETATM    1  O   UNL     1      -8.555   7.431  72.557  1.00  0.00    -0.109 OA 
HETATM    2  H   UNL     1      -8.741   6.594  72.963  1.00  0.00     0.000 HD 
HETATM    3  C   UNL     1      -7.522   7.301  71.589  1.00  0.00    -0.085 C  
ENDROOT
BRANCH   3   4
HETATM    4  C   UNL     1      -7.221   8.655  70.933  1.00  0.00    -0.073 C  
HETATM    5  O   UNL     1      -8.419   9.454  70.866  1.00  0.00    -0.246 OA 
HETATM    6  C   UNL     1      -9.046   9.172  69.614  1.00  0.00    -0.160 C  
HETATM    7  H   UNL     1      -5.367   9.444  68.353  1.00  0.00     0.000 HD 
HETATM    8  O   UNL     1      -9.901   8.027  69.740  1.00  0.00    -0.179 OA 
HETATM    9  C   UNL     1      -7.916   8.877  68.611  1.00  0.00    -0.103 C  
HETATM   10  O   UNL     1      -8.278   7.780  67.761  1.00  0.00    -0.123 OA 
HETATM   11  C   UNL     1      -6.712   8.538  69.491  1.00  0.00    -0.041 C  
HETATM   12  H   UNL     1     -10.318   7.839  68.907  1.00  0.00     0.000 HD 
HETATM   13  H   UNL     1      -7.581   7.598  67.142  1.00  0.00     0.000 HD 
HETATM   14  O   UNL     1      -5.683   9.517  69.246  1.00  0.00    -0.035 OA 
BRANCH   6  15
HETATM   15  C   UNL     1      -9.930  10.345  69.169  1.00  0.00    -0.223 C  
HETATM   16  O   UNL     1     -11.166   9.865  68.631  1.00  0.00    -0.434 OA 
HETATM   17  H   UNL     1     -11.713  10.591  68.356  1.00  0.00     0.000 HD 
ENDBRANCH   6  15
ENDBRANCH   3   4
TORSDOF 2
ENDMDL
MODEL      221
REMARK 921   NORMALIZED FREE ENERGY PREDICTED BY IDOCK:   -1.75 KCAL/MOL
REMARK 922        TOTAL FREE ENERGY PREDICTED BY IDOCK:   -2.04 KCAL/MOL
REMARK 923 INTER-LIGAND FREE ENERGY PREDICTED BY IDOCK:   -1.91 KCAL/MOL
REMARK 924 INTRA-LIGAND FREE ENERGY PREDICTED BY IDOCK:   -0.13 KCAL/MOL
REMARK 927      BINDING AFFINITY PREDICTED BY RF-SCORE:    0.00 PKD
ROOT
HETATM    1  O   UNL     1      -7.856   8.697  68.375  1.00  0.00    -0.102 OA 
HETATM    2  H   UNL     1      -8.233   9.382  68.914  1.00  0.00     0.000 HD 
HETATM    3  C   UNL     1      -8.493   8.649  67.105  1.00  0.00    -0.114 C  
ENDROOT
BRANCH   3   4
HETATM    4  C   UNL     1      -7.884   7.542  66.235  1.00  0.00    -0.102 C  
HETATM    5  O   UNL     1      -8.892   6.967  65.380  1.00  0.00    -0.043 OA 
HETATM    6  C   UNL     1      -9.469   5.868  66.087  1.00  0.00    -0.106 C  
HETATM    7  H   UNL     1      -5.726   5.183  66.935  1.00  0.00     0.000 HD 
HETATM    8  O   UNL     1     -10.540   6.329  66.924  1.00  0.00    -0.248 OA 
HETATM    9  C   UNL     1      -8.348   5.264  66.952  1.00  0.00    -0.107 C  
HETATM   10  O   UNL     1      -8.856   4.905  68.245  1.00  0.00    -0.101 OA 
HETATM   11  C   UNL     1      -7.303   6.376  67.044  1.00  0.00    -0.083 C  
HETATM   12  H   UNL     1     -10.923   5.598  67.393  1.00  0.00     0.000 HD 
HETATM   13  H   UNL     1      -8.165   4.532  68.780  1.00  0.00     0.000 HD 
HETATM   14  O   UNL     1      -6.086   5.904  66.433  1.00  0.00    -0.027 OA 
BRANCH   6  15
HETATM   15  C   UNL     1     -10.068   4.846  65.112  1.00  0.00     0.131 C  
HETATM   16  O   UNL     1     -11.488   4.772  65.276  1.00  0.00    -1.008 OA 
HETATM   17  H   UNL     1     -11.859   4.139  64.671  1.00  0.00     0.000 HD 
ENDBRANCH   6  15
ENDBRANCH   3   4
TORSDOF 2
ENDMDL
MODEL      222
REMARK 921   NORMALIZED FREE ENERGY PREDICTED BY IDOCK:   -1.74 KCAL/MOL
REMARK 922        TOTAL FREE ENERGY PREDICTED BY IDOCK:   -2.04 KCAL/MOL
REMARK 923 INTER-LIGAND FREE ENERGY PREDICTED BY IDOCK:   -1.58 KCAL/MOL
REMARK 924 INTRA-LIGAND FREE ENERGY PREDICTED BY IDOCK:   -0.46 KCAL/MOL
REMARK 927      BINDING AFFINITY PREDICTED BY RF-SCORE:    0.00 PKD
ROOT
HETATM    1  O   UNL     1      -8.347   3.143  68.457  1.00  0.00    -0.070 OA 
HETATM    2  H   UNL     1      -7.934   2.296  68.567  1.00  0.00     0.000 HD 
HETATM    3  C   UNL     1      -9.176   3.150  67.302  1.00  0.00    -0.189 C  
ENDROOT
BRANCH   3   4
HETATM    4  C   UNL     1      -9.844   4.520  67.124  1.00  0.00    -0.189 C  
HETATM    5  O   UNL     1      -9.259   5.219  66.008  1.00  0.00    -0.150 OA 
HETATM    6  C   UNL     1      -8.175   5.997  66.517  1.00  0.00    -0.107 C  
HETATM    7  H   UNL     1     -10.784   6.769  69.309  1.00  0.00     0.000 HD 
HETATM    8  O   UNL     1      -6.979   5.205  66.559  1.00  0.00    -0.064 OA 
HETATM    9  C   UNL     1      -8.571   6.426  67.941  1.00  0.00    -0.116 C  
HETATM   10  O   UNL     1      -7.443   6.334  68.822  1.00  0.00    -0.084 OA 
HETATM   11  C   UNL     1      -9.678   5.446  68.335  1.00  0.00    -0.136 C  
HETATM   12  H   UNL     1      -6.258   5.722  66.898  1.00  0.00     0.000 HD 
HETATM   13  H   UNL     1      -7.687   6.599  69.701  1.00  0.00     0.000 HD 
HETATM   14  O   UNL     1     -10.888   6.196  68.558  1.00  0.00    -0.266 OA 
BRANCH   6  15
HETATM   15  C   UNL     1      -7.887   7.197  65.605  1.00  0.00    -0.112 C  
HETATM   16  O   UNL     1      -7.839   8.406  66.368  1.00  0.00    -0.095 OA 
HETATM   17  H   UNL     1      -7.661   9.149  65.802  1.00  0.00     0.000 HD 
ENDBRANCH   6  15
ENDBRANCH   3   4
TORSDOF 2
ENDMDL
MODEL      223
REMARK 921   NORMALIZED FREE ENERGY PREDICTED BY IDOCK:   -1.73 KCAL/MOL
REMARK 922        TOTAL FREE ENERGY PREDICTED BY IDOCK:   -2.02 KCAL/MOL
REMARK 923 INTER-LIGAND FREE ENERGY PREDICTED BY IDOCK:   -1.78 KCAL/MOL
REMARK 924 INTRA-LIGAND FREE ENERGY PREDICTED BY IDOCK:   -0.24 KCAL/MOL
REMARK 927      BINDING AFFINITY PREDICTED BY RF-SCORE:    0.00 PKD
ROOT
HETATM    1  O   UNL     1      -9.056   3.166  71.221  1.00  0.00    -0.090 OA 
HETATM    2  H   UNL     1      -8.572   2.410  71.530  1.00  0.00     0.000 HD 
HETATM    3  C   UNL     1      -9.542   3.932  72.315  1.00  0.00    -0.142 C  
ENDROOT
BRANCH   3   4
HETATM    4  C   UNL     1     -10.325   5.154  71.816  1.00  0.00    -0.209 C  
HETATM    5  O   UNL     1      -9.858   5.545  70.509  1.00  0.00    -0.173 OA 
HETATM    6  C   UNL     1      -8.812   6.499  70.702  1.00  0.00    -0.144 C  
HETATM    7  H   UNL     1     -11.319   7.864  73.358  1.00  0.00     0.000 HD 
HETATM    8  O   UNL     1      -7.557   5.824  70.872  1.00  0.00    -0.087 OA 
HETATM    9  C   UNL     1      -9.164   7.286  71.977  1.00  0.00    -0.132 C  
HETATM   10  O   UNL     1      -7.985   7.513  72.763  1.00  0.00    -0.095 OA 
HETATM   11  C   UNL     1     -10.166   6.391  72.708  1.00  0.00    -0.186 C  
HETATM   12  H   UNL     1      -6.862   6.458  71.000  1.00  0.00     0.000 HD 
HETATM   13  H   UNL     1      -8.201   7.999  73.550  1.00  0.00     0.000 HD 
HETATM   14  O   UNL     1     -11.418   7.099  72.805  1.00  0.00    -0.266 OA 
BRANCH   6  15
HETATM   15  C   UNL     1      -8.671   7.409  69.475  1.00  0.00    -0.137 C  
HETATM   16  O   UNL     1      -8.678   6.632  68.273  1.00  0.00    -0.119 OA 
HETATM   17  H   UNL     1      -8.591   7.196  67.513  1.00  0.00     0.000 HD 
ENDBRANCH   6  15
ENDBRANCH   3   4
TORSDOF 2
ENDMDL
MODEL      224
REMARK 921   NORMALIZED FREE ENERGY PREDICTED BY IDOCK:   -1.67 KCAL/MOL
REMARK 922        TOTAL FREE ENERGY PREDICTED BY IDOCK:   -1.96 KCAL/MOL
REMARK 923 INTER-LIGAND FREE ENERGY PREDICTED BY IDOCK:   -1.75 KCAL/MOL
REMARK 924 INTRA-LIGAND FREE ENERGY PREDICTED BY IDOCK:   -0.21 KCAL/MOL
REMARK 927      BINDING AFFINITY PREDICTED BY RF-SCORE:    0.00 PKD
ROOT
HETATM    1  O   UNL     1      -7.269   6.843  67.732  1.00  0.00    -0.085 OA 
HETATM    2  H   UNL     1      -7.936   6.182  67.873  1.00  0.00     0.000 HD 
HETATM    3  C   UNL     1      -7.683   8.096  68.260  1.00  0.00    -0.114 C  
ENDROOT
BRANCH   3   4
HETATM    4  C   UNL     1      -6.605   9.163  68.032  1.00  0.00    -0.060 C  
HETATM    5  O   UNL     1      -5.905   9.437  69.261  1.00  0.00    -0.035 OA 
HETATM    6  C   UNL     1      -6.594  10.507  69.911  1.00  0.00    -0.130 C  
HETATM    7  H   UNL     1      -6.638  11.930  66.282  1.00  0.00     0.000 HD 
HETATM    8  O   UNL     1      -7.662   9.986  70.716  1.00  0.00    -0.402 OA 
HETATM    9  C   UNL     1      -7.164  11.404  68.798  1.00  0.00    -0.107 C  
HETATM   10  O   UNL     1      -8.487  11.842  69.140  1.00  0.00    -0.363 OA 
HETATM   11  C   UNL     1      -7.166  10.509  67.558  1.00  0.00    -0.090 C  
HETATM   12  H   UNL     1      -8.120  10.697  71.148  1.00  0.00     0.000 HD 
HETATM   13  H   UNL     1      -8.839  12.396  68.453  1.00  0.00     0.000 HD 
HETATM   14  O   UNL     1      -6.290  11.096  66.576  1.00  0.00    -0.118 OA 
BRANCH   6  15
HETATM   15  C   UNL     1      -5.653  11.270  70.853  1.00  0.00    -0.072 C  
HETATM   16  O   UNL     1      -5.779  12.681  70.650  1.00  0.00    -0.171 OA 
HETATM   17  H   UNL     1      -5.196  13.153  71.233  1.00  0.00     0.000 HD 
ENDBRANCH   6  15
ENDBRANCH   3   4
TORSDOF 2
ENDMDL
MODEL      225
REMARK 921   NORMALIZED FREE ENERGY PREDICTED BY IDOCK:   -1.62 KCAL/MOL
REMARK 922        TOTAL FREE ENERGY PREDICTED BY IDOCK:   -1.90 KCAL/MOL
REMARK 923 INTER-LIGAND FREE ENERGY PREDICTED BY IDOCK:   -1.69 KCAL/MOL
REMARK 924 INTRA-LIGAND FREE ENERGY PREDICTED BY IDOCK:   -0.21 KCAL/MOL
REMARK 927      BINDING AFFINITY PREDICTED BY RF-SCORE:    0.00 PKD
ROOT
HETATM    1  O   UNL     1     -10.962   5.092  69.638  1.00  0.00     0.016 OA 
HETATM    2  H   UNL     1     -11.704   4.720  70.099  1.00  0.00     0.000 HD 
HETATM    3  C   UNL     1     -10.285   4.093  68.887  1.00  0.00     0.462 C  
ENDROOT
BRANCH   3   4
HETATM    4  C   UNL     1      -9.086   4.695  68.142  1.00  0.00    -0.120 C  
HETATM    5  O   UNL     1      -9.241   6.122  68.018  1.00  0.00    -0.118 OA 
HETATM    6  C   UNL     1      -9.921   6.369  66.787  1.00  0.00    -0.171 C  
HETATM    7  H   UNL     1      -7.425   3.655  65.520  1.00  0.00     0.000 HD 
HETATM    8  O   UNL     1     -11.340   6.302  66.987  1.00  0.00    -0.602 OA 
HETATM    9  C   UNL     1      -9.476   5.267  65.809  1.00  0.00    -0.117 C  
HETATM   10  O   UNL     1     -10.592   4.808  65.034  1.00  0.00    -0.463 OA 
HETATM   11  C   UNL     1      -8.922   4.164  66.713  1.00  0.00    -0.126 C  
HETATM   12  H   UNL     1     -11.793   6.466  66.169  1.00  0.00     0.000 HD 
HETATM   13  H   UNL     1     -10.317   4.127  64.430  1.00  0.00     0.000 HD 
HETATM   14  O   UNL     1      -7.526   3.985  66.405  1.00  0.00    -0.081 OA 
BRANCH   6  15
HETATM   15  C   UNL     1      -9.607   7.776  66.262  1.00  0.00    -0.108 C  
HETATM   16  O   UNL     1     -10.329   8.761  67.009  1.00  0.00    -0.261 OA 
HETATM   17  H   UNL     1     -10.134   9.633  66.684  1.00  0.00     0.000 HD 
ENDBRANCH   6  15
ENDBRANCH   3   4
TORSDOF 2
ENDMDL
MODEL      226
REMARK 921   NORMALIZED FREE ENERGY PREDICTED BY IDOCK:   -1.60 KCAL/MOL
REMARK 922        TOTAL FREE ENERGY PREDICTED BY IDOCK:   -1.88 KCAL/MOL
REMARK 923 INTER-LIGAND FREE ENERGY PREDICTED BY IDOCK:   -1.74 KCAL/MOL
REMARK 924 INTRA-LIGAND FREE ENERGY PREDICTED BY IDOCK:   -0.14 KCAL/MOL
REMARK 927      BINDING AFFINITY PREDICTED BY RF-SCORE:    0.00 PKD
ROOT
HETATM    1  O   UNL     1     -10.832   8.970  67.637  1.00  0.00    -0.458 OA 
HETATM    2  H   UNL     1     -11.759   9.129  67.766  1.00  0.00     0.000 HD 
HETATM    3  C   UNL     1     -10.322   8.118  68.654  1.00  0.00    -0.200 C  
ENDROOT
BRANCH   3   4
HETATM    4  C   UNL     1      -8.823   7.861  68.445  1.00  0.00    -0.130 C  
HETATM    5  O   UNL     1      -8.573   7.445  67.088  1.00  0.00    -0.116 OA 
HETATM    6  C   UNL     1      -8.654   6.019  67.061  1.00  0.00    -0.107 C  
HETATM    7  H   UNL     1      -6.592   6.407  70.347  1.00  0.00     0.000 HD 
HETATM    8  O   UNL     1     -10.014   5.607  66.863  1.00  0.00    -0.143 OA 
HETATM    9  C   UNL     1      -8.148   5.524  68.428  1.00  0.00    -0.099 C  
HETATM   10  O   UNL     1      -8.961   4.438  68.896  1.00  0.00    -0.097 OA 
HETATM   11  C   UNL     1      -8.261   6.749  69.337  1.00  0.00    -0.128 C  
HETATM   12  H   UNL     1     -10.068   4.659  66.846  1.00  0.00     0.000 HD 
HETATM   13  H   UNL     1      -8.649   4.132  69.740  1.00  0.00     0.000 HD 
HETATM   14  O   UNL     1      -6.940   7.096  69.794  1.00  0.00    -0.052 OA 
BRANCH   6  15
HETATM   15  C   UNL     1      -7.838   5.448  65.895  1.00  0.00    -0.103 C  
HETATM   16  O   UNL     1      -8.256   4.112  65.597  1.00  0.00    -0.107 OA 
HETATM   17  H   UNL     1      -7.751   3.759  64.875  1.00  0.00     0.000 HD 
ENDBRANCH   6  15
ENDBRANCH   3   4
TORSDOF 2
ENDMDL
MODEL      227
REMARK 921   NORMALIZED FREE ENERGY PREDICTED BY IDOCK:   -1.57 KCAL/MOL
REMARK 922        TOTAL FREE ENERGY PREDICTED BY IDOCK:   -1.84 KCAL/MOL
REMARK 923 INTER-LIGAND FREE ENERGY PREDICTED BY IDOCK:   -1.44 KCAL/MOL
REMARK 924 INTRA-LIGAND FREE ENERGY PREDICTED BY IDOCK:   -0.40 KCAL/MOL
REMARK 927      BINDING AFFINITY PREDICTED BY RF-SCORE:    0.00 PKD
ROOT
HETATM    1  O   UNL     1      -9.189   6.027  70.255  1.00  0.00    -0.152 OA 
HETATM    2  H   UNL     1      -9.751   5.849  70.998  1.00  0.00     0.000 HD 
HETATM    3  C   UNL     1      -8.226   4.994  70.095  1.00  0.00    -0.081 C  
ENDROOT
BRANCH   3   4
HETATM    4  C   UNL     1      -7.317   5.282  68.893  1.00  0.00    -0.070 C  
HETATM    5  O   UNL     1      -7.965   6.193  67.984  1.00  0.00    -0.108 OA 
HETATM    6  C   UNL     1      -8.690   5.405  67.038  1.00  0.00    -0.107 C  
HETATM    7  H   UNL     1      -5.398   3.316  67.112  1.00  0.00     0.000 HD 
HETATM    8  O   UNL     1      -9.994   5.098  67.552  1.00  0.00    -0.158 OA 
HETATM    9  C   UNL     1      -7.885   4.108  66.838  1.00  0.00    -0.097 C  
HETATM   10  O   UNL     1      -8.769   2.981  66.762  1.00  0.00    -0.113 OA 
HETATM   11  C   UNL     1      -6.978   4.035  68.067  1.00  0.00    -0.051 C  
HETATM   12  H   UNL     1     -10.476   4.574  66.923  1.00  0.00     0.000 HD 
HETATM   13  H   UNL     1      -8.272   2.180  66.638  1.00  0.00     0.000 HD 
HETATM   14  O   UNL     1      -5.608   4.089  67.622  1.00  0.00    -0.019 OA 
BRANCH   6  15
HETATM   15  C   UNL     1      -8.892   6.175  65.727  1.00  0.00    -0.124 C  
HETATM   16  O   UNL     1      -9.329   5.291  64.690  1.00  0.00    -0.360 OA 
HETATM   17  H   UNL     1      -9.455   5.768  63.878  1.00  0.00     0.000 HD 
ENDBRANCH   6  15
ENDBRANCH   3   4
TORSDOF 2
ENDMDL
MODEL      228
REMARK 921   NORMALIZED FREE ENERGY PREDICTED BY IDOCK:   -1.46 KCAL/MOL
REMARK 922        TOTAL FREE ENERGY PREDICTED BY IDOCK:   -1.72 KCAL/MOL
REMARK 923 INTER-LIGAND FREE ENERGY PREDICTED BY IDOCK:   -1.67 KCAL/MOL
REMARK 924 INTRA-LIGAND FREE ENERGY PREDICTED BY IDOCK:   -0.05 KCAL/MOL
REMARK 927      BINDING AFFINITY PREDICTED BY RF-SCORE:    0.00 PKD
ROOT
HETATM    1  O   UNL     1      -7.089   3.894  68.458  1.00  0.00    -0.050 OA 
HETATM    2  H   UNL     1      -6.575   3.114  68.627  1.00  0.00     0.000 HD 
HETATM    3  C   UNL     1      -7.105   4.741  69.600  1.00  0.00    -0.054 C  
ENDROOT
BRANCH   3   4
HETATM    4  C   UNL     1      -7.937   6.002  69.327  1.00  0.00    -0.103 C  
HETATM    5  O   UNL     1      -7.678   6.998  70.335  1.00  0.00    -0.092 OA 
HETATM    6  C   UNL     1      -8.628   6.797  71.383  1.00  0.00    -0.124 C  
HETATM    7  H   UNL     1     -11.037   6.378  68.347  1.00  0.00     0.000 HD 
HETATM    8  O   UNL     1      -8.133   5.825  72.315  1.00  0.00    -0.106 OA 
HETATM    9  C   UNL     1      -9.915   6.279  70.716  1.00  0.00    -0.187 C  
HETATM   10  O   UNL     1     -10.504   5.240  71.511  1.00  0.00    -0.220 OA 
HETATM   11  C   UNL     1      -9.450   5.757  69.356  1.00  0.00    -0.130 C  
HETATM   12  H   UNL     1      -8.765   5.691  73.012  1.00  0.00     0.000 HD 
HETATM   13  H   UNL     1     -11.298   4.920  71.100  1.00  0.00     0.000 HD 
HETATM   14  O   UNL     1     -10.100   6.530  68.328  1.00  0.00    -0.144 OA 
BRANCH   6  15
HETATM   15  C   UNL     1      -8.859   8.095  72.168  1.00  0.00    -0.178 C  
HETATM   16  O   UNL     1      -7.627   8.571  72.720  1.00  0.00    -0.283 OA 
HETATM   17  H   UNL     1      -7.770   9.375  73.206  1.00  0.00     0.000 HD 
ENDBRANCH   6  15
ENDBRANCH   3   4
TORSDOF 2
ENDMDL
MODEL      229
REMARK 921   NORMALIZED FREE ENERGY PREDICTED BY IDOCK:   -1.20 KCAL/MOL
REMARK 922        TOTAL FREE ENERGY PREDICTED BY IDOCK:   -1.44 KCAL/MOL
REMARK 923 INTER-LIGAND FREE ENERGY PREDICTED BY IDOCK:   -2.16 KCAL/MOL
REMARK 924 INTRA-LIGAND FREE ENERGY PREDICTED BY IDOCK:    0.72 KCAL/MOL
REMARK 927      BINDING AFFINITY PREDICTED BY RF-SCORE:    0.00 PKD
ROOT
HETATM    1  O   UNL     1      -9.634   6.176  70.809  1.00  0.00    -0.167 OA 
HETATM    2  H   UNL     1      -9.969   5.709  71.565  1.00  0.00     0.000 HD 
HETATM    3  C   UNL     1      -8.863   5.311  69.986  1.00  0.00    -0.120 C  
ENDROOT
BRANCH   3   4
HETATM    4  C   UNL     1      -8.322   6.066  68.764  1.00  0.00    -0.106 C  
HETATM    5  O   UNL     1      -8.225   7.475  69.051  1.00  0.00    -0.125 OA 
HETATM    6  C   UNL     1      -9.464   8.072  68.665  1.00  0.00    -0.147 C  
HETATM    7  H   UNL     1      -8.965   5.755  65.570  1.00  0.00     0.000 HD 
HETATM    8  O   UNL     1     -10.407   7.987  69.744  1.00  0.00    -0.209 OA 
HETATM    9  C   UNL     1      -9.979   7.273  67.454  1.00  0.00    -0.174 C  
HETATM   10  O   UNL     1     -11.397   7.076  67.553  1.00  0.00    -0.579 OA 
HETATM   11  C   UNL     1      -9.217   5.949  67.525  1.00  0.00    -0.108 C  
HETATM   12  H   UNL     1     -11.231   8.384  69.488  1.00  0.00     0.000 HD 
HETATM   13  H   UNL     1     -11.714   6.584  66.805  1.00  0.00     0.000 HD 
HETATM   14  O   UNL     1      -8.410   5.828  66.337  1.00  0.00    -0.109 OA 
BRANCH   6  15
HETATM   15  C   UNL     1      -9.278   9.561  68.347  1.00  0.00    -0.130 C  
HETATM   16  O   UNL     1     -10.086   9.938  67.228  1.00  0.00    -0.188 OA 
HETATM   17  H   UNL     1      -9.971  10.861  67.031  1.00  0.00     0.000 HD 
ENDBRANCH   6  15
ENDBRANCH   3   4
TORSDOF 2
ENDMDL
