MODEL        1
REMARK 921   NORMALIZED FREE ENERGY PREDICTED BY IDOCK:   -7.50 KCAL/MOL
REMARK 922        TOTAL FREE ENERGY PREDICTED BY IDOCK:  -16.93 KCAL/MOL
REMARK 923 INTER-LIGAND FREE ENERGY PREDICTED BY IDOCK:  -13.64 KCAL/MOL
REMARK 924 INTRA-LIGAND FREE ENERGY PREDICTED BY IDOCK:   -3.29 KCAL/MOL
REMARK 927      BINDING AFFINITY PREDICTED BY RF-SCORE:    0.00 PKD
ROOT
HETATM    1  C   UNL     1      -8.800  15.164  66.580  1.00  0.00    -0.312 C  
HETATM    2  C   UNL     1      -9.561  15.553  65.442  1.00  0.00    -0.150 C  
HETATM    3  C   UNL     1      -9.915  16.403  66.631  1.00  0.00    -0.281 C  
HETATM    4  C   UNL     1      -8.531  16.133  68.094  1.00  0.00    -0.175 C  
HETATM    5  O   UNL     1      -8.098  16.777  69.297  1.00  0.00    -0.167 OA 
HETATM    6  C   UNL     1      -8.237  16.932  67.017  1.00  0.00    -0.228 C  
HETATM    7  C   UNL     1      -9.314  18.114  67.930  1.00  0.00    -0.276 C  
HETATM    8  C   UNL     1      -6.933  17.410  66.487  1.00  0.00    -0.295 C  
HETATM    9  H   UNL     1      -7.451  16.650  69.981  1.00  0.00     0.000 HD 
HETATM   10  C   UNL     1     -10.468  17.285  69.011  1.00  0.00    -0.309 C  
HETATM   11  C   UNL     1     -10.939  15.652  68.815  1.00  0.00    -0.281 C  
HETATM   12  C   UNL     1     -11.682  14.948  69.956  1.00  0.00    -0.338 A  
HETATM   13  C   UNL     1     -12.352  15.702  70.938  1.00  0.00    -0.479 A  
HETATM   14  C   UNL     1     -13.205  15.098  71.867  1.00  0.00    -0.476 A  
HETATM   15  C   UNL     1     -13.390  13.725  71.831  1.00  0.00    -0.414 A  
HETATM   16  C   UNL     1     -12.751  12.955  70.871  1.00  0.00    -0.291 A  
HETATM   17  O   UNL     1     -14.214  13.089  72.712  1.00  0.00    -0.708 OA 
HETATM   18  C   UNL     1     -11.922  13.552  69.902  1.00  0.00    -0.416 A  
HETATM   19  H   UNL     1     -14.341  12.148  72.688  1.00  0.00     0.000 HD 
HETATM   20  C   UNL     1     -11.328  12.638  68.844  1.00  0.00    -0.345 C  
HETATM   21  C   UNL     1     -10.919  13.318  67.516  1.00  0.00    -0.281 C  
HETATM   22  C   UNL     1      -9.981  14.483  67.912  1.00  0.00    -0.226 C  
ENDROOT
BRANCH  21  23
HETATM   23  C   UNL     1     -12.157  13.769  66.714  1.00  0.00    -0.460 C  
BRANCH  23  24
HETATM   24  C   UNL     1     -12.572  12.882  65.555  1.00  0.00    -0.359 C  
BRANCH  24  25
HETATM   25  C   UNL     1     -12.038  13.443  64.229  1.00  0.00    -0.479 C  
BRANCH  25  26
HETATM   26  C   UNL     1     -11.466  12.385  63.270  1.00  0.00    -0.426 C  
BRANCH  26  27
HETATM   27  C   UNL     1     -10.072  11.887  63.652  1.00  0.00    -0.450 C  
BRANCH  27  28
HETATM   28  C   UNL     1     -10.127  10.526  64.349  1.00  0.00    -0.395 C  
BRANCH  28  29
HETATM   29  C   UNL     1      -9.485  10.531  65.737  1.00  0.00    -0.249 C  
BRANCH  29  30
HETATM   30  C   UNL     1     -10.317   9.856  66.840  1.00  0.00    -0.300 C  
BRANCH  30  31
HETATM   31  C   UNL     1     -10.233   8.337  66.883  1.00  0.00    -0.318 C  
BRANCH  31  32
HETATM   32  S   UNL     1     -10.207   7.696  68.589  1.00  0.00    -0.200 S  
HETATM   33  O   UNL     1      -9.011   6.798  68.708  1.00  0.00    -0.131 OA 
BRANCH  32  34
HETATM   34  C   UNL     1      -9.791   9.258  69.429  1.00  0.00    -0.174 C  
BRANCH  34  35
HETATM   35  C   UNL     1     -10.439   9.355  70.806  1.00  0.00    -0.372 C  
BRANCH  35  36
HETATM   36  C   UNL     1     -11.960   9.247  70.720  1.00  0.00    -0.269 C  
BRANCH  36  37
HETATM   37  C   UNL     1     -12.579   8.477  71.884  1.00  0.00    -0.354 C  
HETATM   38  F   UNL     1     -11.685   8.461  72.914  1.00  0.00    -0.448 F  
HETATM   39  C   UNL     1     -13.030   7.052  71.532  1.00  0.00    -0.359 C  
HETATM   40  F   UNL     1     -13.640   9.211  72.335  1.00  0.00    -0.408 F  
HETATM   41  F   UNL     1     -12.927   6.786  70.212  1.00  0.00    -0.180 F  
HETATM   42  F   UNL     1     -12.294   6.129  72.194  1.00  0.00    -0.381 F  
HETATM   43  F   UNL     1     -14.325   6.834  71.873  1.00  0.00    -0.476 F  
ENDBRANCH  36  37
ENDBRANCH  35  36
ENDBRANCH  34  35
ENDBRANCH  32  34
ENDBRANCH  31  32
ENDBRANCH  30  31
ENDBRANCH  29  30
ENDBRANCH  28  29
ENDBRANCH  27  28
ENDBRANCH  26  27
ENDBRANCH  25  26
ENDBRANCH  24  25
ENDBRANCH  23  24
ENDBRANCH  21  23
TORSDOF 14
ENDMDL
MODEL        2
REMARK 921   NORMALIZED FREE ENERGY PREDICTED BY IDOCK:   -7.33 KCAL/MOL
REMARK 922        TOTAL FREE ENERGY PREDICTED BY IDOCK:  -16.62 KCAL/MOL
REMARK 923 INTER-LIGAND FREE ENERGY PREDICTED BY IDOCK:  -12.09 KCAL/MOL
REMARK 924 INTRA-LIGAND FREE ENERGY PREDICTED BY IDOCK:   -4.53 KCAL/MOL
REMARK 927      BINDING AFFINITY PREDICTED BY RF-SCORE:    0.00 PKD
ROOT
HETATM    1  C   UNL     1      -9.776   6.837  69.845  1.00  0.00    -0.164 C  
HETATM    2  C   UNL     1      -8.519   7.092  70.463  1.00  0.00    -0.139 C  
HETATM    3  C   UNL     1      -9.531   8.128  70.873  1.00  0.00    -0.186 C  
HETATM    4  C   UNL     1     -11.391   7.506  70.344  1.00  0.00    -0.233 C  
HETATM    5  O   UNL     1     -12.755   7.816  70.647  1.00  0.00    -0.513 OA 
HETATM    6  C   UNL     1     -10.785   6.975  71.456  1.00  0.00    -0.244 C  
HETATM    7  C   UNL     1     -11.276   8.597  72.178  1.00  0.00    -0.438 C  
HETATM    8  C   UNL     1     -11.070   5.732  72.221  1.00  0.00    -0.330 C  
HETATM    9  H   UNL     1     -13.625   7.526  70.400  1.00  0.00     0.000 HD 
HETATM   10  C   UNL     1     -11.461   9.864  70.935  1.00  0.00    -0.456 C  
HETATM   11  C   UNL     1     -10.728   9.786  69.391  1.00  0.00    -0.250 C  
HETATM   12  C   UNL     1     -11.189  10.756  68.296  1.00  0.00    -0.358 A  
HETATM   13  C   UNL     1     -11.850  11.950  68.641  1.00  0.00    -0.365 A  
HETATM   14  C   UNL     1     -12.098  12.948  67.691  1.00  0.00    -0.239 A  
HETATM   15  C   UNL     1     -11.695  12.756  66.379  1.00  0.00    -0.403 A  
HETATM   16  C   UNL     1     -11.033  11.593  66.010  1.00  0.00    -0.338 A  
HETATM   17  O   UNL     1     -11.909  13.698  65.417  1.00  0.00    -0.327 OA 
HETATM   18  C   UNL     1     -10.738  10.598  66.962  1.00  0.00    -0.317 A  
HETATM   19  H   UNL     1     -11.633  13.567  64.518  1.00  0.00     0.000 HD 
HETATM   20  C   UNL     1      -9.943   9.397  66.480  1.00  0.00    -0.339 C  
HETATM   21  C   UNL     1      -9.156   8.627  67.568  1.00  0.00    -0.146 C  
HETATM   22  C   UNL     1     -10.190   8.275  68.664  1.00  0.00    -0.223 C  
ENDROOT
BRANCH  21  23
HETATM   23  C   UNL     1      -7.965   9.457  68.088  1.00  0.00    -0.091 C  
BRANCH  23  24
HETATM   24  C   UNL     1      -7.086  10.110  67.038  1.00  0.00    -0.090 C  
BRANCH  24  25
HETATM   25  C   UNL     1      -6.969  11.620  67.297  1.00  0.00    -0.131 C  
BRANCH  25  26
HETATM   26  C   UNL     1      -7.759  12.124  68.517  1.00  0.00    -0.119 C  
BRANCH  26  27
HETATM   27  C   UNL     1      -8.446  13.472  68.301  1.00  0.00    -0.168 C  
BRANCH  27  28
HETATM   28  C   UNL     1      -7.459  14.544  67.835  1.00  0.00    -0.159 C  
BRANCH  28  29
HETATM   29  C   UNL     1      -7.137  15.580  68.914  1.00  0.00    -0.134 C  
BRANCH  29  30
HETATM   30  C   UNL     1      -7.859  16.927  68.758  1.00  0.00    -0.250 C  
BRANCH  30  31
HETATM   31  C   UNL     1      -8.370  17.234  67.357  1.00  0.00    -0.199 C  
BRANCH  31  32
HETATM   32  S   UNL     1     -10.188  17.348  67.295  1.00  0.00    -0.331 S  
HETATM   33  O   UNL     1     -10.686  16.124  66.584  1.00  0.00    -0.306 OA 
BRANCH  32  34
HETATM   34  C   UNL     1     -10.507  17.103  69.072  1.00  0.00    -0.321 C  
BRANCH  34  35
HETATM   35  C   UNL     1     -11.266  15.808  69.341  1.00  0.00    -0.324 C  
BRANCH  35  36
HETATM   36  C   UNL     1     -11.110  15.357  70.792  1.00  0.00    -0.371 C  
BRANCH  36  37
HETATM   37  C   UNL     1     -12.377  14.731  71.372  1.00  0.00    -0.337 C  
HETATM   38  F   UNL     1     -13.373  14.841  70.446  1.00  0.00    -0.342 F  
HETATM   39  C   UNL     1     -12.816  15.324  72.719  1.00  0.00    -0.413 C  
HETATM   40  F   UNL     1     -12.144  13.391  71.498  1.00  0.00    -0.317 F  
HETATM   41  F   UNL     1     -11.917  16.198  73.219  1.00  0.00    -0.511 F  
HETATM   42  F   UNL     1     -13.998  15.973  72.604  1.00  0.00    -0.599 F  
HETATM   43  F   UNL     1     -12.989  14.362  73.660  1.00  0.00    -0.567 F  
ENDBRANCH  36  37
ENDBRANCH  35  36
ENDBRANCH  34  35
ENDBRANCH  32  34
ENDBRANCH  31  32
ENDBRANCH  30  31
ENDBRANCH  29  30
ENDBRANCH  28  29
ENDBRANCH  27  28
ENDBRANCH  26  27
ENDBRANCH  25  26
ENDBRANCH  24  25
ENDBRANCH  23  24
ENDBRANCH  21  23
TORSDOF 14
ENDMDL
MODEL        3
REMARK 921   NORMALIZED FREE ENERGY PREDICTED BY IDOCK:   -7.06 KCAL/MOL
REMARK 922        TOTAL FREE ENERGY PREDICTED BY IDOCK:  -16.12 KCAL/MOL
REMARK 923 INTER-LIGAND FREE ENERGY PREDICTED BY IDOCK:  -11.76 KCAL/MOL
REMARK 924 INTRA-LIGAND FREE ENERGY PREDICTED BY IDOCK:   -4.36 KCAL/MOL
REMARK 927      BINDING AFFINITY PREDICTED BY RF-SCORE:    0.00 PKD
ROOT
HETATM    1  C   UNL     1      -9.939   7.951  68.756  1.00  0.00    -0.194 C  
HETATM    2  C   UNL     1      -8.575   8.007  69.160  1.00  0.00    -0.137 C  
HETATM    3  C   UNL     1      -9.483   8.343  70.311  1.00  0.00    -0.168 C  
HETATM    4  C   UNL     1     -11.393   7.834  69.840  1.00  0.00     0.019 C  
HETATM    5  O   UNL     1     -12.642   7.615  70.504  1.00  0.00    -0.495 OA 
HETATM    6  C   UNL     1     -10.500   6.860  70.214  1.00  0.00    -0.227 C  
HETATM    7  C   UNL     1     -10.847   7.549  71.887  1.00  0.00    -0.264 C  
HETATM    8  C   UNL     1     -10.531   5.386  70.024  1.00  0.00    -0.373 C  
HETATM    9  H   UNL     1     -13.535   7.378  70.284  1.00  0.00     0.000 HD 
HETATM   10  C   UNL     1     -11.394   9.247  71.820  1.00  0.00    -0.437 C  
HETATM   11  C   UNL     1     -11.084  10.288  70.498  1.00  0.00    -0.381 C  
HETATM   12  C   UNL     1     -11.848  11.613  70.397  1.00  0.00    -0.385 A  
HETATM   13  C   UNL     1     -12.441  12.178  71.542  1.00  0.00    -0.144 A  
HETATM   14  C   UNL     1     -12.963  13.476  71.529  1.00  0.00    -0.440 A  
HETATM   15  C   UNL     1     -12.907  14.222  70.362  1.00  0.00    -0.218 A  
HETATM   16  C   UNL     1     -12.322  13.697  69.220  1.00  0.00    -0.158 A  
HETATM   17  O   UNL     1     -13.398  15.493  70.299  1.00  0.00    -0.740 OA 
HETATM   18  C   UNL     1     -11.754  12.408  69.228  1.00  0.00    -0.386 A  
HETATM   19  H   UNL     1     -13.360  16.004  69.500  1.00  0.00     0.000 HD 
HETATM   20  C   UNL     1     -11.067  11.949  67.953  1.00  0.00    -0.297 C  
HETATM   21  C   UNL     1      -9.997  10.844  68.122  1.00  0.00    -0.188 C  
HETATM   22  C   UNL     1     -10.697   9.695  68.886  1.00  0.00    -0.230 C  
ENDROOT
BRANCH  21  23
HETATM   23  C   UNL     1      -8.743  11.385  68.839  1.00  0.00    -0.012 C  
BRANCH  23  24
HETATM   24  C   UNL     1      -7.613  11.870  67.949  1.00  0.00    -0.128 C  
BRANCH  24  25
HETATM   25  C   UNL     1      -6.703  10.699  67.548  1.00  0.00    -0.070 C  
BRANCH  25  26
HETATM   26  C   UNL     1      -6.796  10.294  66.067  1.00  0.00    -0.119 C  
BRANCH  26  27
HETATM   27  C   UNL     1      -7.544   8.983  65.825  1.00  0.00    -0.090 C  
BRANCH  27  28
HETATM   28  C   UNL     1      -8.973   9.227  65.338  1.00  0.00    -0.253 C  
BRANCH  28  29
HETATM   29  C   UNL     1      -9.098  10.436  64.409  1.00  0.00    -0.267 C  
BRANCH  29  30
HETATM   30  C   UNL     1     -10.511  11.034  64.309  1.00  0.00    -0.427 C  
BRANCH  30  31
HETATM   31  C   UNL     1     -10.602  12.375  63.594  1.00  0.00    -0.445 C  
BRANCH  31  32
HETATM   32  S   UNL     1     -12.319  12.969  63.458  1.00  0.00    -0.326 S  
HETATM   33  O   UNL     1     -13.172  12.059  64.291  1.00  0.00    -0.710 OA 
BRANCH  32  34
HETATM   34  C   UNL     1     -12.114  14.518  64.394  1.00  0.00    -0.472 C  
BRANCH  34  35
HETATM   35  C   UNL     1     -10.855  14.502  65.253  1.00  0.00    -0.377 C  
BRANCH  35  36
HETATM   36  C   UNL     1     -10.339  15.915  65.519  1.00  0.00    -0.425 C  
BRANCH  36  37
HETATM   37  C   UNL     1      -9.230  15.967  66.569  1.00  0.00    -0.276 C  
HETATM   38  F   UNL     1      -8.504  14.815  66.486  1.00  0.00    -0.250 F  
HETATM   39  C   UNL     1      -9.729  16.196  68.003  1.00  0.00    -0.229 C  
HETATM   40  F   UNL     1      -8.373  16.965  66.201  1.00  0.00    -0.284 F  
HETATM   41  F   UNL     1     -11.053  16.454  68.059  1.00  0.00    -0.333 F  
HETATM   42  F   UNL     1      -9.489  15.115  68.781  1.00  0.00    -0.178 F  
HETATM   43  F   UNL     1      -9.103  17.246  68.593  1.00  0.00    -0.244 F  
ENDBRANCH  36  37
ENDBRANCH  35  36
ENDBRANCH  34  35
ENDBRANCH  32  34
ENDBRANCH  31  32
ENDBRANCH  30  31
ENDBRANCH  29  30
ENDBRANCH  28  29
ENDBRANCH  27  28
ENDBRANCH  26  27
ENDBRANCH  25  26
ENDBRANCH  24  25
ENDBRANCH  23  24
ENDBRANCH  21  23
TORSDOF 14
ENDMDL
MODEL        4
REMARK 921   NORMALIZED FREE ENERGY PREDICTED BY IDOCK:   -7.01 KCAL/MOL
REMARK 922        TOTAL FREE ENERGY PREDICTED BY IDOCK:  -16.04 KCAL/MOL
REMARK 923 INTER-LIGAND FREE ENERGY PREDICTED BY IDOCK:  -11.99 KCAL/MOL
REMARK 924 INTRA-LIGAND FREE ENERGY PREDICTED BY IDOCK:   -4.04 KCAL/MOL
REMARK 927      BINDING AFFINITY PREDICTED BY RF-SCORE:    0.00 PKD
ROOT
HETATM    1  C   UNL     1      -9.910   7.799  68.830  1.00  0.00    -0.171 C  
HETATM    2  C   UNL     1      -8.564   7.858  69.290  1.00  0.00    -0.138 C  
HETATM    3  C   UNL     1      -9.522   8.145  70.414  1.00  0.00    -0.163 C  
HETATM    4  C   UNL     1     -11.404   7.629  69.851  1.00  0.00    -0.003 C  
HETATM    5  O   UNL     1     -12.676   7.374  70.456  1.00  0.00    -0.564 OA 
HETATM    6  C   UNL     1     -10.514   6.654  70.228  1.00  0.00    -0.247 C  
HETATM    7  C   UNL     1     -10.936   7.283  71.907  1.00  0.00    -0.260 C  
HETATM    8  C   UNL     1     -10.519   5.186  69.989  1.00  0.00    -0.305 C  
HETATM    9  H   UNL     1     -13.556   7.133  70.194  1.00  0.00     0.000 HD 
HETATM   10  C   UNL     1     -11.503   8.976  71.874  1.00  0.00    -0.440 C  
HETATM   11  C   UNL     1     -11.154  10.063  70.599  1.00  0.00    -0.408 C  
HETATM   12  C   UNL     1     -11.932  11.382  70.511  1.00  0.00    -0.451 A  
HETATM   13  C   UNL     1     -12.577  11.902  71.649  1.00  0.00    -0.237 A  
HETATM   14  C   UNL     1     -13.115  13.194  71.656  1.00  0.00    -0.444 A  
HETATM   15  C   UNL     1     -13.022  13.978  70.518  1.00  0.00    -0.133 A  
HETATM   16  C   UNL     1     -12.385  13.497  69.383  1.00  0.00    -0.162 A  
HETATM   17  O   UNL     1     -13.527  15.244  70.476  1.00  0.00    -0.693 OA 
HETATM   18  C   UNL     1     -11.801  12.216  69.372  1.00  0.00    -0.370 A  
HETATM   19  H   UNL     1     -13.464  15.782  69.696  1.00  0.00     0.000 HD 
HETATM   20  C   UNL     1     -11.058  11.807  68.112  1.00  0.00    -0.297 C  
HETATM   21  C   UNL     1      -9.982  10.710  68.288  1.00  0.00    -0.173 C  
HETATM   22  C   UNL     1     -10.696   9.528  68.985  1.00  0.00    -0.224 C  
ENDROOT
BRANCH  21  23
HETATM   23  C   UNL     1      -8.764  11.242  69.071  1.00  0.00     0.026 C  
BRANCH  23  24
HETATM   24  C   UNL     1      -7.604  11.764  68.244  1.00  0.00    -0.122 C  
BRANCH  24  25
HETATM   25  C   UNL     1      -6.811  10.599  67.633  1.00  0.00    -0.074 C  
BRANCH  25  26
HETATM   26  C   UNL     1      -7.058  10.373  66.132  1.00  0.00    -0.130 C  
BRANCH  26  27
HETATM   27  C   UNL     1      -7.645   9.002  65.797  1.00  0.00    -0.090 C  
BRANCH  27  28
HETATM   28  C   UNL     1      -9.114   9.100  65.383  1.00  0.00    -0.271 C  
BRANCH  28  29
HETATM   29  C   UNL     1      -9.372  10.162  64.312  1.00  0.00    -0.349 C  
BRANCH  29  30
HETATM   30  C   UNL     1     -10.630  11.016  64.534  1.00  0.00    -0.383 C  
BRANCH  30  31
HETATM   31  C   UNL     1     -10.529  12.460  64.063  1.00  0.00    -0.416 C  
BRANCH  31  32
HETATM   32  S   UNL     1     -12.146  13.301  64.064  1.00  0.00    -0.439 S  
HETATM   33  O   UNL     1     -13.194  12.249  64.285  1.00  0.00    -0.785 OA 
BRANCH  32  34
HETATM   34  C   UNL     1     -11.951  14.201  65.635  1.00  0.00    -0.396 C  
BRANCH  34  35
HETATM   35  C   UNL     1     -10.530  14.724  65.819  1.00  0.00    -0.348 C  
BRANCH  35  36
HETATM   36  C   UNL     1     -10.523  16.188  66.255  1.00  0.00    -0.321 C  
BRANCH  36  37
HETATM   37  C   UNL     1     -10.401  16.369  67.766  1.00  0.00    -0.287 C  
HETATM   38  F   UNL     1     -11.656  16.461  68.292  1.00  0.00    -0.344 F  
HETATM   39  C   UNL     1      -9.541  17.568  68.192  1.00  0.00    -0.294 C  
HETATM   40  F   UNL     1      -9.880  15.211  68.270  1.00  0.00    -0.210 F  
HETATM   41  F   UNL     1      -8.929  18.166  67.147  1.00  0.00    -0.243 F  
HETATM   42  F   UNL     1     -10.289  18.506  68.820  1.00  0.00    -0.374 F  
HETATM   43  F   UNL     1      -8.564  17.205  69.061  1.00  0.00    -0.260 F  
ENDBRANCH  36  37
ENDBRANCH  35  36
ENDBRANCH  34  35
ENDBRANCH  32  34
ENDBRANCH  31  32
ENDBRANCH  30  31
ENDBRANCH  29  30
ENDBRANCH  28  29
ENDBRANCH  27  28
ENDBRANCH  26  27
ENDBRANCH  25  26
ENDBRANCH  24  25
ENDBRANCH  23  24
ENDBRANCH  21  23
TORSDOF 14
ENDMDL
MODEL        5
REMARK 921   NORMALIZED FREE ENERGY PREDICTED BY IDOCK:   -6.96 KCAL/MOL
REMARK 922        TOTAL FREE ENERGY PREDICTED BY IDOCK:  -15.95 KCAL/MOL
REMARK 923 INTER-LIGAND FREE ENERGY PREDICTED BY IDOCK:  -12.89 KCAL/MOL
REMARK 924 INTRA-LIGAND FREE ENERGY PREDICTED BY IDOCK:   -3.06 KCAL/MOL
REMARK 927      BINDING AFFINITY PREDICTED BY RF-SCORE:    0.00 PKD
ROOT
HETATM    1  C   UNL     1     -10.367   8.573  71.857  1.00  0.00    -0.378 C  
HETATM    2  C   UNL     1     -11.756   8.725  72.126  1.00  0.00    -0.433 C  
HETATM    3  C   UNL     1     -11.545   7.899  70.888  1.00  0.00    -0.286 C  
HETATM    4  C   UNL     1      -9.597   7.333  70.774  1.00  0.00    -0.171 C  
HETATM    5  O   UNL     1      -8.795   6.372  70.079  1.00  0.00    -0.140 OA 
HETATM    6  C   UNL     1     -10.447   6.681  71.634  1.00  0.00    -0.232 C  
HETATM    7  C   UNL     1     -11.011   5.895  70.067  1.00  0.00    -0.430 C  
HETATM    8  C   UNL     1     -10.168   5.818  72.812  1.00  0.00    -0.211 C  
HETATM    9  H   UNL     1      -7.884   6.107  70.026  1.00  0.00     0.000 HD 
HETATM   10  C   UNL     1     -10.688   6.919  68.640  1.00  0.00    -0.256 C  
HETATM   11  C   UNL     1     -10.447   8.610  68.727  1.00  0.00    -0.209 C  
HETATM   12  C   UNL     1      -9.877   9.346  67.508  1.00  0.00    -0.220 A  
HETATM   13  C   UNL     1      -9.963   8.767  66.227  1.00  0.00    -0.315 A  
HETATM   14  C   UNL     1      -9.643   9.494  65.075  1.00  0.00    -0.218 A  
HETATM   15  C   UNL     1      -9.222  10.809  65.193  1.00  0.00    -0.209 A  
HETATM   16  C   UNL     1      -9.135  11.410  66.441  1.00  0.00    -0.201 A  
HETATM   17  O   UNL     1      -8.902  11.560  64.101  1.00  0.00    -0.377 OA 
HETATM   18  C   UNL     1      -9.494  10.706  67.606  1.00  0.00    -0.167 A  
HETATM   19  H   UNL     1      -8.613  12.461  64.181  1.00  0.00     0.000 HD 
HETATM   20  C   UNL     1      -9.440  11.471  68.918  1.00  0.00    -0.027 C  
HETATM   21  C   UNL     1     -10.334  10.924  70.056  1.00  0.00     0.272 C  
HETATM   22  C   UNL     1      -9.957   9.431  70.205  1.00  0.00    -0.284 C  
ENDROOT
BRANCH  21  23
HETATM   23  C   UNL     1     -11.829  11.155  69.753  1.00  0.00    -0.422 C  
BRANCH  23  24
HETATM   24  C   UNL     1     -12.468  12.372  70.395  1.00  0.00    -0.214 C  
BRANCH  24  25
HETATM   25  C   UNL     1     -13.106  11.998  71.742  1.00  0.00    -0.460 C  
BRANCH  25  26
HETATM   26  C   UNL     1     -13.753  13.174  72.494  1.00  0.00    -0.563 C  
BRANCH  26  27
HETATM   27  C   UNL     1     -13.761  14.485  71.709  1.00  0.00    -0.501 C  
BRANCH  27  28
HETATM   28  C   UNL     1     -13.082  15.615  72.484  1.00  0.00    -0.559 C  
BRANCH  28  29
HETATM   29  C   UNL     1     -11.794  16.112  71.827  1.00  0.00    -0.581 C  
BRANCH  29  30
HETATM   30  C   UNL     1     -11.683  15.831  70.320  1.00  0.00    -0.373 C  
BRANCH  30  31
HETATM   31  C   UNL     1     -10.269  15.848  69.755  1.00  0.00    -0.268 C  
BRANCH  31  32
HETATM   32  S   UNL     1     -10.068  17.088  68.434  1.00  0.00    -0.323 S  
HETATM   33  O   UNL     1      -8.902  17.953  68.811  1.00  0.00    -0.279 OA 
BRANCH  32  34
HETATM   34  C   UNL     1      -9.496  15.957  67.126  1.00  0.00    -0.213 C  
BRANCH  34  35
HETATM   35  C   UNL     1     -10.432  15.958  65.922  1.00  0.00    -0.373 C  
BRANCH  35  36
HETATM   36  C   UNL     1     -10.237  14.713  65.058  1.00  0.00    -0.395 C  
BRANCH  36  37
HETATM   37  C   UNL     1     -11.544  14.157  64.495  1.00  0.00    -0.389 C  
HETATM   38  F   UNL     1     -12.192  15.163  63.839  1.00  0.00    -0.421 F  
HETATM   39  C   UNL     1     -12.460  13.510  65.544  1.00  0.00    -0.491 C  
HETATM   40  F   UNL     1     -11.212  13.248  63.531  1.00  0.00    -0.378 F  
HETATM   41  F   UNL     1     -11.878  13.422  66.759  1.00  0.00    -0.350 F  
HETATM   42  F   UNL     1     -13.608  14.213  65.689  1.00  0.00    -0.386 F  
HETATM   43  F   UNL     1     -12.818  12.250  65.192  1.00  0.00    -0.458 F  
ENDBRANCH  36  37
ENDBRANCH  35  36
ENDBRANCH  34  35
ENDBRANCH  32  34
ENDBRANCH  31  32
ENDBRANCH  30  31
ENDBRANCH  29  30
ENDBRANCH  28  29
ENDBRANCH  27  28
ENDBRANCH  26  27
ENDBRANCH  25  26
ENDBRANCH  24  25
ENDBRANCH  23  24
ENDBRANCH  21  23
TORSDOF 14
ENDMDL
MODEL        6
REMARK 921   NORMALIZED FREE ENERGY PREDICTED BY IDOCK:   -6.89 KCAL/MOL
REMARK 922        TOTAL FREE ENERGY PREDICTED BY IDOCK:  -15.81 KCAL/MOL
REMARK 923 INTER-LIGAND FREE ENERGY PREDICTED BY IDOCK:  -11.59 KCAL/MOL
REMARK 924 INTRA-LIGAND FREE ENERGY PREDICTED BY IDOCK:   -4.22 KCAL/MOL
REMARK 927      BINDING AFFINITY PREDICTED BY RF-SCORE:    0.00 PKD
ROOT
HETATM    1  C   UNL     1      -8.728   7.948  66.827  1.00  0.00    -0.143 C  
HETATM    2  C   UNL     1      -7.431   7.738  67.373  1.00  0.00    -0.093 C  
HETATM    3  C   UNL     1      -8.403   6.722  67.909  1.00  0.00    -0.120 C  
HETATM    4  C   UNL     1     -10.107   6.764  66.804  1.00  0.00    -0.183 C  
HETATM    5  O   UNL     1     -11.258   5.945  66.572  1.00  0.00    -0.724 OA 
HETATM    6  C   UNL     1      -8.990   6.132  66.313  1.00  0.00    -0.162 C  
HETATM    7  C   UNL     1      -9.518   4.834  67.509  1.00  0.00    -0.171 C  
HETATM    8  C   UNL     1      -8.630   5.729  64.928  1.00  0.00    -0.065 C  
HETATM    9  H   UNL     1     -12.055   5.964  66.056  1.00  0.00     0.000 HD 
HETATM   10  C   UNL     1     -10.494   5.501  68.847  1.00  0.00    -0.282 C  
HETATM   11  C   UNL     1     -10.462   7.147  69.309  1.00  0.00    -0.220 C  
HETATM   12  C   UNL     1     -11.549   7.679  70.251  1.00  0.00    -0.079 A  
HETATM   13  C   UNL     1     -12.277   6.790  71.065  1.00  0.00    -0.405 A  
HETATM   14  C   UNL     1     -13.123   7.255  72.077  1.00  0.00    -0.187 A  
HETATM   15  C   UNL     1     -13.259   8.619  72.280  1.00  0.00    -0.372 A  
HETATM   16  C   UNL     1     -12.548   9.520  71.501  1.00  0.00    -0.462 A  
HETATM   17  O   UNL     1     -14.068   9.123  73.256  1.00  0.00    -1.165 OA 
HETATM   18  C   UNL     1     -11.660   9.069  70.506  1.00  0.00    -0.209 A  
HETATM   19  H   UNL     1     -14.161  10.057  73.396  1.00  0.00     0.000 HD 
HETATM   20  C   UNL     1     -10.868  10.126  69.756  1.00  0.00    -0.320 C  
HETATM   21  C   UNL     1      -9.545   9.648  69.111  1.00  0.00    -0.176 C  
HETATM   22  C   UNL     1      -9.921   8.432  68.232  1.00  0.00    -0.214 C  
ENDROOT
BRANCH  21  23
HETATM   23  C   UNL     1      -8.483   9.329  70.183  1.00  0.00    -0.206 C  
BRANCH  23  24
HETATM   24  C   UNL     1      -7.189  10.119  70.109  1.00  0.00    -0.162 C  
BRANCH  24  25
HETATM   25  C   UNL     1      -7.293  11.223  69.046  1.00  0.00    -0.115 C  
BRANCH  25  26
HETATM   26  C   UNL     1      -6.210  11.166  67.955  1.00  0.00    -0.053 C  
BRANCH  26  27
HETATM   27  C   UNL     1      -6.734  11.432  66.544  1.00  0.00    -0.070 C  
BRANCH  27  28
HETATM   28  C   UNL     1      -8.257  11.565  66.520  1.00  0.00    -0.129 C  
BRANCH  28  29
HETATM   29  C   UNL     1      -8.909  10.856  65.330  1.00  0.00    -0.192 C  
BRANCH  29  30
HETATM   30  C   UNL     1     -10.330  11.331  64.991  1.00  0.00    -0.359 C  
BRANCH  30  31
HETATM   31  C   UNL     1     -10.411  12.547  64.078  1.00  0.00    -0.422 C  
BRANCH  31  32
HETATM   32  S   UNL     1     -12.127  12.942  63.605  1.00  0.00    -0.533 S  
HETATM   33  O   UNL     1     -13.027  12.068  64.427  1.00  0.00    -0.600 OA 
BRANCH  32  34
HETATM   34  C   UNL     1     -12.198  14.613  64.326  1.00  0.00    -0.408 C  
BRANCH  34  35
HETATM   35  C   UNL     1     -11.441  14.696  65.647  1.00  0.00    -0.340 C  
BRANCH  35  36
HETATM   36  C   UNL     1     -12.318  14.275  66.824  1.00  0.00    -0.280 C  
BRANCH  36  37
HETATM   37  C   UNL     1     -11.559  13.494  67.896  1.00  0.00    -0.342 C  
HETATM   38  F   UNL     1     -11.842  12.168  67.744  1.00  0.00    -0.371 F  
HETATM   39  C   UNL     1     -11.846  13.952  69.333  1.00  0.00    -0.334 C  
HETATM   40  F   UNL     1     -10.227  13.617  67.617  1.00  0.00    -0.228 F  
HETATM   41  F   UNL     1     -12.613  15.063  69.382  1.00  0.00    -0.240 F  
HETATM   42  F   UNL     1     -12.480  12.985  70.036  1.00  0.00    -0.316 F  
HETATM   43  F   UNL     1     -10.704  14.238  70.008  1.00  0.00    -0.139 F  
ENDBRANCH  36  37
ENDBRANCH  35  36
ENDBRANCH  34  35
ENDBRANCH  32  34
ENDBRANCH  31  32
ENDBRANCH  30  31
ENDBRANCH  29  30
ENDBRANCH  28  29
ENDBRANCH  27  28
ENDBRANCH  26  27
ENDBRANCH  25  26
ENDBRANCH  24  25
ENDBRANCH  23  24
ENDBRANCH  21  23
TORSDOF 14
ENDMDL
MODEL        7
REMARK 921   NORMALIZED FREE ENERGY PREDICTED BY IDOCK:   -6.85 KCAL/MOL
REMARK 922        TOTAL FREE ENERGY PREDICTED BY IDOCK:  -15.74 KCAL/MOL
REMARK 923 INTER-LIGAND FREE ENERGY PREDICTED BY IDOCK:  -11.47 KCAL/MOL
REMARK 924 INTRA-LIGAND FREE ENERGY PREDICTED BY IDOCK:   -4.28 KCAL/MOL
REMARK 927      BINDING AFFINITY PREDICTED BY RF-SCORE:    0.00 PKD
ROOT
HETATM    1  C   UNL     1     -10.087  12.349  65.250  1.00  0.00    -0.285 C  
HETATM    2  C   UNL     1     -10.439  11.380  66.232  1.00  0.00    -0.301 C  
HETATM    3  C   UNL     1     -11.299  12.608  66.366  1.00  0.00    -0.381 C  
HETATM    4  C   UNL     1     -11.085  13.769  64.713  1.00  0.00    -0.377 C  
HETATM    5  O   UNL     1     -11.759  14.856  64.068  1.00  0.00    -0.673 OA 
HETATM    6  C   UNL     1     -11.875  12.646  64.660  1.00  0.00    -0.437 C  
HETATM    7  C   UNL     1     -13.044  13.743  65.567  1.00  0.00    -0.210 C  
HETATM    8  C   UNL     1     -12.376  11.863  63.500  1.00  0.00    -0.603 C  
HETATM    9  H   UNL     1     -11.659  15.399  63.296  1.00  0.00     0.000 HD 
HETATM   10  C   UNL     1     -12.204  15.040  66.460  1.00  0.00     0.268 C  
HETATM   11  C   UNL     1     -10.557  14.959  66.917  1.00  0.00    -0.300 C  
HETATM   12  C   UNL     1      -9.853  16.232  67.399  1.00  0.00    -0.242 A  
HETATM   13  C   UNL     1     -10.607  17.319  67.882  1.00  0.00    -0.384 A  
HETATM   14  C   UNL     1      -9.996  18.406  68.517  1.00  0.00    -0.415 A  
HETATM   15  C   UNL     1      -8.619  18.422  68.668  1.00  0.00    -0.292 A  
HETATM   16  C   UNL     1      -7.849  17.362  68.211  1.00  0.00    -0.247 A  
HETATM   17  O   UNL     1      -7.977  19.456  69.284  1.00  0.00    -0.277 OA 
HETATM   18  C   UNL     1      -8.451  16.241  67.608  1.00  0.00    -0.178 A  
HETATM   19  H   UNL     1      -7.033  19.467  69.387  1.00  0.00     0.000 HD 
HETATM   20  C   UNL     1      -7.535  15.097  67.210  1.00  0.00    -0.228 C  
HETATM   21  C   UNL     1      -8.204  13.706  67.090  1.00  0.00    -0.123 C  
HETATM   22  C   UNL     1      -9.398  13.896  66.125  1.00  0.00    -0.124 C  
ENDROOT
BRANCH  21  23
HETATM   23  C   UNL     1      -8.612  13.161  68.475  1.00  0.00    -0.056 C  
BRANCH  23  24
HETATM   24  C   UNL     1      -7.852  11.946  68.974  1.00  0.00     0.099 C  
BRANCH  24  25
HETATM   25  C   UNL     1      -6.999  11.345  67.846  1.00  0.00    -0.073 C  
BRANCH  25  26
HETATM   26  C   UNL     1      -6.794   9.823  67.941  1.00  0.00    -0.073 C  
BRANCH  26  27
HETATM   27  C   UNL     1      -8.077   9.010  67.771  1.00  0.00    -0.109 C  
BRANCH  27  28
HETATM   28  C   UNL     1      -8.265   8.003  68.906  1.00  0.00    -0.125 C  
BRANCH  28  29
HETATM   29  C   UNL     1      -9.633   8.104  69.585  1.00  0.00    -0.168 C  
BRANCH  29  30
HETATM   30  C   UNL     1     -10.497   9.292  69.132  1.00  0.00    -0.231 C  
BRANCH  30  31
HETATM   31  C   UNL     1     -10.955  10.226  70.243  1.00  0.00    -0.309 C  
BRANCH  31  32
HETATM   32  S   UNL     1     -12.277   9.493  71.261  1.00  0.00    -0.369 S  
HETATM   33  O   UNL     1     -11.619   8.830  72.435  1.00  0.00    -0.352 OA 
BRANCH  32  34
HETATM   34  C   UNL     1     -13.008  11.048  71.865  1.00  0.00    -0.380 C  
BRANCH  34  35
HETATM   35  C   UNL     1     -12.552  12.249  71.042  1.00  0.00    -0.352 C  
BRANCH  35  36
HETATM   36  C   UNL     1     -13.191  13.545  71.539  1.00  0.00    -0.402 C  
BRANCH  36  37
HETATM   37  C   UNL     1     -12.699  14.786  70.797  1.00  0.00    -0.362 C  
HETATM   38  F   UNL     1     -12.462  14.445  69.497  1.00  0.00    -0.352 F  
HETATM   39  C   UNL     1     -11.460  15.446  71.422  1.00  0.00    -0.406 C  
HETATM   40  F   UNL     1     -13.738  15.671  70.758  1.00  0.00    -0.504 F  
HETATM   41  F   UNL     1     -11.114  14.889  72.602  1.00  0.00    -0.366 F  
HETATM   42  F   UNL     1     -10.391  15.355  70.597  1.00  0.00    -0.321 F  
HETATM   43  F   UNL     1     -11.659  16.767  71.657  1.00  0.00    -0.445 F  
ENDBRANCH  36  37
ENDBRANCH  35  36
ENDBRANCH  34  35
ENDBRANCH  32  34
ENDBRANCH  31  32
ENDBRANCH  30  31
ENDBRANCH  29  30
ENDBRANCH  28  29
ENDBRANCH  27  28
ENDBRANCH  26  27
ENDBRANCH  25  26
ENDBRANCH  24  25
ENDBRANCH  23  24
ENDBRANCH  21  23
TORSDOF 14
ENDMDL
MODEL        8
REMARK 921   NORMALIZED FREE ENERGY PREDICTED BY IDOCK:   -6.80 KCAL/MOL
REMARK 922        TOTAL FREE ENERGY PREDICTED BY IDOCK:  -15.66 KCAL/MOL
REMARK 923 INTER-LIGAND FREE ENERGY PREDICTED BY IDOCK:  -12.54 KCAL/MOL
REMARK 924 INTRA-LIGAND FREE ENERGY PREDICTED BY IDOCK:   -3.12 KCAL/MOL
REMARK 927      BINDING AFFINITY PREDICTED BY RF-SCORE:    0.00 PKD
ROOT
HETATM    1  C   UNL     1      -7.812  16.526  69.141  1.00  0.00    -0.192 C  
HETATM    2  C   UNL     1      -6.502  16.153  68.728  1.00  0.00    -0.122 C  
HETATM    3  C   UNL     1      -7.291  16.692  67.565  1.00  0.00    -0.173 C  
HETATM    4  C   UNL     1      -8.968  17.610  68.251  1.00  0.00    -0.276 C  
HETATM    5  O   UNL     1      -9.961  18.528  67.779  1.00  0.00    -0.314 OA 
HETATM    6  C   UNL     1      -7.756  18.252  68.335  1.00  0.00    -0.312 C  
HETATM    7  C   UNL     1      -8.064  18.513  66.537  1.00  0.00    -0.299 C  
HETATM    8  C   UNL     1      -7.321  19.406  69.164  1.00  0.00    -0.364 C  
HETATM    9  H   UNL     1     -10.745  18.957  68.099  1.00  0.00     0.000 HD 
HETATM   10  C   UNL     1      -9.150  17.274  65.849  1.00  0.00     0.001 C  
HETATM   11  C   UNL     1      -9.403  15.739  66.560  1.00  0.00    -0.312 C  
HETATM   12  C   UNL     1     -10.572  14.875  66.073  1.00  0.00    -0.321 A  
HETATM   13  C   UNL     1     -11.145  15.106  64.808  1.00  0.00    -0.395 A  
HETATM   14  C   UNL     1     -12.066  14.213  64.250  1.00  0.00    -0.471 A  
HETATM   15  C   UNL     1     -12.435  13.081  64.959  1.00  0.00    -0.477 A  
HETATM   16  C   UNL     1     -11.882  12.821  66.205  1.00  0.00    -0.484 A  
HETATM   17  O   UNL     1     -13.325  12.178  64.458  1.00  0.00    -0.691 OA 
HETATM   18  C   UNL     1     -10.921  13.687  66.762  1.00  0.00    -0.297 A  
HETATM   19  H   UNL     1     -13.578  11.402  64.943  1.00  0.00     0.000 HD 
HETATM   20  C   UNL     1     -10.316  13.279  68.094  1.00  0.00    -0.246 C  
HETATM   21  C   UNL     1      -8.926  13.878  68.416  1.00  0.00    -0.178 C  
HETATM   22  C   UNL     1      -9.082  15.410  68.260  1.00  0.00    -0.187 C  
ENDROOT
BRANCH  21  23
HETATM   23  C   UNL     1      -7.833  13.275  67.509  1.00  0.00    -0.173 C  
BRANCH  23  24
HETATM   24  C   UNL     1      -7.928  11.785  67.237  1.00  0.00    -0.161 C  
BRANCH  24  25
HETATM   25  C   UNL     1      -7.511  10.983  68.478  1.00  0.00    -0.106 C  
BRANCH  25  26
HETATM   26  C   UNL     1      -8.145   9.585  68.582  1.00  0.00    -0.097 C  
BRANCH  26  27
HETATM   27  C   UNL     1      -8.849   9.126  67.305  1.00  0.00    -0.132 C  
BRANCH  27  28
HETATM   28  C   UNL     1     -10.310   8.753  67.565  1.00  0.00    -0.334 C  
BRANCH  28  29
HETATM   29  C   UNL     1     -10.666   7.340  67.099  1.00  0.00    -0.413 C  
BRANCH  29  30
HETATM   30  C   UNL     1     -10.423   6.234  68.138  1.00  0.00    -0.278 C  
BRANCH  30  31
HETATM   31  C   UNL     1     -11.263   6.330  69.403  1.00  0.00    -0.420 C  
BRANCH  31  32
HETATM   32  S   UNL     1     -10.316   5.892  70.897  1.00  0.00    -0.242 S  
HETATM   33  O   UNL     1      -9.174   6.860  70.999  1.00  0.00    -0.155 OA 
BRANCH  32  34
HETATM   34  C   UNL     1     -11.559   6.397  72.129  1.00  0.00    -0.313 C  
BRANCH  34  35
HETATM   35  C   UNL     1     -12.461   7.508  71.605  1.00  0.00    -0.371 C  
BRANCH  35  36
HETATM   36  C   UNL     1     -11.990   8.884  72.075  1.00  0.00    -0.439 C  
BRANCH  36  37
HETATM   37  C   UNL     1     -12.758  10.038  71.435  1.00  0.00    -0.415 C  
HETATM   38  F   UNL     1     -13.876   9.534  70.839  1.00  0.00    -0.379 F  
HETATM   39  C   UNL     1     -11.936  10.868  70.437  1.00  0.00    -0.362 C  
HETATM   40  F   UNL     1     -13.212  10.832  72.449  1.00  0.00    -0.529 F  
HETATM   41  F   UNL     1     -10.633  10.512  70.414  1.00  0.00    -0.318 F  
HETATM   42  F   UNL     1     -12.419  10.739  69.180  1.00  0.00    -0.362 F  
HETATM   43  F   UNL     1     -11.972  12.192  70.733  1.00  0.00    -0.432 F  
ENDBRANCH  36  37
ENDBRANCH  35  36
ENDBRANCH  34  35
ENDBRANCH  32  34
ENDBRANCH  31  32
ENDBRANCH  30  31
ENDBRANCH  29  30
ENDBRANCH  28  29
ENDBRANCH  27  28
ENDBRANCH  26  27
ENDBRANCH  25  26
ENDBRANCH  24  25
ENDBRANCH  23  24
ENDBRANCH  21  23
TORSDOF 14
ENDMDL
MODEL        9
REMARK 921   NORMALIZED FREE ENERGY PREDICTED BY IDOCK:   -6.79 KCAL/MOL
REMARK 922        TOTAL FREE ENERGY PREDICTED BY IDOCK:  -15.63 KCAL/MOL
REMARK 923 INTER-LIGAND FREE ENERGY PREDICTED BY IDOCK:  -12.28 KCAL/MOL
REMARK 924 INTRA-LIGAND FREE ENERGY PREDICTED BY IDOCK:   -3.35 KCAL/MOL
REMARK 927      BINDING AFFINITY PREDICTED BY RF-SCORE:    0.00 PKD
ROOT
HETATM    1  C   UNL     1      -9.343  15.202  66.280  1.00  0.00    -0.348 C  
HETATM    2  C   UNL     1     -10.242  15.432  65.200  1.00  0.00    -0.360 C  
HETATM    3  C   UNL     1     -10.776  16.033  66.472  1.00  0.00    -0.238 C  
HETATM    4  C   UNL     1      -9.304  16.079  67.871  1.00  0.00    -0.208 C  
HETATM    5  O   UNL     1      -9.027  16.724  69.119  1.00  0.00    -0.226 OA 
HETATM    6  C   UNL     1      -9.319  17.015  66.866  1.00  0.00    -0.263 C  
HETATM    7  C   UNL     1     -10.657  17.733  67.909  1.00  0.00    -0.389 C  
HETATM    8  C   UNL     1      -8.249  17.910  66.353  1.00  0.00    -0.287 C  
HETATM    9  H   UNL     1      -8.339  16.746  69.773  1.00  0.00     0.000 HD 
HETATM   10  C   UNL     1     -11.450  16.506  68.935  1.00  0.00    -0.131 C  
HETATM   11  C   UNL     1     -11.415  14.829  68.598  1.00  0.00    -0.325 C  
HETATM   12  C   UNL     1     -11.853  13.841  69.686  1.00  0.00    -0.393 A  
HETATM   13  C   UNL     1     -12.670  14.272  70.748  1.00  0.00    -0.419 A  
HETATM   14  C   UNL     1     -13.253  13.363  71.637  1.00  0.00    -0.449 A  
HETATM   15  C   UNL     1     -13.016  12.007  71.478  1.00  0.00    -0.304 A  
HETATM   16  C   UNL     1     -12.223  11.549  70.435  1.00  0.00    -0.442 A  
HETATM   17  O   UNL     1     -13.565  11.080  72.314  1.00  0.00    -0.550 OA 
HETATM   18  C   UNL     1     -11.663  12.448  69.507  1.00  0.00    -0.388 A  
HETATM   19  H   UNL     1     -13.403  10.150  72.205  1.00  0.00     0.000 HD 
HETATM   20  C   UNL     1     -10.874  11.848  68.356  1.00  0.00    -0.263 C  
HETATM   21  C   UNL     1     -10.756  12.727  67.088  1.00  0.00    -0.264 C  
HETATM   22  C   UNL     1     -10.195  14.086  67.569  1.00  0.00    -0.244 C  
ENDROOT
BRANCH  21  23
HETATM   23  C   UNL     1     -12.111  12.843  66.360  1.00  0.00    -0.400 C  
BRANCH  23  24
HETATM   24  C   UNL     1     -12.186  12.234  64.972  1.00  0.00    -0.374 C  
BRANCH  24  25
HETATM   25  C   UNL     1     -10.778  12.061  64.383  1.00  0.00    -0.369 C  
BRANCH  25  26
HETATM   26  C   UNL     1     -10.279  10.607  64.331  1.00  0.00    -0.400 C  
BRANCH  26  27
HETATM   27  C   UNL     1      -8.815  10.436  64.736  1.00  0.00    -0.211 C  
BRANCH  27  28
HETATM   28  C   UNL     1      -8.680   9.800  66.120  1.00  0.00    -0.150 C  
BRANCH  28  29
HETATM   29  C   UNL     1      -9.871   8.917  66.500  1.00  0.00    -0.344 C  
BRANCH  29  30
HETATM   30  C   UNL     1      -9.556   7.418  66.620  1.00  0.00    -0.251 C  
BRANCH  30  31
HETATM   31  C   UNL     1     -10.726   6.536  67.032  1.00  0.00    -0.364 C  
BRANCH  31  32
HETATM   32  S   UNL     1     -10.207   5.151  68.096  1.00  0.00    -0.068 S  
HETATM   33  O   UNL     1      -9.680   4.072  67.196  1.00  0.00    -0.205 OA 
BRANCH  32  34
HETATM   34  C   UNL     1      -8.766   5.961  68.862  1.00  0.00    -0.116 C  
BRANCH  34  35
HETATM   35  C   UNL     1      -9.126   6.632  70.183  1.00  0.00    -0.155 C  
BRANCH  35  36
HETATM   36  C   UNL     1     -10.550   6.291  70.617  1.00  0.00    -0.301 C  
BRANCH  36  37
HETATM   37  C   UNL     1     -11.381   7.518  70.986  1.00  0.00    -0.273 C  
HETATM   38  F   UNL     1     -11.394   8.366  69.917  1.00  0.00    -0.217 F  
HETATM   39  C   UNL     1     -10.908   8.244  72.254  1.00  0.00    -0.338 C  
HETATM   40  F   UNL     1     -12.674   7.100  71.135  1.00  0.00    -0.372 F  
HETATM   41  F   UNL     1      -9.923   7.580  72.896  1.00  0.00    -0.208 F  
HETATM   42  F   UNL     1     -10.445   9.483  71.962  1.00  0.00    -0.323 F  
HETATM   43  F   UNL     1     -11.916   8.407  73.147  1.00  0.00    -0.353 F  
ENDBRANCH  36  37
ENDBRANCH  35  36
ENDBRANCH  34  35
ENDBRANCH  32  34
ENDBRANCH  31  32
ENDBRANCH  30  31
ENDBRANCH  29  30
ENDBRANCH  28  29
ENDBRANCH  27  28
ENDBRANCH  26  27
ENDBRANCH  25  26
ENDBRANCH  24  25
ENDBRANCH  23  24
ENDBRANCH  21  23
TORSDOF 14
ENDMDL
MODEL       10
REMARK 921   NORMALIZED FREE ENERGY PREDICTED BY IDOCK:   -6.73 KCAL/MOL
REMARK 922        TOTAL FREE ENERGY PREDICTED BY IDOCK:  -15.54 KCAL/MOL
REMARK 923 INTER-LIGAND FREE ENERGY PREDICTED BY IDOCK:  -12.16 KCAL/MOL
REMARK 924 INTRA-LIGAND FREE ENERGY PREDICTED BY IDOCK:   -3.38 KCAL/MOL
REMARK 927      BINDING AFFINITY PREDICTED BY RF-SCORE:    0.00 PKD
ROOT
HETATM    1  C   UNL     1      -8.395   8.281  67.220  1.00  0.00    -0.124 C  
HETATM    2  C   UNL     1      -7.158   7.932  67.832  1.00  0.00    -0.086 C  
HETATM    3  C   UNL     1      -8.220   6.922  68.171  1.00  0.00    -0.119 C  
HETATM    4  C   UNL     1      -9.825   7.191  66.955  1.00  0.00    -0.198 C  
HETATM    5  O   UNL     1     -10.994   6.474  66.543  1.00  0.00    -0.537 OA 
HETATM    6  C   UNL     1      -8.706   6.554  66.477  1.00  0.00    -0.135 C  
HETATM    7  C   UNL     1      -9.394   5.161  67.467  1.00  0.00    -0.131 C  
HETATM    8  C   UNL     1      -8.256   6.292  65.084  1.00  0.00    -0.138 C  
HETATM    9  H   UNL     1     -11.745   6.599  65.974  1.00  0.00     0.000 HD 
HETATM   10  C   UNL     1     -10.440   5.728  68.799  1.00  0.00    -0.312 C  
HETATM   11  C   UNL     1     -10.362   7.306  69.454  1.00  0.00    -0.212 C  
HETATM   12  C   UNL     1     -11.493   7.790  70.370  1.00  0.00    -0.171 A  
HETATM   13  C   UNL     1     -12.329   6.860  71.016  1.00  0.00    -0.401 A  
HETATM   14  C   UNL     1     -13.230   7.255  72.010  1.00  0.00    -0.181 A  
HETATM   15  C   UNL     1     -13.312   8.593  72.363  1.00  0.00    -0.343 A  
HETATM   16  C   UNL     1     -12.496   9.533  71.751  1.00  0.00    -0.484 A  
HETATM   17  O   UNL     1     -14.171   9.029  73.329  1.00  0.00    -1.192 OA 
HETATM   18  C   UNL     1     -11.554   9.146  70.778  1.00  0.00    -0.329 A  
HETATM   19  H   UNL     1     -14.228   9.945  73.571  1.00  0.00     0.000 HD 
HETATM   20  C   UNL     1     -10.652  10.233  70.220  1.00  0.00    -0.264 C  
HETATM   21  C   UNL     1      -9.307   9.755  69.623  1.00  0.00    -0.237 C  
HETATM   22  C   UNL     1      -9.672   8.671  68.581  1.00  0.00    -0.171 C  
ENDROOT
BRANCH  21  23
HETATM   23  C   UNL     1      -8.353   9.252  70.725  1.00  0.00    -0.230 C  
BRANCH  23  24
HETATM   24  C   UNL     1      -6.920   9.748  70.657  1.00  0.00    -0.102 C  
BRANCH  24  25
HETATM   25  C   UNL     1      -6.841  11.054  69.851  1.00  0.00    -0.097 C  
BRANCH  25  26
HETATM   26  C   UNL     1      -5.706  11.098  68.813  1.00  0.00    -0.043 C  
BRANCH  26  27
HETATM   27  C   UNL     1      -6.135  11.624  67.444  1.00  0.00    -0.097 C  
BRANCH  27  28
HETATM   28  C   UNL     1      -7.518  12.273  67.493  1.00  0.00    -0.149 C  
BRANCH  28  29
HETATM   29  C   UNL     1      -8.491  11.706  66.457  1.00  0.00    -0.141 C  
BRANCH  29  30
HETATM   30  C   UNL     1      -9.978  11.956  66.757  1.00  0.00    -0.215 C  
BRANCH  30  31
HETATM   31  C   UNL     1     -10.604  13.129  66.015  1.00  0.00    -0.281 C  
BRANCH  31  32
HETATM   32  S   UNL     1     -10.503  14.681  66.966  1.00  0.00    -0.272 S  
HETATM   33  O   UNL     1     -10.935  15.790  66.052  1.00  0.00    -0.282 OA 
BRANCH  32  34
HETATM   34  C   UNL     1     -11.886  14.356  68.105  1.00  0.00    -0.327 C  
BRANCH  34  35
HETATM   35  C   UNL     1     -11.474  14.523  69.564  1.00  0.00    -0.330 C  
BRANCH  35  36
HETATM   36  C   UNL     1     -12.405  15.482  70.304  1.00  0.00    -0.431 C  
BRANCH  36  37
HETATM   37  C   UNL     1     -12.952  14.908  71.609  1.00  0.00    -0.336 C  
HETATM   38  F   UNL     1     -14.295  14.718  71.467  1.00  0.00    -0.448 F  
HETATM   39  C   UNL     1     -12.650  15.761  72.851  1.00  0.00    -0.466 C  
HETATM   40  F   UNL     1     -12.420  13.658  71.754  1.00  0.00    -0.378 F  
HETATM   41  F   UNL     1     -11.829  16.798  72.582  1.00  0.00    -0.576 F  
HETATM   42  F   UNL     1     -13.788  16.267  73.383  1.00  0.00    -0.671 F  
HETATM   43  F   UNL     1     -12.053  15.034  73.828  1.00  0.00    -0.526 F  
ENDBRANCH  36  37
ENDBRANCH  35  36
ENDBRANCH  34  35
ENDBRANCH  32  34
ENDBRANCH  31  32
ENDBRANCH  30  31
ENDBRANCH  29  30
ENDBRANCH  28  29
ENDBRANCH  27  28
ENDBRANCH  26  27
ENDBRANCH  25  26
ENDBRANCH  24  25
ENDBRANCH  23  24
ENDBRANCH  21  23
TORSDOF 14
ENDMDL
MODEL       11
REMARK 921   NORMALIZED FREE ENERGY PREDICTED BY IDOCK:   -6.73 KCAL/MOL
REMARK 922        TOTAL FREE ENERGY PREDICTED BY IDOCK:  -15.53 KCAL/MOL
REMARK 923 INTER-LIGAND FREE ENERGY PREDICTED BY IDOCK:  -11.05 KCAL/MOL
REMARK 924 INTRA-LIGAND FREE ENERGY PREDICTED BY IDOCK:   -4.48 KCAL/MOL
REMARK 927      BINDING AFFINITY PREDICTED BY RF-SCORE:    0.00 PKD
ROOT
HETATM    1  C   UNL     1      -9.749   7.489  69.138  1.00  0.00    -0.166 C  
HETATM    2  C   UNL     1      -8.449   7.529  69.716  1.00  0.00    -0.135 C  
HETATM    3  C   UNL     1      -9.497   7.858  70.745  1.00  0.00    -0.163 C  
HETATM    4  C   UNL     1     -11.332   7.372  70.023  1.00  0.00    -0.127 C  
HETATM    5  O   UNL     1     -12.659   7.156  70.516  1.00  0.00    -0.614 OA 
HETATM    6  C   UNL     1     -10.503   6.385  70.496  1.00  0.00    -0.270 C  
HETATM    7  C   UNL     1     -11.059   7.056  72.119  1.00  0.00    -0.279 C  
HETATM    8  C   UNL     1     -10.519   4.913  70.283  1.00  0.00    -0.158 C  
HETATM    9  H   UNL     1     -13.517   6.928  70.179  1.00  0.00     0.000 HD 
HETATM   10  C   UNL     1     -11.581   8.760  72.005  1.00  0.00    -0.436 C  
HETATM   11  C   UNL     1     -11.095   9.814  70.749  1.00  0.00    -0.415 C  
HETATM   12  C   UNL     1     -11.830  11.147  70.568  1.00  0.00    -0.448 A  
HETATM   13  C   UNL     1     -12.562  11.703  71.634  1.00  0.00    -0.278 A  
HETATM   14  C   UNL     1     -13.069  13.005  71.571  1.00  0.00    -0.400 A  
HETATM   15  C   UNL     1     -12.857  13.765  70.431  1.00  0.00    -0.096 A  
HETATM   16  C   UNL     1     -12.131  13.249  69.367  1.00  0.00    -0.301 A  
HETATM   17  O   UNL     1     -13.326  15.041  70.322  1.00  0.00    -0.635 OA 
HETATM   18  C   UNL     1     -11.578  11.956  69.431  1.00  0.00    -0.388 A  
HETATM   19  H   UNL     1     -13.181  15.562  69.542  1.00  0.00     0.000 HD 
HETATM   20  C   UNL     1     -10.736  11.507  68.250  1.00  0.00    -0.247 C  
HETATM   21  C   UNL     1      -9.704  10.390  68.542  1.00  0.00    -0.174 C  
HETATM   22  C   UNL     1     -10.506   9.238  69.192  1.00  0.00    -0.231 C  
ENDROOT
BRANCH  21  23
HETATM   23  C   UNL     1      -8.550  10.911  69.422  1.00  0.00     0.092 C  
BRANCH  23  24
HETATM   24  C   UNL     1      -7.146  10.715  68.881  1.00  0.00    -0.078 C  
BRANCH  24  25
HETATM   25  C   UNL     1      -6.579  12.045  68.361  1.00  0.00    -0.058 C  
BRANCH  25  26
HETATM   26  C   UNL     1      -7.496  13.261  68.579  1.00  0.00    -0.115 C  
BRANCH  26  27
HETATM   27  C   UNL     1      -7.793  14.052  67.305  1.00  0.00    -0.143 C  
BRANCH  27  28
HETATM   28  C   UNL     1      -8.920  15.065  67.515  1.00  0.00    -0.189 C  
BRANCH  28  29
HETATM   29  C   UNL     1      -9.148  15.977  66.308  1.00  0.00    -0.379 C  
BRANCH  29  30
HETATM   30  C   UNL     1     -10.435  15.698  65.517  1.00  0.00    -0.426 C  
BRANCH  30  31
HETATM   31  C   UNL     1     -11.260  14.517  66.009  1.00  0.00    -0.337 C  
BRANCH  31  32
HETATM   32  S   UNL     1     -12.341  13.839  64.707  1.00  0.00    -0.366 S  
HETATM   33  O   UNL     1     -12.661  14.963  63.766  1.00  0.00    -0.791 OA 
BRANCH  32  34
HETATM   34  C   UNL     1     -11.100  12.788  63.886  1.00  0.00    -0.431 C  
BRANCH  34  35
HETATM   35  C   UNL     1     -10.156  12.133  64.888  1.00  0.00    -0.280 C  
BRANCH  35  36
HETATM   36  C   UNL     1     -10.151  10.612  64.744  1.00  0.00    -0.412 C  
BRANCH  36  37
HETATM   37  C   UNL     1      -8.755   9.999  64.841  1.00  0.00    -0.182 C  
HETATM   38  F   UNL     1      -8.204   9.983  63.593  1.00  0.00    -0.132 F  
HETATM   39  C   UNL     1      -8.722   8.598  65.470  1.00  0.00    -0.186 C  
HETATM   40  F   UNL     1      -7.985  10.863  65.567  1.00  0.00    -0.160 F  
HETATM   41  F   UNL     1      -9.923   8.219  65.956  1.00  0.00    -0.279 F  
HETATM   42  F   UNL     1      -8.333   7.668  64.568  1.00  0.00    -0.146 F  
HETATM   43  F   UNL     1      -7.844   8.531  66.502  1.00  0.00    -0.090 F  
ENDBRANCH  36  37
ENDBRANCH  35  36
ENDBRANCH  34  35
ENDBRANCH  32  34
ENDBRANCH  31  32
ENDBRANCH  30  31
ENDBRANCH  29  30
ENDBRANCH  28  29
ENDBRANCH  27  28
ENDBRANCH  26  27
ENDBRANCH  25  26
ENDBRANCH  24  25
ENDBRANCH  23  24
ENDBRANCH  21  23
TORSDOF 14
ENDMDL
MODEL       12
REMARK 921   NORMALIZED FREE ENERGY PREDICTED BY IDOCK:   -6.71 KCAL/MOL
REMARK 922        TOTAL FREE ENERGY PREDICTED BY IDOCK:  -15.50 KCAL/MOL
REMARK 923 INTER-LIGAND FREE ENERGY PREDICTED BY IDOCK:  -12.48 KCAL/MOL
REMARK 924 INTRA-LIGAND FREE ENERGY PREDICTED BY IDOCK:   -3.02 KCAL/MOL
REMARK 927      BINDING AFFINITY PREDICTED BY RF-SCORE:    0.00 PKD
ROOT
HETATM    1  C   UNL     1      -9.923   7.750  68.705  1.00  0.00    -0.191 C  
HETATM    2  C   UNL     1      -8.549   7.835  69.067  1.00  0.00    -0.135 C  
HETATM    3  C   UNL     1      -9.428   8.137  70.250  1.00  0.00    -0.170 C  
HETATM    4  C   UNL     1     -11.339   7.587  69.833  1.00  0.00    -0.037 C  
HETATM    5  O   UNL     1     -12.562   7.332  70.533  1.00  0.00    -0.591 OA 
HETATM    6  C   UNL     1     -10.412   6.631  70.168  1.00  0.00    -0.248 C  
HETATM    7  C   UNL     1     -10.722   7.294  71.858  1.00  0.00    -0.243 C  
HETATM    8  C   UNL     1     -10.415   5.158  69.962  1.00  0.00    -0.305 C  
HETATM    9  H   UNL     1     -13.455   7.075  70.338  1.00  0.00     0.000 HD 
HETATM   10  C   UNL     1     -11.311   8.979  71.828  1.00  0.00    -0.447 C  
HETATM   11  C   UNL     1     -11.068  10.041  70.508  1.00  0.00    -0.400 C  
HETATM   12  C   UNL     1     -11.866  11.348  70.447  1.00  0.00    -0.428 A  
HETATM   13  C   UNL     1     -12.435  11.887  71.616  1.00  0.00    -0.100 A  
HETATM   14  C   UNL     1     -12.988  13.172  71.633  1.00  0.00    -0.429 A  
HETATM   15  C   UNL     1     -12.987  13.931  70.474  1.00  0.00    -0.097 A  
HETATM   16  C   UNL     1     -12.425  13.432  69.308  1.00  0.00     0.097 A  
HETATM   17  O   UNL     1     -13.509  15.190  70.441  1.00  0.00    -0.664 OA 
HETATM   18  C   UNL     1     -11.827  12.158  69.284  1.00  0.00    -0.370 A  
HETATM   19  H   UNL     1     -13.509  15.711  69.647  1.00  0.00     0.000 HD 
HETATM   20  C   UNL     1     -11.170  11.729  67.983  1.00  0.00    -0.324 C  
HETATM   21  C   UNL     1     -10.070  10.648  68.106  1.00  0.00    -0.179 C  
HETATM   22  C   UNL     1     -10.718   9.474  68.878  1.00  0.00    -0.220 C  
ENDROOT
BRANCH  21  23
HETATM   23  C   UNL     1      -8.807  11.211  68.789  1.00  0.00    -0.128 C  
BRANCH  23  24
HETATM   24  C   UNL     1      -7.863  12.011  67.910  1.00  0.00    -0.144 C  
BRANCH  24  25
HETATM   25  C   UNL     1      -8.066  13.517  68.133  1.00  0.00    -0.154 C  
BRANCH  25  26
HETATM   26  C   UNL     1      -6.781  14.358  68.040  1.00  0.00    -0.154 C  
BRANCH  26  27
HETATM   27  C   UNL     1      -7.025  15.833  67.719  1.00  0.00    -0.173 C  
BRANCH  27  28
HETATM   28  C   UNL     1      -7.343  16.642  68.978  1.00  0.00    -0.228 C  
BRANCH  28  29
HETATM   29  C   UNL     1      -6.898  18.103  68.886  1.00  0.00    -0.263 C  
BRANCH  29  30
HETATM   30  C   UNL     1      -7.935  19.061  68.278  1.00  0.00    -0.350 C  
BRANCH  30  31
HETATM   31  C   UNL     1      -9.390  18.688  68.523  1.00  0.00    -0.346 C  
BRANCH  31  32
HETATM   32  S   UNL     1     -10.307  18.422  66.971  1.00  0.00    -0.399 S  
HETATM   33  O   UNL     1      -9.319  18.537  65.846  1.00  0.00    -0.486 OA 
BRANCH  32  34
HETATM   34  C   UNL     1     -10.657  16.649  67.198  1.00  0.00    -0.264 C  
BRANCH  34  35
HETATM   35  C   UNL     1     -10.361  15.844  65.937  1.00  0.00    -0.383 C  
BRANCH  35  36
HETATM   36  C   UNL     1     -10.947  14.435  66.020  1.00  0.00    -0.316 C  
BRANCH  36  37
HETATM   37  C   UNL     1     -12.124  14.213  65.073  1.00  0.00    -0.421 C  
HETATM   38  F   UNL     1     -13.273  14.196  65.809  1.00  0.00    -0.549 F  
HETATM   39  C   UNL     1     -12.011  12.947  64.210  1.00  0.00    -0.399 C  
HETATM   40  F   UNL     1     -12.218  15.320  64.278  1.00  0.00    -0.475 F  
HETATM   41  F   UNL     1     -10.817  12.332  64.344  1.00  0.00    -0.298 F  
HETATM   42  F   UNL     1     -12.972  12.050  64.532  1.00  0.00    -0.474 F  
HETATM   43  F   UNL     1     -12.162  13.222  62.890  1.00  0.00    -0.592 F  
ENDBRANCH  36  37
ENDBRANCH  35  36
ENDBRANCH  34  35
ENDBRANCH  32  34
ENDBRANCH  31  32
ENDBRANCH  30  31
ENDBRANCH  29  30
ENDBRANCH  28  29
ENDBRANCH  27  28
ENDBRANCH  26  27
ENDBRANCH  25  26
ENDBRANCH  24  25
ENDBRANCH  23  24
ENDBRANCH  21  23
TORSDOF 14
ENDMDL
MODEL       13
REMARK 921   NORMALIZED FREE ENERGY PREDICTED BY IDOCK:   -6.69 KCAL/MOL
REMARK 922        TOTAL FREE ENERGY PREDICTED BY IDOCK:  -15.46 KCAL/MOL
REMARK 923 INTER-LIGAND FREE ENERGY PREDICTED BY IDOCK:  -12.12 KCAL/MOL
REMARK 924 INTRA-LIGAND FREE ENERGY PREDICTED BY IDOCK:   -3.34 KCAL/MOL
REMARK 927      BINDING AFFINITY PREDICTED BY RF-SCORE:    0.00 PKD
ROOT
HETATM    1  C   UNL     1      -9.243  15.309  66.420  1.00  0.00    -0.342 C  
HETATM    2  C   UNL     1     -10.172  15.805  65.463  1.00  0.00    -0.407 C  
HETATM    3  C   UNL     1     -10.518  16.298  66.842  1.00  0.00    -0.302 C  
HETATM    4  C   UNL     1      -8.958  15.951  68.097  1.00  0.00    -0.181 C  
HETATM    5  O   UNL     1      -8.498  16.377  69.384  1.00  0.00    -0.166 OA 
HETATM    6  C   UNL     1      -8.906  17.006  67.220  1.00  0.00    -0.221 C  
HETATM    7  C   UNL     1     -10.042  17.756  68.460  1.00  0.00    -0.377 C  
HETATM    8  C   UNL     1      -7.753  17.805  66.725  1.00  0.00    -0.258 C  
HETATM    9  H   UNL     1      -7.769  16.215  69.971  1.00  0.00     0.000 HD 
HETATM   10  C   UNL     1     -10.933  16.524  69.396  1.00  0.00    -0.288 C  
HETATM   11  C   UNL     1     -11.174  14.919  68.854  1.00  0.00    -0.282 C  
HETATM   12  C   UNL     1     -11.674  13.864  69.848  1.00  0.00    -0.358 A  
HETATM   13  C   UNL     1     -12.338  14.258  71.025  1.00  0.00    -0.431 A  
HETATM   14  C   UNL     1     -12.985  13.326  71.845  1.00  0.00    -0.409 A  
HETATM   15  C   UNL     1     -12.966  11.984  71.500  1.00  0.00    -0.304 A  
HETATM   16  C   UNL     1     -12.327  11.566  70.342  1.00  0.00    -0.390 A  
HETATM   17  O   UNL     1     -13.584  11.038  72.263  1.00  0.00    -0.550 OA 
HETATM   18  C   UNL     1     -11.708  12.495  69.483  1.00  0.00    -0.375 A  
HETATM   19  H   UNL     1     -13.571  10.119  72.027  1.00  0.00     0.000 HD 
HETATM   20  C   UNL     1     -11.102  11.952  68.201  1.00  0.00    -0.294 C  
HETATM   21  C   UNL     1     -10.946  12.968  67.044  1.00  0.00    -0.289 C  
HETATM   22  C   UNL     1     -10.156  14.159  67.635  1.00  0.00    -0.236 C  
ENDROOT
BRANCH  21  23
HETATM   23  C   UNL     1     -12.318  13.367  66.462  1.00  0.00    -0.354 C  
BRANCH  23  24
HETATM   24  C   UNL     1     -12.653  12.822  65.086  1.00  0.00    -0.513 C  
BRANCH  24  25
HETATM   25  C   UNL     1     -11.694  13.397  64.032  1.00  0.00    -0.465 C  
BRANCH  25  26
HETATM   26  C   UNL     1     -10.365  12.634  63.891  1.00  0.00    -0.405 C  
BRANCH  26  27
HETATM   27  C   UNL     1     -10.530  11.157  63.537  1.00  0.00    -0.422 C  
BRANCH  27  28
HETATM   28  C   UNL     1     -10.029  10.245  64.659  1.00  0.00    -0.377 C  
BRANCH  28  29
HETATM   29  C   UNL     1      -8.688  10.689  65.246  1.00  0.00    -0.198 C  
BRANCH  29  30
HETATM   30  C   UNL     1      -7.818   9.555  65.809  1.00  0.00    -0.104 C  
BRANCH  30  31
HETATM   31  C   UNL     1      -8.102   9.170  67.254  1.00  0.00    -0.106 C  
BRANCH  31  32
HETATM   32  S   UNL     1      -7.072  10.103  68.433  1.00  0.00    -0.072 S  
HETATM   33  O   UNL     1      -7.573  11.518  68.438  1.00  0.00    -0.109 OA 
BRANCH  32  34
HETATM   34  C   UNL     1      -7.678   9.315  69.959  1.00  0.00    -0.104 C  
BRANCH  34  35
HETATM   35  C   UNL     1      -9.100   9.748  70.298  1.00  0.00    -0.208 C  
BRANCH  35  36
HETATM   36  C   UNL     1     -10.070   8.568  70.261  1.00  0.00    -0.199 C  
BRANCH  36  37
HETATM   37  C   UNL     1     -10.376   7.992  71.641  1.00  0.00    -0.214 C  
HETATM   38  F   UNL     1      -9.672   6.833  71.790  1.00  0.00    -0.162 F  
HETATM   39  C   UNL     1     -11.870   7.761  71.913  1.00  0.00    -0.297 C  
HETATM   40  F   UNL     1      -9.855   8.855  72.563  1.00  0.00    -0.347 F  
HETATM   41  F   UNL     1     -12.658   8.245  70.930  1.00  0.00    -0.250 F  
HETATM   42  F   UNL     1     -12.144   6.442  72.045  1.00  0.00    -0.345 F  
HETATM   43  F   UNL     1     -12.271   8.358  73.063  1.00  0.00    -0.410 F  
ENDBRANCH  36  37
ENDBRANCH  35  36
ENDBRANCH  34  35
ENDBRANCH  32  34
ENDBRANCH  31  32
ENDBRANCH  30  31
ENDBRANCH  29  30
ENDBRANCH  28  29
ENDBRANCH  27  28
ENDBRANCH  26  27
ENDBRANCH  25  26
ENDBRANCH  24  25
ENDBRANCH  23  24
ENDBRANCH  21  23
TORSDOF 14
ENDMDL
MODEL       14
REMARK 921   NORMALIZED FREE ENERGY PREDICTED BY IDOCK:   -6.68 KCAL/MOL
REMARK 922        TOTAL FREE ENERGY PREDICTED BY IDOCK:  -15.45 KCAL/MOL
REMARK 923 INTER-LIGAND FREE ENERGY PREDICTED BY IDOCK:  -12.17 KCAL/MOL
REMARK 924 INTRA-LIGAND FREE ENERGY PREDICTED BY IDOCK:   -3.28 KCAL/MOL
REMARK 927      BINDING AFFINITY PREDICTED BY RF-SCORE:    0.00 PKD
ROOT
HETATM    1  C   UNL     1     -11.148  14.371  66.296  1.00  0.00    -0.331 C  
HETATM    2  C   UNL     1      -9.869  14.859  65.910  1.00  0.00    -0.362 C  
HETATM    3  C   UNL     1     -10.175  13.563  65.210  1.00  0.00    -0.323 C  
HETATM    4  C   UNL     1     -12.145  13.122  65.431  1.00  0.00    -0.433 C  
HETATM    5  O   UNL     1     -13.128  12.264  64.841  1.00  0.00    -0.654 OA 
HETATM    6  C   UNL     1     -11.757  14.070  64.516  1.00  0.00    -0.428 C  
HETATM    7  C   UNL     1     -11.288  12.571  63.552  1.00  0.00    -0.556 C  
HETATM    8  C   UNL     1     -12.530  15.145  63.841  1.00  0.00     0.277 C  
HETATM    9  H   UNL     1     -14.049  12.058  64.944  1.00  0.00     0.000 HD 
HETATM   10  C   UNL     1     -10.963  11.164  64.602  1.00  0.00    -0.238 C  
HETATM   11  C   UNL     1     -10.555  11.296  66.258  1.00  0.00    -0.315 C  
HETATM   12  C   UNL     1     -10.598  10.042  67.139  1.00  0.00    -0.296 A  
HETATM   13  C   UNL     1     -10.531   8.763  66.555  1.00  0.00    -0.152 A  
HETATM   14  C   UNL     1     -10.361   7.613  67.333  1.00  0.00    -0.347 A  
HETATM   15  C   UNL     1     -10.265   7.729  68.711  1.00  0.00    -0.201 A  
HETATM   16  C   UNL     1     -10.317   8.977  69.316  1.00  0.00    -0.227 A  
HETATM   17  O   UNL     1     -10.094   6.640  69.513  1.00  0.00    -0.170 OA 
HETATM   18  C   UNL     1     -10.446  10.148  68.545  1.00  0.00    -0.221 A  
HETATM   19  H   UNL     1     -10.028   6.719  70.457  1.00  0.00     0.000 HD 
HETATM   20  C   UNL     1     -10.417  11.471  69.290  1.00  0.00    -0.066 C  
HETATM   21  C   UNL     1      -9.995  12.706  68.457  1.00  0.00    -0.166 C  
HETATM   22  C   UNL     1     -10.929  12.720  67.224  1.00  0.00    -0.294 C  
ENDROOT
BRANCH  21  23
HETATM   23  C   UNL     1      -8.496  12.649  68.095  1.00  0.00    -0.177 C  
BRANCH  23  24
HETATM   24  C   UNL     1      -7.619  13.744  68.674  1.00  0.00    -0.125 C  
BRANCH  24  25
HETATM   25  C   UNL     1      -6.622  14.249  67.620  1.00  0.00    -0.172 C  
BRANCH  25  26
HETATM   26  C   UNL     1      -5.819  15.492  68.041  1.00  0.00    -0.147 C  
BRANCH  26  27
HETATM   27  C   UNL     1      -6.383  16.212  69.266  1.00  0.00    -0.174 C  
BRANCH  27  28
HETATM   28  C   UNL     1      -6.517  17.717  69.027  1.00  0.00    -0.228 C  
BRANCH  28  29
HETATM   29  C   UNL     1      -6.740  18.080  67.558  1.00  0.00    -0.191 C  
BRANCH  29  30
HETATM   30  C   UNL     1      -7.902  19.052  67.299  1.00  0.00    -0.263 C  
BRANCH  30  31
HETATM   31  C   UNL     1      -8.850  19.264  68.471  1.00  0.00    -0.369 C  
BRANCH  31  32
HETATM   32  S   UNL     1     -10.468  18.470  68.202  1.00  0.00    -0.266 S  
HETATM   33  O   UNL     1     -10.575  18.161  66.738  1.00  0.00    -0.357 OA 
BRANCH  32  34
HETATM   34  C   UNL     1     -10.113  16.901  69.056  1.00  0.00    -0.292 C  
BRANCH  34  35
HETATM   35  C   UNL     1     -11.389  16.155  69.433  1.00  0.00    -0.323 C  
BRANCH  35  36
HETATM   36  C   UNL     1     -11.267  15.488  70.802  1.00  0.00    -0.384 C  
BRANCH  36  37
HETATM   37  C   UNL     1     -12.593  14.949  71.333  1.00  0.00    -0.332 C  
HETATM   38  F   UNL     1     -13.607  15.668  70.769  1.00  0.00    -0.524 F  
HETATM   39  C   UNL     1     -12.709  14.953  72.865  1.00  0.00    -0.435 C  
HETATM   40  F   UNL     1     -12.735  13.679  70.851  1.00  0.00    -0.379 F  
HETATM   41  F   UNL     1     -11.554  15.301  73.472  1.00  0.00    -0.520 F  
HETATM   42  F   UNL     1     -13.666  15.815  73.280  1.00  0.00    -0.592 F  
HETATM   43  F   UNL     1     -13.050  13.731  73.347  1.00  0.00    -0.418 F  
ENDBRANCH  36  37
ENDBRANCH  35  36
ENDBRANCH  34  35
ENDBRANCH  32  34
ENDBRANCH  31  32
ENDBRANCH  30  31
ENDBRANCH  29  30
ENDBRANCH  28  29
ENDBRANCH  27  28
ENDBRANCH  26  27
ENDBRANCH  25  26
ENDBRANCH  24  25
ENDBRANCH  23  24
ENDBRANCH  21  23
TORSDOF 14
ENDMDL
MODEL       15
REMARK 921   NORMALIZED FREE ENERGY PREDICTED BY IDOCK:   -6.68 KCAL/MOL
REMARK 922        TOTAL FREE ENERGY PREDICTED BY IDOCK:  -15.44 KCAL/MOL
REMARK 923 INTER-LIGAND FREE ENERGY PREDICTED BY IDOCK:  -11.93 KCAL/MOL
REMARK 924 INTRA-LIGAND FREE ENERGY PREDICTED BY IDOCK:   -3.51 KCAL/MOL
REMARK 927      BINDING AFFINITY PREDICTED BY RF-SCORE:    0.00 PKD
ROOT
HETATM    1  C   UNL     1      -8.466   8.073  67.044  1.00  0.00    -0.120 C  
HETATM    2  C   UNL     1      -7.222   7.724  67.641  1.00  0.00    -0.091 C  
HETATM    3  C   UNL     1      -8.294   6.746  68.039  1.00  0.00    -0.120 C  
HETATM    4  C   UNL     1      -9.921   7.000  66.849  1.00  0.00    -0.217 C  
HETATM    5  O   UNL     1     -11.111   6.290  66.489  1.00  0.00    -0.687 OA 
HETATM    6  C   UNL     1      -8.824   6.326  66.370  1.00  0.00    -0.147 C  
HETATM    7  C   UNL     1      -9.513   4.983  67.426  1.00  0.00    -0.151 C  
HETATM    8  C   UNL     1      -8.410   6.006  64.979  1.00  0.00    -0.121 C  
HETATM    9  H   UNL     1     -11.872   6.409  65.933  1.00  0.00     0.000 HD 
HETATM   10  C   UNL     1     -10.519   5.616  68.758  1.00  0.00    -0.289 C  
HETATM   11  C   UNL     1     -10.399   7.215  69.354  1.00  0.00    -0.206 C  
HETATM   12  C   UNL     1     -11.501   7.752  70.275  1.00  0.00    -0.117 A  
HETATM   13  C   UNL     1     -12.338   6.861  70.973  1.00  0.00    -0.401 A  
HETATM   14  C   UNL     1     -13.209   7.309  71.972  1.00  0.00    -0.181 A  
HETATM   15  C   UNL     1     -13.260   8.659  72.278  1.00  0.00    -0.372 A  
HETATM   16  C   UNL     1     -12.442   9.562  71.614  1.00  0.00    -0.476 A  
HETATM   17  O   UNL     1     -14.089   9.145  73.245  1.00  0.00    -1.165 OA 
HETATM   18  C   UNL     1     -11.529   9.123  70.636  1.00  0.00    -0.310 A  
HETATM   19  H   UNL     1     -14.125  10.071  73.455  1.00  0.00     0.000 HD 
HETATM   20  C   UNL     1     -10.621  10.173  70.019  1.00  0.00    -0.338 C  
HETATM   21  C   UNL     1      -9.298   9.648  69.410  1.00  0.00    -0.201 C  
HETATM   22  C   UNL     1      -9.705   8.534  68.417  1.00  0.00    -0.169 C  
ENDROOT
BRANCH  21  23
HETATM   23  C   UNL     1      -8.328   9.168  70.509  1.00  0.00    -0.222 C  
BRANCH  23  24
HETATM   24  C   UNL     1      -6.935   9.770  70.491  1.00  0.00    -0.131 C  
BRANCH  24  25
HETATM   25  C   UNL     1      -6.903  11.026  69.607  1.00  0.00    -0.129 C  
BRANCH  25  26
HETATM   26  C   UNL     1      -6.069  10.885  68.323  1.00  0.00    -0.049 C  
BRANCH  26  27
HETATM   27  C   UNL     1      -6.614  11.678  67.135  1.00  0.00    -0.134 C  
BRANCH  27  28
HETATM   28  C   UNL     1      -7.660  12.705  67.572  1.00  0.00    -0.160 C  
BRANCH  28  29
HETATM   29  C   UNL     1      -7.174  14.151  67.458  1.00  0.00    -0.188 C  
BRANCH  29  30
HETATM   30  C   UNL     1      -8.278  15.190  67.210  1.00  0.00    -0.234 C  
BRANCH  30  31
HETATM   31  C   UNL     1      -9.068  15.609  68.441  1.00  0.00    -0.190 C  
BRANCH  31  32
HETATM   32  S   UNL     1     -10.744  16.191  68.022  1.00  0.00    -0.330 S  
HETATM   33  O   UNL     1     -10.731  16.576  66.572  1.00  0.00    -0.260 OA 
BRANCH  32  34
HETATM   34  C   UNL     1     -11.595  14.585  68.142  1.00  0.00    -0.331 C  
BRANCH  34  35
HETATM   35  C   UNL     1     -12.058  14.082  66.779  1.00  0.00    -0.480 C  
BRANCH  35  36
HETATM   36  C   UNL     1     -11.249  12.867  66.324  1.00  0.00    -0.337 C  
BRANCH  36  37
HETATM   37  C   UNL     1     -10.769  12.967  64.878  1.00  0.00    -0.332 C  
HETATM   38  F   UNL     1     -10.351  14.246  64.650  1.00  0.00    -0.428 F  
HETATM   39  C   UNL     1     -11.813  12.540  63.835  1.00  0.00    -0.463 C  
HETATM   40  F   UNL     1      -9.649  12.193  64.771  1.00  0.00    -0.207 F  
HETATM   41  F   UNL     1     -12.924  12.016  64.395  1.00  0.00    -0.504 F  
HETATM   42  F   UNL     1     -12.195  13.590  63.070  1.00  0.00    -0.581 F  
HETATM   43  F   UNL     1     -11.323  11.601  62.988  1.00  0.00    -0.360 F  
ENDBRANCH  36  37
ENDBRANCH  35  36
ENDBRANCH  34  35
ENDBRANCH  32  34
ENDBRANCH  31  32
ENDBRANCH  30  31
ENDBRANCH  29  30
ENDBRANCH  28  29
ENDBRANCH  27  28
ENDBRANCH  26  27
ENDBRANCH  25  26
ENDBRANCH  24  25
ENDBRANCH  23  24
ENDBRANCH  21  23
TORSDOF 14
ENDMDL
MODEL       16
REMARK 921   NORMALIZED FREE ENERGY PREDICTED BY IDOCK:   -6.64 KCAL/MOL
REMARK 922        TOTAL FREE ENERGY PREDICTED BY IDOCK:  -15.37 KCAL/MOL
REMARK 923 INTER-LIGAND FREE ENERGY PREDICTED BY IDOCK:  -10.90 KCAL/MOL
REMARK 924 INTRA-LIGAND FREE ENERGY PREDICTED BY IDOCK:   -4.47 KCAL/MOL
REMARK 927      BINDING AFFINITY PREDICTED BY RF-SCORE:    0.00 PKD
ROOT
HETATM    1  C   UNL     1      -8.911   7.804  67.068  1.00  0.00    -0.145 C  
HETATM    2  C   UNL     1      -7.654   7.584  67.697  1.00  0.00    -0.113 C  
HETATM    3  C   UNL     1      -8.773   7.050  68.549  1.00  0.00    -0.122 C  
HETATM    4  C   UNL     1     -10.483   6.976  67.454  1.00  0.00    -0.273 C  
HETATM    5  O   UNL     1     -11.773   6.358  67.515  1.00  0.00    -0.553 OA 
HETATM    6  C   UNL     1      -9.521   6.011  67.282  1.00  0.00    -0.119 C  
HETATM    7  C   UNL     1     -10.229   5.391  68.865  1.00  0.00    -0.266 C  
HETATM    8  C   UNL     1      -9.294   5.050  66.171  1.00  0.00    -0.157 C  
HETATM    9  H   UNL     1     -12.572   6.323  67.003  1.00  0.00     0.000 HD 
HETATM   10  C   UNL     1     -11.014   6.687  69.810  1.00  0.00    -0.367 C  
HETATM   11  C   UNL     1     -10.663   8.349  69.606  1.00  0.00    -0.201 C  
HETATM   12  C   UNL     1     -11.597   9.390  70.234  1.00  0.00    -0.181 A  
HETATM   13  C   UNL     1     -12.443   9.032  71.301  1.00  0.00    -0.346 A  
HETATM   14  C   UNL     1     -13.150   9.996  72.028  1.00  0.00    -0.541 A  
HETATM   15  C   UNL     1     -13.026  11.334  71.687  1.00  0.00    -0.432 A  
HETATM   16  C   UNL     1     -12.194  11.720  70.646  1.00  0.00    -0.443 A  
HETATM   17  O   UNL     1     -13.691  12.312  72.366  1.00  0.00    -0.552 OA 
HETATM   18  C   UNL     1     -11.443  10.767  69.932  1.00  0.00    -0.398 A  
HETATM   19  H   UNL     1     -13.606  13.228  72.133  1.00  0.00     0.000 HD 
HETATM   20  C   UNL     1     -10.501  11.291  68.862  1.00  0.00    -0.232 C  
HETATM   21  C   UNL     1      -9.314  10.369  68.495  1.00  0.00    -0.160 C  
HETATM   22  C   UNL     1      -9.940   9.000  68.139  1.00  0.00    -0.206 C  
ENDROOT
BRANCH  21  23
HETATM   23  C   UNL     1      -8.287  10.296  69.644  1.00  0.00    -0.139 C  
BRANCH  23  24
HETATM   24  C   UNL     1      -6.980  11.038  69.430  1.00  0.00    -0.126 C  
BRANCH  24  25
HETATM   25  C   UNL     1      -6.920  11.624  68.011  1.00  0.00    -0.078 C  
BRANCH  25  26
HETATM   26  C   UNL     1      -5.678  11.213  67.201  1.00  0.00    -0.067 C  
BRANCH  26  27
HETATM   27  C   UNL     1      -5.999  10.471  65.904  1.00  0.00    -0.121 C  
BRANCH  27  28
HETATM   28  C   UNL     1      -7.452  10.678  65.476  1.00  0.00    -0.063 C  
BRANCH  28  29
HETATM   29  C   UNL     1      -7.826   9.908  64.208  1.00  0.00    -0.139 C  
BRANCH  29  30
HETATM   30  C   UNL     1      -9.286  10.068  63.757  1.00  0.00    -0.307 C  
BRANCH  30  31
HETATM   31  C   UNL     1     -10.239  10.611  64.813  1.00  0.00    -0.331 C  
BRANCH  31  32
HETATM   32  S   UNL     1     -11.042  12.161  64.286  1.00  0.00    -0.377 S  
HETATM   33  O   UNL     1     -12.047  11.803  63.230  1.00  0.00    -0.452 OA 
BRANCH  32  34
HETATM   34  C   UNL     1     -11.969  12.485  65.820  1.00  0.00    -0.420 C  
BRANCH  34  35
HETATM   35  C   UNL     1     -12.321  13.961  65.972  1.00  0.00    -0.511 C  
BRANCH  35  36
HETATM   36  C   UNL     1     -11.113  14.857  65.699  1.00  0.00    -0.348 C  
BRANCH  36  37
HETATM   37  C   UNL     1     -10.465  15.403  66.969  1.00  0.00    -0.295 C  
HETATM   38  F   UNL     1     -10.293  16.748  66.821  1.00  0.00    -0.282 F  
HETATM   39  C   UNL     1      -9.140  14.722  67.345  1.00  0.00    -0.195 C  
HETATM   40  F   UNL     1     -11.374  15.261  67.979  1.00  0.00    -0.289 F  
HETATM   41  F   UNL     1      -8.859  13.662  66.559  1.00  0.00    -0.216 F  
HETATM   42  F   UNL     1      -8.103  15.588  67.252  1.00  0.00    -0.154 F  
HETATM   43  F   UNL     1      -9.153  14.267  68.623  1.00  0.00    -0.185 F  
ENDBRANCH  36  37
ENDBRANCH  35  36
ENDBRANCH  34  35
ENDBRANCH  32  34
ENDBRANCH  31  32
ENDBRANCH  30  31
ENDBRANCH  29  30
ENDBRANCH  28  29
ENDBRANCH  27  28
ENDBRANCH  26  27
ENDBRANCH  25  26
ENDBRANCH  24  25
ENDBRANCH  23  24
ENDBRANCH  21  23
TORSDOF 14
ENDMDL
MODEL       17
REMARK 921   NORMALIZED FREE ENERGY PREDICTED BY IDOCK:   -6.61 KCAL/MOL
REMARK 922        TOTAL FREE ENERGY PREDICTED BY IDOCK:  -15.32 KCAL/MOL
REMARK 923 INTER-LIGAND FREE ENERGY PREDICTED BY IDOCK:  -11.05 KCAL/MOL
REMARK 924 INTRA-LIGAND FREE ENERGY PREDICTED BY IDOCK:   -4.26 KCAL/MOL
REMARK 927      BINDING AFFINITY PREDICTED BY RF-SCORE:    0.00 PKD
ROOT
HETATM    1  C   UNL     1     -11.233   8.130  70.668  1.00  0.00    -0.268 C  
HETATM    2  C   UNL     1     -10.100   8.305  71.510  1.00  0.00    -0.270 C  
HETATM    3  C   UNL     1     -10.617   9.635  71.033  1.00  0.00    -0.362 C  
HETATM    4  C   UNL     1     -12.459   9.392  70.213  1.00  0.00     0.377 C  
HETATM    5  O   UNL     1     -13.586  10.194  69.843  1.00  0.00    -0.267 OA 
HETATM    6  C   UNL     1     -12.318   9.405  71.579  1.00  0.00    -0.452 C  
HETATM    7  C   UNL     1     -12.168  11.218  71.285  1.00  0.00    -0.275 C  
HETATM    8  C   UNL     1     -13.222   8.924  72.656  1.00  0.00    -0.363 C  
HETATM    9  H   UNL     1     -14.448  10.081  69.460  1.00  0.00     0.000 HD 
HETATM   10  C   UNL     1     -11.597  11.592  69.635  1.00  0.00    -0.401 C  
HETATM   11  C   UNL     1     -10.744  10.479  68.656  1.00  0.00    -0.247 C  
HETATM   12  C   UNL     1     -10.570  10.780  67.162  1.00  0.00    -0.306 A  
HETATM   13  C   UNL     1     -10.698  12.098  66.686  1.00  0.00    -0.281 A  
HETATM   14  C   UNL     1     -10.345  12.438  65.375  1.00  0.00    -0.303 A  
HETATM   15  C   UNL     1      -9.869  11.456  64.521  1.00  0.00    -0.260 A  
HETATM   16  C   UNL     1      -9.724  10.150  64.963  1.00  0.00    -0.384 A  
HETATM   17  O   UNL     1      -9.508  11.737  63.236  1.00  0.00    -0.529 OA 
HETATM   18  C   UNL     1     -10.034   9.799  66.291  1.00  0.00    -0.331 A  
HETATM   19  H   UNL     1      -9.182  11.065  62.650  1.00  0.00     0.000 HD 
HETATM   20  C   UNL     1      -9.770   8.362  66.705  1.00  0.00    -0.320 C  
HETATM   21  C   UNL     1      -9.566   8.121  68.220  1.00  0.00    -0.154 C  
HETATM   22  C   UNL     1     -10.804   8.738  68.914  1.00  0.00    -0.040 C  
ENDROOT
BRANCH  21  23
HETATM   23  C   UNL     1      -8.228   8.716  68.705  1.00  0.00    -0.121 C  
BRANCH  23  24
HETATM   24  C   UNL     1      -6.984   8.289  67.948  1.00  0.00    -0.078 C  
BRANCH  24  25
HETATM   25  C   UNL     1      -6.340   9.495  67.248  1.00  0.00    -0.069 C  
BRANCH  25  26
HETATM   26  C   UNL     1      -6.766  10.864  67.807  1.00  0.00    -0.064 C  
BRANCH  26  27
HETATM   27  C   UNL     1      -6.790  11.981  66.764  1.00  0.00     0.046 C  
BRANCH  27  28
HETATM   28  C   UNL     1      -7.193  13.322  67.380  1.00  0.00    -0.119 C  
BRANCH  28  29
HETATM   29  C   UNL     1      -8.009  13.178  68.666  1.00  0.00    -0.033 C  
BRANCH  29  30
HETATM   30  C   UNL     1      -8.676  14.472  69.160  1.00  0.00     0.032 C  
BRANCH  30  31
HETATM   31  C   UNL     1      -8.820  15.571  68.118  1.00  0.00    -0.169 C  
BRANCH  31  32
HETATM   32  S   UNL     1     -10.542  16.146  67.953  1.00  0.00    -0.317 S  
HETATM   33  O   UNL     1     -10.991  15.811  66.560  1.00  0.00    -0.278 OA 
BRANCH  32  34
HETATM   34  C   UNL     1     -11.311  14.930  69.070  1.00  0.00    -0.292 C  
BRANCH  34  35
HETATM   35  C   UNL     1     -12.222  15.595  70.096  1.00  0.00    -0.387 C  
BRANCH  35  36
HETATM   36  C   UNL     1     -12.913  14.563  70.986  1.00  0.00    -0.423 C  
BRANCH  36  37
HETATM   37  C   UNL     1     -13.343  15.123  72.340  1.00  0.00    -0.422 C  
HETATM   38  F   UNL     1     -14.156  16.197  72.124  1.00  0.00    -0.358 F  
HETATM   39  C   UNL     1     -12.178  15.498  73.268  1.00  0.00    -0.493 C  
HETATM   40  F   UNL     1     -14.135  14.180  72.933  1.00  0.00    -0.459 F  
HETATM   41  F   UNL     1     -10.978  15.130  72.770  1.00  0.00    -0.414 F  
HETATM   42  F   UNL     1     -12.139  16.833  73.486  1.00  0.00    -0.548 F  
HETATM   43  F   UNL     1     -12.292  14.908  74.484  1.00  0.00    -0.652 F  
ENDBRANCH  36  37
ENDBRANCH  35  36
ENDBRANCH  34  35
ENDBRANCH  32  34
ENDBRANCH  31  32
ENDBRANCH  30  31
ENDBRANCH  29  30
ENDBRANCH  28  29
ENDBRANCH  27  28
ENDBRANCH  26  27
ENDBRANCH  25  26
ENDBRANCH  24  25
ENDBRANCH  23  24
ENDBRANCH  21  23
TORSDOF 14
ENDMDL
MODEL       18
REMARK 921   NORMALIZED FREE ENERGY PREDICTED BY IDOCK:   -6.60 KCAL/MOL
REMARK 922        TOTAL FREE ENERGY PREDICTED BY IDOCK:  -15.29 KCAL/MOL
REMARK 923 INTER-LIGAND FREE ENERGY PREDICTED BY IDOCK:  -12.04 KCAL/MOL
REMARK 924 INTRA-LIGAND FREE ENERGY PREDICTED BY IDOCK:   -3.25 KCAL/MOL
REMARK 927      BINDING AFFINITY PREDICTED BY RF-SCORE:    0.00 PKD
ROOT
HETATM    1  C   UNL     1      -9.010   8.194  66.560  1.00  0.00    -0.191 C  
HETATM    2  C   UNL     1      -7.685   8.065  67.063  1.00  0.00    -0.100 C  
HETATM    3  C   UNL     1      -8.672   7.420  67.997  1.00  0.00    -0.124 C  
HETATM    4  C   UNL     1     -10.466   7.229  67.063  1.00  0.00    -0.328 C  
HETATM    5  O   UNL     1     -11.690   6.504  67.223  1.00  0.00    -0.632 OA 
HETATM    6  C   UNL     1      -9.449   6.352  66.773  1.00  0.00    -0.176 C  
HETATM    7  C   UNL     1      -9.953   5.638  68.395  1.00  0.00    -0.201 C  
HETATM    8  C   UNL     1      -9.252   5.439  65.617  1.00  0.00    -0.125 C  
HETATM    9  H   UNL     1     -12.528   6.415  66.787  1.00  0.00     0.000 HD 
HETATM   10  C   UNL     1     -10.747   6.842  69.448  1.00  0.00    -0.291 C  
HETATM   11  C   UNL     1     -10.553   8.532  69.264  1.00  0.00    -0.193 C  
HETATM   12  C   UNL     1     -11.504   9.477  70.008  1.00  0.00    -0.149 A  
HETATM   13  C   UNL     1     -12.214   9.025  71.136  1.00  0.00    -0.331 A  
HETATM   14  C   UNL     1     -12.925   9.909  71.954  1.00  0.00    -0.545 A  
HETATM   15  C   UNL     1     -12.942  11.260  71.645  1.00  0.00    -0.432 A  
HETATM   16  C   UNL     1     -12.245  11.738  70.544  1.00  0.00    -0.438 A  
HETATM   17  O   UNL     1     -13.616  12.163  72.412  1.00  0.00    -0.594 OA 
HETATM   18  C   UNL     1     -11.490  10.868  69.735  1.00  0.00    -0.390 A  
HETATM   19  H   UNL     1     -13.629  13.089  72.201  1.00  0.00     0.000 HD 
HETATM   20  C   UNL     1     -10.700  11.494  68.599  1.00  0.00    -0.242 C  
HETATM   21  C   UNL     1      -9.482  10.682  68.096  1.00  0.00    -0.158 C  
HETATM   22  C   UNL     1     -10.026   9.274  67.757  1.00  0.00    -0.235 C  
ENDROOT
BRANCH  21  23
HETATM   23  C   UNL     1      -8.348  10.668  69.143  1.00  0.00    -0.140 C  
BRANCH  23  24
HETATM   24  C   UNL     1      -7.162  11.573  68.866  1.00  0.00    -0.117 C  
BRANCH  24  25
HETATM   25  C   UNL     1      -7.297  12.230  67.483  1.00  0.00    -0.137 C  
BRANCH  25  26
HETATM   26  C   UNL     1      -7.302  13.768  67.502  1.00  0.00    -0.176 C  
BRANCH  26  27
HETATM   27  C   UNL     1      -7.838  14.372  68.800  1.00  0.00    -0.138 C  
BRANCH  27  28
HETATM   28  C   UNL     1      -7.012  15.580  69.247  1.00  0.00    -0.171 C  
BRANCH  28  29
HETATM   29  C   UNL     1      -6.984  16.709  68.215  1.00  0.00    -0.155 C  
BRANCH  29  30
HETATM   30  C   UNL     1      -7.240  18.114  68.783  1.00  0.00    -0.287 C  
BRANCH  30  31
HETATM   31  C   UNL     1      -8.199  18.979  67.977  1.00  0.00    -0.300 C  
BRANCH  31  32
HETATM   32  S   UNL     1      -9.925  18.801  68.535  1.00  0.00    -0.404 S  
HETATM   33  O   UNL     1     -10.524  20.177  68.568  1.00  0.00    -0.385 OA 
BRANCH  32  34
HETATM   34  C   UNL     1     -10.574  17.970  67.050  1.00  0.00    -0.308 C  
BRANCH  34  35
HETATM   35  C   UNL     1     -10.405  16.456  67.125  1.00  0.00    -0.290 C  
BRANCH  35  36
HETATM   36  C   UNL     1     -10.434  15.819  65.737  1.00  0.00    -0.384 C  
BRANCH  36  37
HETATM   37  C   UNL     1     -10.913  14.368  65.747  1.00  0.00    -0.314 C  
HETATM   38  F   UNL     1      -9.838  13.558  65.524  1.00  0.00    -0.285 F  
HETATM   39  C   UNL     1     -12.040  14.068  64.747  1.00  0.00    -0.437 C  
HETATM   40  F   UNL     1     -11.322  14.087  67.020  1.00  0.00    -0.293 F  
HETATM   41  F   UNL     1     -12.504  15.179  64.137  1.00  0.00    -0.518 F  
HETATM   42  F   UNL     1     -11.621  13.215  63.783  1.00  0.00    -0.413 F  
HETATM   43  F   UNL     1     -13.104  13.481  65.350  1.00  0.00    -0.510 F  
ENDBRANCH  36  37
ENDBRANCH  35  36
ENDBRANCH  34  35
ENDBRANCH  32  34
ENDBRANCH  31  32
ENDBRANCH  30  31
ENDBRANCH  29  30
ENDBRANCH  28  29
ENDBRANCH  27  28
ENDBRANCH  26  27
ENDBRANCH  25  26
ENDBRANCH  24  25
ENDBRANCH  23  24
ENDBRANCH  21  23
TORSDOF 14
ENDMDL
MODEL       19
REMARK 921   NORMALIZED FREE ENERGY PREDICTED BY IDOCK:   -6.56 KCAL/MOL
REMARK 922        TOTAL FREE ENERGY PREDICTED BY IDOCK:  -15.22 KCAL/MOL
REMARK 923 INTER-LIGAND FREE ENERGY PREDICTED BY IDOCK:  -11.03 KCAL/MOL
REMARK 924 INTRA-LIGAND FREE ENERGY PREDICTED BY IDOCK:   -4.19 KCAL/MOL
REMARK 927      BINDING AFFINITY PREDICTED BY RF-SCORE:    0.00 PKD
ROOT
HETATM    1  C   UNL     1      -8.631   7.550  67.291  1.00  0.00    -0.118 C  
HETATM    2  C   UNL     1      -7.487   7.167  68.047  1.00  0.00    -0.099 C  
HETATM    3  C   UNL     1      -8.749   6.714  68.729  1.00  0.00    -0.128 C  
HETATM    4  C   UNL     1     -10.312   6.877  67.442  1.00  0.00    -0.231 C  
HETATM    5  O   UNL     1     -11.655   6.397  67.315  1.00  0.00    -0.695 OA 
HETATM    6  C   UNL     1      -9.438   5.824  67.323  1.00  0.00    -0.116 C  
HETATM    7  C   UNL     1     -10.392   5.207  68.773  1.00  0.00    -0.162 C  
HETATM    8  C   UNL     1      -9.175   4.899  66.190  1.00  0.00    -0.146 C  
HETATM    9  H   UNL     1     -12.386   6.473  66.713  1.00  0.00     0.000 HD 
HETATM   10  C   UNL     1     -11.152   6.532  69.698  1.00  0.00    -0.435 C  
HETATM   11  C   UNL     1     -10.615   8.155  69.638  1.00  0.00    -0.223 C  
HETATM   12  C   UNL     1     -11.509   9.259  70.216  1.00  0.00    -0.198 A  
HETATM   13  C   UNL     1     -12.510   8.941  71.153  1.00  0.00    -0.260 A  
HETATM   14  C   UNL     1     -13.200   9.939  71.850  1.00  0.00    -0.558 A  
HETATM   15  C   UNL     1     -12.902  11.270  71.608  1.00  0.00    -0.405 A  
HETATM   16  C   UNL     1     -11.915  11.615  70.697  1.00  0.00    -0.356 A  
HETATM   17  O   UNL     1     -13.543  12.280  72.264  1.00  0.00    -0.550 OA 
HETATM   18  C   UNL     1     -11.182  10.623  70.018  1.00  0.00    -0.382 A  
HETATM   19  H   UNL     1     -13.340  13.192  72.099  1.00  0.00     0.000 HD 
HETATM   20  C   UNL     1     -10.070  11.096  69.097  1.00  0.00    -0.134 C  
HETATM   21  C   UNL     1      -8.945  10.071  68.815  1.00  0.00    -0.145 C  
HETATM   22  C   UNL     1      -9.657   8.795  68.306  1.00  0.00    -0.160 C  
ENDROOT
BRANCH  21  23
HETATM   23  C   UNL     1      -8.078   9.833  70.068  1.00  0.00    -0.203 C  
BRANCH  23  24
HETATM   24  C   UNL     1      -6.577   9.969  69.888  1.00  0.00    -0.089 C  
BRANCH  24  25
HETATM   25  C   UNL     1      -6.246  11.225  69.066  1.00  0.00    -0.056 C  
BRANCH  25  26
HETATM   26  C   UNL     1      -5.945  12.479  69.905  1.00  0.00    -0.144 C  
BRANCH  26  27
HETATM   27  C   UNL     1      -5.940  13.778  69.101  1.00  0.00    -0.087 C  
BRANCH  27  28
HETATM   28  C   UNL     1      -6.783  13.663  67.829  1.00  0.00    -0.177 C  
BRANCH  28  29
HETATM   29  C   UNL     1      -8.226  14.136  68.014  1.00  0.00    -0.152 C  
BRANCH  29  30
HETATM   30  C   UNL     1      -8.998  14.390  66.710  1.00  0.00    -0.256 C  
BRANCH  30  31
HETATM   31  C   UNL     1     -10.468  13.997  66.735  1.00  0.00    -0.277 C  
BRANCH  31  32
HETATM   32  S   UNL     1     -11.515  15.180  65.826  1.00  0.00    -0.091 S  
HETATM   33  O   UNL     1     -10.659  15.809  64.766  1.00  0.00    -0.504 OA 
BRANCH  32  34
HETATM   34  C   UNL     1     -12.590  13.966  64.998  1.00  0.00    -0.390 C  
BRANCH  34  35
HETATM   35  C   UNL     1     -11.965  13.437  63.711  1.00  0.00    -0.517 C  
BRANCH  35  36
HETATM   36  C   UNL     1     -11.902  11.910  63.703  1.00  0.00    -0.573 C  
BRANCH  36  37
HETATM   37  C   UNL     1     -10.479  11.363  63.785  1.00  0.00    -0.399 C  
HETATM   38  F   UNL     1     -10.299  10.475  62.764  1.00  0.00    -0.242 F  
HETATM   39  C   UNL     1     -10.125  10.721  65.135  1.00  0.00    -0.299 C  
HETATM   40  F   UNL     1      -9.632  12.401  63.518  1.00  0.00    -0.284 F  
HETATM   41  F   UNL     1     -11.095  10.885  66.059  1.00  0.00    -0.256 F  
HETATM   42  F   UNL     1      -9.907   9.392  65.000  1.00  0.00    -0.331 F  
HETATM   43  F   UNL     1      -8.991  11.250  65.662  1.00  0.00    -0.200 F  
ENDBRANCH  36  37
ENDBRANCH  35  36
ENDBRANCH  34  35
ENDBRANCH  32  34
ENDBRANCH  31  32
ENDBRANCH  30  31
ENDBRANCH  29  30
ENDBRANCH  28  29
ENDBRANCH  27  28
ENDBRANCH  26  27
ENDBRANCH  25  26
ENDBRANCH  24  25
ENDBRANCH  23  24
ENDBRANCH  21  23
TORSDOF 14
ENDMDL
MODEL       20
REMARK 921   NORMALIZED FREE ENERGY PREDICTED BY IDOCK:   -6.55 KCAL/MOL
REMARK 922        TOTAL FREE ENERGY PREDICTED BY IDOCK:  -15.19 KCAL/MOL
REMARK 923 INTER-LIGAND FREE ENERGY PREDICTED BY IDOCK:  -11.56 KCAL/MOL
REMARK 924 INTRA-LIGAND FREE ENERGY PREDICTED BY IDOCK:   -3.64 KCAL/MOL
REMARK 927      BINDING AFFINITY PREDICTED BY RF-SCORE:    0.00 PKD
ROOT
HETATM    1  C   UNL     1     -10.222  14.996  66.208  1.00  0.00    -0.306 C  
HETATM    2  C   UNL     1      -8.941  14.380  66.272  1.00  0.00    -0.031 C  
HETATM    3  C   UNL     1      -9.975  13.524  66.951  1.00  0.00    -0.256 C  
HETATM    4  C   UNL     1     -11.832  14.194  66.471  1.00  0.00    -0.419 C  
HETATM    5  O   UNL     1     -13.187  13.732  66.515  1.00  0.00    -0.053 OA 
HETATM    6  C   UNL     1     -11.123  13.444  65.565  1.00  0.00    -0.296 C  
HETATM    7  C   UNL     1     -11.648  12.075  66.680  1.00  0.00    -0.389 C  
HETATM    8  C   UNL     1     -11.287  13.278  64.097  1.00  0.00    -0.424 C  
HETATM    9  H   UNL     1     -14.055  14.044  66.291  1.00  0.00     0.000 HD 
HETATM   10  C   UNL     1     -11.986  12.642  68.339  1.00  0.00    -0.268 C  
HETATM   11  C   UNL     1     -11.359  14.097  68.984  1.00  0.00    -0.310 C  
HETATM   12  C   UNL     1     -11.946  14.648  70.290  1.00  0.00    -0.370 A  
HETATM   13  C   UNL     1     -12.644  13.796  71.167  1.00  0.00    -0.452 A  
HETATM   14  C   UNL     1     -13.011  14.213  72.451  1.00  0.00    -0.478 A  
HETATM   15  C   UNL     1     -12.690  15.494  72.870  1.00  0.00    -0.439 A  
HETATM   16  C   UNL     1     -11.995  16.354  72.032  1.00  0.00    -0.437 A  
HETATM   17  O   UNL     1     -13.021  15.947  74.113  1.00  0.00    -0.814 OA 
HETATM   18  C   UNL     1     -11.582  15.937  70.752  1.00  0.00    -0.441 A  
HETATM   19  H   UNL     1     -12.802  16.825  74.400  1.00  0.00     0.000 HD 
HETATM   20  C   UNL     1     -10.760  16.921  69.938  1.00  0.00    -0.016 C  
HETATM   21  C   UNL     1      -9.859  16.303  68.841  1.00  0.00    -0.246 C  
HETATM   22  C   UNL     1     -10.793  15.425  67.975  1.00  0.00    -0.292 C  
ENDROOT
BRANCH  21  23
HETATM   23  C   UNL     1      -8.680  15.524  69.460  1.00  0.00    -0.223 C  
BRANCH  23  24
HETATM   24  C   UNL     1      -7.296  16.104  69.236  1.00  0.00    -0.231 C  
BRANCH  24  25
HETATM   25  C   UNL     1      -6.216  15.066  69.581  1.00  0.00    -0.134 C  
BRANCH  25  26
HETATM   26  C   UNL     1      -5.963  14.016  68.485  1.00  0.00    -0.092 C  
BRANCH  26  27
HETATM   27  C   UNL     1      -5.808  12.590  69.014  1.00  0.00    -0.071 C  
BRANCH  27  28
HETATM   28  C   UNL     1      -7.090  11.776  68.834  1.00  0.00    -0.114 C  
BRANCH  28  29
HETATM   29  C   UNL     1      -7.182  11.084  67.473  1.00  0.00    -0.096 C  
BRANCH  29  30
HETATM   30  C   UNL     1      -7.996   9.781  67.460  1.00  0.00    -0.106 C  
BRANCH  30  31
HETATM   31  C   UNL     1      -9.191   9.749  68.402  1.00  0.00    -0.130 C  
BRANCH  31  32
HETATM   32  S   UNL     1     -10.341   8.389  68.014  1.00  0.00    -0.194 S  
HETATM   33  O   UNL     1      -9.716   7.578  66.916  1.00  0.00    -0.180 OA 
BRANCH  32  34
HETATM   34  C   UNL     1     -10.133   7.448  69.560  1.00  0.00    -0.187 C  
BRANCH  34  35
HETATM   35  C   UNL     1     -11.471   7.133  70.219  1.00  0.00    -0.287 C  
BRANCH  35  36
HETATM   36  C   UNL     1     -11.546   7.701  71.636  1.00  0.00    -0.301 C  
BRANCH  36  37
HETATM   37  C   UNL     1     -12.707   8.674  71.837  1.00  0.00    -0.366 C  
HETATM   38  F   UNL     1     -13.793   8.193  71.165  1.00  0.00    -0.297 F  
HETATM   39  C   UNL     1     -12.400  10.119  71.417  1.00  0.00    -0.416 C  
HETATM   40  F   UNL     1     -13.047   8.627  73.159  1.00  0.00    -0.295 F  
HETATM   41  F   UNL     1     -11.106  10.298  71.077  1.00  0.00    -0.386 F  
HETATM   42  F   UNL     1     -13.158  10.490  70.358  1.00  0.00    -0.397 F  
HETATM   43  F   UNL     1     -12.667  11.000  72.413  1.00  0.00    -0.319 F  
ENDBRANCH  36  37
ENDBRANCH  35  36
ENDBRANCH  34  35
ENDBRANCH  32  34
ENDBRANCH  31  32
ENDBRANCH  30  31
ENDBRANCH  29  30
ENDBRANCH  28  29
ENDBRANCH  27  28
ENDBRANCH  26  27
ENDBRANCH  25  26
ENDBRANCH  24  25
ENDBRANCH  23  24
ENDBRANCH  21  23
TORSDOF 14
ENDMDL
MODEL       21
REMARK 921   NORMALIZED FREE ENERGY PREDICTED BY IDOCK:   -6.52 KCAL/MOL
REMARK 922        TOTAL FREE ENERGY PREDICTED BY IDOCK:  -15.16 KCAL/MOL
REMARK 923 INTER-LIGAND FREE ENERGY PREDICTED BY IDOCK:  -11.58 KCAL/MOL
REMARK 924 INTRA-LIGAND FREE ENERGY PREDICTED BY IDOCK:   -3.58 KCAL/MOL
REMARK 927      BINDING AFFINITY PREDICTED BY RF-SCORE:    0.00 PKD
ROOT
HETATM    1  C   UNL     1     -10.004   6.562  70.140  1.00  0.00    -0.190 C  
HETATM    2  C   UNL     1      -8.781   6.767  70.837  1.00  0.00    -0.142 C  
HETATM    3  C   UNL     1      -9.780   7.834  71.194  1.00  0.00    -0.175 C  
HETATM    4  C   UNL     1     -11.623   7.282  70.544  1.00  0.00    -0.258 C  
HETATM    5  O   UNL     1     -12.993   7.637  70.765  1.00  0.00    -0.553 OA 
HETATM    6  C   UNL     1     -11.107   6.720  71.686  1.00  0.00    -0.282 C  
HETATM    7  C   UNL     1     -11.587   8.352  72.393  1.00  0.00    -0.450 C  
HETATM    8  C   UNL     1     -11.481   5.482  72.418  1.00  0.00    -0.266 C  
HETATM    9  H   UNL     1     -13.855   7.379  70.462  1.00  0.00     0.000 HD 
HETATM   10  C   UNL     1     -11.650   9.636  71.155  1.00  0.00    -0.456 C  
HETATM   11  C   UNL     1     -10.825   9.546  69.658  1.00  0.00    -0.255 C  
HETATM   12  C   UNL     1     -11.183  10.541  68.548  1.00  0.00    -0.332 A  
HETATM   13  C   UNL     1     -11.823  11.754  68.864  1.00  0.00    -0.381 A  
HETATM   14  C   UNL     1     -11.977  12.767  67.911  1.00  0.00    -0.320 A  
HETATM   15  C   UNL     1     -11.500  12.573  66.625  1.00  0.00    -0.359 A  
HETATM   16  C   UNL     1     -10.856  11.391  66.285  1.00  0.00    -0.318 A  
HETATM   17  O   UNL     1     -11.621  13.531  65.662  1.00  0.00    -0.312 OA 
HETATM   18  C   UNL     1     -10.656  10.379  67.243  1.00  0.00    -0.322 A  
HETATM   19  H   UNL     1     -11.294  13.398  64.780  1.00  0.00     0.000 HD 
HETATM   20  C   UNL     1      -9.874   9.154  66.798  1.00  0.00    -0.291 C  
HETATM   21  C   UNL     1      -9.183   8.349  67.925  1.00  0.00    -0.144 C  
HETATM   22  C   UNL     1     -10.294   8.023  68.951  1.00  0.00    -0.222 C  
ENDROOT
BRANCH  21  23
HETATM   23  C   UNL     1      -7.999   9.132  68.527  1.00  0.00    -0.102 C  
BRANCH  23  24
HETATM   24  C   UNL     1      -7.019   9.741  67.540  1.00  0.00    -0.083 C  
BRANCH  24  25
HETATM   25  C   UNL     1      -6.568  11.130  68.017  1.00  0.00    -0.058 C  
BRANCH  25  26
HETATM   26  C   UNL     1      -7.717  12.086  68.381  1.00  0.00    -0.138 C  
BRANCH  26  27
HETATM   27  C   UNL     1      -7.940  13.205  67.363  1.00  0.00    -0.174 C  
BRANCH  27  28
HETATM   28  C   UNL     1      -7.885  14.587  68.018  1.00  0.00    -0.138 C  
BRANCH  28  29
HETATM   29  C   UNL     1      -9.004  14.820  69.035  1.00  0.00    -0.135 C  
BRANCH  29  30
HETATM   30  C   UNL     1      -9.789  16.128  68.848  1.00  0.00    -0.239 C  
BRANCH  30  31
HETATM   31  C   UNL     1     -10.773  16.137  67.687  1.00  0.00    -0.318 C  
BRANCH  31  32
HETATM   32  S   UNL     1     -10.158  17.103  66.268  1.00  0.00    -0.310 S  
HETATM   33  O   UNL     1     -10.898  16.626  65.053  1.00  0.00    -0.641 OA 
BRANCH  32  34
HETATM   34  C   UNL     1     -10.877  18.709  66.738  1.00  0.00    -0.144 C  
BRANCH  34  35
HETATM   35  C   UNL     1     -10.111  19.877  66.128  1.00  0.00    -0.611 C  
BRANCH  35  36
HETATM   36  C   UNL     1      -9.172  20.525  67.144  1.00  0.00    -0.485 C  
BRANCH  36  37
HETATM   37  C   UNL     1      -7.738  20.004  67.062  1.00  0.00    -0.294 C  
HETATM   38  F   UNL     1      -7.575  19.380  65.860  1.00  0.00    -0.279 F  
HETATM   39  C   UNL     1      -7.336  19.075  68.217  1.00  0.00    -0.284 C  
HETATM   40  F   UNL     1      -6.915  21.093  67.022  1.00  0.00    -0.359 F  
HETATM   41  F   UNL     1      -8.282  19.000  69.178  1.00  0.00    -0.339 F  
HETATM   42  F   UNL     1      -7.102  17.818  67.774  1.00  0.00    -0.181 F  
HETATM   43  F   UNL     1      -6.196  19.491  68.825  1.00  0.00    -0.242 F  
ENDBRANCH  36  37
ENDBRANCH  35  36
ENDBRANCH  34  35
ENDBRANCH  32  34
ENDBRANCH  31  32
ENDBRANCH  30  31
ENDBRANCH  29  30
ENDBRANCH  28  29
ENDBRANCH  27  28
ENDBRANCH  26  27
ENDBRANCH  25  26
ENDBRANCH  24  25
ENDBRANCH  23  24
ENDBRANCH  21  23
TORSDOF 14
ENDMDL
MODEL       22
REMARK 921   NORMALIZED FREE ENERGY PREDICTED BY IDOCK:   -6.52 KCAL/MOL
REMARK 922        TOTAL FREE ENERGY PREDICTED BY IDOCK:  -15.15 KCAL/MOL
REMARK 923 INTER-LIGAND FREE ENERGY PREDICTED BY IDOCK:  -11.24 KCAL/MOL
REMARK 924 INTRA-LIGAND FREE ENERGY PREDICTED BY IDOCK:   -3.91 KCAL/MOL
REMARK 927      BINDING AFFINITY PREDICTED BY RF-SCORE:    0.00 PKD
ROOT
HETATM    1  C   UNL     1      -9.740   5.758  70.734  1.00  0.00    -0.220 C  
HETATM    2  C   UNL     1     -11.160   5.675  70.775  1.00  0.00    -0.196 C  
HETATM    3  C   UNL     1     -10.678   5.815  69.357  1.00  0.00    -0.397 C  
HETATM    4  C   UNL     1      -8.674   5.491  69.287  1.00  0.00    -0.107 C  
HETATM    5  O   UNL     1      -7.665   5.200  68.314  1.00  0.00    -0.082 OA 
HETATM    6  C   UNL     1      -9.533   4.425  69.388  1.00  0.00    -0.251 C  
HETATM    7  C   UNL     1      -9.775   4.784  67.598  1.00  0.00    -0.202 C  
HETATM    8  C   UNL     1      -9.296   3.020  69.813  1.00  0.00    -0.215 C  
HETATM    9  H   UNL     1      -6.728   5.048  68.281  1.00  0.00     0.000 HD 
HETATM   10  C   UNL     1      -9.410   6.484  67.192  1.00  0.00    -0.138 C  
HETATM   11  C   UNL     1      -9.414   7.751  68.341  1.00  0.00    -0.148 C  
HETATM   12  C   UNL     1      -8.794   9.102  67.964  1.00  0.00    -0.129 A  
HETATM   13  C   UNL     1      -8.632   9.454  66.611  1.00  0.00    -0.138 A  
HETATM   14  C   UNL     1      -8.265  10.750  66.233  1.00  0.00    -0.162 A  
HETATM   15  C   UNL     1      -8.045  11.709  67.209  1.00  0.00    -0.160 A  
HETATM   16  C   UNL     1      -8.205  11.395  68.551  1.00  0.00    -0.153 A  
HETATM   17  O   UNL     1      -7.690  12.987  66.893  1.00  0.00    -0.389 OA 
HETATM   18  C   UNL     1      -8.614  10.107  68.947  1.00  0.00    -0.141 A  
HETATM   19  H   UNL     1      -7.539  13.644  67.561  1.00  0.00     0.000 HD 
HETATM   20  C   UNL     1      -8.837   9.880  70.432  1.00  0.00     0.025 C  
HETATM   21  C   UNL     1      -9.790   8.718  70.802  1.00  0.00    -0.255 C  
HETATM   22  C   UNL     1      -9.237   7.472  70.071  1.00  0.00    -0.151 C  
ENDROOT
BRANCH  21  23
HETATM   23  C   UNL     1     -11.250   9.053  70.432  1.00  0.00    -0.275 C  
BRANCH  23  24
HETATM   24  C   UNL     1     -12.047   9.831  71.463  1.00  0.00    -0.493 C  
BRANCH  24  25
HETATM   25  C   UNL     1     -12.452  11.204  70.906  1.00  0.00    -0.509 C  
BRANCH  25  26
HETATM   26  C   UNL     1     -11.942  11.494  69.484  1.00  0.00    -0.402 C  
BRANCH  26  27
HETATM   27  C   UNL     1     -11.559  12.955  69.246  1.00  0.00    -0.368 C  
BRANCH  27  28
HETATM   28  C   UNL     1     -12.109  13.871  70.341  1.00  0.00    -0.421 C  
BRANCH  28  29
HETATM   29  C   UNL     1     -11.702  15.335  70.166  1.00  0.00    -0.342 C  
BRANCH  29  30
HETATM   30  C   UNL     1     -10.669  15.595  69.058  1.00  0.00    -0.236 C  
BRANCH  30  31
HETATM   31  C   UNL     1     -11.136  16.501  67.929  1.00  0.00    -0.229 C  
BRANCH  31  32
HETATM   32  S   UNL     1      -9.841  16.766  66.674  1.00  0.00    -0.291 S  
HETATM   33  O   UNL     1      -8.680  15.890  67.043  1.00  0.00    -0.192 OA 
BRANCH  32  34
HETATM   34  C   UNL     1     -10.692  15.967  65.276  1.00  0.00    -0.424 C  
BRANCH  34  35
HETATM   35  C   UNL     1     -11.530  14.774  65.725  1.00  0.00    -0.322 C  
BRANCH  35  36
HETATM   36  C   UNL     1     -10.699  13.493  65.779  1.00  0.00    -0.278 C  
BRANCH  36  37
HETATM   37  C   UNL     1     -11.442  12.267  65.251  1.00  0.00    -0.351 C  
HETATM   38  F   UNL     1     -11.390  11.290  66.202  1.00  0.00    -0.320 F  
HETATM   39  C   UNL     1     -10.924  11.746  63.903  1.00  0.00    -0.407 C  
HETATM   40  F   UNL     1     -12.762  12.608  65.152  1.00  0.00    -0.534 F  
HETATM   41  F   UNL     1      -9.993  12.555  63.355  1.00  0.00    -0.386 F  
HETATM   42  F   UNL     1     -10.373  10.517  64.035  1.00  0.00    -0.405 F  
HETATM   43  F   UNL     1     -11.922  11.628  62.991  1.00  0.00    -0.446 F  
ENDBRANCH  36  37
ENDBRANCH  35  36
ENDBRANCH  34  35
ENDBRANCH  32  34
ENDBRANCH  31  32
ENDBRANCH  30  31
ENDBRANCH  29  30
ENDBRANCH  28  29
ENDBRANCH  27  28
ENDBRANCH  26  27
ENDBRANCH  25  26
ENDBRANCH  24  25
ENDBRANCH  23  24
ENDBRANCH  21  23
TORSDOF 14
ENDMDL
MODEL       23
REMARK 921   NORMALIZED FREE ENERGY PREDICTED BY IDOCK:   -6.52 KCAL/MOL
REMARK 922        TOTAL FREE ENERGY PREDICTED BY IDOCK:  -15.15 KCAL/MOL
REMARK 923 INTER-LIGAND FREE ENERGY PREDICTED BY IDOCK:  -11.87 KCAL/MOL
REMARK 924 INTRA-LIGAND FREE ENERGY PREDICTED BY IDOCK:   -3.28 KCAL/MOL
REMARK 927      BINDING AFFINITY PREDICTED BY RF-SCORE:    0.00 PKD
ROOT
HETATM    1  C   UNL     1      -8.656   7.986  66.873  1.00  0.00    -0.130 C  
HETATM    2  C   UNL     1      -7.366   7.747  67.425  1.00  0.00    -0.092 C  
HETATM    3  C   UNL     1      -8.355   6.730  67.928  1.00  0.00    -0.120 C  
HETATM    4  C   UNL     1     -10.048   6.819  66.809  1.00  0.00    -0.183 C  
HETATM    5  O   UNL     1     -11.207   6.020  66.547  1.00  0.00    -0.741 OA 
HETATM    6  C   UNL     1      -8.935   6.186  66.313  1.00  0.00    -0.162 C  
HETATM    7  C   UNL     1      -9.489   4.866  67.471  1.00  0.00    -0.161 C  
HETATM    8  C   UNL     1      -8.566   5.813  64.921  1.00  0.00    -0.065 C  
HETATM    9  H   UNL     1     -11.999   6.061  66.024  1.00  0.00     0.000 HD 
HETATM   10  C   UNL     1     -10.469   5.511  68.817  1.00  0.00    -0.261 C  
HETATM   11  C   UNL     1     -10.422   7.146  69.319  1.00  0.00    -0.220 C  
HETATM   12  C   UNL     1     -11.511   7.667  70.265  1.00  0.00    -0.144 A  
HETATM   13  C   UNL     1     -12.257   6.768  71.050  1.00  0.00    -0.405 A  
HETATM   14  C   UNL     1     -13.108   7.219  72.066  1.00  0.00    -0.187 A  
HETATM   15  C   UNL     1     -13.229   8.579  72.301  1.00  0.00    -0.327 A  
HETATM   16  C   UNL     1     -12.500   9.490  71.550  1.00  0.00    -0.463 A  
HETATM   17  O   UNL     1     -14.041   9.068  73.281  1.00  0.00    -1.218 OA 
HETATM   18  C   UNL     1     -11.608   9.052  70.552  1.00  0.00    -0.209 A  
HETATM   19  H   UNL     1     -14.125  10.000  73.442  1.00  0.00     0.000 HD 
HETATM   20  C   UNL     1     -10.797  10.118  69.835  1.00  0.00    -0.347 C  
HETATM   21  C   UNL     1      -9.474   9.640  69.190  1.00  0.00    -0.172 C  
HETATM   22  C   UNL     1      -9.857   8.449  68.279  1.00  0.00    -0.189 C  
ENDROOT
BRANCH  21  23
HETATM   23  C   UNL     1      -8.426   9.282  70.264  1.00  0.00    -0.224 C  
BRANCH  23  24
HETATM   24  C   UNL     1      -7.111  10.037  70.203  1.00  0.00    -0.157 C  
BRANCH  24  25
HETATM   25  C   UNL     1      -7.206  11.203  69.207  1.00  0.00    -0.112 C  
BRANCH  25  26
HETATM   26  C   UNL     1      -6.290  11.071  67.978  1.00  0.00    -0.057 C  
BRANCH  26  27
HETATM   27  C   UNL     1      -6.991  11.348  66.648  1.00  0.00    -0.102 C  
BRANCH  27  28
HETATM   28  C   UNL     1      -8.382  11.948  66.854  1.00  0.00    -0.169 C  
BRANCH  28  29
HETATM   29  C   UNL     1      -9.349  11.643  65.708  1.00  0.00    -0.220 C  
BRANCH  29  30
HETATM   30  C   UNL     1     -10.734  11.138  66.144  1.00  0.00    -0.285 C  
BRANCH  30  31
HETATM   31  C   UNL     1     -11.651  12.192  66.749  1.00  0.00    -0.345 C  
BRANCH  31  32
HETATM   32  S   UNL     1     -11.702  13.718  65.753  1.00  0.00    -0.367 S  
HETATM   33  O   UNL     1     -13.103  13.866  65.238  1.00  0.00    -0.777 OA 
BRANCH  32  34
HETATM   34  C   UNL     1     -11.505  14.905  67.120  1.00  0.00    -0.335 C  
BRANCH  34  35
HETATM   35  C   UNL     1     -10.048  15.308  67.320  1.00  0.00    -0.236 C  
BRANCH  35  36
HETATM   36  C   UNL     1      -9.835  16.797  67.051  1.00  0.00    -0.262 C  
BRANCH  36  37
HETATM   37  C   UNL     1      -9.623  17.617  68.322  1.00  0.00    -0.306 C  
HETATM   38  F   UNL     1     -10.648  17.351  69.183  1.00  0.00    -0.335 F  
HETATM   39  C   UNL     1      -9.488  19.128  68.084  1.00  0.00    -0.342 C  
HETATM   40  F   UNL     1      -8.501  17.132  68.932  1.00  0.00    -0.258 F  
HETATM   41  F   UNL     1      -9.440  19.446  66.773  1.00  0.00    -0.309 F  
HETATM   42  F   UNL     1     -10.527  19.803  68.631  1.00  0.00    -0.510 F  
HETATM   43  F   UNL     1      -8.361  19.629  68.648  1.00  0.00    -0.365 F  
ENDBRANCH  36  37
ENDBRANCH  35  36
ENDBRANCH  34  35
ENDBRANCH  32  34
ENDBRANCH  31  32
ENDBRANCH  30  31
ENDBRANCH  29  30
ENDBRANCH  28  29
ENDBRANCH  27  28
ENDBRANCH  26  27
ENDBRANCH  25  26
ENDBRANCH  24  25
ENDBRANCH  23  24
ENDBRANCH  21  23
TORSDOF 14
ENDMDL
MODEL       24
REMARK 921   NORMALIZED FREE ENERGY PREDICTED BY IDOCK:   -6.51 KCAL/MOL
REMARK 922        TOTAL FREE ENERGY PREDICTED BY IDOCK:  -15.13 KCAL/MOL
REMARK 923 INTER-LIGAND FREE ENERGY PREDICTED BY IDOCK:  -10.59 KCAL/MOL
REMARK 924 INTRA-LIGAND FREE ENERGY PREDICTED BY IDOCK:   -4.54 KCAL/MOL
REMARK 927      BINDING AFFINITY PREDICTED BY RF-SCORE:    0.00 PKD
ROOT
HETATM    1  C   UNL     1     -11.209   6.446  69.745  1.00  0.00    -0.484 C  
HETATM    2  C   UNL     1     -10.439   5.265  69.555  1.00  0.00    -0.304 C  
HETATM    3  C   UNL     1      -9.679   6.265  70.384  1.00  0.00    -0.189 C  
HETATM    4  C   UNL     1     -10.942   7.731  71.003  1.00  0.00    -0.244 C  
HETATM    5  O   UNL     1     -10.981   8.774  71.983  1.00  0.00    -0.339 OA 
HETATM    6  C   UNL     1     -10.953   6.511  71.633  1.00  0.00    -0.291 C  
HETATM    7  C   UNL     1      -9.419   7.184  72.399  1.00  0.00    -0.166 C  
HETATM    8  C   UNL     1     -11.974   5.876  72.507  1.00  0.00    -0.173 C  
HETATM    9  H   UNL     1     -11.570   9.460  72.273  1.00  0.00     0.000 HD 
HETATM   10  C   UNL     1      -8.642   8.428  71.380  1.00  0.00    -0.207 C  
HETATM   11  C   UNL     1      -8.908   8.570  69.696  1.00  0.00    -0.137 C  
HETATM   12  C   UNL     1      -8.446   9.841  68.973  1.00  0.00    -0.137 A  
HETATM   13  C   UNL     1      -7.455  10.661  69.544  1.00  0.00    -0.132 A  
HETATM   14  C   UNL     1      -6.867  11.705  68.823  1.00  0.00    -0.090 A  
HETATM   15  C   UNL     1      -7.273  11.949  67.521  1.00  0.00    -0.125 A  
HETATM   16  C   UNL     1      -8.241  11.153  66.926  1.00  0.00    -0.149 A  
HETATM   17  O   UNL     1      -6.728  12.952  66.775  1.00  0.00    -0.403 OA 
HETATM   18  C   UNL     1      -8.813  10.071  67.623  1.00  0.00    -0.121 A  
HETATM   19  H   UNL     1      -7.006  13.119  65.882  1.00  0.00     0.000 HD 
HETATM   20  C   UNL     1      -9.808   9.210  66.864  1.00  0.00    -0.280 C  
HETATM   21  C   UNL     1      -9.990   7.766  67.390  1.00  0.00    -0.257 C  
HETATM   22  C   UNL     1     -10.328   7.906  68.893  1.00  0.00    -0.225 C  
ENDROOT
BRANCH  21  23
HETATM   23  C   UNL     1      -8.738   6.909  67.117  1.00  0.00    -0.120 C  
BRANCH  23  24
HETATM   24  C   UNL     1      -7.747   7.461  66.110  1.00  0.00    -0.094 C  
BRANCH  24  25
HETATM   25  C   UNL     1      -7.897   6.745  64.758  1.00  0.00    -0.119 C  
BRANCH  25  26
HETATM   26  C   UNL     1      -7.757   7.660  63.530  1.00  0.00    -0.130 C  
BRANCH  26  27
HETATM   27  C   UNL     1      -6.911   8.909  63.776  1.00  0.00    -0.088 C  
BRANCH  27  28
HETATM   28  C   UNL     1      -7.619  10.178  63.300  1.00  0.00    -0.143 C  
BRANCH  28  29
HETATM   29  C   UNL     1      -9.145  10.066  63.327  1.00  0.00    -0.300 C  
BRANCH  29  30
HETATM   30  C   UNL     1      -9.897  11.342  62.917  1.00  0.00    -0.314 C  
BRANCH  30  31
HETATM   31  C   UNL     1     -10.490  12.147  64.065  1.00  0.00    -0.386 C  
BRANCH  31  32
HETATM   32  S   UNL     1     -12.054  12.962  63.602  1.00  0.00    -0.533 S  
HETATM   33  O   UNL     1     -13.066  11.879  63.365  1.00  0.00    -0.710 OA 
BRANCH  32  34
HETATM   34  C   UNL     1     -12.430  13.701  65.223  1.00  0.00    -0.479 C  
BRANCH  34  35
HETATM   35  C   UNL     1     -11.373  13.357  66.266  1.00  0.00    -0.329 C  
BRANCH  35  36
HETATM   36  C   UNL     1     -11.882  12.314  67.259  1.00  0.00    -0.330 C  
BRANCH  36  37
HETATM   37  C   UNL     1     -11.610  12.682  68.716  1.00  0.00    -0.313 C  
HETATM   38  F   UNL     1     -10.318  13.110  68.818  1.00  0.00    -0.231 F  
HETATM   39  C   UNL     1     -11.890  11.552  69.717  1.00  0.00    -0.357 C  
HETATM   40  F   UNL     1     -12.378  13.774  69.007  1.00  0.00    -0.379 F  
HETATM   41  F   UNL     1     -12.466  10.476  69.138  1.00  0.00    -0.247 F  
HETATM   42  F   UNL     1     -10.749  11.134  70.314  1.00  0.00    -0.156 F  
HETATM   43  F   UNL     1     -12.724  11.953  70.710  1.00  0.00    -0.377 F  
ENDBRANCH  36  37
ENDBRANCH  35  36
ENDBRANCH  34  35
ENDBRANCH  32  34
ENDBRANCH  31  32
ENDBRANCH  30  31
ENDBRANCH  29  30
ENDBRANCH  28  29
ENDBRANCH  27  28
ENDBRANCH  26  27
ENDBRANCH  25  26
ENDBRANCH  24  25
ENDBRANCH  23  24
ENDBRANCH  21  23
TORSDOF 14
ENDMDL
MODEL       25
REMARK 921   NORMALIZED FREE ENERGY PREDICTED BY IDOCK:   -6.50 KCAL/MOL
REMARK 922        TOTAL FREE ENERGY PREDICTED BY IDOCK:  -15.12 KCAL/MOL
REMARK 923 INTER-LIGAND FREE ENERGY PREDICTED BY IDOCK:  -11.75 KCAL/MOL
REMARK 924 INTRA-LIGAND FREE ENERGY PREDICTED BY IDOCK:   -3.37 KCAL/MOL
REMARK 927      BINDING AFFINITY PREDICTED BY RF-SCORE:    0.00 PKD
ROOT
HETATM    1  C   UNL     1     -11.906  12.530  67.313  1.00  0.00    -0.381 C  
HETATM    2  C   UNL     1     -11.027  13.315  68.111  1.00  0.00    -0.278 C  
HETATM    3  C   UNL     1     -10.372  12.945  66.808  1.00  0.00    -0.250 C  
HETATM    4  C   UNL     1     -11.772  12.217  65.528  1.00  0.00    -0.377 C  
HETATM    5  O   UNL     1     -11.917  11.958  64.127  1.00  0.00    -0.353 OA 
HETATM    6  C   UNL     1     -11.675  13.572  65.734  1.00  0.00    -0.371 C  
HETATM    7  C   UNL     1     -10.218  13.374  64.625  1.00  0.00    -0.338 C  
HETATM    8  C   UNL     1     -12.641  14.669  65.463  1.00  0.00    -0.106 C  
HETATM    9  H   UNL     1     -12.571  11.618  63.529  1.00  0.00     0.000 HD 
HETATM   10  C   UNL     1      -9.550  11.718  64.672  1.00  0.00    -0.099 C  
HETATM   11  C   UNL     1      -9.813  10.630  65.966  1.00  0.00    -0.280 C  
HETATM   12  C   UNL     1      -9.464   9.149  65.777  1.00  0.00    -0.322 A  
HETATM   13  C   UNL     1      -8.559   8.756  64.773  1.00  0.00    -0.161 A  
HETATM   14  C   UNL     1      -8.064   7.450  64.707  1.00  0.00    -0.104 A  
HETATM   15  C   UNL     1      -8.479   6.515  65.642  1.00  0.00    -0.144 A  
HETATM   16  C   UNL     1      -9.363   6.873  66.649  1.00  0.00    -0.198 A  
HETATM   17  O   UNL     1      -8.023   5.230  65.623  1.00  0.00    -0.101 OA 
HETATM   18  C   UNL     1      -9.838   8.194  66.755  1.00  0.00    -0.329 A  
HETATM   19  H   UNL     1      -8.307   4.589  66.264  1.00  0.00     0.000 HD 
HETATM   20  C   UNL     1     -10.741   8.510  67.935  1.00  0.00    -0.148 C  
HETATM   21  C   UNL     1     -10.794   9.995  68.368  1.00  0.00    -0.277 C  
HETATM   22  C   UNL     1     -11.157  10.792  67.092  1.00  0.00    -0.297 C  
ENDROOT
BRANCH  21  23
HETATM   23  C   UNL     1      -9.464  10.437  69.012  1.00  0.00    -0.205 C  
BRANCH  23  24
HETATM   24  C   UNL     1      -9.034   9.686  70.259  1.00  0.00    -0.263 C  
BRANCH  24  25
HETATM   25  C   UNL     1      -7.615   9.123  70.085  1.00  0.00    -0.093 C  
BRANCH  25  26
HETATM   26  C   UNL     1      -7.557   7.619  69.767  1.00  0.00    -0.093 C  
BRANCH  26  27
HETATM   27  C   UNL     1      -8.387   6.751  70.713  1.00  0.00    -0.128 C  
BRANCH  27  28
HETATM   28  C   UNL     1      -9.547   6.068  69.987  1.00  0.00    -0.194 C  
BRANCH  28  29
HETATM   29  C   UNL     1     -10.726   5.737  70.904  1.00  0.00    -0.333 C  
BRANCH  29  30
HETATM   30  C   UNL     1     -11.929   6.685  70.783  1.00  0.00    -0.412 C  
BRANCH  30  31
HETATM   31  C   UNL     1     -12.225   7.525  72.017  1.00  0.00    -0.280 C  
BRANCH  31  32
HETATM   32  S   UNL     1     -13.545   8.746  71.722  1.00  0.00    -0.421 S  
HETATM   33  O   UNL     1     -14.361   8.831  72.979  1.00  0.00    -0.438 OA 
BRANCH  32  34
HETATM   34  C   UNL     1     -12.493  10.232  71.666  1.00  0.00    -0.392 C  
BRANCH  34  35
HETATM   35  C   UNL     1     -13.277  11.498  71.993  1.00  0.00    -0.443 C  
BRANCH  35  36
HETATM   36  C   UNL     1     -12.722  12.711  71.247  1.00  0.00    -0.354 C  
BRANCH  36  37
HETATM   37  C   UNL     1     -13.065  14.041  71.915  1.00  0.00    -0.386 C  
HETATM   38  F   UNL     1     -14.280  14.454  71.452  1.00  0.00    -0.438 F  
HETATM   39  C   UNL     1     -12.006  15.137  71.722  1.00  0.00    -0.382 C  
HETATM   40  F   UNL     1     -13.248  13.789  73.245  1.00  0.00    -0.512 F  
HETATM   41  F   UNL     1     -10.891  14.680  71.113  1.00  0.00    -0.116 F  
HETATM   42  F   UNL     1     -12.491  16.157  70.976  1.00  0.00    -0.443 F  
HETATM   43  F   UNL     1     -11.613  15.672  72.905  1.00  0.00    -0.511 F  
ENDBRANCH  36  37
ENDBRANCH  35  36
ENDBRANCH  34  35
ENDBRANCH  32  34
ENDBRANCH  31  32
ENDBRANCH  30  31
ENDBRANCH  29  30
ENDBRANCH  28  29
ENDBRANCH  27  28
ENDBRANCH  26  27
ENDBRANCH  25  26
ENDBRANCH  24  25
ENDBRANCH  23  24
ENDBRANCH  21  23
TORSDOF 14
ENDMDL
MODEL       26
REMARK 921   NORMALIZED FREE ENERGY PREDICTED BY IDOCK:   -6.49 KCAL/MOL
REMARK 922        TOTAL FREE ENERGY PREDICTED BY IDOCK:  -15.09 KCAL/MOL
REMARK 923 INTER-LIGAND FREE ENERGY PREDICTED BY IDOCK:  -10.72 KCAL/MOL
REMARK 924 INTRA-LIGAND FREE ENERGY PREDICTED BY IDOCK:   -4.37 KCAL/MOL
REMARK 927      BINDING AFFINITY PREDICTED BY RF-SCORE:    0.00 PKD
ROOT
HETATM    1  C   UNL     1     -10.938  16.660  68.182  1.00  0.00    -0.327 C  
HETATM    2  C   UNL     1     -10.814  16.686  69.600  1.00  0.00    -0.282 C  
HETATM    3  C   UNL     1      -9.564  16.137  68.968  1.00  0.00    -0.251 C  
HETATM    4  C   UNL     1      -9.590  16.515  66.972  1.00  0.00    -0.242 C  
HETATM    5  O   UNL     1      -8.676  16.538  65.870  1.00  0.00    -0.456 OA 
HETATM    6  C   UNL     1      -9.269  17.520  67.853  1.00  0.00    -0.265 C  
HETATM    7  C   UNL     1      -7.666  16.614  67.899  1.00  0.00    -0.170 C  
HETATM    8  C   UNL     1      -9.256  18.997  67.682  1.00  0.00    -0.333 C  
HETATM    9  H   UNL     1      -8.687  16.715  64.937  1.00  0.00     0.000 HD 
HETATM   10  C   UNL     1      -7.848  14.891  67.469  1.00  0.00    -0.206 C  
HETATM   11  C   UNL     1      -9.330  14.042  67.576  1.00  0.00    -0.209 C  
HETATM   12  C   UNL     1      -9.455  12.671  66.901  1.00  0.00    -0.229 A  
HETATM   13  C   UNL     1      -8.302  11.926  66.592  1.00  0.00    -0.117 A  
HETATM   14  C   UNL     1      -8.384  10.595  66.169  1.00  0.00    -0.158 A  
HETATM   15  C   UNL     1      -9.627   9.996  66.040  1.00  0.00    -0.222 A  
HETATM   16  C   UNL     1     -10.782  10.702  66.345  1.00  0.00    -0.198 A  
HETATM   17  O   UNL     1      -9.761   8.701  65.635  1.00  0.00    -0.456 OA 
HETATM   18  C   UNL     1     -10.715  12.028  66.812  1.00  0.00    -0.280 A  
HETATM   19  H   UNL     1     -10.613   8.290  65.547  1.00  0.00     0.000 HD 
HETATM   20  C   UNL     1     -12.026  12.693  67.194  1.00  0.00    -0.326 C  
HETATM   21  C   UNL     1     -11.922  13.866  68.197  1.00  0.00    -0.385 C  
HETATM   22  C   UNL     1     -10.895  14.850  67.588  1.00  0.00    -0.286 C  
ENDROOT
BRANCH  21  23
HETATM   23  C   UNL     1     -11.536  13.367  69.605  1.00  0.00    -0.334 C  
BRANCH  23  24
HETATM   24  C   UNL     1     -12.539  13.628  70.713  1.00  0.00    -0.397 C  
BRANCH  24  25
HETATM   25  C   UNL     1     -12.901  12.319  71.432  1.00  0.00    -0.373 C  
BRANCH  25  26
HETATM   26  C   UNL     1     -12.534  11.041  70.658  1.00  0.00    -0.465 C  
BRANCH  26  27
HETATM   27  C   UNL     1     -12.267   9.829  71.550  1.00  0.00    -0.493 C  
BRANCH  27  28
HETATM   28  C   UNL     1     -13.471   8.888  71.604  1.00  0.00    -0.427 C  
BRANCH  28  29
HETATM   29  C   UNL     1     -13.112   7.471  72.056  1.00  0.00    -0.198 C  
BRANCH  29  30
HETATM   30  C   UNL     1     -11.612   7.218  72.273  1.00  0.00    -0.315 C  
BRANCH  30  31
HETATM   31  C   UNL     1     -11.132   5.814  71.937  1.00  0.00    -0.248 C  
BRANCH  31  32
HETATM   32  S   UNL     1      -9.957   5.799  70.544  1.00  0.00    -0.206 S  
HETATM   33  O   UNL     1      -9.805   4.372  70.105  1.00  0.00    -0.205 OA 
BRANCH  32  34
HETATM   34  C   UNL     1     -11.024   6.625  69.320  1.00  0.00    -0.295 C  
BRANCH  34  35
HETATM   35  C   UNL     1     -10.528   8.028  68.986  1.00  0.00    -0.212 C  
BRANCH  35  36
HETATM   36  C   UNL     1      -9.037   8.182  69.283  1.00  0.00    -0.151 C  
BRANCH  36  37
HETATM   37  C   UNL     1      -8.709   9.423  70.109  1.00  0.00    -0.221 C  
HETATM   38  F   UNL     1      -9.518  10.441  69.696  1.00  0.00    -0.219 F  
HETATM   39  C   UNL     1      -7.233   9.844  70.059  1.00  0.00    -0.146 C  
HETATM   40  F   UNL     1      -9.083   9.161  71.397  1.00  0.00    -0.275 F  
HETATM   41  F   UNL     1      -6.460   8.952  69.404  1.00  0.00    -0.042 F  
HETATM   42  F   UNL     1      -7.088  11.042  69.445  1.00  0.00    -0.092 F  
HETATM   43  F   UNL     1      -6.705   9.978  71.302  1.00  0.00    -0.010 F  
ENDBRANCH  36  37
ENDBRANCH  35  36
ENDBRANCH  34  35
ENDBRANCH  32  34
ENDBRANCH  31  32
ENDBRANCH  30  31
ENDBRANCH  29  30
ENDBRANCH  28  29
ENDBRANCH  27  28
ENDBRANCH  26  27
ENDBRANCH  25  26
ENDBRANCH  24  25
ENDBRANCH  23  24
ENDBRANCH  21  23
TORSDOF 14
ENDMDL
MODEL       27
REMARK 921   NORMALIZED FREE ENERGY PREDICTED BY IDOCK:   -6.48 KCAL/MOL
REMARK 922        TOTAL FREE ENERGY PREDICTED BY IDOCK:  -15.08 KCAL/MOL
REMARK 923 INTER-LIGAND FREE ENERGY PREDICTED BY IDOCK:  -11.48 KCAL/MOL
REMARK 924 INTRA-LIGAND FREE ENERGY PREDICTED BY IDOCK:   -3.60 KCAL/MOL
REMARK 927      BINDING AFFINITY PREDICTED BY RF-SCORE:    0.00 PKD
ROOT
HETATM    1  C   UNL     1     -12.245  13.263  69.120  1.00  0.00    -0.168 C  
HETATM    2  C   UNL     1     -11.099  12.458  69.374  1.00  0.00    -0.149 C  
HETATM    3  C   UNL     1     -10.982  13.783  70.076  1.00  0.00     0.264 C  
HETATM    4  C   UNL     1     -12.785  14.720  70.063  1.00  0.00    -0.157 C  
HETATM    5  O   UNL     1     -13.443  15.797  70.739  1.00  0.00    -0.756 OA 
HETATM    6  C   UNL     1     -12.555  13.696  70.950  1.00  0.00    -0.421 C  
HETATM    7  C   UNL     1     -11.613  15.015  71.825  1.00  0.00    -0.425 C  
HETATM    8  C   UNL     1     -13.499  12.851  71.727  1.00  0.00    -0.369 C  
HETATM    9  H   UNL     1     -14.285  16.235  70.733  1.00  0.00     0.000 HD 
HETATM   10  C   UNL     1     -11.055  16.299  70.717  1.00  0.00    -0.217 C  
HETATM   11  C   UNL     1     -10.880  16.080  69.029  1.00  0.00    -0.283 C  
HETATM   12  C   UNL     1     -10.697  17.310  68.132  1.00  0.00    -0.363 A  
HETATM   13  C   UNL     1     -10.240  18.524  68.679  1.00  0.00    -0.363 A  
HETATM   14  C   UNL     1      -9.866  19.597  67.863  1.00  0.00    -0.511 A  
HETATM   15  C   UNL     1      -9.957  19.471  66.486  1.00  0.00    -0.420 A  
HETATM   16  C   UNL     1     -10.395  18.285  65.916  1.00  0.00    -0.297 A  
HETATM   17  O   UNL     1      -9.601  20.486  65.648  1.00  0.00    -0.598 OA 
HETATM   18  C   UNL     1     -10.735  17.180  66.721  1.00  0.00    -0.097 A  
HETATM   19  H   UNL     1      -9.663  20.400  64.704  1.00  0.00     0.000 HD 
HETATM   20  C   UNL     1     -11.130  15.900  66.005  1.00  0.00    -0.037 C  
HETATM   21  C   UNL     1     -10.949  14.592  66.812  1.00  0.00    -0.316 C  
HETATM   22  C   UNL     1     -11.713  14.808  68.140  1.00  0.00    -0.353 C  
ENDROOT
BRANCH  21  23
HETATM   23  C   UNL     1      -9.456  14.257  67.007  1.00  0.00    -0.259 C  
BRANCH  23  24
HETATM   24  C   UNL     1      -9.015  12.867  66.588  1.00  0.00    -0.141 C  
BRANCH  24  25
HETATM   25  C   UNL     1     -10.006  12.269  65.578  1.00  0.00    -0.264 C  
BRANCH  25  26
HETATM   26  C   UNL     1     -10.803  11.061  66.100  1.00  0.00    -0.212 C  
BRANCH  26  27
HETATM   27  C   UNL     1     -10.049   9.734  66.013  1.00  0.00    -0.322 C  
BRANCH  27  28
HETATM   28  C   UNL     1      -9.806   9.127  67.395  1.00  0.00    -0.237 C  
BRANCH  28  29
HETATM   29  C   UNL     1      -8.558   9.678  68.088  1.00  0.00    -0.119 C  
BRANCH  29  30
HETATM   30  C   UNL     1      -7.973   8.776  69.187  1.00  0.00    -0.109 C  
BRANCH  30  31
HETATM   31  C   UNL     1      -7.972   9.372  70.587  1.00  0.00    -0.158 C  
BRANCH  31  32
HETATM   32  S   UNL     1      -7.767   8.102  71.879  1.00  0.00    -0.114 S  
HETATM   33  O   UNL     1      -8.383   8.643  73.136  1.00  0.00    -0.405 OA 
BRANCH  32  34
HETATM   34  C   UNL     1      -8.927   6.875  71.198  1.00  0.00    -0.143 C  
BRANCH  34  35
HETATM   35  C   UNL     1     -10.295   6.952  71.867  1.00  0.00    -0.210 C  
BRANCH  35  36
HETATM   36  C   UNL     1     -11.373   7.416  70.889  1.00  0.00    -0.300 C  
BRANCH  36  37
HETATM   37  C   UNL     1     -11.883   8.827  71.175  1.00  0.00    -0.295 C  
HETATM   38  F   UNL     1     -11.019   9.429  72.043  1.00  0.00    -0.427 F  
HETATM   39  C   UNL     1     -13.322   8.883  71.710  1.00  0.00    -0.386 C  
HETATM   40  F   UNL     1     -11.783   9.536  70.011  1.00  0.00    -0.239 F  
HETATM   41  F   UNL     1     -13.929   7.677  71.695  1.00  0.00    -0.389 F  
HETATM   42  F   UNL     1     -13.351   9.342  72.983  1.00  0.00    -0.424 F  
HETATM   43  F   UNL     1     -14.099   9.720  70.977  1.00  0.00    -0.293 F  
ENDBRANCH  36  37
ENDBRANCH  35  36
ENDBRANCH  34  35
ENDBRANCH  32  34
ENDBRANCH  31  32
ENDBRANCH  30  31
ENDBRANCH  29  30
ENDBRANCH  28  29
ENDBRANCH  27  28
ENDBRANCH  26  27
ENDBRANCH  25  26
ENDBRANCH  24  25
ENDBRANCH  23  24
ENDBRANCH  21  23
TORSDOF 14
ENDMDL
MODEL       28
REMARK 921   NORMALIZED FREE ENERGY PREDICTED BY IDOCK:   -6.46 KCAL/MOL
REMARK 922        TOTAL FREE ENERGY PREDICTED BY IDOCK:  -15.04 KCAL/MOL
REMARK 923 INTER-LIGAND FREE ENERGY PREDICTED BY IDOCK:  -10.72 KCAL/MOL
REMARK 924 INTRA-LIGAND FREE ENERGY PREDICTED BY IDOCK:   -4.32 KCAL/MOL
REMARK 927      BINDING AFFINITY PREDICTED BY RF-SCORE:    0.00 PKD
ROOT
HETATM    1  C   UNL     1     -11.283  16.244  68.581  1.00  0.00    -0.354 C  
HETATM    2  C   UNL     1     -11.331  16.075  69.993  1.00  0.00    -0.353 C  
HETATM    3  C   UNL     1      -9.973  15.708  69.461  1.00  0.00    -0.285 C  
HETATM    4  C   UNL     1      -9.793  16.366  67.547  1.00  0.00    -0.239 C  
HETATM    5  O   UNL     1      -8.760  16.608  66.586  1.00  0.00    -0.203 OA 
HETATM    6  C   UNL     1      -9.666  17.253  68.588  1.00  0.00    -0.301 C  
HETATM    7  C   UNL     1      -8.009  16.460  68.720  1.00  0.00    -0.233 C  
HETATM    8  C   UNL     1      -9.758  18.736  68.619  1.00  0.00    -0.437 C  
HETATM    9  H   UNL     1      -8.675  16.915  65.692  1.00  0.00     0.000 HD 
HETATM   10  C   UNL     1      -7.991  14.808  68.043  1.00  0.00    -0.138 C  
HETATM   11  C   UNL     1      -9.398  13.855  67.844  1.00  0.00    -0.208 C  
HETATM   12  C   UNL     1      -9.325  12.589  66.981  1.00  0.00    -0.210 A  
HETATM   13  C   UNL     1      -8.084  11.975  66.727  1.00  0.00    -0.081 A  
HETATM   14  C   UNL     1      -8.002  10.716  66.123  1.00  0.00    -0.151 A  
HETATM   15  C   UNL     1      -9.165  10.060  65.755  1.00  0.00    -0.176 A  
HETATM   16  C   UNL     1     -10.404  10.634  65.999  1.00  0.00    -0.290 A  
HETATM   17  O   UNL     1      -9.140   8.829  65.167  1.00  0.00    -0.383 OA 
HETATM   18  C   UNL     1     -10.506  11.882  66.644  1.00  0.00    -0.250 A  
HETATM   19  H   UNL     1      -9.937   8.379  64.914  1.00  0.00     0.000 HD 
HETATM   20  C   UNL     1     -11.905  12.395  66.938  1.00  0.00    -0.377 C  
HETATM   21  C   UNL     1     -12.021  13.417  68.094  1.00  0.00    -0.356 C  
HETATM   22  C   UNL     1     -11.016  14.545  67.760  1.00  0.00    -0.282 C  
ENDROOT
BRANCH  21  23
HETATM   23  C   UNL     1     -11.764  12.748  69.460  1.00  0.00    -0.383 C  
BRANCH  23  24
HETATM   24  C   UNL     1     -12.282  11.331  69.627  1.00  0.00    -0.340 C  
BRANCH  24  25
HETATM   25  C   UNL     1     -12.068  10.846  71.069  1.00  0.00    -0.425 C  
BRANCH  25  26
HETATM   26  C   UNL     1     -13.364  10.573  71.852  1.00  0.00    -0.461 C  
BRANCH  26  27
HETATM   27  C   UNL     1     -13.522   9.121  72.306  1.00  0.00    -0.546 C  
BRANCH  27  28
HETATM   28  C   UNL     1     -12.193   8.366  72.262  1.00  0.00    -0.449 C  
BRANCH  28  29
HETATM   29  C   UNL     1     -12.315   6.959  71.673  1.00  0.00    -0.413 C  
BRANCH  29  30
HETATM   30  C   UNL     1     -11.599   6.753  70.329  1.00  0.00    -0.417 C  
BRANCH  30  31
HETATM   31  C   UNL     1     -10.573   5.630  70.302  1.00  0.00    -0.300 C  
BRANCH  31  32
HETATM   32  S   UNL     1      -9.880   5.287  71.953  1.00  0.00    -0.184 S  
HETATM   33  O   UNL     1     -10.246   3.875  72.304  1.00  0.00    -0.178 OA 
BRANCH  32  34
HETATM   34  C   UNL     1      -8.121   5.284  71.482  1.00  0.00    -0.116 C  
BRANCH  34  35
HETATM   35  C   UNL     1      -7.891   5.960  70.134  1.00  0.00    -0.100 C  
BRANCH  35  36
HETATM   36  C   UNL     1      -7.379   7.390  70.303  1.00  0.00    -0.078 C  
BRANCH  36  37
HETATM   37  C   UNL     1      -7.879   8.344  69.221  1.00  0.00    -0.104 C  
HETATM   38  F   UNL     1      -6.799   8.937  68.637  1.00  0.00    -0.059 F  
HETATM   39  C   UNL     1      -8.878   9.398  69.721  1.00  0.00    -0.183 C  
HETATM   40  F   UNL     1      -8.448   7.580  68.242  1.00  0.00    -0.121 F  
HETATM   41  F   UNL     1      -9.243   9.201  71.005  1.00  0.00    -0.243 F  
HETATM   42  F   UNL     1      -8.357  10.645  69.630  1.00  0.00    -0.155 F  
HETATM   43  F   UNL     1     -10.019   9.400  68.986  1.00  0.00    -0.160 F  
ENDBRANCH  36  37
ENDBRANCH  35  36
ENDBRANCH  34  35
ENDBRANCH  32  34
ENDBRANCH  31  32
ENDBRANCH  30  31
ENDBRANCH  29  30
ENDBRANCH  28  29
ENDBRANCH  27  28
ENDBRANCH  26  27
ENDBRANCH  25  26
ENDBRANCH  24  25
ENDBRANCH  23  24
ENDBRANCH  21  23
TORSDOF 14
ENDMDL
MODEL       29
REMARK 921   NORMALIZED FREE ENERGY PREDICTED BY IDOCK:   -6.41 KCAL/MOL
REMARK 922        TOTAL FREE ENERGY PREDICTED BY IDOCK:  -14.95 KCAL/MOL
REMARK 923 INTER-LIGAND FREE ENERGY PREDICTED BY IDOCK:  -11.32 KCAL/MOL
REMARK 924 INTRA-LIGAND FREE ENERGY PREDICTED BY IDOCK:   -3.62 KCAL/MOL
REMARK 927      BINDING AFFINITY PREDICTED BY RF-SCORE:    0.00 PKD
ROOT
HETATM    1  C   UNL     1      -9.900   6.745  69.712  1.00  0.00    -0.175 C  
HETATM    2  C   UNL     1      -8.584   6.898  70.235  1.00  0.00    -0.140 C  
HETATM    3  C   UNL     1      -9.488   7.986  70.748  1.00  0.00    -0.173 C  
HETATM    4  C   UNL     1     -11.422   7.504  70.353  1.00  0.00    -0.198 C  
HETATM    5  O   UNL     1     -12.735   7.895  70.770  1.00  0.00    -0.515 OA 
HETATM    6  C   UNL     1     -10.770   6.902  71.401  1.00  0.00    -0.247 C  
HETATM    7  C   UNL     1     -11.092   8.530  72.198  1.00  0.00    -0.436 C  
HETATM    8  C   UNL     1     -11.079   5.658  72.155  1.00  0.00    -0.300 C  
HETATM    9  H   UNL     1     -13.639   7.670  70.586  1.00  0.00     0.000 HD 
HETATM   10  C   UNL     1     -11.285   9.844  71.004  1.00  0.00    -0.435 C  
HETATM   11  C   UNL     1     -10.681   9.763  69.406  1.00  0.00    -0.250 C  
HETATM   12  C   UNL     1     -11.157  10.793  68.375  1.00  0.00    -0.323 A  
HETATM   13  C   UNL     1     -11.707  12.018  68.799  1.00  0.00    -0.377 A  
HETATM   14  C   UNL     1     -11.958  13.057  67.897  1.00  0.00    -0.338 A  
HETATM   15  C   UNL     1     -11.672  12.877  66.553  1.00  0.00    -0.393 A  
HETATM   16  C   UNL     1     -11.122  11.685  66.105  1.00  0.00    -0.335 A  
HETATM   17  O   UNL     1     -11.895  13.860  65.634  1.00  0.00    -0.342 OA 
HETATM   18  C   UNL     1     -10.823  10.645  67.006  1.00  0.00    -0.298 A  
HETATM   19  H   UNL     1     -11.699  13.737  64.713  1.00  0.00     0.000 HD 
HETATM   20  C   UNL     1     -10.151   9.408  66.434  1.00  0.00    -0.332 C  
HETATM   21  C   UNL     1      -9.337   8.557  67.437  1.00  0.00    -0.178 C  
HETATM   22  C   UNL     1     -10.304   8.242  68.603  1.00  0.00    -0.225 C  
ENDROOT
BRANCH  21  23
HETATM   23  C   UNL     1      -8.055   9.290  67.882  1.00  0.00    -0.104 C  
BRANCH  23  24
HETATM   24  C   UNL     1      -7.140   9.784  66.776  1.00  0.00    -0.089 C  
BRANCH  24  25
HETATM   25  C   UNL     1      -6.959  11.307  66.867  1.00  0.00    -0.137 C  
BRANCH  25  26
HETATM   26  C   UNL     1      -7.661  11.965  68.068  1.00  0.00    -0.132 C  
BRANCH  26  27
HETATM   27  C   UNL     1      -8.191  13.371  67.784  1.00  0.00    -0.172 C  
BRANCH  27  28
HETATM   28  C   UNL     1      -7.851  14.344  68.914  1.00  0.00    -0.118 C  
BRANCH  28  29
HETATM   29  C   UNL     1      -6.791  15.376  68.526  1.00  0.00    -0.113 C  
BRANCH  29  30
HETATM   30  C   UNL     1      -6.817  16.674  69.349  1.00  0.00    -0.218 C  
BRANCH  30  31
HETATM   31  C   UNL     1      -6.188  17.886  68.676  1.00  0.00    -0.201 C  
BRANCH  31  32
HETATM   32  S   UNL     1      -6.983  19.447  69.179  1.00  0.00    -0.342 S  
HETATM   33  O   UNL     1      -5.951  20.256  69.909  1.00  0.00    -0.321 OA 
BRANCH  32  34
HETATM   34  C   UNL     1      -7.159  20.175  67.519  1.00  0.00    -0.276 C  
BRANCH  34  35
HETATM   35  C   UNL     1      -8.603  20.562  67.217  1.00  0.00    -0.372 C  
BRANCH  35  36
HETATM   36  C   UNL     1      -9.154  19.786  66.022  1.00  0.00    -0.319 C  
BRANCH  36  37
HETATM   37  C   UNL     1     -10.226  18.767  66.403  1.00  0.00    -0.421 C  
HETATM   38  F   UNL     1     -10.881  19.225  67.508  1.00  0.00    -0.499 F  
HETATM   39  C   UNL     1      -9.692  17.346  66.635  1.00  0.00    -0.290 C  
HETATM   40  F   UNL     1     -11.156  18.766  65.402  1.00  0.00    -0.382 F  
HETATM   41  F   UNL     1      -8.385  17.223  66.318  1.00  0.00    -0.262 F  
HETATM   42  F   UNL     1      -9.837  16.975  67.929  1.00  0.00    -0.246 F  
HETATM   43  F   UNL     1     -10.360  16.429  65.890  1.00  0.00    -0.302 F  
ENDBRANCH  36  37
ENDBRANCH  35  36
ENDBRANCH  34  35
ENDBRANCH  32  34
ENDBRANCH  31  32
ENDBRANCH  30  31
ENDBRANCH  29  30
ENDBRANCH  28  29
ENDBRANCH  27  28
ENDBRANCH  26  27
ENDBRANCH  25  26
ENDBRANCH  24  25
ENDBRANCH  23  24
ENDBRANCH  21  23
TORSDOF 14
ENDMDL
MODEL       30
REMARK 921   NORMALIZED FREE ENERGY PREDICTED BY IDOCK:   -6.40 KCAL/MOL
REMARK 922        TOTAL FREE ENERGY PREDICTED BY IDOCK:  -14.94 KCAL/MOL
REMARK 923 INTER-LIGAND FREE ENERGY PREDICTED BY IDOCK:  -11.30 KCAL/MOL
REMARK 924 INTRA-LIGAND FREE ENERGY PREDICTED BY IDOCK:   -3.64 KCAL/MOL
REMARK 927      BINDING AFFINITY PREDICTED BY RF-SCORE:    0.00 PKD
ROOT
HETATM    1  C   UNL     1      -8.228  13.165  68.954  1.00  0.00     0.223 C  
HETATM    2  C   UNL     1      -8.252  12.446  67.725  1.00  0.00    -0.163 C  
HETATM    3  C   UNL     1      -7.220  13.541  67.679  1.00  0.00    -0.175 C  
HETATM    4  C   UNL     1      -6.901  14.251  69.555  1.00  0.00    -0.110 C  
HETATM    5  O   UNL     1      -5.929  15.034  70.258  1.00  0.00    -0.140 OA 
HETATM    6  C   UNL     1      -6.338  13.058  69.173  1.00  0.00    -0.105 C  
HETATM    7  C   UNL     1      -5.177  14.186  68.295  1.00  0.00    -0.112 C  
HETATM    8  C   UNL     1      -5.782  11.941  69.981  1.00  0.00    -0.138 C  
HETATM    9  H   UNL     1      -5.779  15.366  71.135  1.00  0.00     0.000 HD 
HETATM   10  C   UNL     1      -5.915  15.771  67.932  1.00  0.00    -0.156 C  
HETATM   11  C   UNL     1      -7.604  16.031  67.856  1.00  0.00    -0.144 C  
HETATM   12  C   UNL     1      -8.138  17.469  67.846  1.00  0.00    -0.230 A  
HETATM   13  C   UNL     1      -7.300  18.533  67.463  1.00  0.00    -0.223 A  
HETATM   14  C   UNL     1      -7.807  19.819  67.245  1.00  0.00    -0.309 A  
HETATM   15  C   UNL     1      -9.161  20.057  67.419  1.00  0.00    -0.357 A  
HETATM   16  C   UNL     1     -10.014  19.027  67.788  1.00  0.00    -0.426 A  
HETATM   17  O   UNL     1      -9.704  21.291  67.215  1.00  0.00    -0.590 OA 
HETATM   18  C   UNL     1      -9.527  17.718  67.970  1.00  0.00    -0.281 A  
HETATM   19  H   UNL     1     -10.632  21.454  67.334  1.00  0.00     0.000 HD 
HETATM   20  C   UNL     1     -10.548  16.642  68.298  1.00  0.00    -0.338 C  
HETATM   21  C   UNL     1     -10.138  15.192  67.945  1.00  0.00    -0.222 C  
HETATM   22  C   UNL     1      -8.770  14.964  68.631  1.00  0.00    -0.177 C  
ENDROOT
BRANCH  21  23
HETATM   23  C   UNL     1     -10.105  14.976  66.418  1.00  0.00    -0.289 C  
BRANCH  23  24
HETATM   24  C   UNL     1     -11.039  13.915  65.866  1.00  0.00    -0.291 C  
BRANCH  24  25
HETATM   25  C   UNL     1     -12.104  13.539  66.908  1.00  0.00    -0.417 C  
BRANCH  25  26
HETATM   26  C   UNL     1     -11.792  12.264  67.711  1.00  0.00    -0.341 C  
BRANCH  26  27
HETATM   27  C   UNL     1     -11.200  11.131  66.873  1.00  0.00    -0.258 C  
BRANCH  27  28
HETATM   28  C   UNL     1     -11.242   9.795  67.617  1.00  0.00     0.027 C  
BRANCH  28  29
HETATM   29  C   UNL     1      -9.854   9.248  67.957  1.00  0.00    -0.191 C  
BRANCH  29  30
HETATM   30  C   UNL     1      -9.545   9.148  69.459  1.00  0.00    -0.171 C  
BRANCH  30  31
HETATM   31  C   UNL     1     -10.511   9.886  70.374  1.00  0.00    -0.285 C  
BRANCH  31  32
HETATM   32  S   UNL     1     -11.557   8.745  71.338  1.00  0.00    -0.322 S  
HETATM   33  O   UNL     1     -10.805   8.406  72.592  1.00  0.00    -0.342 OA 
BRANCH  32  34
HETATM   34  C   UNL     1     -12.855   9.937  71.798  1.00  0.00    -0.442 C  
BRANCH  34  35
HETATM   35  C   UNL     1     -12.681  11.273  71.084  1.00  0.00    -0.492 C  
BRANCH  35  36
HETATM   36  C   UNL     1     -13.065  12.446  71.984  1.00  0.00    -0.470 C  
BRANCH  36  37
HETATM   37  C   UNL     1     -12.643  13.803  71.424  1.00  0.00    -0.348 C  
HETATM   38  F   UNL     1     -11.548  13.620  70.632  1.00  0.00    -0.298 F  
HETATM   39  C   UNL     1     -12.371  14.871  72.493  1.00  0.00    -0.332 C  
HETATM   40  F   UNL     1     -13.636  14.218  70.582  1.00  0.00    -0.324 F  
HETATM   41  F   UNL     1     -12.694  14.456  73.737  1.00  0.00    -0.558 F  
HETATM   42  F   UNL     1     -11.065  15.226  72.506  1.00  0.00    -0.501 F  
HETATM   43  F   UNL     1     -13.080  16.005  72.265  1.00  0.00    -0.481 F  
ENDBRANCH  36  37
ENDBRANCH  35  36
ENDBRANCH  34  35
ENDBRANCH  32  34
ENDBRANCH  31  32
ENDBRANCH  30  31
ENDBRANCH  29  30
ENDBRANCH  28  29
ENDBRANCH  27  28
ENDBRANCH  26  27
ENDBRANCH  25  26
ENDBRANCH  24  25
ENDBRANCH  23  24
ENDBRANCH  21  23
TORSDOF 14
ENDMDL
MODEL       31
REMARK 921   NORMALIZED FREE ENERGY PREDICTED BY IDOCK:   -6.40 KCAL/MOL
REMARK 922        TOTAL FREE ENERGY PREDICTED BY IDOCK:  -14.94 KCAL/MOL
REMARK 923 INTER-LIGAND FREE ENERGY PREDICTED BY IDOCK:  -11.80 KCAL/MOL
REMARK 924 INTRA-LIGAND FREE ENERGY PREDICTED BY IDOCK:   -3.13 KCAL/MOL
REMARK 927      BINDING AFFINITY PREDICTED BY RF-SCORE:    0.00 PKD
ROOT
HETATM    1  C   UNL     1      -9.159  15.047  66.476  1.00  0.00    -0.319 C  
HETATM    2  C   UNL     1     -10.072  15.587  65.527  1.00  0.00    -0.406 C  
HETATM    3  C   UNL     1     -10.396  16.076  66.913  1.00  0.00    -0.289 C  
HETATM    4  C   UNL     1      -8.848  15.658  68.159  1.00  0.00    -0.174 C  
HETATM    5  O   UNL     1      -8.369  16.053  69.450  1.00  0.00    -0.241 OA 
HETATM    6  C   UNL     1      -8.759  16.721  67.294  1.00  0.00    -0.214 C  
HETATM    7  C   UNL     1      -9.865  17.497  68.546  1.00  0.00    -0.330 C  
HETATM    8  C   UNL     1      -7.580  17.484  66.806  1.00  0.00    -0.261 C  
HETATM    9  H   UNL     1      -7.646  15.858  70.033  1.00  0.00     0.000 HD 
HETATM   10  C   UNL     1     -10.798  16.287  69.470  1.00  0.00    -0.342 C  
HETATM   11  C   UNL     1     -11.098  14.699  68.910  1.00  0.00    -0.268 C  
HETATM   12  C   UNL     1     -11.634  13.651  69.893  1.00  0.00    -0.281 A  
HETATM   13  C   UNL     1     -12.281  14.055  71.076  1.00  0.00    -0.430 A  
HETATM   14  C   UNL     1     -12.959  13.138  71.887  1.00  0.00    -0.414 A  
HETATM   15  C   UNL     1     -12.989  11.800  71.526  1.00  0.00    -0.341 A  
HETATM   16  C   UNL     1     -12.369  11.372  70.362  1.00  0.00    -0.404 A  
HETATM   17  O   UNL     1     -13.640  10.868  72.280  1.00  0.00    -0.546 OA 
HETATM   18  C   UNL     1     -11.718  12.288  69.513  1.00  0.00    -0.398 A  
HETATM   19  H   UNL     1     -13.661   9.952  72.033  1.00  0.00     0.000 HD 
HETATM   20  C   UNL     1     -11.135  11.738  68.222  1.00  0.00    -0.291 C  
HETATM   21  C   UNL     1     -10.945  12.762  67.077  1.00  0.00    -0.295 C  
HETATM   22  C   UNL     1     -10.110  13.917  67.680  1.00  0.00    -0.241 C  
ENDROOT
BRANCH  21  23
HETATM   23  C   UNL     1     -12.302  13.217  66.503  1.00  0.00    -0.311 C  
BRANCH  23  24
HETATM   24  C   UNL     1     -12.361  13.443  65.004  1.00  0.00    -0.481 C  
BRANCH  24  25
HETATM   25  C   UNL     1     -12.525  12.107  64.264  1.00  0.00    -0.461 C  
BRANCH  25  26
HETATM   26  C   UNL     1     -11.423  11.804  63.234  1.00  0.00    -0.332 C  
BRANCH  26  27
HETATM   27  C   UNL     1     -10.012  11.788  63.820  1.00  0.00    -0.379 C  
BRANCH  27  28
HETATM   28  C   UNL     1      -9.768  10.546  64.679  1.00  0.00    -0.369 C  
BRANCH  28  29
HETATM   29  C   UNL     1      -8.286  10.270  64.938  1.00  0.00    -0.157 C  
BRANCH  29  30
HETATM   30  C   UNL     1      -7.821  10.522  66.381  1.00  0.00    -0.138 C  
BRANCH  30  31
HETATM   31  C   UNL     1      -7.351   9.289  67.140  1.00  0.00    -0.091 C  
BRANCH  31  32
HETATM   32  S   UNL     1      -6.709   9.699  68.795  1.00  0.00    -0.051 S  
HETATM   33  O   UNL     1      -5.847  10.919  68.648  1.00  0.00    -0.044 OA 
BRANCH  32  34
HETATM   34  C   UNL     1      -8.281  10.241  69.538  1.00  0.00    -0.155 C  
BRANCH  34  35
HETATM   35  C   UNL     1      -8.680   9.372  70.726  1.00  0.00    -0.216 C  
BRANCH  35  36
HETATM   36  C   UNL     1      -9.122   7.979  70.279  1.00  0.00    -0.148 C  
BRANCH  36  37
HETATM   37  C   UNL     1     -10.622   7.878  70.010  1.00  0.00    -0.242 C  
HETATM   38  F   UNL     1     -11.269   8.742  70.844  1.00  0.00    -0.261 F  
HETATM   39  C   UNL     1     -11.194   6.459  70.144  1.00  0.00    -0.390 C  
HETATM   40  F   UNL     1     -10.839   8.358  68.749  1.00  0.00    -0.211 F  
HETATM   41  F   UNL     1     -10.235   5.528  70.338  1.00  0.00    -0.240 F  
HETATM   42  F   UNL     1     -12.060   6.378  71.182  1.00  0.00    -0.386 F  
HETATM   43  F   UNL     1     -11.881   6.085  69.035  1.00  0.00    -0.254 F  
ENDBRANCH  36  37
ENDBRANCH  35  36
ENDBRANCH  34  35
ENDBRANCH  32  34
ENDBRANCH  31  32
ENDBRANCH  30  31
ENDBRANCH  29  30
ENDBRANCH  28  29
ENDBRANCH  27  28
ENDBRANCH  26  27
ENDBRANCH  25  26
ENDBRANCH  24  25
ENDBRANCH  23  24
ENDBRANCH  21  23
TORSDOF 14
ENDMDL
MODEL       32
REMARK 921   NORMALIZED FREE ENERGY PREDICTED BY IDOCK:   -6.40 KCAL/MOL
REMARK 922        TOTAL FREE ENERGY PREDICTED BY IDOCK:  -14.92 KCAL/MOL
REMARK 923 INTER-LIGAND FREE ENERGY PREDICTED BY IDOCK:  -11.64 KCAL/MOL
REMARK 924 INTRA-LIGAND FREE ENERGY PREDICTED BY IDOCK:   -3.29 KCAL/MOL
REMARK 927      BINDING AFFINITY PREDICTED BY RF-SCORE:    0.00 PKD
ROOT
HETATM    1  C   UNL     1      -9.671   6.283  71.862  1.00  0.00    -0.166 C  
HETATM    2  C   UNL     1     -11.088   6.304  71.997  1.00  0.00    -0.313 C  
HETATM    3  C   UNL     1     -10.693   5.821  70.628  1.00  0.00    -0.351 C  
HETATM    4  C   UNL     1      -8.709   5.385  70.609  1.00  0.00    -0.128 C  
HETATM    5  O   UNL     1      -7.774   4.663  69.800  1.00  0.00    -0.057 OA 
HETATM    6  C   UNL     1      -9.595   4.505  71.180  1.00  0.00    -0.245 C  
HETATM    7  C   UNL     1      -9.938   4.110  69.414  1.00  0.00    -0.036 C  
HETATM    8  C   UNL     1      -9.378   3.388  72.137  1.00  0.00    -0.180 C  
HETATM    9  H   UNL     1      -6.847   4.459  69.791  1.00  0.00     0.000 HD 
HETATM   10  C   UNL     1      -9.543   5.469  68.326  1.00  0.00    -0.148 C  
HETATM   11  C   UNL     1      -9.432   7.095  68.847  1.00  0.00    -0.142 C  
HETATM   12  C   UNL     1      -8.792   8.134  67.918  1.00  0.00    -0.131 A  
HETATM   13  C   UNL     1      -8.706   7.889  66.535  1.00  0.00    -0.162 A  
HETATM   14  C   UNL     1      -8.321   8.893  65.639  1.00  0.00    -0.144 A  
HETATM   15  C   UNL     1      -8.007  10.154  66.121  1.00  0.00    -0.125 A  
HETATM   16  C   UNL     1      -8.091  10.428  67.478  1.00  0.00    -0.107 A  
HETATM   17  O   UNL     1      -7.631  11.166  65.289  1.00  0.00    -0.341 OA 
HETATM   18  C   UNL     1      -8.518   9.442  68.388  1.00  0.00    -0.120 A  
HETATM   19  H   UNL     1      -7.416  12.030  65.618  1.00  0.00     0.000 HD 
HETATM   20  C   UNL     1      -8.653   9.859  69.843  1.00  0.00    -0.216 C  
HETATM   21  C   UNL     1      -9.618   9.008  70.702  1.00  0.00    -0.289 C  
HETATM   22  C   UNL     1      -9.155   7.542  70.528  1.00  0.00    -0.156 C  
ENDROOT
BRANCH  21  23
HETATM   23  C   UNL     1     -11.086   9.243  70.292  1.00  0.00    -0.289 C  
BRANCH  23  24
HETATM   24  C   UNL     1     -12.047   9.618  71.405  1.00  0.00    -0.472 C  
BRANCH  24  25
HETATM   25  C   UNL     1     -13.002  10.728  70.939  1.00  0.00    -0.385 C  
BRANCH  25  26
HETATM   26  C   UNL     1     -12.561  12.153  71.315  1.00  0.00    -0.341 C  
BRANCH  26  27
HETATM   27  C   UNL     1     -13.575  12.914  72.168  1.00  0.00    -0.589 C  
BRANCH  27  28
HETATM   28  C   UNL     1     -13.489  14.424  71.941  1.00  0.00    -0.479 C  
BRANCH  28  29
HETATM   29  C   UNL     1     -12.098  14.999  72.218  1.00  0.00    -0.446 C  
BRANCH  29  30
HETATM   30  C   UNL     1     -11.580  15.985  71.160  1.00  0.00    -0.492 C  
BRANCH  30  31
HETATM   31  C   UNL     1     -10.632  15.393  70.126  1.00  0.00    -0.295 C  
BRANCH  31  32
HETATM   32  S   UNL     1     -11.296  15.511  68.433  1.00  0.00    -0.362 S  
HETATM   33  O   UNL     1     -10.123  15.546  67.497  1.00  0.00    -0.237 OA 
BRANCH  32  34
HETATM   34  C   UNL     1     -12.010  13.839  68.336  1.00  0.00    -0.360 C  
BRANCH  34  35
HETATM   35  C   UNL     1     -10.977  12.802  67.908  1.00  0.00    -0.262 C  
BRANCH  35  36
HETATM   36  C   UNL     1     -11.497  11.928  66.767  1.00  0.00    -0.384 C  
BRANCH  36  37
HETATM   37  C   UNL     1     -11.060  12.411  65.386  1.00  0.00    -0.306 C  
HETATM   38  F   UNL     1      -9.876  13.076  65.517  1.00  0.00    -0.266 F  
HETATM   39  C   UNL     1     -12.098  13.283  64.663  1.00  0.00    -0.408 C  
HETATM   40  F   UNL     1     -10.773  11.301  64.643  1.00  0.00    -0.347 F  
HETATM   41  F   UNL     1     -13.273  13.346  65.324  1.00  0.00    -0.460 F  
HETATM   42  F   UNL     1     -11.647  14.549  64.506  1.00  0.00    -0.368 F  
HETATM   43  F   UNL     1     -12.374  12.811  63.422  1.00  0.00    -0.532 F  
ENDBRANCH  36  37
ENDBRANCH  35  36
ENDBRANCH  34  35
ENDBRANCH  32  34
ENDBRANCH  31  32
ENDBRANCH  30  31
ENDBRANCH  29  30
ENDBRANCH  28  29
ENDBRANCH  27  28
ENDBRANCH  26  27
ENDBRANCH  25  26
ENDBRANCH  24  25
ENDBRANCH  23  24
ENDBRANCH  21  23
TORSDOF 14
ENDMDL
MODEL       33
REMARK 921   NORMALIZED FREE ENERGY PREDICTED BY IDOCK:   -6.31 KCAL/MOL
REMARK 922        TOTAL FREE ENERGY PREDICTED BY IDOCK:  -14.77 KCAL/MOL
REMARK 923 INTER-LIGAND FREE ENERGY PREDICTED BY IDOCK:  -10.61 KCAL/MOL
REMARK 924 INTRA-LIGAND FREE ENERGY PREDICTED BY IDOCK:   -4.16 KCAL/MOL
REMARK 927      BINDING AFFINITY PREDICTED BY RF-SCORE:    0.00 PKD
ROOT
HETATM    1  C   UNL     1     -11.986  12.481  66.766  1.00  0.00    -0.327 C  
HETATM    2  C   UNL     1     -11.147  13.380  67.483  1.00  0.00    -0.294 C  
HETATM    3  C   UNL     1     -10.428  12.826  66.283  1.00  0.00    -0.273 C  
HETATM    4  C   UNL     1     -11.763  11.911  65.055  1.00  0.00    -0.188 C  
HETATM    5  O   UNL     1     -11.838  11.448  63.702  1.00  0.00    -0.520 OA 
HETATM    6  C   UNL     1     -11.675  13.282  65.065  1.00  0.00    -0.362 C  
HETATM    7  C   UNL     1     -10.164  12.932  64.071  1.00  0.00    -0.256 C  
HETATM    8  C   UNL     1     -12.624  14.322  64.589  1.00  0.00    -0.277 C  
HETATM    9  H   UNL     1     -12.461  11.021  63.127  1.00  0.00     0.000 HD 
HETATM   10  C   UNL     1      -9.502  11.305  64.392  1.00  0.00    -0.206 C  
HETATM   11  C   UNL     1      -9.830  10.417  65.817  1.00  0.00    -0.300 C  
HETATM   12  C   UNL     1      -9.475   8.926  65.865  1.00  0.00    -0.303 A  
HETATM   13  C   UNL     1      -8.521   8.396  64.975  1.00  0.00    -0.160 A  
HETATM   14  C   UNL     1      -8.025   7.096  65.126  1.00  0.00    -0.128 A  
HETATM   15  C   UNL     1      -8.488   6.306  66.166  1.00  0.00    -0.138 A  
HETATM   16  C   UNL     1      -9.421   6.803  67.065  1.00  0.00    -0.175 A  
HETATM   17  O   UNL     1      -8.033   5.035  66.358  1.00  0.00    -0.105 OA 
HETATM   18  C   UNL     1      -9.899   8.123  66.953  1.00  0.00    -0.316 A  
HETATM   19  H   UNL     1      -8.350   4.493  67.071  1.00  0.00     0.000 HD 
HETATM   20  C   UNL     1     -10.859   8.602  68.027  1.00  0.00    -0.040 C  
HETATM   21  C   UNL     1     -10.931  10.134  68.234  1.00  0.00    -0.299 C  
HETATM   22  C   UNL     1     -11.229  10.733  66.839  1.00  0.00    -0.109 C  
ENDROOT
BRANCH  21  23
HETATM   23  C   UNL     1      -9.635  10.674  68.872  1.00  0.00    -0.204 C  
BRANCH  23  24
HETATM   24  C   UNL     1      -8.987   9.798  69.929  1.00  0.00    -0.254 C  
BRANCH  24  25
HETATM   25  C   UNL     1      -7.609   9.312  69.454  1.00  0.00    -0.080 C  
BRANCH  25  26
HETATM   26  C   UNL     1      -6.661  10.429  68.986  1.00  0.00    -0.058 C  
BRANCH  26  27
HETATM   27  C   UNL     1      -6.503  10.516  67.468  1.00  0.00    -0.058 C  
BRANCH  27  28
HETATM   28  C   UNL     1      -6.697  11.945  66.959  1.00  0.00    -0.119 C  
BRANCH  28  29
HETATM   29  C   UNL     1      -6.999  12.950  68.073  1.00  0.00    -0.108 C  
BRANCH  29  30
HETATM   30  C   UNL     1      -7.437  14.342  67.591  1.00  0.00    -0.194 C  
BRANCH  30  31
HETATM   31  C   UNL     1      -8.119  15.210  68.638  1.00  0.00    -0.154 C  
BRANCH  31  32
HETATM   32  S   UNL     1      -8.933  16.667  67.905  1.00  0.00    -0.220 S  
HETATM   33  O   UNL     1      -9.377  16.280  66.525  1.00  0.00    -0.233 OA 
BRANCH  32  34
HETATM   34  C   UNL     1     -10.415  16.674  68.963  1.00  0.00    -0.328 C  
BRANCH  34  35
HETATM   35  C   UNL     1     -10.370  15.571  70.015  1.00  0.00    -0.315 C  
BRANCH  35  36
HETATM   36  C   UNL     1     -11.247  15.908  71.220  1.00  0.00    -0.325 C  
BRANCH  36  37
HETATM   37  C   UNL     1     -12.543  15.102  71.270  1.00  0.00    -0.353 C  
HETATM   38  F   UNL     1     -13.465  15.720  70.477  1.00  0.00    -0.429 F  
HETATM   39  C   UNL     1     -13.098  14.885  72.686  1.00  0.00    -0.427 C  
HETATM   40  F   UNL     1     -12.293  13.900  70.670  1.00  0.00    -0.361 F  
HETATM   41  F   UNL     1     -12.258  15.327  73.647  1.00  0.00    -0.474 F  
HETATM   42  F   UNL     1     -14.280  15.523  72.849  1.00  0.00    -0.549 F  
HETATM   43  F   UNL     1     -13.326  13.572  72.942  1.00  0.00    -0.588 F  
ENDBRANCH  36  37
ENDBRANCH  35  36
ENDBRANCH  34  35
ENDBRANCH  32  34
ENDBRANCH  31  32
ENDBRANCH  30  31
ENDBRANCH  29  30
ENDBRANCH  28  29
ENDBRANCH  27  28
ENDBRANCH  26  27
ENDBRANCH  25  26
ENDBRANCH  24  25
ENDBRANCH  23  24
ENDBRANCH  21  23
TORSDOF 14
ENDMDL
MODEL       34
REMARK 921   NORMALIZED FREE ENERGY PREDICTED BY IDOCK:   -6.31 KCAL/MOL
REMARK 922        TOTAL FREE ENERGY PREDICTED BY IDOCK:  -14.77 KCAL/MOL
REMARK 923 INTER-LIGAND FREE ENERGY PREDICTED BY IDOCK:  -12.54 KCAL/MOL
REMARK 924 INTRA-LIGAND FREE ENERGY PREDICTED BY IDOCK:   -2.23 KCAL/MOL
REMARK 927      BINDING AFFINITY PREDICTED BY RF-SCORE:    0.00 PKD
ROOT
HETATM    1  C   UNL     1      -9.791   7.518  73.022  1.00  0.00    -0.292 C  
HETATM    2  C   UNL     1     -11.131   7.294  73.447  1.00  0.00    -0.185 C  
HETATM    3  C   UNL     1     -10.808   6.451  72.243  1.00  0.00    -0.272 C  
HETATM    4  C   UNL     1      -8.801   6.454  71.930  1.00  0.00    -0.138 C  
HETATM    5  O   UNL     1      -7.825   5.701  71.202  1.00  0.00    -0.104 OA 
HETATM    6  C   UNL     1      -9.335   5.670  72.924  1.00  0.00    -0.144 C  
HETATM    7  C   UNL     1      -9.795   4.615  71.485  1.00  0.00    -0.259 C  
HETATM    8  C   UNL     1      -8.702   5.034  74.108  1.00  0.00    -0.114 C  
HETATM    9  H   UNL     1      -6.887   5.702  71.056  1.00  0.00     0.000 HD 
HETATM   10  C   UNL     1      -9.927   5.552  69.972  1.00  0.00    -0.285 C  
HETATM   11  C   UNL     1     -10.184   7.243  69.927  1.00  0.00    -0.210 C  
HETATM   12  C   UNL     1      -9.977   7.995  68.607  1.00  0.00    -0.200 A  
HETATM   13  C   UNL     1     -10.015   7.300  67.383  1.00  0.00    -0.228 A  
HETATM   14  C   UNL     1     -10.035   7.979  66.160  1.00  0.00     0.021 A  
HETATM   15  C   UNL     1     -10.008   9.364  66.147  1.00  0.00    -0.281 A  
HETATM   16  C   UNL     1      -9.979  10.077  67.337  1.00  0.00    -0.242 A  
HETATM   17  O   UNL     1     -10.031  10.072  64.982  1.00  0.00    -0.326 OA 
HETATM   18  C   UNL     1     -10.000   9.411  68.577  1.00  0.00    -0.190 A  
HETATM   19  H   UNL     1     -10.012  11.021  64.973  1.00  0.00     0.000 HD 
HETATM   20  C   UNL     1     -10.045  10.277  69.825  1.00  0.00    -0.244 C  
HETATM   21  C   UNL     1     -10.624   9.606  71.093  1.00  0.00    -0.327 C  
HETATM   22  C   UNL     1      -9.814   8.302  71.285  1.00  0.00    -0.225 C  
ENDROOT
BRANCH  21  23
HETATM   23  C   UNL     1     -12.143   9.374  70.959  1.00  0.00    -0.373 C  
BRANCH  23  24
HETATM   24  C   UNL     1     -13.039  10.264  71.799  1.00  0.00    -0.570 C  
BRANCH  24  25
HETATM   25  C   UNL     1     -12.798  11.743  71.461  1.00  0.00    -0.450 C  
BRANCH  25  26
HETATM   26  C   UNL     1     -13.534  12.738  72.375  1.00  0.00    -0.512 C  
BRANCH  26  27
HETATM   27  C   UNL     1     -13.171  14.201  72.122  1.00  0.00    -0.510 C  
BRANCH  27  28
HETATM   28  C   UNL     1     -12.278  14.359  70.890  1.00  0.00    -0.413 C  
BRANCH  28  29
HETATM   29  C   UNL     1     -12.290  15.776  70.311  1.00  0.00    -0.341 C  
BRANCH  29  30
HETATM   30  C   UNL     1     -11.670  15.911  68.912  1.00  0.00    -0.376 C  
BRANCH  30  31
HETATM   31  C   UNL     1     -10.569  16.954  68.784  1.00  0.00    -0.355 C  
BRANCH  31  32
HETATM   32  S   UNL     1      -9.398  16.562  67.444  1.00  0.00    -0.223 S  
HETATM   33  O   UNL     1      -8.053  17.080  67.863  1.00  0.00    -0.187 OA 
BRANCH  32  34
HETATM   34  C   UNL     1      -9.370  14.755  67.668  1.00  0.00    -0.195 C  
BRANCH  34  35
HETATM   35  C   UNL     1      -9.541  14.014  66.347  1.00  0.00    -0.299 C  
BRANCH  35  36
HETATM   36  C   UNL     1     -10.247  14.879  65.305  1.00  0.00    -0.404 C  
BRANCH  36  37
HETATM   37  C   UNL     1     -11.627  14.353  64.915  1.00  0.00    -0.395 C  
HETATM   38  F   UNL     1     -12.337  14.120  66.057  1.00  0.00    -0.406 F  
HETATM   39  C   UNL     1     -11.598  13.101  64.026  1.00  0.00    -0.428 C  
HETATM   40  F   UNL     1     -12.282  15.369  64.280  1.00  0.00    -0.461 F  
HETATM   41  F   UNL     1     -10.350  12.773  63.630  1.00  0.00    -0.404 F  
HETATM   42  F   UNL     1     -12.117  12.031  64.674  1.00  0.00    -0.411 F  
HETATM   43  F   UNL     1     -12.334  13.267  62.899  1.00  0.00    -0.577 F  
ENDBRANCH  36  37
ENDBRANCH  35  36
ENDBRANCH  34  35
ENDBRANCH  32  34
ENDBRANCH  31  32
ENDBRANCH  30  31
ENDBRANCH  29  30
ENDBRANCH  28  29
ENDBRANCH  27  28
ENDBRANCH  26  27
ENDBRANCH  25  26
ENDBRANCH  24  25
ENDBRANCH  23  24
ENDBRANCH  21  23
TORSDOF 14
ENDMDL
MODEL       35
REMARK 921   NORMALIZED FREE ENERGY PREDICTED BY IDOCK:   -6.27 KCAL/MOL
REMARK 922        TOTAL FREE ENERGY PREDICTED BY IDOCK:  -14.69 KCAL/MOL
REMARK 923 INTER-LIGAND FREE ENERGY PREDICTED BY IDOCK:  -11.66 KCAL/MOL
REMARK 924 INTRA-LIGAND FREE ENERGY PREDICTED BY IDOCK:   -3.03 KCAL/MOL
REMARK 927      BINDING AFFINITY PREDICTED BY RF-SCORE:    0.00 PKD
ROOT
HETATM    1  C   UNL     1     -10.586  10.623  66.712  1.00  0.00    -0.297 C  
HETATM    2  C   UNL     1      -9.732  11.181  67.704  1.00  0.00    -0.184 C  
HETATM    3  C   UNL     1      -8.927  10.465  66.654  1.00  0.00    -0.155 C  
HETATM    4  C   UNL     1     -10.107  10.066  65.049  1.00  0.00    -0.157 C  
HETATM    5  O   UNL     1      -9.962   9.695  63.674  1.00  0.00    -0.327 OA 
HETATM    6  C   UNL     1      -9.614  11.335  65.235  1.00  0.00    -0.265 C  
HETATM    7  C   UNL     1      -8.075  10.550  64.595  1.00  0.00    -0.064 C  
HETATM    8  C   UNL     1     -10.044  12.639  64.667  1.00  0.00    -0.260 C  
HETATM    9  H   UNL     1     -10.513   9.509  62.923  1.00  0.00     0.000 HD 
HETATM   10  C   UNL     1      -8.045   8.787  64.879  1.00  0.00    -0.147 C  
HETATM   11  C   UNL     1      -8.986   8.007  66.075  1.00  0.00    -0.205 C  
HETATM   12  C   UNL     1      -9.124   6.480  66.037  1.00  0.00    -0.111 A  
HETATM   13  C   UNL     1      -8.178   5.700  65.345  1.00  0.00    -0.132 A  
HETATM   14  C   UNL     1      -8.157   4.306  65.462  1.00  0.00    -0.101 A  
HETATM   15  C   UNL     1      -9.091   3.674  66.266  1.00  0.00    -0.154 A  
HETATM   16  C   UNL     1     -10.031   4.416  66.968  1.00  0.00    -0.197 A  
HETATM   17  O   UNL     1      -9.109   2.319  66.416  1.00  0.00    -0.210 OA 
HETATM   18  C   UNL     1     -10.040   5.822  66.895  1.00  0.00    -0.231 A  
HETATM   19  H   UNL     1      -9.750   1.885  66.968  1.00  0.00     0.000 HD 
HETATM   20  C   UNL     1     -11.056   6.550  67.758  1.00  0.00    -0.366 C  
HETATM   21  C   UNL     1     -10.712   8.017  68.114  1.00  0.00    -0.093 C  
HETATM   22  C   UNL     1     -10.439   8.723  66.765  1.00  0.00    -0.283 C  
ENDROOT
BRANCH  21  23
HETATM   23  C   UNL     1      -9.527   8.090  69.098  1.00  0.00    -0.155 C  
BRANCH  23  24
HETATM   24  C   UNL     1      -9.786   8.796  70.417  1.00  0.00    -0.212 C  
BRANCH  24  25
HETATM   25  C   UNL     1     -11.169   8.414  70.968  1.00  0.00    -0.304 C  
BRANCH  25  26
HETATM   26  C   UNL     1     -12.051   9.610  71.368  1.00  0.00    -0.472 C  
BRANCH  26  27
HETATM   27  C   UNL     1     -12.308  10.601  70.233  1.00  0.00    -0.406 C  
BRANCH  27  28
HETATM   28  C   UNL     1     -12.458  12.031  70.753  1.00  0.00    -0.372 C  
BRANCH  28  29
HETATM   29  C   UNL     1     -13.225  12.119  72.074  1.00  0.00    -0.496 C  
BRANCH  29  30
HETATM   30  C   UNL     1     -13.986  13.436  72.297  1.00  0.00    -0.605 C  
BRANCH  30  31
HETATM   31  C   UNL     1     -13.611  14.573  71.358  1.00  0.00    -0.381 C  
BRANCH  31  32
HETATM   32  S   UNL     1     -12.519  15.796  72.154  1.00  0.00    -0.483 S  
HETATM   33  O   UNL     1     -11.899  15.128  73.346  1.00  0.00    -0.406 OA 
BRANCH  32  34
HETATM   34  C   UNL     1     -11.245  15.866  70.855  1.00  0.00    -0.351 C  
BRANCH  34  35
HETATM   35  C   UNL     1     -11.741  15.279  69.538  1.00  0.00    -0.359 C  
BRANCH  35  36
HETATM   36  C   UNL     1     -11.251  16.092  68.341  1.00  0.00    -0.364 C  
BRANCH  36  37
HETATM   37  C   UNL     1     -11.075  15.257  67.074  1.00  0.00    -0.305 C  
HETATM   38  F   UNL     1     -10.225  14.227  67.352  1.00  0.00    -0.240 F  
HETATM   39  C   UNL     1     -10.586  16.054  65.855  1.00  0.00    -0.328 C  
HETATM   40  F   UNL     1     -12.280  14.673  66.805  1.00  0.00    -0.402 F  
HETATM   41  F   UNL     1     -10.537  17.383  66.089  1.00  0.00    -0.338 F  
HETATM   42  F   UNL     1      -9.348  15.658  65.478  1.00  0.00    -0.344 F  
HETATM   43  F   UNL     1     -11.395  15.877  64.780  1.00  0.00    -0.393 F  
ENDBRANCH  36  37
ENDBRANCH  35  36
ENDBRANCH  34  35
ENDBRANCH  32  34
ENDBRANCH  31  32
ENDBRANCH  30  31
ENDBRANCH  29  30
ENDBRANCH  28  29
ENDBRANCH  27  28
ENDBRANCH  26  27
ENDBRANCH  25  26
ENDBRANCH  24  25
ENDBRANCH  23  24
ENDBRANCH  21  23
TORSDOF 14
ENDMDL
MODEL       36
REMARK 921   NORMALIZED FREE ENERGY PREDICTED BY IDOCK:   -6.27 KCAL/MOL
REMARK 922        TOTAL FREE ENERGY PREDICTED BY IDOCK:  -14.69 KCAL/MOL
REMARK 923 INTER-LIGAND FREE ENERGY PREDICTED BY IDOCK:  -12.36 KCAL/MOL
REMARK 924 INTRA-LIGAND FREE ENERGY PREDICTED BY IDOCK:   -2.32 KCAL/MOL
REMARK 927      BINDING AFFINITY PREDICTED BY RF-SCORE:    0.00 PKD
ROOT
HETATM    1  C   UNL     1      -9.569   8.859  70.670  1.00  0.00    -0.262 C  
HETATM    2  C   UNL     1     -10.773   9.606  70.540  1.00  0.00    -0.374 C  
HETATM    3  C   UNL     1     -11.035   8.139  70.338  1.00  0.00    -0.248 C  
HETATM    4  C   UNL     1      -9.421   7.070  70.953  1.00  0.00    -0.160 C  
HETATM    5  O   UNL     1      -9.094   5.720  71.299  1.00  0.00    -0.139 OA 
HETATM    6  C   UNL     1     -10.295   7.580  71.882  1.00  0.00    -0.226 C  
HETATM    7  C   UNL     1     -11.318   6.156  71.318  1.00  0.00    -0.335 C  
HETATM    8  C   UNL     1     -10.137   7.818  73.341  1.00  0.00    -0.327 C  
HETATM    9  H   UNL     1      -8.339   5.220  71.587  1.00  0.00     0.000 HD 
HETATM   10  C   UNL     1     -10.901   5.635  69.662  1.00  0.00    -0.365 C  
HETATM   11  C   UNL     1     -10.110   6.641  68.527  1.00  0.00    -0.166 C  
HETATM   12  C   UNL     1      -9.525   6.014  67.255  1.00  0.00    -0.119 A  
HETATM   13  C   UNL     1      -9.990   4.766  66.802  1.00  0.00    -0.253 A  
HETATM   14  C   UNL     1      -9.630   4.265  65.546  1.00  0.00    -0.188 A  
HETATM   15  C   UNL     1      -8.789   5.006  64.731  1.00  0.00    -0.128 A  
HETATM   16  C   UNL     1      -8.321   6.245  65.146  1.00  0.00    -0.119 A  
HETATM   17  O   UNL     1      -8.413   4.564  63.497  1.00  0.00    -0.102 OA 
HETATM   18  C   UNL     1      -8.707   6.782  66.389  1.00  0.00    -0.142 A  
HETATM   19  H   UNL     1      -7.837   5.072  62.939  1.00  0.00     0.000 HD 
HETATM   20  C   UNL     1      -8.206   8.177  66.723  1.00  0.00    -0.107 C  
HETATM   21  C   UNL     1      -9.045   8.966  67.757  1.00  0.00    -0.143 C  
HETATM   22  C   UNL     1      -9.159   8.046  68.995  1.00  0.00    -0.144 C  
ENDROOT
BRANCH  21  23
HETATM   23  C   UNL     1     -10.410   9.381  67.170  1.00  0.00    -0.326 C  
BRANCH  23  24
HETATM   24  C   UNL     1     -10.598  10.858  66.875  1.00  0.00    -0.312 C  
BRANCH  24  25
HETATM   25  C   UNL     1      -9.492  11.364  65.937  1.00  0.00    -0.251 C  
BRANCH  25  26
HETATM   26  C   UNL     1      -9.635  10.910  64.474  1.00  0.00    -0.312 C  
BRANCH  26  27
HETATM   27  C   UNL     1     -10.942  11.345  63.812  1.00  0.00    -0.448 C  
BRANCH  27  28
HETATM   28  C   UNL     1     -11.106  12.866  63.827  1.00  0.00    -0.424 C  
BRANCH  28  29
HETATM   29  C   UNL     1     -12.379  13.331  64.538  1.00  0.00    -0.428 C  
BRANCH  29  30
HETATM   30  C   UNL     1     -12.149  14.073  65.863  1.00  0.00    -0.448 C  
BRANCH  30  31
HETATM   31  C   UNL     1     -10.784  14.730  66.014  1.00  0.00    -0.312 C  
BRANCH  31  32
HETATM   32  S   UNL     1     -10.470  15.285  67.722  1.00  0.00    -0.258 S  
HETATM   33  O   UNL     1     -11.095  16.642  67.870  1.00  0.00    -0.315 OA 
BRANCH  32  34
HETATM   34  C   UNL     1     -11.561  14.097  68.567  1.00  0.00    -0.316 C  
BRANCH  34  35
HETATM   35  C   UNL     1     -12.112  14.659  69.873  1.00  0.00    -0.385 C  
BRANCH  35  36
HETATM   36  C   UNL     1     -12.216  13.579  70.949  1.00  0.00    -0.387 C  
BRANCH  36  37
HETATM   37  C   UNL     1     -13.104  13.980  72.125  1.00  0.00    -0.411 C  
HETATM   38  F   UNL     1     -14.296  14.423  71.632  1.00  0.00    -0.453 F  
HETATM   39  C   UNL     1     -12.479  15.023  73.063  1.00  0.00    -0.409 C  
HETATM   40  F   UNL     1     -13.398  12.838  72.816  1.00  0.00    -0.542 F  
HETATM   41  F   UNL     1     -11.192  15.294  72.756  1.00  0.00    -0.529 F  
HETATM   42  F   UNL     1     -13.165  16.190  73.020  1.00  0.00    -0.513 F  
HETATM   43  F   UNL     1     -12.493  14.611  74.355  1.00  0.00    -0.536 F  
ENDBRANCH  36  37
ENDBRANCH  35  36
ENDBRANCH  34  35
ENDBRANCH  32  34
ENDBRANCH  31  32
ENDBRANCH  30  31
ENDBRANCH  29  30
ENDBRANCH  28  29
ENDBRANCH  27  28
ENDBRANCH  26  27
ENDBRANCH  25  26
ENDBRANCH  24  25
ENDBRANCH  23  24
ENDBRANCH  21  23
TORSDOF 14
ENDMDL
MODEL       37
REMARK 921   NORMALIZED FREE ENERGY PREDICTED BY IDOCK:   -6.26 KCAL/MOL
REMARK 922        TOTAL FREE ENERGY PREDICTED BY IDOCK:  -14.68 KCAL/MOL
REMARK 923 INTER-LIGAND FREE ENERGY PREDICTED BY IDOCK:  -11.44 KCAL/MOL
REMARK 924 INTRA-LIGAND FREE ENERGY PREDICTED BY IDOCK:   -3.24 KCAL/MOL
REMARK 927      BINDING AFFINITY PREDICTED BY RF-SCORE:    0.00 PKD
ROOT
HETATM    1  C   UNL     1     -10.521   8.990  67.415  1.00  0.00    -0.338 C  
HETATM    2  C   UNL     1      -9.982  10.082  68.152  1.00  0.00    -0.176 C  
HETATM    3  C   UNL     1      -8.900   9.100  67.791  1.00  0.00    -0.125 C  
HETATM    4  C   UNL     1      -9.599   7.804  66.391  1.00  0.00    -0.165 C  
HETATM    5  O   UNL     1      -9.083   6.860  65.447  1.00  0.00    -0.369 OA 
HETATM    6  C   UNL     1      -9.225   9.073  66.020  1.00  0.00    -0.284 C  
HETATM    7  C   UNL     1      -7.542   8.346  66.192  1.00  0.00    -0.089 C  
HETATM    8  C   UNL     1      -9.545   9.866  64.804  1.00  0.00    -0.339 C  
HETATM    9  H   UNL     1      -9.410   6.255  64.792  1.00  0.00     0.000 HD 
HETATM   10  C   UNL     1      -7.514   6.956  67.313  1.00  0.00    -0.096 C  
HETATM   11  C   UNL     1      -8.704   6.687  68.512  1.00  0.00    -0.123 C  
HETATM   12  C   UNL     1      -8.764   5.323  69.210  1.00  0.00    -0.108 A  
HETATM   13  C   UNL     1      -7.638   4.478  69.212  1.00  0.00    -0.055 A  
HETATM   14  C   UNL     1      -7.590   3.328  70.007  1.00  0.00    -0.044 A  
HETATM   15  C   UNL     1      -8.676   3.004  70.804  1.00  0.00    -0.075 A  
HETATM   16  C   UNL     1      -9.797   3.821  70.830  1.00  0.00    -0.192 A  
HETATM   17  O   UNL     1      -8.677   1.896  71.600  1.00  0.00    -0.060 OA 
HETATM   18  C   UNL     1      -9.845   5.004  70.069  1.00  0.00    -0.298 A  
HETATM   19  H   UNL     1      -9.422   1.674  72.146  1.00  0.00     0.000 HD 
HETATM   20  C   UNL     1     -11.081   5.873  70.222  1.00  0.00    -0.368 C  
HETATM   21  C   UNL     1     -10.904   7.369  69.865  1.00  0.00    -0.259 C  
HETATM   22  C   UNL     1     -10.316   7.392  68.434  1.00  0.00    -0.224 C  
ENDROOT
BRANCH  21  23
HETATM   23  C   UNL     1     -10.024   8.091  70.905  1.00  0.00    -0.207 C  
BRANCH  23  24
HETATM   24  C   UNL     1     -10.634   9.306  71.579  1.00  0.00    -0.405 C  
BRANCH  24  25
HETATM   25  C   UNL     1     -12.161   9.166  71.661  1.00  0.00    -0.433 C  
BRANCH  25  26
HETATM   26  C   UNL     1     -12.943  10.419  71.230  1.00  0.00    -0.517 C  
BRANCH  26  27
HETATM   27  C   UNL     1     -12.101  11.452  70.483  1.00  0.00    -0.487 C  
BRANCH  27  28
HETATM   28  C   UNL     1     -12.586  12.879  70.746  1.00  0.00    -0.314 C  
BRANCH  28  29
HETATM   29  C   UNL     1     -11.914  13.922  69.852  1.00  0.00    -0.405 C  
BRANCH  29  30
HETATM   30  C   UNL     1     -11.572  15.250  70.547  1.00  0.00    -0.340 C  
BRANCH  30  31
HETATM   31  C   UNL     1     -10.416  16.027  69.935  1.00  0.00    -0.287 C  
BRANCH  31  32
HETATM   32  S   UNL     1     -10.607  16.246  68.135  1.00  0.00    -0.319 S  
HETATM   33  O   UNL     1     -10.792  17.713  67.883  1.00  0.00    -0.374 OA 
BRANCH  32  34
HETATM   34  C   UNL     1      -8.898  15.832  67.659  1.00  0.00    -0.175 C  
BRANCH  34  35
HETATM   35  C   UNL     1      -8.824  15.247  66.253  1.00  0.00    -0.262 C  
BRANCH  35  36
HETATM   36  C   UNL     1     -10.216  14.982  65.681  1.00  0.00    -0.386 C  
BRANCH  36  37
HETATM   37  C   UNL     1     -10.512  13.498  65.472  1.00  0.00    -0.299 C  
HETATM   38  F   UNL     1     -10.253  13.187  64.169  1.00  0.00    -0.418 F  
HETATM   39  C   UNL     1     -11.936  13.076  65.861  1.00  0.00    -0.435 C  
HETATM   40  F   UNL     1      -9.594  12.797  66.202  1.00  0.00    -0.245 F  
HETATM   41  F   UNL     1     -12.629  14.071  66.456  1.00  0.00    -0.466 F  
HETATM   42  F   UNL     1     -12.641  12.677  64.776  1.00  0.00    -0.485 F  
HETATM   43  F   UNL     1     -11.933  12.032  66.728  1.00  0.00    -0.393 F  
ENDBRANCH  36  37
ENDBRANCH  35  36
ENDBRANCH  34  35
ENDBRANCH  32  34
ENDBRANCH  31  32
ENDBRANCH  30  31
ENDBRANCH  29  30
ENDBRANCH  28  29
ENDBRANCH  27  28
ENDBRANCH  26  27
ENDBRANCH  25  26
ENDBRANCH  24  25
ENDBRANCH  23  24
ENDBRANCH  21  23
TORSDOF 14
ENDMDL
MODEL       38
REMARK 921   NORMALIZED FREE ENERGY PREDICTED BY IDOCK:   -6.26 KCAL/MOL
REMARK 922        TOTAL FREE ENERGY PREDICTED BY IDOCK:  -14.68 KCAL/MOL
REMARK 923 INTER-LIGAND FREE ENERGY PREDICTED BY IDOCK:  -11.87 KCAL/MOL
REMARK 924 INTRA-LIGAND FREE ENERGY PREDICTED BY IDOCK:   -2.81 KCAL/MOL
REMARK 927      BINDING AFFINITY PREDICTED BY RF-SCORE:    0.00 PKD
ROOT
HETATM    1  C   UNL     1     -12.355  13.277  69.273  1.00  0.00    -0.054 C  
HETATM    2  C   UNL     1     -11.228  12.456  69.558  1.00  0.00    -0.171 C  
HETATM    3  C   UNL     1     -11.089  13.796  70.227  1.00  0.00     0.342 C  
HETATM    4  C   UNL     1     -12.873  14.768  70.174  1.00  0.00    -0.148 C  
HETATM    5  O   UNL     1     -13.513  15.875  70.817  1.00  0.00    -0.700 OA 
HETATM    6  C   UNL     1     -12.670  13.763  71.089  1.00  0.00    -0.438 C  
HETATM    7  C   UNL     1     -11.708  15.085  71.938  1.00  0.00    -0.454 C  
HETATM    8  C   UNL     1     -13.637  12.957  71.880  1.00  0.00    -0.382 C  
HETATM    9  H   UNL     1     -14.347  16.330  70.793  1.00  0.00     0.000 HD 
HETATM   10  C   UNL     1     -11.116  16.329  70.802  1.00  0.00    -0.217 C  
HETATM   11  C   UNL     1     -10.932  16.062  69.122  1.00  0.00    -0.297 C  
HETATM   12  C   UNL     1     -10.716  17.265  68.196  1.00  0.00    -0.363 A  
HETATM   13  C   UNL     1     -10.239  18.483  68.716  1.00  0.00    -0.326 A  
HETATM   14  C   UNL     1      -9.837  19.528  67.876  1.00  0.00    -0.485 A  
HETATM   15  C   UNL     1      -9.919  19.368  66.502  1.00  0.00    -0.396 A  
HETATM   16  C   UNL     1     -10.377  18.177  65.959  1.00  0.00    -0.360 A  
HETATM   17  O   UNL     1      -9.537  20.354  65.641  1.00  0.00    -0.589 OA 
HETATM   18  C   UNL     1     -10.746  17.100  66.788  1.00  0.00    -0.097 A  
HETATM   19  H   UNL     1      -9.593  20.245  64.699  1.00  0.00     0.000 HD 
HETATM   20  C   UNL     1     -11.161  15.810  66.102  1.00  0.00    -0.078 C  
HETATM   21  C   UNL     1     -11.014  14.520  66.943  1.00  0.00    -0.316 C  
HETATM   22  C   UNL     1     -11.783  14.786  68.259  1.00  0.00    -0.340 C  
ENDROOT
BRANCH  21  23
HETATM   23  C   UNL     1      -9.529  14.160  67.160  1.00  0.00    -0.237 C  
BRANCH  23  24
HETATM   24  C   UNL     1      -9.138  12.718  66.893  1.00  0.00    -0.221 C  
BRANCH  24  25
HETATM   25  C   UNL     1     -10.092  12.082  65.870  1.00  0.00    -0.264 C  
BRANCH  25  26
HETATM   26  C   UNL     1     -10.091  10.544  65.864  1.00  0.00    -0.323 C  
BRANCH  26  27
HETATM   27  C   UNL     1     -10.538   9.916  67.184  1.00  0.00    -0.295 C  
BRANCH  27  28
HETATM   28  C   UNL     1      -9.882   8.554  67.416  1.00  0.00    -0.244 C  
BRANCH  28  29
HETATM   29  C   UNL     1     -10.858   7.382  67.291  1.00  0.00    -0.326 C  
BRANCH  29  30
HETATM   30  C   UNL     1     -10.200   6.006  67.104  1.00  0.00    -0.248 C  
BRANCH  30  31
HETATM   31  C   UNL     1      -9.137   5.646  68.131  1.00  0.00    -0.110 C  
BRANCH  31  32
HETATM   32  S   UNL     1      -9.823   4.711  69.538  1.00  0.00    -0.197 S  
HETATM   33  O   UNL     1      -8.794   3.696  69.941  1.00  0.00    -0.076 OA 
BRANCH  32  34
HETATM   34  C   UNL     1      -9.766   6.051  70.770  1.00  0.00    -0.175 C  
BRANCH  34  35
HETATM   35  C   UNL     1     -10.987   6.038  71.683  1.00  0.00    -0.328 C  
BRANCH  35  36
HETATM   36  C   UNL     1     -12.133   6.865  71.101  1.00  0.00    -0.428 C  
BRANCH  36  37
HETATM   37  C   UNL     1     -12.021   8.356  71.412  1.00  0.00    -0.297 C  
HETATM   38  F   UNL     1     -11.371   8.501  72.603  1.00  0.00    -0.425 F  
HETATM   39  C   UNL     1     -13.365   9.100  71.430  1.00  0.00    -0.302 C  
HETATM   40  F   UNL     1     -11.190   8.902  70.475  1.00  0.00    -0.250 F  
HETATM   41  F   UNL     1     -14.394   8.325  71.026  1.00  0.00    -0.361 F  
HETATM   42  F   UNL     1     -13.655   9.552  72.673  1.00  0.00    -0.465 F  
HETATM   43  F   UNL     1     -13.350  10.186  70.616  1.00  0.00    -0.424 F  
ENDBRANCH  36  37
ENDBRANCH  35  36
ENDBRANCH  34  35
ENDBRANCH  32  34
ENDBRANCH  31  32
ENDBRANCH  30  31
ENDBRANCH  29  30
ENDBRANCH  28  29
ENDBRANCH  27  28
ENDBRANCH  26  27
ENDBRANCH  25  26
ENDBRANCH  24  25
ENDBRANCH  23  24
ENDBRANCH  21  23
TORSDOF 14
ENDMDL
MODEL       39
REMARK 921   NORMALIZED FREE ENERGY PREDICTED BY IDOCK:   -6.26 KCAL/MOL
REMARK 922        TOTAL FREE ENERGY PREDICTED BY IDOCK:  -14.67 KCAL/MOL
REMARK 923 INTER-LIGAND FREE ENERGY PREDICTED BY IDOCK:  -10.82 KCAL/MOL
REMARK 924 INTRA-LIGAND FREE ENERGY PREDICTED BY IDOCK:   -3.85 KCAL/MOL
REMARK 927      BINDING AFFINITY PREDICTED BY RF-SCORE:    0.00 PKD
ROOT
HETATM    1  C   UNL     1      -8.072  10.394  69.023  1.00  0.00    -0.138 C  
HETATM    2  C   UNL     1      -8.978   9.825  69.962  1.00  0.00    -0.255 C  
HETATM    3  C   UNL     1      -9.254   9.306  68.577  1.00  0.00    -0.135 C  
HETATM    4  C   UNL     1      -7.702   9.778  67.354  1.00  0.00    -0.095 C  
HETATM    5  O   UNL     1      -7.183   9.390  66.077  1.00  0.00    -0.089 OA 
HETATM    6  C   UNL     1      -7.583   8.730  68.233  1.00  0.00    -0.096 C  
HETATM    7  C   UNL     1      -8.630   7.891  66.971  1.00  0.00    -0.128 C  
HETATM    8  C   UNL     1      -6.380   8.026  68.752  1.00  0.00    -0.044 C  
HETATM    9  H   UNL     1      -6.458   9.610  65.505  1.00  0.00     0.000 HD 
HETATM   10  C   UNL     1      -9.598   9.047  66.016  1.00  0.00    -0.342 C  
HETATM   11  C   UNL     1      -9.978  10.628  66.550  1.00  0.00    -0.265 C  
HETATM   12  C   UNL     1     -10.542  11.639  65.544  1.00  0.00    -0.329 A  
HETATM   13  C   UNL     1     -11.148  11.193  64.355  1.00  0.00    -0.175 A  
HETATM   14  C   UNL     1     -11.851  12.069  63.521  1.00  0.00    -0.587 A  
HETATM   15  C   UNL     1     -11.946  13.408  63.864  1.00  0.00    -0.465 A  
HETATM   16  C   UNL     1     -11.367  13.877  65.034  1.00  0.00    -0.336 A  
HETATM   17  O   UNL     1     -12.623  14.301  63.087  1.00  0.00    -1.028 OA 
HETATM   18  C   UNL     1     -10.693  13.001  65.906  1.00  0.00    -0.292 A  
HETATM   19  H   UNL     1     -12.689  15.219  63.322  1.00  0.00     0.000 HD 
HETATM   20  C   UNL     1     -10.159  13.591  67.200  1.00  0.00    -0.245 C  
HETATM   21  C   UNL     1      -9.945  12.590  68.361  1.00  0.00    -0.212 C  
HETATM   22  C   UNL     1      -9.049  11.467  67.788  1.00  0.00    -0.158 C  
ENDROOT
BRANCH  21  23
HETATM   23  C   UNL     1     -11.292  12.082  68.916  1.00  0.00    -0.333 C  
BRANCH  23  24
HETATM   24  C   UNL     1     -11.901  12.883  70.052  1.00  0.00    -0.356 C  
BRANCH  24  25
HETATM   25  C   UNL     1     -12.638  11.955  71.030  1.00  0.00    -0.381 C  
BRANCH  25  26
HETATM   26  C   UNL     1     -12.636  10.470  70.629  1.00  0.00    -0.457 C  
BRANCH  26  27
HETATM   27  C   UNL     1     -13.534   9.590  71.498  1.00  0.00    -0.444 C  
BRANCH  27  28
HETATM   28  C   UNL     1     -12.722   8.589  72.322  1.00  0.00    -0.420 C  
BRANCH  28  29
HETATM   29  C   UNL     1     -12.112   7.466  71.481  1.00  0.00    -0.357 C  
BRANCH  29  30
HETATM   30  C   UNL     1     -11.988   6.112  72.199  1.00  0.00    -0.314 C  
BRANCH  30  31
HETATM   31  C   UNL     1     -10.768   5.958  73.095  1.00  0.00    -0.261 C  
BRANCH  31  32
HETATM   32  S   UNL     1      -9.386   7.025  72.570  1.00  0.00    -0.138 S  
HETATM   33  O   UNL     1      -9.059   7.929  73.722  1.00  0.00    -0.275 OA 
BRANCH  32  34
HETATM   34  C   UNL     1      -8.097   5.740  72.514  1.00  0.00    -0.103 C  
BRANCH  34  35
HETATM   35  C   UNL     1      -8.125   4.961  71.203  1.00  0.00    -0.101 C  
BRANCH  35  36
HETATM   36  C   UNL     1      -8.760   5.777  70.078  1.00  0.00    -0.132 C  
BRANCH  36  37
HETATM   37  C   UNL     1      -9.850   5.020  69.323  1.00  0.00    -0.196 C  
HETATM   38  F   UNL     1     -10.371   4.072  70.153  1.00  0.00    -0.176 F  
HETATM   39  C   UNL     1      -9.383   4.391  68.001  1.00  0.00    -0.146 C  
HETATM   40  F   UNL     1     -10.868   5.902  69.093  1.00  0.00    -0.300 F  
HETATM   41  F   UNL     1      -8.121   4.744  67.675  1.00  0.00    -0.095 F  
HETATM   42  F   UNL     1      -9.428   3.040  68.062  1.00  0.00    -0.217 F  
HETATM   43  F   UNL     1     -10.172   4.760  66.961  1.00  0.00    -0.203 F  
ENDBRANCH  36  37
ENDBRANCH  35  36
ENDBRANCH  34  35
ENDBRANCH  32  34
ENDBRANCH  31  32
ENDBRANCH  30  31
ENDBRANCH  29  30
ENDBRANCH  28  29
ENDBRANCH  27  28
ENDBRANCH  26  27
ENDBRANCH  25  26
ENDBRANCH  24  25
ENDBRANCH  23  24
ENDBRANCH  21  23
TORSDOF 14
ENDMDL
MODEL       40
REMARK 921   NORMALIZED FREE ENERGY PREDICTED BY IDOCK:   -6.23 KCAL/MOL
REMARK 922        TOTAL FREE ENERGY PREDICTED BY IDOCK:  -14.63 KCAL/MOL
REMARK 923 INTER-LIGAND FREE ENERGY PREDICTED BY IDOCK:  -10.56 KCAL/MOL
REMARK 924 INTRA-LIGAND FREE ENERGY PREDICTED BY IDOCK:   -4.07 KCAL/MOL
REMARK 927      BINDING AFFINITY PREDICTED BY RF-SCORE:    0.00 PKD
ROOT
HETATM    1  C   UNL     1     -10.742   6.961  68.217  1.00  0.00    -0.265 C  
HETATM    2  C   UNL     1     -10.533   6.430  66.913  1.00  0.00    -0.340 C  
HETATM    3  C   UNL     1      -9.219   6.739  67.576  1.00  0.00    -0.122 C  
HETATM    4  C   UNL     1      -9.520   7.070  69.558  1.00  0.00    -0.147 C  
HETATM    5  O   UNL     1      -8.756   7.129  70.767  1.00  0.00    -0.144 OA 
HETATM    6  C   UNL     1      -9.513   5.784  69.075  1.00  0.00    -0.152 C  
HETATM    7  C   UNL     1      -7.694   6.077  69.063  1.00  0.00    -0.092 C  
HETATM    8  C   UNL     1     -10.033   4.521  69.660  1.00  0.00    -0.251 C  
HETATM    9  H   UNL     1      -8.897   7.284  71.693  1.00  0.00     0.000 HD 
HETATM   10  C   UNL     1      -7.287   7.811  68.942  1.00  0.00    -0.086 C  
HETATM   11  C   UNL     1      -8.362   8.993  68.330  1.00  0.00    -0.121 C  
HETATM   12  C   UNL     1      -8.043  10.476  68.550  1.00  0.00    -0.121 A  
HETATM   13  C   UNL     1      -6.727  10.883  68.837  1.00  0.00    -0.067 A  
HETATM   14  C   UNL     1      -6.365  12.235  68.839  1.00  0.00    -0.084 A  
HETATM   15  C   UNL     1      -7.322  13.198  68.564  1.00  0.00    -0.111 A  
HETATM   16  C   UNL     1      -8.627  12.828  68.270  1.00  0.00    -0.166 A  
HETATM   17  O   UNL     1      -7.019  14.527  68.550  1.00  0.00    -0.093 OA 
HETATM   18  C   UNL     1      -8.998  11.471  68.221  1.00  0.00    -0.177 A  
HETATM   19  H   UNL     1      -7.675  15.188  68.362  1.00  0.00     0.000 HD 
HETATM   20  C   UNL     1     -10.428  11.161  67.815  1.00  0.00    -0.225 C  
HETATM   21  C   UNL     1     -10.673   9.751  67.225  1.00  0.00    -0.296 C  
HETATM   22  C   UNL     1     -10.105   8.756  68.266  1.00  0.00    -0.220 C  
ENDROOT
BRANCH  21  23
HETATM   23  C   UNL     1     -10.035   9.611  65.828  1.00  0.00    -0.342 C  
BRANCH  23  24
HETATM   24  C   UNL     1      -9.779  10.900  65.069  1.00  0.00    -0.319 C  
BRANCH  24  25
HETATM   25  C   UNL     1     -10.987  11.255  64.189  1.00  0.00    -0.376 C  
BRANCH  25  26
HETATM   26  C   UNL     1     -11.188  12.762  63.954  1.00  0.00    -0.491 C  
BRANCH  26  27
HETATM   27  C   UNL     1     -10.686  13.642  65.099  1.00  0.00    -0.359 C  
BRANCH  27  28
HETATM   28  C   UNL     1     -11.796  13.955  66.103  1.00  0.00    -0.422 C  
BRANCH  28  29
HETATM   29  C   UNL     1     -11.411  15.036  67.115  1.00  0.00    -0.323 C  
BRANCH  29  30
HETATM   30  C   UNL     1     -11.877  14.773  68.556  1.00  0.00    -0.340 C  
BRANCH  30  31
HETATM   31  C   UNL     1     -11.573  15.883  69.552  1.00  0.00    -0.335 C  
BRANCH  31  32
HETATM   32  S   UNL     1     -11.538  15.277  71.271  1.00  0.00    -0.405 S  
HETATM   33  O   UNL     1     -11.996  16.405  72.149  1.00  0.00    -0.509 OA 
BRANCH  32  34
HETATM   34  C   UNL     1     -12.924  14.102  71.141  1.00  0.00    -0.349 C  
BRANCH  34  35
HETATM   35  C   UNL     1     -12.800  12.962  72.146  1.00  0.00    -0.233 C  
BRANCH  35  36
HETATM   36  C   UNL     1     -13.396  11.666  71.601  1.00  0.00    -0.254 C  
BRANCH  36  37
HETATM   37  C   UNL     1     -12.387  10.810  70.838  1.00  0.00    -0.396 C  
HETATM   38  F   UNL     1     -12.883  10.567  69.591  1.00  0.00    -0.283 F  
HETATM   39  C   UNL     1     -12.013   9.496  71.541  1.00  0.00    -0.399 C  
HETATM   40  F   UNL     1     -11.273  11.576  70.644  1.00  0.00    -0.151 F  
HETATM   41  F   UNL     1     -12.539   9.403  72.781  1.00  0.00    -0.336 F  
HETATM   42  F   UNL     1     -12.440   8.425  70.833  1.00  0.00    -0.269 F  
HETATM   43  F   UNL     1     -10.670   9.362  71.677  1.00  0.00    -0.388 F  
ENDBRANCH  36  37
ENDBRANCH  35  36
ENDBRANCH  34  35
ENDBRANCH  32  34
ENDBRANCH  31  32
ENDBRANCH  30  31
ENDBRANCH  29  30
ENDBRANCH  28  29
ENDBRANCH  27  28
ENDBRANCH  26  27
ENDBRANCH  25  26
ENDBRANCH  24  25
ENDBRANCH  23  24
ENDBRANCH  21  23
TORSDOF 14
ENDMDL
MODEL       41
REMARK 921   NORMALIZED FREE ENERGY PREDICTED BY IDOCK:   -6.22 KCAL/MOL
REMARK 922        TOTAL FREE ENERGY PREDICTED BY IDOCK:  -14.61 KCAL/MOL
REMARK 923 INTER-LIGAND FREE ENERGY PREDICTED BY IDOCK:  -11.34 KCAL/MOL
REMARK 924 INTRA-LIGAND FREE ENERGY PREDICTED BY IDOCK:   -3.27 KCAL/MOL
REMARK 927      BINDING AFFINITY PREDICTED BY RF-SCORE:    0.00 PKD
ROOT
HETATM    1  C   UNL     1      -6.467  10.323  68.548  1.00  0.00    -0.052 C  
HETATM    2  C   UNL     1      -6.526   9.498  67.390  1.00  0.00    -0.069 C  
HETATM    3  C   UNL     1      -7.730  10.397  67.462  1.00  0.00    -0.094 C  
HETATM    4  C   UNL     1      -7.414  11.844  68.852  1.00  0.00    -0.060 C  
HETATM    5  O   UNL     1      -7.960  13.114  69.225  1.00  0.00    -0.262 OA 
HETATM    6  C   UNL     1      -6.825  11.946  67.616  1.00  0.00    -0.112 C  
HETATM    7  C   UNL     1      -8.529  12.453  67.133  1.00  0.00    -0.185 C  
HETATM    8  C   UNL     1      -5.673  12.763  67.150  1.00  0.00     0.127 C  
HETATM    9  H   UNL     1      -7.813  13.791  69.875  1.00  0.00     0.000 HD 
HETATM   10  C   UNL     1      -9.769  11.804  68.242  1.00  0.00    -0.199 C  
HETATM   11  C   UNL     1      -9.518  10.442  69.245  1.00  0.00    -0.214 C  
HETATM   12  C   UNL     1     -10.517  10.152  70.372  1.00  0.00    -0.237 A  
HETATM   13  C   UNL     1     -11.816  10.692  70.324  1.00  0.00    -0.430 A  
HETATM   14  C   UNL     1     -12.809  10.285  71.221  1.00  0.00    -0.522 A  
HETATM   15  C   UNL     1     -12.510   9.336  72.186  1.00  0.00    -0.351 A  
HETATM   16  C   UNL     1     -11.241   8.779  72.253  1.00  0.00    -0.343 A  
HETATM   17  O   UNL     1     -13.444   8.903  73.080  1.00  0.00    -0.968 OA 
HETATM   18  C   UNL     1     -10.242   9.146  71.332  1.00  0.00    -0.402 A  
HETATM   19  H   UNL     1     -13.239   8.253  73.741  1.00  0.00     0.000 HD 
HETATM   20  C   UNL     1      -8.909   8.426  71.437  1.00  0.00    -0.230 C  
HETATM   21  C   UNL     1      -8.053   8.399  70.148  1.00  0.00    -0.108 C  
HETATM   22  C   UNL     1      -7.916   9.874  69.704  1.00  0.00    -0.166 C  
ENDROOT
BRANCH  21  23
HETATM   23  C   UNL     1      -8.686   7.489  69.075  1.00  0.00    -0.136 C  
BRANCH  23  24
HETATM   24  C   UNL     1      -7.725   6.763  68.151  1.00  0.00    -0.109 C  
BRANCH  24  25
HETATM   25  C   UNL     1      -8.343   6.599  66.754  1.00  0.00    -0.115 C  
BRANCH  25  26
HETATM   26  C   UNL     1      -9.779   7.135  66.621  1.00  0.00    -0.233 C  
BRANCH  26  27
HETATM   27  C   UNL     1      -9.876   8.488  65.917  1.00  0.00    -0.012 C  
BRANCH  27  28
HETATM   28  C   UNL     1      -8.876   8.601  64.765  1.00  0.00    -0.036 C  
BRANCH  28  29
HETATM   29  C   UNL     1      -8.975   9.925  64.005  1.00  0.00    -0.276 C  
BRANCH  29  30
HETATM   30  C   UNL     1     -10.230  10.757  64.310  1.00  0.00    -0.422 C  
BRANCH  30  31
HETATM   31  C   UNL     1     -10.311  12.101  63.601  1.00  0.00    -0.452 C  
BRANCH  31  32
HETATM   32  S   UNL     1     -11.931  12.905  63.824  1.00  0.00    -0.538 S  
HETATM   33  O   UNL     1     -12.962  12.004  63.208  1.00  0.00    -0.736 OA 
BRANCH  32  34
HETATM   34  C   UNL     1     -12.054  12.703  65.630  1.00  0.00    -0.443 C  
BRANCH  34  35
HETATM   35  C   UNL     1     -11.917  14.034  66.362  1.00  0.00    -0.462 C  
BRANCH  35  36
HETATM   36  C   UNL     1     -11.078  15.030  65.564  1.00  0.00    -0.358 C  
BRANCH  36  37
HETATM   37  C   UNL     1     -10.193  15.914  66.441  1.00  0.00    -0.301 C  
HETATM   38  F   UNL     1     -10.450  15.620  67.748  1.00  0.00    -0.250 F  
HETATM   39  C   UNL     1     -10.347  17.420  66.179  1.00  0.00    -0.327 C  
HETATM   40  F   UNL     1      -8.900  15.527  66.228  1.00  0.00    -0.289 F  
HETATM   41  F   UNL     1     -11.137  17.685  65.117  1.00  0.00    -0.382 F  
HETATM   42  F   UNL     1     -10.879  18.049  67.253  1.00  0.00    -0.381 F  
HETATM   43  F   UNL     1      -9.152  18.013  65.933  1.00  0.00    -0.204 F  
ENDBRANCH  36  37
ENDBRANCH  35  36
ENDBRANCH  34  35
ENDBRANCH  32  34
ENDBRANCH  31  32
ENDBRANCH  30  31
ENDBRANCH  29  30
ENDBRANCH  28  29
ENDBRANCH  27  28
ENDBRANCH  26  27
ENDBRANCH  25  26
ENDBRANCH  24  25
ENDBRANCH  23  24
ENDBRANCH  21  23
TORSDOF 14
ENDMDL
MODEL       42
REMARK 921   NORMALIZED FREE ENERGY PREDICTED BY IDOCK:   -6.20 KCAL/MOL
REMARK 922        TOTAL FREE ENERGY PREDICTED BY IDOCK:  -14.57 KCAL/MOL
REMARK 923 INTER-LIGAND FREE ENERGY PREDICTED BY IDOCK:  -12.38 KCAL/MOL
REMARK 924 INTRA-LIGAND FREE ENERGY PREDICTED BY IDOCK:   -2.19 KCAL/MOL
REMARK 927      BINDING AFFINITY PREDICTED BY RF-SCORE:    0.00 PKD
ROOT
HETATM    1  C   UNL     1      -9.566   5.834  72.517  1.00  0.00    -0.168 C  
HETATM    2  C   UNL     1     -10.878   5.432  72.894  1.00  0.00    -0.318 C  
HETATM    3  C   UNL     1     -10.649   5.186  71.427  1.00  0.00    -0.207 C  
HETATM    4  C   UNL     1      -8.666   5.350  71.014  1.00  0.00    -0.135 C  
HETATM    5  O   UNL     1      -7.752   4.992  69.972  1.00  0.00    -0.061 OA 
HETATM    6  C   UNL     1      -9.146   4.210  71.612  1.00  0.00    -0.172 C  
HETATM    7  C   UNL     1      -9.715   3.861  69.895  1.00  0.00    -0.235 C  
HETATM    8  C   UNL     1      -8.446   3.139  72.369  1.00  0.00    -0.083 C  
HETATM    9  H   UNL     1      -6.825   5.069  69.778  1.00  0.00     0.000 HD 
HETATM   10  C   UNL     1      -9.932   5.352  68.936  1.00  0.00    -0.247 C  
HETATM   11  C   UNL     1     -10.166   6.897  69.633  1.00  0.00    -0.206 C  
HETATM   12  C   UNL     1     -10.034   8.142  68.747  1.00  0.00    -0.198 A  
HETATM   13  C   UNL     1     -10.163   8.034  67.350  1.00  0.00    -0.330 A  
HETATM   14  C   UNL     1     -10.253   9.168  66.535  1.00  0.00    -0.322 A  
HETATM   15  C   UNL     1     -10.206  10.427  67.112  1.00  0.00    -0.222 A  
HETATM   16  C   UNL     1     -10.088  10.566  68.487  1.00  0.00    -0.187 A  
HETATM   17  O   UNL     1     -10.294  11.563  66.362  1.00  0.00    -0.223 OA 
HETATM   18  C   UNL     1     -10.038   9.436  69.325  1.00  0.00    -0.200 A  
HETATM   19  H   UNL     1     -10.261  12.426  66.757  1.00  0.00     0.000 HD 
HETATM   20  C   UNL     1      -9.987   9.688  70.822  1.00  0.00    -0.260 C  
HETATM   21  C   UNL     1     -10.491   8.533  71.719  1.00  0.00    -0.370 C  
HETATM   22  C   UNL     1      -9.691   7.282  71.284  1.00  0.00    -0.168 C  
ENDROOT
BRANCH  21  23
HETATM   23  C   UNL     1     -12.019   8.358  71.600  1.00  0.00    -0.357 C  
BRANCH  23  24
HETATM   24  C   UNL     1     -12.875   9.445  72.224  1.00  0.00    -0.452 C  
BRANCH  24  25
HETATM   25  C   UNL     1     -13.254  10.501  71.175  1.00  0.00    -0.358 C  
BRANCH  25  26
HETATM   26  C   UNL     1     -12.781  11.928  71.501  1.00  0.00    -0.379 C  
BRANCH  26  27
HETATM   27  C   UNL     1     -13.775  12.737  72.334  1.00  0.00    -0.457 C  
BRANCH  27  28
HETATM   28  C   UNL     1     -13.817  14.203  71.900  1.00  0.00    -0.539 C  
BRANCH  28  29
HETATM   29  C   UNL     1     -12.691  15.046  72.504  1.00  0.00    -0.440 C  
BRANCH  29  30
HETATM   30  C   UNL     1     -11.666  15.582  71.493  1.00  0.00    -0.479 C  
BRANCH  30  31
HETATM   31  C   UNL     1     -12.062  15.448  70.029  1.00  0.00    -0.359 C  
BRANCH  31  32
HETATM   32  S   UNL     1     -10.952  14.330  69.113  1.00  0.00    -0.247 S  
HETATM   33  O   UNL     1     -11.758  13.709  68.009  1.00  0.00    -0.312 OA 
BRANCH  32  34
HETATM   34  C   UNL     1      -9.897  15.605  68.354  1.00  0.00    -0.206 C  
BRANCH  34  35
HETATM   35  C   UNL     1     -10.684  16.864  68.008  1.00  0.00    -0.364 C  
BRANCH  35  36
HETATM   36  C   UNL     1     -10.127  18.091  68.730  1.00  0.00    -0.388 C  
BRANCH  36  37
HETATM   37  C   UNL     1     -10.322  19.390  67.952  1.00  0.00    -0.430 C  
HETATM   38  F   UNL     1     -11.463  19.283  67.212  1.00  0.00    -0.417 F  
HETATM   39  C   UNL     1      -9.130  19.780  67.064  1.00  0.00    -0.340 C  
HETATM   40  F   UNL     1     -10.572  20.374  68.866  1.00  0.00    -0.498 F  
HETATM   41  F   UNL     1      -8.063  18.972  67.242  1.00  0.00    -0.258 F  
HETATM   42  F   UNL     1      -9.464  19.735  65.753  1.00  0.00    -0.384 F  
HETATM   43  F   UNL     1      -8.707  21.044  67.314  1.00  0.00    -0.408 F  
ENDBRANCH  36  37
ENDBRANCH  35  36
ENDBRANCH  34  35
ENDBRANCH  32  34
ENDBRANCH  31  32
ENDBRANCH  30  31
ENDBRANCH  29  30
ENDBRANCH  28  29
ENDBRANCH  27  28
ENDBRANCH  26  27
ENDBRANCH  25  26
ENDBRANCH  24  25
ENDBRANCH  23  24
ENDBRANCH  21  23
TORSDOF 14
ENDMDL
MODEL       43
REMARK 921   NORMALIZED FREE ENERGY PREDICTED BY IDOCK:   -6.19 KCAL/MOL
REMARK 922        TOTAL FREE ENERGY PREDICTED BY IDOCK:  -14.56 KCAL/MOL
REMARK 923 INTER-LIGAND FREE ENERGY PREDICTED BY IDOCK:  -11.51 KCAL/MOL
REMARK 924 INTRA-LIGAND FREE ENERGY PREDICTED BY IDOCK:   -3.05 KCAL/MOL
REMARK 927      BINDING AFFINITY PREDICTED BY RF-SCORE:    0.00 PKD
ROOT
HETATM    1  C   UNL     1      -8.407  18.317  66.624  1.00  0.00    -0.281 C  
HETATM    2  C   UNL     1      -9.644  18.694  67.220  1.00  0.00    -0.316 C  
HETATM    3  C   UNL     1      -8.565  18.582  68.263  1.00  0.00    -0.341 C  
HETATM    4  C   UNL     1      -6.751  18.480  67.354  1.00  0.00    -0.201 C  
HETATM    5  O   UNL     1      -5.369  18.638  67.692  1.00  0.00    -0.159 OA 
HETATM    6  C   UNL     1      -7.390  19.691  67.467  1.00  0.00    -0.284 C  
HETATM    7  C   UNL     1      -6.791  19.551  69.203  1.00  0.00    -0.381 C  
HETATM    8  C   UNL     1      -7.188  20.971  66.738  1.00  0.00    -0.188 C  
HETATM    9  H   UNL     1      -4.520  18.591  67.268  1.00  0.00     0.000 HD 
HETATM   10  C   UNL     1      -6.523  17.855  69.694  1.00  0.00    -0.127 C  
HETATM   11  C   UNL     1      -7.261  16.521  68.918  1.00  0.00    -0.208 C  
HETATM   12  C   UNL     1      -6.737  15.108  69.206  1.00  0.00    -0.146 A  
HETATM   13  C   UNL     1      -5.997  14.852  70.376  1.00  0.00    -0.150 A  
HETATM   14  C   UNL     1      -5.684  13.546  70.769  1.00  0.00    -0.189 A  
HETATM   15  C   UNL     1      -6.100  12.480  69.988  1.00  0.00    -0.117 A  
HETATM   16  C   UNL     1      -6.838  12.700  68.834  1.00  0.00    -0.097 A  
HETATM   17  O   UNL     1      -5.824  11.189  70.331  1.00  0.00    -0.120 OA 
HETATM   18  C   UNL     1      -7.198  14.004  68.446  1.00  0.00    -0.108 A  
HETATM   19  H   UNL     1      -6.109  10.458  69.796  1.00  0.00     0.000 HD 
HETATM   20  C   UNL     1      -8.072  14.140  67.211  1.00  0.00    -0.188 C  
HETATM   21  C   UNL     1      -8.907  15.439  67.115  1.00  0.00    -0.234 C  
HETATM   22  C   UNL     1      -7.899  16.601  67.279  1.00  0.00    -0.194 C  
ENDROOT
BRANCH  21  23
HETATM   23  C   UNL     1     -10.041  15.454  68.161  1.00  0.00    -0.222 C  
BRANCH  23  24
HETATM   24  C   UNL     1     -11.432  15.118  67.656  1.00  0.00    -0.319 C  
BRANCH  24  25
HETATM   25  C   UNL     1     -11.372  14.630  66.200  1.00  0.00    -0.350 C  
BRANCH  25  26
HETATM   26  C   UNL     1     -11.849  13.182  65.990  1.00  0.00    -0.457 C  
BRANCH  26  27
HETATM   27  C   UNL     1     -10.755  12.232  65.502  1.00  0.00    -0.314 C  
BRANCH  27  28
HETATM   28  C   UNL     1     -10.546  11.064  66.467  1.00  0.00    -0.310 C  
BRANCH  28  29
HETATM   29  C   UNL     1     -10.173  11.508  67.883  1.00  0.00    -0.200 C  
BRANCH  29  30
HETATM   30  C   UNL     1     -11.340  11.540  68.882  1.00  0.00    -0.331 C  
BRANCH  30  31
HETATM   31  C   UNL     1     -11.791  10.182  69.402  1.00  0.00     0.043 C  
BRANCH  31  32
HETATM   32  S   UNL     1     -12.706  10.313  70.973  1.00  0.00    -0.417 S  
HETATM   33  O   UNL     1     -11.794   9.825  72.061  1.00  0.00    -0.261 OA 
BRANCH  32  34
HETATM   34  C   UNL     1     -12.743  12.131  71.080  1.00  0.00    -0.253 C  
BRANCH  34  35
HETATM   35  C   UNL     1     -13.573  12.615  72.264  1.00  0.00    -0.508 C  
BRANCH  35  36
HETATM   36  C   UNL     1     -14.004  14.070  72.090  1.00  0.00    -0.633 C  
BRANCH  36  37
HETATM   37  C   UNL     1     -13.079  15.064  72.788  1.00  0.00    -0.453 C  
HETATM   38  F   UNL     1     -13.821  16.138  73.186  1.00  0.00    -0.659 F  
HETATM   39  C   UNL     1     -11.879  15.514  71.941  1.00  0.00    -0.434 C  
HETATM   40  F   UNL     1     -12.648  14.472  73.942  1.00  0.00    -0.575 F  
HETATM   41  F   UNL     1     -11.782  14.836  70.778  1.00  0.00    -0.293 F  
HETATM   42  F   UNL     1     -11.960  16.832  71.642  1.00  0.00    -0.342 F  
HETATM   43  F   UNL     1     -10.704  15.335  72.596  1.00  0.00    -0.192 F  
ENDBRANCH  36  37
ENDBRANCH  35  36
ENDBRANCH  34  35
ENDBRANCH  32  34
ENDBRANCH  31  32
ENDBRANCH  30  31
ENDBRANCH  29  30
ENDBRANCH  28  29
ENDBRANCH  27  28
ENDBRANCH  26  27
ENDBRANCH  25  26
ENDBRANCH  24  25
ENDBRANCH  23  24
ENDBRANCH  21  23
TORSDOF 14
ENDMDL
MODEL       44
REMARK 921   NORMALIZED FREE ENERGY PREDICTED BY IDOCK:   -6.17 KCAL/MOL
REMARK 922        TOTAL FREE ENERGY PREDICTED BY IDOCK:  -14.51 KCAL/MOL
REMARK 923 INTER-LIGAND FREE ENERGY PREDICTED BY IDOCK:  -11.38 KCAL/MOL
REMARK 924 INTRA-LIGAND FREE ENERGY PREDICTED BY IDOCK:   -3.13 KCAL/MOL
REMARK 927      BINDING AFFINITY PREDICTED BY RF-SCORE:    0.00 PKD
ROOT
HETATM    1  C   UNL     1      -9.276   4.731  64.968  1.00  0.00    -0.136 C  
HETATM    2  C   UNL     1      -8.169   5.576  64.676  1.00  0.00    -0.130 C  
HETATM    3  C   UNL     1      -7.888   4.737  65.892  1.00  0.00    -0.095 C  
HETATM    4  C   UNL     1      -9.270   3.253  66.026  1.00  0.00    -0.148 C  
HETATM    5  O   UNL     1      -9.446   2.006  66.707  1.00  0.00    -0.365 OA 
HETATM    6  C   UNL     1      -8.235   3.142  65.130  1.00  0.00    -0.094 C  
HETATM    7  C   UNL     1      -7.298   2.728  66.660  1.00  0.00    -0.070 C  
HETATM    8  C   UNL     1      -8.073   2.277  63.932  1.00  0.00    -0.081 C  
HETATM    9  H   UNL     1     -10.091   1.312  66.770  1.00  0.00     0.000 HD 
HETATM   10  C   UNL     1      -8.050   3.419  68.125  1.00  0.00    -0.079 C  
HETATM   11  C   UNL     1      -9.124   4.752  68.095  1.00  0.00    -0.141 C  
HETATM   12  C   UNL     1      -9.949   5.072  69.348  1.00  0.00    -0.290 A  
HETATM   13  C   UNL     1      -9.537   4.597  70.608  1.00  0.00    -0.261 A  
HETATM   14  C   UNL     1     -10.145   5.039  71.788  1.00  0.00    -0.262 A  
HETATM   15  C   UNL     1     -11.182   5.956  71.719  1.00  0.00    -0.250 A  
HETATM   16  C   UNL     1     -11.605   6.449  70.493  1.00  0.00    -0.424 A  
HETATM   17  O   UNL     1     -11.805   6.420  72.840  1.00  0.00    -0.485 OA 
HETATM   18  C   UNL     1     -10.976   6.047  69.299  1.00  0.00    -0.436 A  
HETATM   19  H   UNL     1     -12.515   7.049  72.794  1.00  0.00     0.000 HD 
HETATM   20  C   UNL     1     -11.455   6.699  68.014  1.00  0.00     0.157 C  
HETATM   21  C   UNL     1     -10.445   6.705  66.841  1.00  0.00    -0.349 C  
HETATM   22  C   UNL     1     -10.012   5.231  66.653  1.00  0.00    -0.227 C  
ENDROOT
BRANCH  21  23
HETATM   23  C   UNL     1      -9.269   7.662  67.121  1.00  0.00    -0.158 C  
BRANCH  23  24
HETATM   24  C   UNL     1      -9.493   9.125  66.787  1.00  0.00    -0.230 C  
BRANCH  24  25
HETATM   25  C   UNL     1      -9.501   9.974  68.067  1.00  0.00    -0.150 C  
BRANCH  25  26
HETATM   26  C   UNL     1      -9.040   9.230  69.333  1.00  0.00    -0.152 C  
BRANCH  26  27
HETATM   27  C   UNL     1      -9.865   9.552  70.578  1.00  0.00    -0.331 C  
BRANCH  27  28
HETATM   28  C   UNL     1     -11.252  10.085  70.218  1.00  0.00    -0.379 C  
BRANCH  28  29
HETATM   29  C   UNL     1     -12.256   9.989  71.369  1.00  0.00    -0.510 C  
BRANCH  29  30
HETATM   30  C   UNL     1     -13.008  11.291  71.686  1.00  0.00    -0.537 C  
BRANCH  30  31
HETATM   31  C   UNL     1     -12.520  12.524  70.939  1.00  0.00    -0.269 C  
BRANCH  31  32
HETATM   32  S   UNL     1     -13.374  14.042  71.478  1.00  0.00    -0.335 S  
HETATM   33  O   UNL     1     -12.886  14.358  72.862  1.00  0.00    -0.438 OA 
BRANCH  32  34
HETATM   34  C   UNL     1     -12.549  15.201  70.341  1.00  0.00    -0.359 C  
BRANCH  34  35
HETATM   35  C   UNL     1     -11.631  14.480  69.360  1.00  0.00    -0.343 C  
BRANCH  35  36
HETATM   36  C   UNL     1     -12.160  14.564  67.929  1.00  0.00    -0.261 C  
BRANCH  36  37
HETATM   37  C   UNL     1     -11.612  13.470  67.016  1.00  0.00    -0.359 C  
HETATM   38  F   UNL     1     -10.256  13.600  66.953  1.00  0.00    -0.248 F  
HETATM   39  C   UNL     1     -12.225  13.456  65.608  1.00  0.00    -0.463 C  
HETATM   40  F   UNL     1     -11.835  12.275  67.640  1.00  0.00    -0.372 F  
HETATM   41  F   UNL     1     -13.246  14.330  65.477  1.00  0.00    -0.541 F  
HETATM   42  F   UNL     1     -11.299  13.764  64.670  1.00  0.00    -0.325 F  
HETATM   43  F   UNL     1     -12.715  12.233  65.283  1.00  0.00    -0.457 F  
ENDBRANCH  36  37
ENDBRANCH  35  36
ENDBRANCH  34  35
ENDBRANCH  32  34
ENDBRANCH  31  32
ENDBRANCH  30  31
ENDBRANCH  29  30
ENDBRANCH  28  29
ENDBRANCH  27  28
ENDBRANCH  26  27
ENDBRANCH  25  26
ENDBRANCH  24  25
ENDBRANCH  23  24
ENDBRANCH  21  23
TORSDOF 14
ENDMDL
MODEL       45
REMARK 921   NORMALIZED FREE ENERGY PREDICTED BY IDOCK:   -6.13 KCAL/MOL
REMARK 922        TOTAL FREE ENERGY PREDICTED BY IDOCK:  -14.44 KCAL/MOL
REMARK 923 INTER-LIGAND FREE ENERGY PREDICTED BY IDOCK:  -12.49 KCAL/MOL
REMARK 924 INTRA-LIGAND FREE ENERGY PREDICTED BY IDOCK:   -1.95 KCAL/MOL
REMARK 927      BINDING AFFINITY PREDICTED BY RF-SCORE:    0.00 PKD
ROOT
HETATM    1  C   UNL     1      -9.650   6.418  73.124  1.00  0.00    -0.159 C  
HETATM    2  C   UNL     1     -10.962   6.079  73.560  1.00  0.00    -0.140 C  
HETATM    3  C   UNL     1     -10.681   5.482  72.208  1.00  0.00    -0.285 C  
HETATM    4  C   UNL     1      -8.692   5.604  71.812  1.00  0.00    -0.136 C  
HETATM    5  O   UNL     1      -7.736   5.027  70.915  1.00  0.00    -0.078 OA 
HETATM    6  C   UNL     1      -9.159   4.635  72.666  1.00  0.00    -0.140 C  
HETATM    7  C   UNL     1      -9.666   3.848  71.080  1.00  0.00    -0.252 C  
HETATM    8  C   UNL     1      -8.454   3.811  73.684  1.00  0.00    -0.087 C  
HETATM    9  H   UNL     1      -6.807   5.084  70.730  1.00  0.00     0.000 HD 
HETATM   10  C   UNL     1      -9.892   5.043  69.772  1.00  0.00    -0.286 C  
HETATM   11  C   UNL     1     -10.189   6.704  70.053  1.00  0.00    -0.215 C  
HETATM   12  C   UNL     1     -10.063   7.691  68.886  1.00  0.00    -0.202 A  
HETATM   13  C   UNL     1     -10.145   7.233  67.558  1.00  0.00    -0.250 A  
HETATM   14  C   UNL     1     -10.241   8.123  66.483  1.00  0.00    -0.248 A  
HETATM   15  C   UNL     1     -10.245   9.487  66.725  1.00  0.00    -0.243 A  
HETATM   16  C   UNL     1     -10.173   9.970  68.024  1.00  0.00    -0.216 A  
HETATM   17  O   UNL     1     -10.340  10.396  65.713  1.00  0.00    -0.248 OA 
HETATM   18  C   UNL     1     -10.119   9.088  69.120  1.00  0.00    -0.201 A  
HETATM   19  H   UNL     1     -10.343  11.331  65.879  1.00  0.00     0.000 HD 
HETATM   20  C   UNL     1     -10.121   9.709  70.506  1.00  0.00    -0.338 C  
HETATM   21  C   UNL     1     -10.622   8.798  71.653  1.00  0.00    -0.401 C  
HETATM   22  C   UNL     1      -9.775   7.506  71.564  1.00  0.00    -0.184 C  
ENDROOT
BRANCH  21  23
HETATM   23  C   UNL     1     -12.140   8.548  71.546  1.00  0.00    -0.351 C  
BRANCH  23  24
HETATM   24  C   UNL     1     -13.046   9.665  72.032  1.00  0.00    -0.537 C  
BRANCH  24  25
HETATM   25  C   UNL     1     -13.025  10.842  71.045  1.00  0.00    -0.396 C  
BRANCH  25  26
HETATM   26  C   UNL     1     -13.118  12.230  71.701  1.00  0.00    -0.408 C  
BRANCH  26  27
HETATM   27  C   UNL     1     -12.513  13.357  70.863  1.00  0.00    -0.439 C  
BRANCH  27  28
HETATM   28  C   UNL     1     -11.850  12.825  69.591  1.00  0.00    -0.384 C  
BRANCH  28  29
HETATM   29  C   UNL     1     -12.170  13.658  68.348  1.00  0.00    -0.168 C  
BRANCH  29  30
HETATM   30  C   UNL     1     -11.555  13.134  67.040  1.00  0.00    -0.408 C  
BRANCH  30  31
HETATM   31  C   UNL     1     -12.431  13.279  65.804  1.00  0.00    -0.417 C  
BRANCH  31  32
HETATM   32  S   UNL     1     -11.594  14.194  64.468  1.00  0.00    -0.374 S  
HETATM   33  O   UNL     1     -12.565  15.217  63.954  1.00  0.00    -0.794 OA 
BRANCH  32  34
HETATM   34  C   UNL     1     -10.382  15.077  65.501  1.00  0.00    -0.373 C  
BRANCH  34  35
HETATM   35  C   UNL     1     -10.768  16.537  65.711  1.00  0.00    -0.232 C  
BRANCH  35  36
HETATM   36  C   UNL     1      -9.565  17.381  66.128  1.00  0.00    -0.213 C  
BRANCH  36  37
HETATM   37  C   UNL     1      -9.864  18.332  67.285  1.00  0.00    -0.321 C  
HETATM   38  F   UNL     1     -10.691  17.694  68.163  1.00  0.00    -0.359 F  
HETATM   39  C   UNL     1     -10.459  19.681  66.857  1.00  0.00    -0.488 C  
HETATM   40  F   UNL     1      -8.693  18.524  67.963  1.00  0.00    -0.273 F  
HETATM   41  F   UNL     1     -10.477  19.839  65.516  1.00  0.00    -0.517 F  
HETATM   42  F   UNL     1     -11.730  19.818  67.303  1.00  0.00    -0.168 F  
HETATM   43  F   UNL     1      -9.755  20.725  67.363  1.00  0.00    -0.564 F  
ENDBRANCH  36  37
ENDBRANCH  35  36
ENDBRANCH  34  35
ENDBRANCH  32  34
ENDBRANCH  31  32
ENDBRANCH  30  31
ENDBRANCH  29  30
ENDBRANCH  28  29
ENDBRANCH  27  28
ENDBRANCH  26  27
ENDBRANCH  25  26
ENDBRANCH  24  25
ENDBRANCH  23  24
ENDBRANCH  21  23
TORSDOF 14
ENDMDL
MODEL       46
REMARK 921   NORMALIZED FREE ENERGY PREDICTED BY IDOCK:   -6.11 KCAL/MOL
REMARK 922        TOTAL FREE ENERGY PREDICTED BY IDOCK:  -14.40 KCAL/MOL
REMARK 923 INTER-LIGAND FREE ENERGY PREDICTED BY IDOCK:  -12.34 KCAL/MOL
REMARK 924 INTRA-LIGAND FREE ENERGY PREDICTED BY IDOCK:   -2.06 KCAL/MOL
REMARK 927      BINDING AFFINITY PREDICTED BY RF-SCORE:    0.00 PKD
ROOT
HETATM    1  C   UNL     1      -9.488   8.944  70.211  1.00  0.00    -0.212 C  
HETATM    2  C   UNL     1     -10.519   9.894  69.964  1.00  0.00    -0.331 C  
HETATM    3  C   UNL     1     -11.023   8.495  69.740  1.00  0.00    -0.131 C  
HETATM    4  C   UNL     1      -9.696   7.163  70.509  1.00  0.00    -0.176 C  
HETATM    5  O   UNL     1      -9.653   5.783  70.886  1.00  0.00    -0.162 OA 
HETATM    6  C   UNL     1     -10.546   7.840  71.348  1.00  0.00    -0.242 C  
HETATM    7  C   UNL     1     -11.753   6.614  70.691  1.00  0.00    -0.452 C  
HETATM    8  C   UNL     1     -10.485   8.073  72.815  1.00  0.00    -0.415 C  
HETATM    9  H   UNL     1      -9.033   5.160  71.246  1.00  0.00     0.000 HD 
HETATM   10  C   UNL     1     -11.283   5.996  69.083  1.00  0.00    -0.337 C  
HETATM   11  C   UNL     1     -10.219   6.821  68.028  1.00  0.00    -0.200 C  
HETATM   12  C   UNL     1      -9.640   6.075  66.819  1.00  0.00    -0.171 A  
HETATM   13  C   UNL     1     -10.280   4.923  66.325  1.00  0.00    -0.312 A  
HETATM   14  C   UNL     1      -9.901   4.342  65.110  1.00  0.00    -0.208 A  
HETATM   15  C   UNL     1      -8.866   4.903  64.379  1.00  0.00    -0.119 A  
HETATM   16  C   UNL     1      -8.222   6.044  64.835  1.00  0.00    -0.130 A  
HETATM   17  O   UNL     1      -8.462   4.378  63.188  1.00  0.00    -0.092 OA 
HETATM   18  C   UNL     1      -8.619   6.666  66.035  1.00  0.00    -0.152 A  
HETATM   19  H   UNL     1      -7.753   4.762  62.686  1.00  0.00     0.000 HD 
HETATM   20  C   UNL     1      -7.906   7.953  66.413  1.00  0.00    -0.097 C  
HETATM   21  C   UNL     1      -8.681   8.900  67.361  1.00  0.00    -0.128 C  
HETATM   22  C   UNL     1      -9.077   8.039  68.584  1.00  0.00    -0.140 C  
ENDROOT
BRANCH  21  23
HETATM   23  C   UNL     1      -9.886   9.544  66.645  1.00  0.00    -0.293 C  
BRANCH  23  24
HETATM   24  C   UNL     1      -9.596  10.778  65.810  1.00  0.00    -0.254 C  
BRANCH  24  25
HETATM   25  C   UNL     1      -9.765  10.467  64.315  1.00  0.00    -0.391 C  
BRANCH  25  26
HETATM   26  C   UNL     1     -10.347  11.623  63.482  1.00  0.00    -0.488 C  
BRANCH  26  27
HETATM   27  C   UNL     1     -11.833  11.880  63.728  1.00  0.00    -0.558 C  
BRANCH  27  28
HETATM   28  C   UNL     1     -12.225  13.318  63.385  1.00  0.00    -0.476 C  
BRANCH  28  29
HETATM   29  C   UNL     1     -12.018  14.295  64.545  1.00  0.00    -0.478 C  
BRANCH  29  30
HETATM   30  C   UNL     1     -12.523  13.799  65.909  1.00  0.00    -0.512 C  
BRANCH  30  31
HETATM   31  C   UNL     1     -11.456  13.646  66.983  1.00  0.00    -0.343 C  
BRANCH  31  32
HETATM   32  S   UNL     1     -11.651  14.860  68.329  1.00  0.00    -0.325 S  
HETATM   33  O   UNL     1     -12.240  14.132  69.502  1.00  0.00    -0.326 OA 
BRANCH  32  34
HETATM   34  C   UNL     1      -9.883  15.109  68.687  1.00  0.00    -0.218 C  
BRANCH  34  35
HETATM   35  C   UNL     1      -9.376  16.444  68.152  1.00  0.00    -0.209 C  
BRANCH  35  36
HETATM   36  C   UNL     1     -10.510  17.280  67.563  1.00  0.00    -0.356 C  
BRANCH  36  37
HETATM   37  C   UNL     1     -10.122  18.007  66.277  1.00  0.00    -0.363 C  
HETATM   38  F   UNL     1      -8.847  17.649  65.948  1.00  0.00    -0.210 F  
HETATM   39  C   UNL     1     -10.258  19.535  66.348  1.00  0.00    -0.479 C  
HETATM   40  F   UNL     1     -10.909  17.508  65.278  1.00  0.00    -0.395 F  
HETATM   41  F   UNL     1     -10.836  19.952  67.495  1.00  0.00    -0.521 F  
HETATM   42  F   UNL     1      -9.049  20.137  66.255  1.00  0.00    -0.377 F  
HETATM   43  F   UNL     1     -11.014  20.021  65.332  1.00  0.00    -0.557 F  
ENDBRANCH  36  37
ENDBRANCH  35  36
ENDBRANCH  34  35
ENDBRANCH  32  34
ENDBRANCH  31  32
ENDBRANCH  30  31
ENDBRANCH  29  30
ENDBRANCH  28  29
ENDBRANCH  27  28
ENDBRANCH  26  27
ENDBRANCH  25  26
ENDBRANCH  24  25
ENDBRANCH  23  24
ENDBRANCH  21  23
TORSDOF 14
ENDMDL
MODEL       47
REMARK 921   NORMALIZED FREE ENERGY PREDICTED BY IDOCK:   -6.07 KCAL/MOL
REMARK 922        TOTAL FREE ENERGY PREDICTED BY IDOCK:  -14.32 KCAL/MOL
REMARK 923 INTER-LIGAND FREE ENERGY PREDICTED BY IDOCK:  -10.13 KCAL/MOL
REMARK 924 INTRA-LIGAND FREE ENERGY PREDICTED BY IDOCK:   -4.19 KCAL/MOL
REMARK 927      BINDING AFFINITY PREDICTED BY RF-SCORE:    0.00 PKD
ROOT
HETATM    1  C   UNL     1      -9.302  13.748  67.554  1.00  0.00    -0.222 C  
HETATM    2  C   UNL     1      -9.924  13.624  66.280  1.00  0.00    -0.305 C  
HETATM    3  C   UNL     1     -10.951  13.886  67.348  1.00  0.00    -0.299 C  
HETATM    4  C   UNL     1     -10.022  14.488  69.050  1.00  0.00    -0.159 C  
HETATM    5  O   UNL     1     -10.352  15.135  70.285  1.00  0.00    -0.481 OA 
HETATM    6  C   UNL     1     -10.185  15.374  68.013  1.00  0.00    -0.235 C  
HETATM    7  C   UNL     1     -11.909  15.412  68.661  1.00  0.00    -0.317 C  
HETATM    8  C   UNL     1      -9.502  16.659  67.713  1.00  0.00    -0.227 C  
HETATM    9  H   UNL     1      -9.917  15.416  71.081  1.00  0.00     0.000 HD 
HETATM   10  C   UNL     1     -12.335  13.920  69.545  1.00  0.00    -0.275 C  
HETATM   11  C   UNL     1     -11.518  12.432  69.334  1.00  0.00    -0.336 C  
HETATM   12  C   UNL     1     -11.748  11.305  70.347  1.00  0.00    -0.398 A  
HETATM   13  C   UNL     1     -12.901  11.303  71.156  1.00  0.00    -0.452 A  
HETATM   14  C   UNL     1     -13.243  10.194  71.937  1.00  0.00    -0.557 A  
HETATM   15  C   UNL     1     -12.428   9.073  71.925  1.00  0.00    -0.384 A  
HETATM   16  C   UNL     1     -11.290   9.041  71.132  1.00  0.00    -0.375 A  
HETATM   17  O   UNL     1     -12.720   7.966  72.665  1.00  0.00    -0.555 OA 
HETATM   18  C   UNL     1     -10.953  10.132  70.308  1.00  0.00    -0.380 A  
HETATM   19  H   UNL     1     -12.161   7.198  72.657  1.00  0.00     0.000 HD 
HETATM   20  C   UNL     1      -9.733   9.974  69.418  1.00  0.00    -0.240 C  
HETATM   21  C   UNL     1      -9.692  10.875  68.160  1.00  0.00    -0.174 C  
HETATM   22  C   UNL     1      -9.890  12.321  68.673  1.00  0.00    -0.098 C  
ENDROOT
BRANCH  21  23
HETATM   23  C   UNL     1     -10.750  10.439  67.125  1.00  0.00    -0.316 C  
BRANCH  23  24
HETATM   24  C   UNL     1     -10.238   9.686  65.912  1.00  0.00    -0.219 C  
BRANCH  24  25
HETATM   25  C   UNL     1      -8.816  10.145  65.554  1.00  0.00    -0.191 C  
BRANCH  25  26
HETATM   26  C   UNL     1      -7.768   9.019  65.522  1.00  0.00    -0.091 C  
BRANCH  26  27
HETATM   27  C   UNL     1      -6.755   9.079  66.665  1.00  0.00    -0.075 C  
BRANCH  27  28
HETATM   28  C   UNL     1      -7.015   7.994  67.711  1.00  0.00    -0.078 C  
BRANCH  28  29
HETATM   29  C   UNL     1      -6.589   8.400  69.123  1.00  0.00    -0.047 C  
BRANCH  29  30
HETATM   30  C   UNL     1      -7.191   7.549  70.253  1.00  0.00    -0.064 C  
BRANCH  30  31
HETATM   31  C   UNL     1      -6.476   6.234  70.530  1.00  0.00    -0.044 C  
BRANCH  31  32
HETATM   32  S   UNL     1      -7.461   5.121  71.584  1.00  0.00    -0.098 S  
HETATM   33  O   UNL     1      -6.985   5.307  72.995  1.00  0.00    -0.078 OA 
BRANCH  32  34
HETATM   34  C   UNL     1      -9.053   5.994  71.436  1.00  0.00    -0.143 C  
BRANCH  34  35
HETATM   35  C   UNL     1     -10.056   5.212  70.596  1.00  0.00    -0.309 C  
BRANCH  35  36
HETATM   36  C   UNL     1     -10.394   5.945  69.299  1.00  0.00    -0.312 C  
BRANCH  36  37
HETATM   37  C   UNL     1      -9.880   5.232  68.049  1.00  0.00    -0.149 C  
HETATM   38  F   UNL     1      -8.517   5.279  68.057  1.00  0.00    -0.098 F  
HETATM   39  C   UNL     1     -10.438   5.787  66.730  1.00  0.00    -0.287 C  
HETATM   40  F   UNL     1     -10.200   3.910  68.179  1.00  0.00    -0.066 F  
HETATM   41  F   UNL     1     -11.397   6.718  66.922  1.00  0.00    -0.484 F  
HETATM   42  F   UNL     1      -9.459   6.355  65.988  1.00  0.00    -0.174 F  
HETATM   43  F   UNL     1     -10.989   4.811  65.966  1.00  0.00    -0.339 F  
ENDBRANCH  36  37
ENDBRANCH  35  36
ENDBRANCH  34  35
ENDBRANCH  32  34
ENDBRANCH  31  32
ENDBRANCH  30  31
ENDBRANCH  29  30
ENDBRANCH  28  29
ENDBRANCH  27  28
ENDBRANCH  26  27
ENDBRANCH  25  26
ENDBRANCH  24  25
ENDBRANCH  23  24
ENDBRANCH  21  23
TORSDOF 14
ENDMDL
MODEL       48
REMARK 921   NORMALIZED FREE ENERGY PREDICTED BY IDOCK:   -6.03 KCAL/MOL
REMARK 922        TOTAL FREE ENERGY PREDICTED BY IDOCK:  -14.27 KCAL/MOL
REMARK 923 INTER-LIGAND FREE ENERGY PREDICTED BY IDOCK:  -11.64 KCAL/MOL
REMARK 924 INTRA-LIGAND FREE ENERGY PREDICTED BY IDOCK:   -2.62 KCAL/MOL
REMARK 927      BINDING AFFINITY PREDICTED BY RF-SCORE:    0.00 PKD
ROOT
HETATM    1  C   UNL     1      -9.331   8.421  66.070  1.00  0.00    -0.244 C  
HETATM    2  C   UNL     1      -7.942   8.618  66.310  1.00  0.00    -0.102 C  
HETATM    3  C   UNL     1      -8.588   7.923  67.478  1.00  0.00    -0.122 C  
HETATM    4  C   UNL     1     -10.435   7.269  66.941  1.00  0.00    -0.299 C  
HETATM    5  O   UNL     1     -11.428   6.349  67.408  1.00  0.00    -0.705 OA 
HETATM    6  C   UNL     1      -9.321   6.573  66.538  1.00  0.00    -0.188 C  
HETATM    7  C   UNL     1      -9.368   5.998  68.287  1.00  0.00    -0.116 C  
HETATM    8  C   UNL     1      -9.138   5.570  65.456  1.00  0.00    -0.101 C  
HETATM    9  H   UNL     1     -12.291   6.043  67.157  1.00  0.00     0.000 HD 
HETATM   10  C   UNL     1     -10.205   7.154  69.360  1.00  0.00    -0.194 C  
HETATM   11  C   UNL     1     -10.413   8.810  68.983  1.00  0.00    -0.220 C  
HETATM   12  C   UNL     1     -11.400   9.645  69.809  1.00  0.00    -0.159 A  
HETATM   13  C   UNL     1     -11.787   9.218  71.093  1.00  0.00    -0.396 A  
HETATM   14  C   UNL     1     -12.517  10.050  71.949  1.00  0.00    -0.408 A  
HETATM   15  C   UNL     1     -12.877  11.318  71.524  1.00  0.00    -0.414 A  
HETATM   16  C   UNL     1     -12.503  11.771  70.267  1.00  0.00    -0.237 A  
HETATM   17  O   UNL     1     -13.585  12.168  72.322  1.00  0.00    -0.550 OA 
HETATM   18  C   UNL     1     -11.732  10.963  69.409  1.00  0.00    -0.397 A  
HETATM   19  H   UNL     1     -13.832  13.038  72.031  1.00  0.00     0.000 HD 
HETATM   20  C   UNL     1     -11.305  11.574  68.086  1.00  0.00    -0.367 C  
HETATM   21  C   UNL     1     -10.049  10.952  67.430  1.00  0.00    -0.223 C  
HETATM   22  C   UNL     1     -10.330   9.434  67.338  1.00  0.00    -0.325 C  
ENDROOT
BRANCH  21  23
HETATM   23  C   UNL     1      -8.774  11.296  68.227  1.00  0.00    -0.158 C  
BRANCH  23  24
HETATM   24  C   UNL     1      -7.788  12.234  67.554  1.00  0.00    -0.166 C  
BRANCH  24  25
HETATM   25  C   UNL     1      -7.267  13.276  68.555  1.00  0.00    -0.110 C  
BRANCH  25  26
HETATM   26  C   UNL     1      -6.109  14.143  68.033  1.00  0.00    -0.149 C  
BRANCH  26  27
HETATM   27  C   UNL     1      -6.049  15.539  68.652  1.00  0.00    -0.097 C  
BRANCH  27  28
HETATM   28  C   UNL     1      -7.440  16.162  68.784  1.00  0.00    -0.189 C  
BRANCH  28  29
HETATM   29  C   UNL     1      -7.872  16.947  67.544  1.00  0.00    -0.186 C  
BRANCH  29  30
HETATM   30  C   UNL     1      -9.195  17.716  67.690  1.00  0.00    -0.245 C  
BRANCH  30  31
HETATM   31  C   UNL     1     -10.315  17.266  66.764  1.00  0.00    -0.308 C  
BRANCH  31  32
HETATM   32  S   UNL     1     -10.513  15.454  66.747  1.00  0.00    -0.304 S  
HETATM   33  O   UNL     1     -11.790  15.139  67.470  1.00  0.00    -0.283 OA 
BRANCH  32  34
HETATM   34  C   UNL     1     -10.844  15.263  64.967  1.00  0.00    -0.439 C  
BRANCH  34  35
HETATM   35  C   UNL     1     -12.226  14.675  64.704  1.00  0.00    -0.447 C  
BRANCH  35  36
HETATM   36  C   UNL     1     -12.232  13.785  63.462  1.00  0.00    -0.236 C  
BRANCH  36  37
HETATM   37  C   UNL     1     -12.124  12.296  63.784  1.00  0.00    -0.532 C  
HETATM   38  F   UNL     1     -12.525  12.104  65.074  1.00  0.00    -0.456 F  
HETATM   39  C   UNL     1     -10.728  11.699  63.552  1.00  0.00    -0.428 C  
HETATM   40  F   UNL     1     -13.049  11.649  63.015  1.00  0.00    -0.631 F  
HETATM   41  F   UNL     1      -9.880  12.572  62.966  1.00  0.00    -0.187 F  
HETATM   42  F   UNL     1     -10.167  11.302  64.718  1.00  0.00    -0.268 F  
HETATM   43  F   UNL     1     -10.775  10.605  62.751  1.00  0.00    -0.057 F  
ENDBRANCH  36  37
ENDBRANCH  35  36
ENDBRANCH  34  35
ENDBRANCH  32  34
ENDBRANCH  31  32
ENDBRANCH  30  31
ENDBRANCH  29  30
ENDBRANCH  28  29
ENDBRANCH  27  28
ENDBRANCH  26  27
ENDBRANCH  25  26
ENDBRANCH  24  25
ENDBRANCH  23  24
ENDBRANCH  21  23
TORSDOF 14
ENDMDL
MODEL       49
REMARK 921   NORMALIZED FREE ENERGY PREDICTED BY IDOCK:   -6.03 KCAL/MOL
REMARK 922        TOTAL FREE ENERGY PREDICTED BY IDOCK:  -14.25 KCAL/MOL
REMARK 923 INTER-LIGAND FREE ENERGY PREDICTED BY IDOCK:  -12.05 KCAL/MOL
REMARK 924 INTRA-LIGAND FREE ENERGY PREDICTED BY IDOCK:   -2.20 KCAL/MOL
REMARK 927      BINDING AFFINITY PREDICTED BY RF-SCORE:    0.00 PKD
ROOT
HETATM    1  C   UNL     1     -10.982  10.384  70.396  1.00  0.00    -0.320 C  
HETATM    2  C   UNL     1     -11.612  10.637  69.145  1.00  0.00    -0.342 C  
HETATM    3  C   UNL     1     -12.116   9.351  69.742  1.00  0.00     0.539 C  
HETATM    4  C   UNL     1     -11.546   9.237  71.689  1.00  0.00    -0.393 C  
HETATM    5  O   UNL     1     -11.883   8.496  72.866  1.00  0.00    -0.292 OA 
HETATM    6  C   UNL     1     -12.604  10.037  71.334  1.00  0.00    -0.518 C  
HETATM    7  C   UNL     1     -13.467   8.412  71.247  1.00  0.00    -0.158 C  
HETATM    8  C   UNL     1     -13.260  11.161  72.053  1.00  0.00    -0.428 C  
HETATM    9  H   UNL     1     -11.617   8.442  73.776  1.00  0.00     0.000 HD 
HETATM   10  C   UNL     1     -12.339   7.061  70.946  1.00  0.00    -0.361 C  
HETATM   11  C   UNL     1     -10.790   7.261  70.249  1.00  0.00    -0.264 C  
HETATM   12  C   UNL     1      -9.787   6.103  70.315  1.00  0.00    -0.206 A  
HETATM   13  C   UNL     1     -10.238   4.787  70.527  1.00  0.00    -0.252 A  
HETATM   14  C   UNL     1      -9.380   3.690  70.388  1.00  0.00    -0.238 A  
HETATM   15  C   UNL     1      -8.054   3.901  70.044  1.00  0.00    -0.053 A  
HETATM   16  C   UNL     1      -7.581   5.186  69.821  1.00  0.00    -0.061 A  
HETATM   17  O   UNL     1      -7.179   2.866  69.893  1.00  0.00    -0.040 OA 
HETATM   18  C   UNL     1      -8.441   6.297  69.915  1.00  0.00    -0.130 A  
HETATM   19  H   UNL     1      -6.270   3.010  69.657  1.00  0.00     0.000 HD 
HETATM   20  C   UNL     1      -7.852   7.656  69.577  1.00  0.00    -0.115 C  
HETATM   21  C   UNL     1      -8.865   8.740  69.135  1.00  0.00    -0.137 C  
HETATM   22  C   UNL     1      -9.932   8.799  70.253  1.00  0.00    -0.210 C  
ENDROOT
BRANCH  21  23
HETATM   23  C   UNL     1      -9.448   8.425  67.742  1.00  0.00    -0.171 C  
BRANCH  23  24
HETATM   24  C   UNL     1      -8.775   9.098  66.560  1.00  0.00    -0.142 C  
BRANCH  24  25
HETATM   25  C   UNL     1      -9.826   9.676  65.600  1.00  0.00    -0.369 C  
BRANCH  25  26
HETATM   26  C   UNL     1      -9.250  10.535  64.461  1.00  0.00    -0.278 C  
BRANCH  26  27
HETATM   27  C   UNL     1     -10.283  10.957  63.417  1.00  0.00    -0.356 C  
BRANCH  27  28
HETATM   28  C   UNL     1     -10.604  12.450  63.506  1.00  0.00    -0.451 C  
BRANCH  28  29
HETATM   29  C   UNL     1     -12.007  12.737  64.043  1.00  0.00    -0.522 C  
BRANCH  29  30
HETATM   30  C   UNL     1     -12.137  12.696  65.574  1.00  0.00    -0.515 C  
BRANCH  30  31
HETATM   31  C   UNL     1     -12.249  14.052  66.256  1.00  0.00    -0.462 C  
BRANCH  31  32
HETATM   32  S   UNL     1     -10.637  14.893  66.391  1.00  0.00    -0.315 S  
HETATM   33  O   UNL     1     -10.529  15.835  65.228  1.00  0.00    -0.384 OA 
BRANCH  32  34
HETATM   34  C   UNL     1     -11.012  15.899  67.862  1.00  0.00    -0.327 C  
BRANCH  34  35
HETATM   35  C   UNL     1     -11.813  15.117  68.898  1.00  0.00    -0.337 C  
BRANCH  35  36
HETATM   36  C   UNL     1     -11.689  15.738  70.289  1.00  0.00    -0.373 C  
BRANCH  36  37
HETATM   37  C   UNL     1     -12.483  14.990  71.358  1.00  0.00    -0.329 C  
HETATM   38  F   UNL     1     -13.674  14.603  70.818  1.00  0.00    -0.390 F  
HETATM   39  C   UNL     1     -12.703  15.785  72.654  1.00  0.00    -0.451 C  
HETATM   40  F   UNL     1     -11.809  13.831  71.623  1.00  0.00    -0.226 F  
HETATM   41  F   UNL     1     -12.029  16.955  72.666  1.00  0.00    -0.514 F  
HETATM   42  F   UNL     1     -14.014  16.065  72.837  1.00  0.00    -0.643 F  
HETATM   43  F   UNL     1     -12.298  15.090  73.746  1.00  0.00    -0.518 F  
ENDBRANCH  36  37
ENDBRANCH  35  36
ENDBRANCH  34  35
ENDBRANCH  32  34
ENDBRANCH  31  32
ENDBRANCH  30  31
ENDBRANCH  29  30
ENDBRANCH  28  29
ENDBRANCH  27  28
ENDBRANCH  26  27
ENDBRANCH  25  26
ENDBRANCH  24  25
ENDBRANCH  23  24
ENDBRANCH  21  23
TORSDOF 14
ENDMDL
MODEL       50
REMARK 921   NORMALIZED FREE ENERGY PREDICTED BY IDOCK:   -6.02 KCAL/MOL
REMARK 922        TOTAL FREE ENERGY PREDICTED BY IDOCK:  -14.23 KCAL/MOL
REMARK 923 INTER-LIGAND FREE ENERGY PREDICTED BY IDOCK:   -9.89 KCAL/MOL
REMARK 924 INTRA-LIGAND FREE ENERGY PREDICTED BY IDOCK:   -4.34 KCAL/MOL
REMARK 927      BINDING AFFINITY PREDICTED BY RF-SCORE:    0.00 PKD
ROOT
HETATM    1  C   UNL     1     -11.900  12.584  67.293  1.00  0.00    -0.381 C  
HETATM    2  C   UNL     1     -11.027  13.400  68.066  1.00  0.00    -0.265 C  
HETATM    3  C   UNL     1     -10.370  12.996  66.775  1.00  0.00    -0.256 C  
HETATM    4  C   UNL     1     -11.764  12.219  65.518  1.00  0.00    -0.377 C  
HETATM    5  O   UNL     1     -11.908  11.917  64.126  1.00  0.00    -0.355 OA 
HETATM    6  C   UNL     1     -11.678  13.580  65.684  1.00  0.00    -0.363 C  
HETATM    7  C   UNL     1     -10.220  13.361  64.580  1.00  0.00    -0.321 C  
HETATM    8  C   UNL     1     -12.653  14.661  65.381  1.00  0.00    -0.123 C  
HETATM    9  H   UNL     1     -12.559  11.554  63.538  1.00  0.00     0.000 HD 
HETATM   10  C   UNL     1      -9.539  11.713  64.675  1.00  0.00    -0.149 C  
HETATM   11  C   UNL     1      -9.791  10.662  66.001  1.00  0.00    -0.280 C  
HETATM   12  C   UNL     1      -9.431   9.179  65.856  1.00  0.00    -0.326 A  
HETATM   13  C   UNL     1      -8.523   8.764  64.863  1.00  0.00    -0.189 A  
HETATM   14  C   UNL     1      -8.018   7.460  64.836  1.00  0.00    -0.128 A  
HETATM   15  C   UNL     1      -8.424   6.550  65.799  1.00  0.00    -0.148 A  
HETATM   16  C   UNL     1      -9.311   6.931  66.795  1.00  0.00    -0.190 A  
HETATM   17  O   UNL     1      -7.957   5.269  65.818  1.00  0.00    -0.101 OA 
HETATM   18  C   UNL     1      -9.797   8.251  66.863  1.00  0.00    -0.316 A  
HETATM   19  H   UNL     1      -8.235   4.645  66.477  1.00  0.00     0.000 HD 
HETATM   20  C   UNL     1     -10.701   8.594  68.034  1.00  0.00    -0.137 C  
HETATM   21  C   UNL     1     -10.766  10.091  68.422  1.00  0.00    -0.271 C  
HETATM   22  C   UNL     1     -11.136  10.846  67.123  1.00  0.00    -0.308 C  
ENDROOT
BRANCH  21  23
HETATM   23  C   UNL     1      -9.439  10.563  69.051  1.00  0.00    -0.211 C  
BRANCH  23  24
HETATM   24  C   UNL     1      -8.813   9.639  70.080  1.00  0.00    -0.259 C  
BRANCH  24  25
HETATM   25  C   UNL     1      -7.495   9.056  69.548  1.00  0.00    -0.076 C  
BRANCH  25  26
HETATM   26  C   UNL     1      -6.577  10.077  68.853  1.00  0.00    -0.049 C  
BRANCH  26  27
HETATM   27  C   UNL     1      -6.137   9.663  67.449  1.00  0.00    -0.059 C  
BRANCH  27  28
HETATM   28  C   UNL     1      -6.121  10.851  66.486  1.00  0.00    -0.122 C  
BRANCH  28  29
HETATM   29  C   UNL     1      -5.938  12.198  67.189  1.00  0.00    -0.143 C  
BRANCH  29  30
HETATM   30  C   UNL     1      -7.223  13.025  67.352  1.00  0.00    -0.123 C  
BRANCH  30  31
HETATM   31  C   UNL     1      -7.013  14.504  67.645  1.00  0.00    -0.184 C  
BRANCH  31  32
HETATM   32  S   UNL     1      -7.481  14.944  69.351  1.00  0.00    -0.152 S  
HETATM   33  O   UNL     1      -6.296  15.619  69.977  1.00  0.00    -0.169 OA 
BRANCH  32  34
HETATM   34  C   UNL     1      -8.686  16.247  68.942  1.00  0.00    -0.253 C  
BRANCH  34  35
HETATM   35  C   UNL     1      -8.854  16.416  67.436  1.00  0.00    -0.194 C  
BRANCH  35  36
HETATM   36  C   UNL     1     -10.047  17.310  67.101  1.00  0.00    -0.297 C  
BRANCH  36  37
HETATM   37  C   UNL     1      -9.644  18.683  66.569  1.00  0.00    -0.337 C  
HETATM   38  F   UNL     1      -8.418  18.574  65.980  1.00  0.00    -0.280 F  
HETATM   39  C   UNL     1      -9.643  19.796  67.627  1.00  0.00    -0.355 C  
HETATM   40  F   UNL     1     -10.508  18.993  65.557  1.00  0.00    -0.436 F  
HETATM   41  F   UNL     1     -10.140  19.386  68.814  1.00  0.00    -0.442 F  
HETATM   42  F   UNL     1      -8.391  20.261  67.846  1.00  0.00    -0.337 F  
HETATM   43  F   UNL     1     -10.390  20.861  67.240  1.00  0.00    -0.427 F  
ENDBRANCH  36  37
ENDBRANCH  35  36
ENDBRANCH  34  35
ENDBRANCH  32  34
ENDBRANCH  31  32
ENDBRANCH  30  31
ENDBRANCH  29  30
ENDBRANCH  28  29
ENDBRANCH  27  28
ENDBRANCH  26  27
ENDBRANCH  25  26
ENDBRANCH  24  25
ENDBRANCH  23  24
ENDBRANCH  21  23
TORSDOF 14
ENDMDL
MODEL       51
REMARK 921   NORMALIZED FREE ENERGY PREDICTED BY IDOCK:   -6.02 KCAL/MOL
REMARK 922        TOTAL FREE ENERGY PREDICTED BY IDOCK:  -14.23 KCAL/MOL
REMARK 923 INTER-LIGAND FREE ENERGY PREDICTED BY IDOCK:  -10.91 KCAL/MOL
REMARK 924 INTRA-LIGAND FREE ENERGY PREDICTED BY IDOCK:   -3.33 KCAL/MOL
REMARK 927      BINDING AFFINITY PREDICTED BY RF-SCORE:    0.00 PKD
ROOT
HETATM    1  C   UNL     1     -10.793  11.673  65.804  1.00  0.00    -0.334 C  
HETATM    2  C   UNL     1      -9.962  12.817  65.961  1.00  0.00    -0.277 C  
HETATM    3  C   UNL     1      -9.234  11.572  66.387  1.00  0.00    -0.218 C  
HETATM    4  C   UNL     1     -10.258   9.936  65.752  1.00  0.00    -0.181 C  
HETATM    5  O   UNL     1     -10.034   8.535  65.559  1.00  0.00    -0.309 OA 
HETATM    6  C   UNL     1      -9.491  10.648  64.863  1.00  0.00    -0.293 C  
HETATM    7  C   UNL     1      -8.129   9.753  65.722  1.00  0.00    -0.119 C  
HETATM    8  C   UNL     1      -9.502  10.683  63.377  1.00  0.00    -0.352 C  
HETATM    9  H   UNL     1     -10.512   7.771  65.262  1.00  0.00     0.000 HD 
HETATM   10  C   UNL     1      -8.580   9.262  67.378  1.00  0.00    -0.122 C  
HETATM   11  C   UNL     1      -9.834  10.004  68.275  1.00  0.00    -0.163 C  
HETATM   12  C   UNL     1     -10.345   9.320  69.548  1.00  0.00    -0.223 A  
HETATM   13  C   UNL     1      -9.544   8.373  70.214  1.00  0.00    -0.170 A  
HETATM   14  C   UNL     1      -9.889   7.887  71.480  1.00  0.00    -0.206 A  
HETATM   15  C   UNL     1     -11.048   8.337  72.091  1.00  0.00    -0.328 A  
HETATM   16  C   UNL     1     -11.854   9.276  71.464  1.00  0.00    -0.444 A  
HETATM   17  O   UNL     1     -11.426   7.897  73.326  1.00  0.00    -0.573 OA 
HETATM   18  C   UNL     1     -11.501   9.807  70.209  1.00  0.00    -0.317 A  
HETATM   19  H   UNL     1     -12.220   8.205  73.745  1.00  0.00     0.000 HD 
HETATM   20  C   UNL     1     -12.404  10.886  69.637  1.00  0.00    -0.290 C  
HETATM   21  C   UNL     1     -11.752  11.834  68.602  1.00  0.00    -0.389 C  
HETATM   22  C   UNL     1     -11.137  10.916  67.519  1.00  0.00    -0.375 C  
ENDROOT
BRANCH  21  23
HETATM   23  C   UNL     1     -10.724  12.770  69.271  1.00  0.00     0.040 C  
BRANCH  23  24
HETATM   24  C   UNL     1     -11.000  14.259  69.171  1.00  0.00    -0.286 C  
BRANCH  24  25
HETATM   25  C   UNL     1      -9.745  15.065  69.539  1.00  0.00    -0.113 C  
BRANCH  25  26
HETATM   26  C   UNL     1      -8.475  14.658  68.773  1.00  0.00    -0.161 C  
BRANCH  26  27
HETATM   27  C   UNL     1      -7.174  15.055  69.471  1.00  0.00    -0.199 C  
BRANCH  27  28
HETATM   28  C   UNL     1      -6.568  16.321  68.865  1.00  0.00    -0.150 C  
BRANCH  28  29
HETATM   29  C   UNL     1      -6.490  16.285  67.337  1.00  0.00    -0.213 C  
BRANCH  29  30
HETATM   30  C   UNL     1      -5.859  17.527  66.689  1.00  0.00    -0.226 C  
BRANCH  30  31
HETATM   31  C   UNL     1      -6.845  18.549  66.141  1.00  0.00    -0.250 C  
BRANCH  31  32
HETATM   32  S   UNL     1      -6.727  20.152  67.000  1.00  0.00    -0.234 S  
HETATM   33  O   UNL     1      -6.187  21.146  66.014  1.00  0.00    -0.260 OA 
BRANCH  32  34
HETATM   34  C   UNL     1      -8.512  20.472  67.162  1.00  0.00    -0.275 C  
BRANCH  34  35
HETATM   35  C   UNL     1      -9.319  19.760  66.081  1.00  0.00    -0.439 C  
BRANCH  35  36
HETATM   36  C   UNL     1     -10.601  19.152  66.646  1.00  0.00    -0.520 C  
BRANCH  36  37
HETATM   37  C   UNL     1     -10.432  17.708  67.113  1.00  0.00    -0.319 C  
HETATM   38  F   UNL     1      -9.231  17.601  67.753  1.00  0.00    -0.240 F  
HETATM   39  C   UNL     1     -10.548  16.663  65.993  1.00  0.00    -0.233 C  
HETATM   40  F   UNL     1     -11.377  17.481  68.073  1.00  0.00    -0.236 F  
HETATM   41  F   UNL     1     -10.924  17.205  64.815  1.00  0.00    -0.381 F  
HETATM   42  F   UNL     1      -9.370  16.027  65.795  1.00  0.00    -0.329 F  
HETATM   43  F   UNL     1     -11.462  15.706  66.291  1.00  0.00    -0.199 F  
ENDBRANCH  36  37
ENDBRANCH  35  36
ENDBRANCH  34  35
ENDBRANCH  32  34
ENDBRANCH  31  32
ENDBRANCH  30  31
ENDBRANCH  29  30
ENDBRANCH  28  29
ENDBRANCH  27  28
ENDBRANCH  26  27
ENDBRANCH  25  26
ENDBRANCH  24  25
ENDBRANCH  23  24
ENDBRANCH  21  23
TORSDOF 14
ENDMDL
MODEL       52
REMARK 921   NORMALIZED FREE ENERGY PREDICTED BY IDOCK:   -6.00 KCAL/MOL
REMARK 922        TOTAL FREE ENERGY PREDICTED BY IDOCK:  -14.21 KCAL/MOL
REMARK 923 INTER-LIGAND FREE ENERGY PREDICTED BY IDOCK:  -10.91 KCAL/MOL
REMARK 924 INTRA-LIGAND FREE ENERGY PREDICTED BY IDOCK:   -3.30 KCAL/MOL
REMARK 927      BINDING AFFINITY PREDICTED BY RF-SCORE:    0.00 PKD
ROOT
HETATM    1  C   UNL     1     -10.410   5.301  70.689  1.00  0.00    -0.324 C  
HETATM    2  C   UNL     1      -9.044   5.215  71.079  1.00  0.00    -0.178 C  
HETATM    3  C   UNL     1      -9.673   6.467  71.626  1.00  0.00    -0.174 C  
HETATM    4  C   UNL     1     -11.692   6.351  71.435  1.00  0.00    -0.306 C  
HETATM    5  O   UNL     1     -12.861   6.994  71.955  1.00  0.00    -0.490 OA 
HETATM    6  C   UNL     1     -11.062   5.662  72.443  1.00  0.00    -0.324 C  
HETATM    7  C   UNL     1     -10.994   7.342  73.194  1.00  0.00    -0.408 C  
HETATM    8  C   UNL     1     -11.521   4.520  73.276  1.00  0.00    -0.314 C  
HETATM    9  H   UNL     1     -13.805   6.940  71.866  1.00  0.00     0.000 HD 
HETATM   10  C   UNL     1     -11.057   8.638  71.967  1.00  0.00    -0.437 C  
HETATM   11  C   UNL     1     -10.642   8.403  70.324  1.00  0.00    -0.234 C  
HETATM   12  C   UNL     1     -11.019   9.478  69.298  1.00  0.00    -0.167 A  
HETATM   13  C   UNL     1     -11.285  10.795  69.718  1.00  0.00    -0.365 A  
HETATM   14  C   UNL     1     -11.428  11.839  68.798  1.00  0.00    -0.350 A  
HETATM   15  C   UNL     1     -11.316  11.575  67.442  1.00  0.00    -0.298 A  
HETATM   16  C   UNL     1     -11.045  10.289  66.998  1.00  0.00    -0.104 A  
HETATM   17  O   UNL     1     -11.443  12.558  66.506  1.00  0.00    -0.320 OA 
HETATM   18  C   UNL     1     -10.856   9.234  67.911  1.00  0.00    -0.181 A  
HETATM   19  H   UNL     1     -11.366  12.377  65.577  1.00  0.00     0.000 HD 
HETATM   20  C   UNL     1     -10.488   7.878  67.334  1.00  0.00    -0.360 C  
HETATM   21  C   UNL     1      -9.750   6.914  68.293  1.00  0.00    -0.132 C  
HETATM   22  C   UNL     1     -10.637   6.818  69.557  1.00  0.00    -0.265 C  
ENDROOT
BRANCH  21  23
HETATM   23  C   UNL     1      -8.316   7.402  68.584  1.00  0.00    -0.129 C  
BRANCH  23  24
HETATM   24  C   UNL     1      -7.465   7.757  67.378  1.00  0.00    -0.093 C  
BRANCH  24  25
HETATM   25  C   UNL     1      -6.900   9.178  67.518  1.00  0.00    -0.077 C  
BRANCH  25  26
HETATM   26  C   UNL     1      -7.094   9.811  68.907  1.00  0.00    -0.067 C  
BRANCH  26  27
HETATM   27  C   UNL     1      -7.850  11.139  68.885  1.00  0.00    -0.131 C  
BRANCH  27  28
HETATM   28  C   UNL     1      -7.555  11.940  67.615  1.00  0.00    -0.136 C  
BRANCH  28  29
HETATM   29  C   UNL     1      -7.205  13.404  67.890  1.00  0.00    -0.133 C  
BRANCH  29  30
HETATM   30  C   UNL     1      -8.256  14.183  68.695  1.00  0.00    -0.116 C  
BRANCH  30  31
HETATM   31  C   UNL     1      -9.221  15.021  67.870  1.00  0.00    -0.182 C  
BRANCH  31  32
HETATM   32  S   UNL     1     -10.707  15.494  68.813  1.00  0.00    -0.263 S  
HETATM   33  O   UNL     1     -10.546  14.946  70.201  1.00  0.00    -0.159 OA 
BRANCH  32  34
HETATM   34  C   UNL     1     -10.379  17.283  68.902  1.00  0.00    -0.352 C  
BRANCH  34  35
HETATM   35  C   UNL     1      -8.916  17.608  68.620  1.00  0.00    -0.261 C  
BRANCH  35  36
HETATM   36  C   UNL     1      -8.758  18.995  67.998  1.00  0.00    -0.341 C  
BRANCH  36  37
HETATM   37  C   UNL     1      -8.956  19.005  66.484  1.00  0.00    -0.330 C  
HETATM   38  F   UNL     1      -7.976  19.774  65.927  1.00  0.00    -0.322 F  
HETATM   39  C   UNL     1     -10.345  19.479  66.031  1.00  0.00    -0.511 C  
HETATM   40  F   UNL     1      -8.720  17.735  66.038  1.00  0.00    -0.245 F  
HETATM   41  F   UNL     1     -11.193  19.666  67.064  1.00  0.00    -0.562 F  
HETATM   42  F   UNL     1     -10.264  20.646  65.350  1.00  0.00    -0.351 F  
HETATM   43  F   UNL     1     -10.935  18.584  65.199  1.00  0.00    -0.420 F  
ENDBRANCH  36  37
ENDBRANCH  35  36
ENDBRANCH  34  35
ENDBRANCH  32  34
ENDBRANCH  31  32
ENDBRANCH  30  31
ENDBRANCH  29  30
ENDBRANCH  28  29
ENDBRANCH  27  28
ENDBRANCH  26  27
ENDBRANCH  25  26
ENDBRANCH  24  25
ENDBRANCH  23  24
ENDBRANCH  21  23
TORSDOF 14
ENDMDL
MODEL       53
REMARK 921   NORMALIZED FREE ENERGY PREDICTED BY IDOCK:   -5.97 KCAL/MOL
REMARK 922        TOTAL FREE ENERGY PREDICTED BY IDOCK:  -14.16 KCAL/MOL
REMARK 923 INTER-LIGAND FREE ENERGY PREDICTED BY IDOCK:  -11.00 KCAL/MOL
REMARK 924 INTRA-LIGAND FREE ENERGY PREDICTED BY IDOCK:   -3.15 KCAL/MOL
REMARK 927      BINDING AFFINITY PREDICTED BY RF-SCORE:    0.00 PKD
ROOT
HETATM    1  C   UNL     1      -9.385   8.921  70.461  1.00  0.00    -0.240 C  
HETATM    2  C   UNL     1     -10.414   9.879  70.242  1.00  0.00    -0.348 C  
HETATM    3  C   UNL     1     -10.930   8.485  70.009  1.00  0.00    -0.197 C  
HETATM    4  C   UNL     1      -9.597   7.138  70.742  1.00  0.00    -0.168 C  
HETATM    5  O   UNL     1      -9.557   5.753  71.103  1.00  0.00    -0.162 OA 
HETATM    6  C   UNL     1     -10.431   7.810  71.602  1.00  0.00    -0.241 C  
HETATM    7  C   UNL     1     -11.655   6.598  70.949  1.00  0.00    -0.416 C  
HETATM    8  C   UNL     1     -10.346   8.025  73.071  1.00  0.00    -0.351 C  
HETATM    9  H   UNL     1      -8.934   5.123  71.445  1.00  0.00     0.000 HD 
HETATM   10  C   UNL     1     -11.213   5.995  69.328  1.00  0.00    -0.367 C  
HETATM   11  C   UNL     1     -10.161   6.827  68.265  1.00  0.00    -0.194 C  
HETATM   12  C   UNL     1      -9.605   6.092  67.040  1.00  0.00    -0.153 A  
HETATM   13  C   UNL     1     -10.259   4.949  66.542  1.00  0.00    -0.305 A  
HETATM   14  C   UNL     1      -9.901   4.380  65.315  1.00  0.00    -0.209 A  
HETATM   15  C   UNL     1      -8.875   4.945  64.574  1.00  0.00    -0.129 A  
HETATM   16  C   UNL     1      -8.218   6.077  65.033  1.00  0.00    -0.136 A  
HETATM   17  O   UNL     1      -8.492   4.431  63.371  1.00  0.00    -0.097 OA 
HETATM   18  C   UNL     1      -8.593   6.687  66.246  1.00  0.00    -0.139 A  
HETATM   19  H   UNL     1      -7.789   4.818  62.863  1.00  0.00     0.000 HD 
HETATM   20  C   UNL     1      -7.868   7.966  66.628  1.00  0.00    -0.102 C  
HETATM   21  C   UNL     1      -8.623   8.906  67.599  1.00  0.00    -0.124 C  
HETATM   22  C   UNL     1      -9.004   8.033  68.818  1.00  0.00    -0.141 C  
ENDROOT
BRANCH  21  23
HETATM   23  C   UNL     1      -9.835   9.564  66.909  1.00  0.00    -0.262 C  
BRANCH  23  24
HETATM   24  C   UNL     1      -9.874  11.081  66.913  1.00  0.00    -0.222 C  
BRANCH  24  25
HETATM   25  C   UNL     1      -8.486  11.654  67.238  1.00  0.00    -0.156 C  
BRANCH  25  26
HETATM   26  C   UNL     1      -8.506  12.963  68.047  1.00  0.00    -0.178 C  
BRANCH  26  27
HETATM   27  C   UNL     1      -7.703  14.098  67.412  1.00  0.00    -0.189 C  
BRANCH  27  28
HETATM   28  C   UNL     1      -7.471  15.247  68.395  1.00  0.00    -0.111 C  
BRANCH  28  29
HETATM   29  C   UNL     1      -8.657  15.493  69.330  1.00  0.00    -0.259 C  
BRANCH  29  30
HETATM   30  C   UNL     1      -9.510  16.724  68.988  1.00  0.00    -0.217 C  
BRANCH  30  31
HETATM   31  C   UNL     1     -11.004  16.465  68.850  1.00  0.00    -0.332 C  
BRANCH  31  32
HETATM   32  S   UNL     1     -11.574  15.117  69.935  1.00  0.00    -0.325 S  
HETATM   33  O   UNL     1     -12.852  15.573  70.578  1.00  0.00    -0.443 OA 
BRANCH  32  34
HETATM   34  C   UNL     1     -12.026  13.930  68.630  1.00  0.00    -0.366 C  
BRANCH  34  35
HETATM   35  C   UNL     1     -11.868  14.529  67.236  1.00  0.00    -0.419 C  
BRANCH  35  36
HETATM   36  C   UNL     1     -12.107  13.485  66.146  1.00  0.00    -0.482 C  
BRANCH  36  37
HETATM   37  C   UNL     1     -11.421  13.823  64.824  1.00  0.00    -0.356 C  
HETATM   38  F   UNL     1     -11.985  14.961  64.325  1.00  0.00    -0.431 F  
HETATM   39  C   UNL     1     -11.462  12.694  63.784  1.00  0.00    -0.470 C  
HETATM   40  F   UNL     1     -10.128  14.155  65.113  1.00  0.00    -0.347 F  
HETATM   41  F   UNL     1     -11.974  11.548  64.281  1.00  0.00    -0.336 F  
HETATM   42  F   UNL     1     -12.208  13.045  62.711  1.00  0.00    -0.473 F  
HETATM   43  F   UNL     1     -10.224  12.396  63.316  1.00  0.00    -0.408 F  
ENDBRANCH  36  37
ENDBRANCH  35  36
ENDBRANCH  34  35
ENDBRANCH  32  34
ENDBRANCH  31  32
ENDBRANCH  30  31
ENDBRANCH  29  30
ENDBRANCH  28  29
ENDBRANCH  27  28
ENDBRANCH  26  27
ENDBRANCH  25  26
ENDBRANCH  24  25
ENDBRANCH  23  24
ENDBRANCH  21  23
TORSDOF 14
ENDMDL
MODEL       54
REMARK 921   NORMALIZED FREE ENERGY PREDICTED BY IDOCK:   -5.94 KCAL/MOL
REMARK 922        TOTAL FREE ENERGY PREDICTED BY IDOCK:  -14.10 KCAL/MOL
REMARK 923 INTER-LIGAND FREE ENERGY PREDICTED BY IDOCK:  -10.54 KCAL/MOL
REMARK 924 INTRA-LIGAND FREE ENERGY PREDICTED BY IDOCK:   -3.56 KCAL/MOL
REMARK 927      BINDING AFFINITY PREDICTED BY RF-SCORE:    0.00 PKD
ROOT
HETATM    1  C   UNL     1      -9.380   6.845  66.538  1.00  0.00    -0.197 C  
HETATM    2  C   UNL     1      -7.959   6.921  66.576  1.00  0.00    -0.109 C  
HETATM    3  C   UNL     1      -8.554   7.490  67.835  1.00  0.00    -0.121 C  
HETATM    4  C   UNL     1     -10.517   6.978  67.950  1.00  0.00    -0.214 C  
HETATM    5  O   UNL     1     -11.560   6.929  68.929  1.00  0.00    -0.532 OA 
HETATM    6  C   UNL     1      -9.552   6.053  68.263  1.00  0.00    -0.126 C  
HETATM    7  C   UNL     1      -9.477   7.042  69.815  1.00  0.00    -0.145 C  
HETATM    8  C   UNL     1      -9.618   4.571  68.358  1.00  0.00    -0.207 C  
HETATM    9  H   UNL     1     -12.478   6.690  68.983  1.00  0.00     0.000 HD 
HETATM   10  C   UNL     1     -10.036   8.721  69.577  1.00  0.00    -0.202 C  
HETATM   11  C   UNL     1     -10.074   9.496  68.053  1.00  0.00    -0.226 C  
HETATM   12  C   UNL     1     -10.849  10.811  67.904  1.00  0.00    -0.313 A  
HETATM   13  C   UNL     1     -11.142  11.593  69.037  1.00  0.00    -0.297 A  
HETATM   14  C   UNL     1     -11.662  12.886  68.917  1.00  0.00    -0.370 A  
HETATM   15  C   UNL     1     -11.904  13.410  67.657  1.00  0.00    -0.354 A  
HETATM   16  C   UNL     1     -11.617  12.667  66.521  1.00  0.00    -0.441 A  
HETATM   17  O   UNL     1     -12.405  14.666  67.486  1.00  0.00    -0.585 OA 
HETATM   18  C   UNL     1     -11.055  11.380  66.623  1.00  0.00    -0.333 A  
HETATM   19  H   UNL     1     -12.571  15.025  66.623  1.00  0.00     0.000 HD 
HETATM   20  C   UNL     1     -10.704  10.676  65.324  1.00  0.00    -0.100 C  
HETATM   21  C   UNL     1      -9.617   9.578  65.423  1.00  0.00    -0.342 C  
HETATM   22  C   UNL     1     -10.096   8.611  66.531  1.00  0.00    -0.339 C  
ENDROOT
BRANCH  21  23
HETATM   23  C   UNL     1      -8.228  10.191  65.697  1.00  0.00    -0.150 C  
BRANCH  23  24
HETATM   24  C   UNL     1      -7.139   9.874  64.689  1.00  0.00    -0.137 C  
BRANCH  24  25
HETATM   25  C   UNL     1      -5.764  10.288  65.236  1.00  0.00    -0.116 C  
BRANCH  25  26
HETATM   26  C   UNL     1      -5.518   9.910  66.707  1.00  0.00    -0.045 C  
BRANCH  26  27
HETATM   27  C   UNL     1      -5.447  11.109  67.653  1.00  0.00    -0.041 C  
BRANCH  27  28
HETATM   28  C   UNL     1      -6.560  11.070  68.702  1.00  0.00    -0.058 C  
BRANCH  28  29
HETATM   29  C   UNL     1      -7.350  12.377  68.795  1.00  0.00    -0.076 C  
BRANCH  29  30
HETATM   30  C   UNL     1      -7.527  13.125  67.464  1.00  0.00    -0.164 C  
BRANCH  30  31
HETATM   31  C   UNL     1      -7.241  14.619  67.513  1.00  0.00    -0.192 C  
BRANCH  31  32
HETATM   32  S   UNL     1      -8.749  15.603  67.794  1.00  0.00    -0.172 S  
HETATM   33  O   UNL     1      -8.477  16.512  68.957  1.00  0.00    -0.240 OA 
BRANCH  32  34
HETATM   34  C   UNL     1      -8.659  16.621  66.286  1.00  0.00    -0.324 C  
BRANCH  34  35
HETATM   35  C   UNL     1      -7.392  17.468  66.246  1.00  0.00    -0.355 C  
BRANCH  35  36
HETATM   36  C   UNL     1      -7.699  18.921  65.887  1.00  0.00    -0.165 C  
BRANCH  36  37
HETATM   37  C   UNL     1      -8.060  19.781  67.096  1.00  0.00    -0.292 C  
HETATM   38  F   UNL     1      -7.494  19.223  68.205  1.00  0.00    -0.284 F  
HETATM   39  C   UNL     1      -9.568  19.987  67.298  1.00  0.00    -0.397 C  
HETATM   40  F   UNL     1      -7.435  20.985  66.936  1.00  0.00    -0.341 F  
HETATM   41  F   UNL     1     -10.302  19.486  66.281  1.00  0.00    -0.430 F  
HETATM   42  F   UNL     1      -9.993  19.397  68.439  1.00  0.00    -0.391 F  
HETATM   43  F   UNL     1      -9.888  21.302  67.398  1.00  0.00    -0.618 F  
ENDBRANCH  36  37
ENDBRANCH  35  36
ENDBRANCH  34  35
ENDBRANCH  32  34
ENDBRANCH  31  32
ENDBRANCH  30  31
ENDBRANCH  29  30
ENDBRANCH  28  29
ENDBRANCH  27  28
ENDBRANCH  26  27
ENDBRANCH  25  26
ENDBRANCH  24  25
ENDBRANCH  23  24
ENDBRANCH  21  23
TORSDOF 14
ENDMDL
MODEL       55
REMARK 921   NORMALIZED FREE ENERGY PREDICTED BY IDOCK:   -5.93 KCAL/MOL
REMARK 922        TOTAL FREE ENERGY PREDICTED BY IDOCK:  -14.08 KCAL/MOL
REMARK 923 INTER-LIGAND FREE ENERGY PREDICTED BY IDOCK:  -10.43 KCAL/MOL
REMARK 924 INTRA-LIGAND FREE ENERGY PREDICTED BY IDOCK:   -3.65 KCAL/MOL
REMARK 927      BINDING AFFINITY PREDICTED BY RF-SCORE:    0.00 PKD
ROOT
HETATM    1  C   UNL     1     -11.547   8.128  71.081  1.00  0.00    -0.306 C  
HETATM    2  C   UNL     1     -10.458   8.397  71.956  1.00  0.00    -0.384 C  
HETATM    3  C   UNL     1     -10.885   9.650  71.240  1.00  0.00    -0.366 C  
HETATM    4  C   UNL     1     -12.686   9.342  70.351  1.00  0.00     0.374 C  
HETATM    5  O   UNL     1     -13.751  10.113  69.785  1.00  0.00     0.001 OA 
HETATM    6  C   UNL     1     -12.623   9.572  71.704  1.00  0.00    -0.476 C  
HETATM    7  C   UNL     1     -12.374  11.306  71.134  1.00  0.00    -0.429 C  
HETATM    8  C   UNL     1     -13.610   9.306  72.784  1.00  0.00    -0.240 C  
HETATM    9  H   UNL     1     -14.593   9.970  69.370  1.00  0.00     0.000 HD 
HETATM   10  C   UNL     1     -11.692  11.387  69.486  1.00  0.00    -0.417 C  
HETATM   11  C   UNL     1     -10.835  10.099  68.755  1.00  0.00    -0.259 C  
HETATM   12  C   UNL     1     -10.561  10.147  67.246  1.00  0.00    -0.321 A  
HETATM   13  C   UNL     1     -10.600  11.374  66.558  1.00  0.00    -0.309 A  
HETATM   14  C   UNL     1     -10.157  11.483  65.235  1.00  0.00    -0.314 A  
HETATM   15  C   UNL     1      -9.678  10.359  64.582  1.00  0.00    -0.329 A  
HETATM   16  C   UNL     1      -9.618   9.137  65.236  1.00  0.00    -0.087 A  
HETATM   17  O   UNL     1      -9.230  10.413  63.295  1.00  0.00    -0.233 OA 
HETATM   18  C   UNL     1     -10.021   9.018  66.580  1.00  0.00    -0.349 A  
HETATM   19  H   UNL     1      -8.902   9.644  62.846  1.00  0.00     0.000 HD 
HETATM   20  C   UNL     1      -9.847   7.659  67.235  1.00  0.00    -0.245 C  
HETATM   21  C   UNL     1      -9.743   7.662  68.779  1.00  0.00    -0.153 C  
HETATM   22  C   UNL     1     -10.989   8.427  69.283  1.00  0.00     0.028 C  
ENDROOT
BRANCH  21  23
HETATM   23  C   UNL     1      -8.409   8.279  69.248  1.00  0.00    -0.122 C  
BRANCH  23  24
HETATM   24  C   UNL     1      -7.144   7.683  68.660  1.00  0.00    -0.080 C  
BRANCH  24  25
HETATM   25  C   UNL     1      -6.359   8.749  67.881  1.00  0.00    -0.056 C  
BRANCH  25  26
HETATM   26  C   UNL     1      -6.838  10.193  68.110  1.00  0.00    -0.066 C  
BRANCH  26  27
HETATM   27  C   UNL     1      -6.675  11.102  66.892  1.00  0.00    -0.128 C  
BRANCH  27  28
HETATM   28  C   UNL     1      -6.883  12.574  67.252  1.00  0.00    -0.116 C  
BRANCH  28  29
HETATM   29  C   UNL     1      -8.019  12.799  68.251  1.00  0.00    -0.151 C  
BRANCH  29  30
HETATM   30  C   UNL     1      -8.668  14.191  68.195  1.00  0.00    -0.181 C  
BRANCH  30  31
HETATM   31  C   UNL     1      -9.126  14.642  66.815  1.00  0.00    -0.264 C  
BRANCH  31  32
HETATM   32  S   UNL     1     -10.718  15.528  66.872  1.00  0.00    -0.303 S  
HETATM   33  O   UNL     1     -11.801  14.509  66.665  1.00  0.00    -0.393 OA 
BRANCH  32  34
HETATM   34  C   UNL     1     -10.702  15.941  68.645  1.00  0.00    -0.274 C  
BRANCH  34  35
HETATM   35  C   UNL     1     -10.512  17.435  68.880  1.00  0.00    -0.312 C  
BRANCH  35  36
HETATM   36  C   UNL     1      -9.168  17.922  68.340  1.00  0.00    -0.289 C  
BRANCH  36  37
HETATM   37  C   UNL     1      -8.911  19.405  68.602  1.00  0.00    -0.372 C  
HETATM   38  F   UNL     1      -9.816  19.842  69.525  1.00  0.00    -0.457 F  
HETATM   39  C   UNL     1      -8.948  20.284  67.343  1.00  0.00    -0.349 C  
HETATM   40  F   UNL     1      -7.693  19.502  69.212  1.00  0.00    -0.390 F  
HETATM   41  F   UNL     1      -9.060  19.562  66.208  1.00  0.00    -0.328 F  
HETATM   42  F   UNL     1      -9.988  21.150  67.383  1.00  0.00    -0.594 F  
HETATM   43  F   UNL     1      -7.823  21.033  67.220  1.00  0.00    -0.390 F  
ENDBRANCH  36  37
ENDBRANCH  35  36
ENDBRANCH  34  35
ENDBRANCH  32  34
ENDBRANCH  31  32
ENDBRANCH  30  31
ENDBRANCH  29  30
ENDBRANCH  28  29
ENDBRANCH  27  28
ENDBRANCH  26  27
ENDBRANCH  25  26
ENDBRANCH  24  25
ENDBRANCH  23  24
ENDBRANCH  21  23
TORSDOF 14
ENDMDL
MODEL       56
REMARK 921   NORMALIZED FREE ENERGY PREDICTED BY IDOCK:   -5.93 KCAL/MOL
REMARK 922        TOTAL FREE ENERGY PREDICTED BY IDOCK:  -14.07 KCAL/MOL
REMARK 923 INTER-LIGAND FREE ENERGY PREDICTED BY IDOCK:   -9.89 KCAL/MOL
REMARK 924 INTRA-LIGAND FREE ENERGY PREDICTED BY IDOCK:   -4.19 KCAL/MOL
REMARK 927      BINDING AFFINITY PREDICTED BY RF-SCORE:    0.00 PKD
ROOT
HETATM    1  C   UNL     1      -8.720  12.540  67.231  1.00  0.00    -0.193 C  
HETATM    2  C   UNL     1      -9.278  12.235  65.957  1.00  0.00    -0.086 C  
HETATM    3  C   UNL     1     -10.298  12.908  66.835  1.00  0.00    -0.247 C  
HETATM    4  C   UNL     1      -9.373  13.717  68.452  1.00  0.00    -0.190 C  
HETATM    5  O   UNL     1      -9.646  14.677  69.479  1.00  0.00    -0.415 OA 
HETATM    6  C   UNL     1      -9.304  14.355  67.237  1.00  0.00    -0.211 C  
HETATM    7  C   UNL     1     -11.024  14.837  67.686  1.00  0.00    -0.292 C  
HETATM    8  C   UNL     1      -8.371  15.399  66.738  1.00  0.00    -0.285 C  
HETATM    9  H   UNL     1      -9.213  15.056  70.235  1.00  0.00     0.000 HD 
HETATM   10  C   UNL     1     -11.776  13.685  68.824  1.00  0.00    -0.383 C  
HETATM   11  C   UNL     1     -11.247  12.070  69.021  1.00  0.00    -0.313 C  
HETATM   12  C   UNL     1     -11.746  11.263  70.225  1.00  0.00    -0.415 A  
HETATM   13  C   UNL     1     -12.923  11.646  70.895  1.00  0.00    -0.145 A  
HETATM   14  C   UNL     1     -13.516  10.822  71.858  1.00  0.00    -0.327 A  
HETATM   15  C   UNL     1     -12.929   9.606  72.170  1.00  0.00    -0.406 A  
HETATM   16  C   UNL     1     -11.773   9.197  71.521  1.00  0.00    -0.433 A  
HETATM   17  O   UNL     1     -13.469   8.766  73.098  1.00  0.00    -0.953 OA 
HETATM   18  C   UNL     1     -11.188   9.994  70.519  1.00  0.00    -0.408 A  
HETATM   19  H   UNL     1     -13.067   7.932  73.312  1.00  0.00     0.000 HD 
HETATM   20  C   UNL     1      -9.969   9.428  69.811  1.00  0.00    -0.217 C  
HETATM   21  C   UNL     1      -9.684   9.995  68.399  1.00  0.00    -0.157 C  
HETATM   22  C   UNL     1      -9.633  11.532  68.566  1.00  0.00    -0.180 C  
ENDROOT
BRANCH  21  23
HETATM   23  C   UNL     1     -10.743   9.521  67.382  1.00  0.00    -0.297 C  
BRANCH  23  24
HETATM   24  C   UNL     1     -10.611   8.093  66.885  1.00  0.00    -0.311 C  
BRANCH  24  25
HETATM   25  C   UNL     1      -9.169   7.811  66.436  1.00  0.00    -0.229 C  
BRANCH  25  26
HETATM   26  C   UNL     1      -8.534   6.560  67.068  1.00  0.00    -0.113 C  
BRANCH  26  27
HETATM   27  C   UNL     1      -7.008   6.532  66.995  1.00  0.00    -0.068 C  
BRANCH  27  28
HETATM   28  C   UNL     1      -6.370   6.691  68.376  1.00  0.00    -0.038 C  
BRANCH  28  29
HETATM   29  C   UNL     1      -6.102   8.148  68.755  1.00  0.00    -0.044 C  
BRANCH  29  30
HETATM   30  C   UNL     1      -6.565   8.549  70.165  1.00  0.00    -0.038 C  
BRANCH  30  31
HETATM   31  C   UNL     1      -5.795   7.909  71.311  1.00  0.00    -0.034 C  
BRANCH  31  32
HETATM   32  S   UNL     1      -6.830   6.769  72.287  1.00  0.00    -0.063 S  
HETATM   33  O   UNL     1      -6.022   6.344  73.478  1.00  0.00    -0.056 OA 
BRANCH  32  34
HETATM   34  C   UNL     1      -8.048   7.989  72.873  1.00  0.00    -0.161 C  
BRANCH  34  35
HETATM   35  C   UNL     1      -9.422   7.365  73.088  1.00  0.00    -0.249 C  
BRANCH  35  36
HETATM   36  C   UNL     1      -9.421   5.875  72.751  1.00  0.00    -0.153 C  
BRANCH  36  37
HETATM   37  C   UNL     1     -10.608   5.448  71.890  1.00  0.00    -0.226 C  
HETATM   38  F   UNL     1     -10.935   4.163  72.212  1.00  0.00    -0.142 F  
HETATM   39  C   UNL     1     -10.376   5.590  70.378  1.00  0.00    -0.276 C  
HETATM   40  F   UNL     1     -11.679   6.204  72.277  1.00  0.00    -0.315 F  
HETATM   41  F   UNL     1      -9.209   6.203  70.087  1.00  0.00    -0.148 F  
HETATM   42  F   UNL     1     -10.366   4.380  69.771  1.00  0.00    -0.287 F  
HETATM   43  F   UNL     1     -11.357   6.315  69.783  1.00  0.00    -0.385 F  
ENDBRANCH  36  37
ENDBRANCH  35  36
ENDBRANCH  34  35
ENDBRANCH  32  34
ENDBRANCH  31  32
ENDBRANCH  30  31
ENDBRANCH  29  30
ENDBRANCH  28  29
ENDBRANCH  27  28
ENDBRANCH  26  27
ENDBRANCH  25  26
ENDBRANCH  24  25
ENDBRANCH  23  24
ENDBRANCH  21  23
TORSDOF 14
ENDMDL
MODEL       57
REMARK 921   NORMALIZED FREE ENERGY PREDICTED BY IDOCK:   -5.92 KCAL/MOL
REMARK 922        TOTAL FREE ENERGY PREDICTED BY IDOCK:  -14.05 KCAL/MOL
REMARK 923 INTER-LIGAND FREE ENERGY PREDICTED BY IDOCK:  -11.36 KCAL/MOL
REMARK 924 INTRA-LIGAND FREE ENERGY PREDICTED BY IDOCK:   -2.69 KCAL/MOL
REMARK 927      BINDING AFFINITY PREDICTED BY RF-SCORE:    0.00 PKD
ROOT
HETATM    1  C   UNL     1     -10.838   7.426  68.278  1.00  0.00    -0.081 C  
HETATM    2  C   UNL     1     -10.703   6.651  67.092  1.00  0.00    -0.440 C  
HETATM    3  C   UNL     1      -9.361   6.876  67.734  1.00  0.00    -0.120 C  
HETATM    4  C   UNL     1      -9.621   7.589  69.618  1.00  0.00    -0.159 C  
HETATM    5  O   UNL     1      -8.862   7.746  70.823  1.00  0.00    -0.137 OA 
HETATM    6  C   UNL     1      -9.802   6.251  69.364  1.00  0.00    -0.180 C  
HETATM    7  C   UNL     1      -7.961   6.268  69.359  1.00  0.00    -0.109 C  
HETATM    8  C   UNL     1     -10.510   5.200  70.142  1.00  0.00    -0.305 C  
HETATM    9  H   UNL     1      -8.984   8.080  71.703  1.00  0.00     0.000 HD 
HETATM   10  C   UNL     1      -7.298   7.876  68.954  1.00  0.00    -0.085 C  
HETATM   11  C   UNL     1      -8.181   9.077  68.114  1.00  0.00    -0.113 C  
HETATM   12  C   UNL     1      -7.645  10.513  68.086  1.00  0.00    -0.091 A  
HETATM   13  C   UNL     1      -6.284  10.767  68.339  1.00  0.00    -0.049 A  
HETATM   14  C   UNL     1      -5.724  12.030  68.120  1.00  0.00    -0.050 A  
HETATM   15  C   UNL     1      -6.526  13.060  67.654  1.00  0.00    -0.160 A  
HETATM   16  C   UNL     1      -7.869  12.839  67.386  1.00  0.00    -0.172 A  
HETATM   17  O   UNL     1      -6.027  14.308  67.420  1.00  0.00    -0.346 OA 
HETATM   18  C   UNL     1      -8.439  11.564  67.561  1.00  0.00    -0.143 A  
HETATM   19  H   UNL     1      -6.576  15.014  67.101  1.00  0.00     0.000 HD 
HETATM   20  C   UNL     1      -9.897  11.400  67.169  1.00  0.00    -0.212 C  
HETATM   21  C   UNL     1     -10.346   9.960  66.824  1.00  0.00    -0.285 C  
HETATM   22  C   UNL     1      -9.940   9.091  68.037  1.00  0.00    -0.213 C  
ENDROOT
BRANCH  21  23
HETATM   23  C   UNL     1      -9.729   9.485  65.492  1.00  0.00    -0.344 C  
BRANCH  23  24
HETATM   24  C   UNL     1      -9.057  10.548  64.642  1.00  0.00    -0.248 C  
BRANCH  24  25
HETATM   25  C   UNL     1      -9.956  10.940  63.460  1.00  0.00    -0.419 C  
BRANCH  25  26
HETATM   26  C   UNL     1     -10.666  12.295  63.617  1.00  0.00    -0.513 C  
BRANCH  26  27
HETATM   27  C   UNL     1     -12.178  12.186  63.813  1.00  0.00    -0.630 C  
BRANCH  27  28
HETATM   28  C   UNL     1     -12.631  12.857  65.111  1.00  0.00    -0.536 C  
BRANCH  28  29
HETATM   29  C   UNL     1     -12.115  14.289  65.265  1.00  0.00    -0.400 C  
BRANCH  29  30
HETATM   30  C   UNL     1     -11.310  14.555  66.547  1.00  0.00    -0.354 C  
BRANCH  30  31
HETATM   31  C   UNL     1     -12.031  14.231  67.848  1.00  0.00    -0.329 C  
BRANCH  31  32
HETATM   32  S   UNL     1     -11.605  15.397  69.183  1.00  0.00    -0.357 S  
HETATM   33  O   UNL     1     -11.875  14.701  70.484  1.00  0.00    -0.273 OA 
BRANCH  32  34
HETATM   34  C   UNL     1      -9.800  15.395  68.938  1.00  0.00    -0.216 C  
BRANCH  34  35
HETATM   35  C   UNL     1      -9.269  16.784  68.600  1.00  0.00    -0.257 C  
BRANCH  35  36
HETATM   36  C   UNL     1     -10.405  17.763  68.308  1.00  0.00    -0.387 C  
BRANCH  36  37
HETATM   37  C   UNL     1      -9.916  19.150  67.894  1.00  0.00    -0.362 C  
HETATM   38  F   UNL     1     -10.754  20.081  68.434  1.00  0.00    -0.513 F  
HETATM   39  C   UNL     1      -9.788  19.347  66.376  1.00  0.00    -0.396 C  
HETATM   40  F   UNL     1      -8.709  19.351  68.501  1.00  0.00    -0.358 F  
HETATM   41  F   UNL     1      -9.995  18.206  65.684  1.00  0.00    -0.202 F  
HETATM   42  F   UNL     1     -10.675  20.266  65.927  1.00  0.00    -0.464 F  
HETATM   43  F   UNL     1      -8.555  19.795  66.029  1.00  0.00    -0.348 F  
ENDBRANCH  36  37
ENDBRANCH  35  36
ENDBRANCH  34  35
ENDBRANCH  32  34
ENDBRANCH  31  32
ENDBRANCH  30  31
ENDBRANCH  29  30
ENDBRANCH  28  29
ENDBRANCH  27  28
ENDBRANCH  26  27
ENDBRANCH  25  26
ENDBRANCH  24  25
ENDBRANCH  23  24
ENDBRANCH  21  23
TORSDOF 14
ENDMDL
MODEL       58
REMARK 921   NORMALIZED FREE ENERGY PREDICTED BY IDOCK:   -5.91 KCAL/MOL
REMARK 922        TOTAL FREE ENERGY PREDICTED BY IDOCK:  -14.04 KCAL/MOL
REMARK 923 INTER-LIGAND FREE ENERGY PREDICTED BY IDOCK:  -11.14 KCAL/MOL
REMARK 924 INTRA-LIGAND FREE ENERGY PREDICTED BY IDOCK:   -2.90 KCAL/MOL
REMARK 927      BINDING AFFINITY PREDICTED BY RF-SCORE:    0.00 PKD
ROOT
HETATM    1  C   UNL     1      -7.778  16.586  69.195  1.00  0.00    -0.205 C  
HETATM    2  C   UNL     1      -6.477  16.252  68.726  1.00  0.00    -0.128 C  
HETATM    3  C   UNL     1      -7.316  16.808  67.608  1.00  0.00    -0.164 C  
HETATM    4  C   UNL     1      -8.986  17.672  68.378  1.00  0.00    -0.280 C  
HETATM    5  O   UNL     1     -10.012  18.582  67.969  1.00  0.00    -0.321 OA 
HETATM    6  C   UNL     1      -7.784  18.336  68.439  1.00  0.00    -0.312 C  
HETATM    7  C   UNL     1      -8.160  18.642  66.662  1.00  0.00    -0.284 C  
HETATM    8  C   UNL     1      -7.342  19.474  69.287  1.00  0.00    -0.311 C  
HETATM    9  H   UNL     1     -10.792  18.987  68.328  1.00  0.00     0.000 HD 
HETATM   10  C   UNL     1      -9.246  17.402  65.975  1.00  0.00    -0.093 C  
HETATM   11  C   UNL     1      -9.445  15.843  66.649  1.00  0.00    -0.263 C  
HETATM   12  C   UNL     1     -10.613  14.969  66.177  1.00  0.00    -0.314 A  
HETATM   13  C   UNL     1     -11.234  15.225  64.940  1.00  0.00    -0.422 A  
HETATM   14  C   UNL     1     -12.158  14.330  64.388  1.00  0.00    -0.490 A  
HETATM   15  C   UNL     1     -12.479  13.171  65.076  1.00  0.00    -0.460 A  
HETATM   16  C   UNL     1     -11.877  12.886  66.293  1.00  0.00    -0.477 A  
HETATM   17  O   UNL     1     -13.369  12.265  64.579  1.00  0.00    -0.769 OA 
HETATM   18  C   UNL     1     -10.915  13.755  66.843  1.00  0.00    -0.296 A  
HETATM   19  H   UNL     1     -13.590  11.471  65.050  1.00  0.00     0.000 HD 
HETATM   20  C   UNL     1     -10.255  13.321  68.140  1.00  0.00    -0.243 C  
HETATM   21  C   UNL     1      -8.866  13.939  68.431  1.00  0.00    -0.177 C  
HETATM   22  C   UNL     1      -9.057  15.470  68.326  1.00  0.00    -0.186 C  
ENDROOT
BRANCH  21  23
HETATM   23  C   UNL     1      -7.795  13.384  67.469  1.00  0.00    -0.181 C  
BRANCH  23  24
HETATM   24  C   UNL     1      -7.826  11.889  67.213  1.00  0.00    -0.168 C  
BRANCH  24  25
HETATM   25  C   UNL     1      -7.316  11.121  68.443  1.00  0.00    -0.094 C  
BRANCH  25  26
HETATM   26  C   UNL     1      -8.139   9.873  68.806  1.00  0.00    -0.102 C  
BRANCH  26  27
HETATM   27  C   UNL     1      -9.538  10.184  69.339  1.00  0.00    -0.249 C  
BRANCH  27  28
HETATM   28  C   UNL     1     -10.628   9.538  68.483  1.00  0.00    -0.247 C  
BRANCH  28  29
HETATM   29  C   UNL     1     -10.287   9.507  66.991  1.00  0.00    -0.319 C  
BRANCH  29  30
HETATM   30  C   UNL     1      -9.927   8.119  66.436  1.00  0.00    -0.238 C  
BRANCH  30  31
HETATM   31  C   UNL     1     -10.514   6.940  67.198  1.00  0.00    -0.303 C  
BRANCH  31  32
HETATM   32  S   UNL     1      -9.276   5.642  67.521  1.00  0.00    -0.109 S  
HETATM   33  O   UNL     1      -8.025   6.327  67.987  1.00  0.00    -0.105 OA 
BRANCH  32  34
HETATM   34  C   UNL     1     -10.067   4.914  68.992  1.00  0.00    -0.140 C  
BRANCH  34  35
HETATM   35  C   UNL     1      -9.343   5.298  70.277  1.00  0.00    -0.207 C  
BRANCH  35  36
HETATM   36  C   UNL     1      -9.628   6.746  70.671  1.00  0.00    -0.174 C  
BRANCH  36  37
HETATM   37  C   UNL     1     -11.040   6.959  71.214  1.00  0.00    -0.258 C  
HETATM   38  F   UNL     1     -11.909   6.966  70.162  1.00  0.00    -0.358 F  
HETATM   39  C   UNL     1     -11.205   8.226  72.067  1.00  0.00    -0.323 C  
HETATM   40  F   UNL     1     -11.362   5.851  71.945  1.00  0.00    -0.303 F  
HETATM   41  F   UNL     1     -10.031   8.851  72.302  1.00  0.00    -0.372 F  
HETATM   42  F   UNL     1     -12.029   9.115  71.465  1.00  0.00    -0.324 F  
HETATM   43  F   UNL     1     -11.749   7.950  73.278  1.00  0.00    -0.371 F  
ENDBRANCH  36  37
ENDBRANCH  35  36
ENDBRANCH  34  35
ENDBRANCH  32  34
ENDBRANCH  31  32
ENDBRANCH  30  31
ENDBRANCH  29  30
ENDBRANCH  28  29
ENDBRANCH  27  28
ENDBRANCH  26  27
ENDBRANCH  25  26
ENDBRANCH  24  25
ENDBRANCH  23  24
ENDBRANCH  21  23
TORSDOF 14
ENDMDL
MODEL       59
REMARK 921   NORMALIZED FREE ENERGY PREDICTED BY IDOCK:   -5.90 KCAL/MOL
REMARK 922        TOTAL FREE ENERGY PREDICTED BY IDOCK:  -14.02 KCAL/MOL
REMARK 923 INTER-LIGAND FREE ENERGY PREDICTED BY IDOCK:   -9.98 KCAL/MOL
REMARK 924 INTRA-LIGAND FREE ENERGY PREDICTED BY IDOCK:   -4.04 KCAL/MOL
REMARK 927      BINDING AFFINITY PREDICTED BY RF-SCORE:    0.00 PKD
ROOT
HETATM    1  C   UNL     1      -8.821   7.357  71.961  1.00  0.00    -0.141 C  
HETATM    2  C   UNL     1      -8.540   8.340  72.951  1.00  0.00    -0.276 C  
HETATM    3  C   UNL     1      -9.714   8.758  72.108  1.00  0.00    -0.335 C  
HETATM    4  C   UNL     1     -10.362   7.173  71.014  1.00  0.00    -0.196 C  
HETATM    5  O   UNL     1     -11.520   6.783  70.267  1.00  0.00    -0.326 OA 
HETATM    6  C   UNL     1     -10.685   7.260  72.346  1.00  0.00    -0.283 C  
HETATM    7  C   UNL     1     -11.892   8.495  71.706  1.00  0.00    -0.395 C  
HETATM    8  C   UNL     1     -11.156   6.224  73.303  1.00  0.00    -0.145 C  
HETATM    9  H   UNL     1     -11.823   6.042  69.756  1.00  0.00     0.000 HD 
HETATM   10  C   UNL     1     -11.368   9.216  70.158  1.00  0.00    -0.164 C  
HETATM   11  C   UNL     1      -9.742   9.232  69.627  1.00  0.00    -0.192 C  
HETATM   12  C   UNL     1      -9.438   9.590  68.167  1.00  0.00    -0.145 A  
HETATM   13  C   UNL     1     -10.377  10.309  67.404  1.00  0.00    -0.282 A  
HETATM   14  C   UNL     1     -10.052  10.827  66.146  1.00  0.00    -0.297 A  
HETATM   15  C   UNL     1      -8.781  10.623  65.632  1.00  0.00    -0.188 A  
HETATM   16  C   UNL     1      -7.830   9.927  66.364  1.00  0.00    -0.107 A  
HETATM   17  O   UNL     1      -8.413  11.112  64.413  1.00  0.00    -0.368 OA 
HETATM   18  C   UNL     1      -8.128   9.434  67.649  1.00  0.00    -0.106 A  
HETATM   19  H   UNL     1      -7.543  10.972  64.060  1.00  0.00     0.000 HD 
HETATM   20  C   UNL     1      -7.001   8.753  68.405  1.00  0.00    -0.066 C  
HETATM   21  C   UNL     1      -7.138   8.730  69.946  1.00  0.00    -0.051 C  
HETATM   22  C   UNL     1      -8.527   8.112  70.235  1.00  0.00    -0.126 C  
ENDROOT
BRANCH  21  23
HETATM   23  C   UNL     1      -6.954  10.139  70.545  1.00  0.00    -0.059 C  
BRANCH  23  24
HETATM   24  C   UNL     1      -5.845  10.987  69.950  1.00  0.00    -0.086 C  
BRANCH  24  25
HETATM   25  C   UNL     1      -6.276  12.460  69.872  1.00  0.00    -0.102 C  
BRANCH  25  26
HETATM   26  C   UNL     1      -7.428  12.739  68.892  1.00  0.00     0.022 C  
BRANCH  26  27
HETATM   27  C   UNL     1      -6.993  13.431  67.601  1.00  0.00    -0.168 C  
BRANCH  27  28
HETATM   28  C   UNL     1      -7.911  14.602  67.247  1.00  0.00    -0.223 C  
BRANCH  28  29
HETATM   29  C   UNL     1      -7.841  15.752  68.254  1.00  0.00    -0.129 C  
BRANCH  29  30
HETATM   30  C   UNL     1      -9.198  16.221  68.801  1.00  0.00    -0.240 C  
BRANCH  30  31
HETATM   31  C   UNL     1      -9.665  15.525  70.071  1.00  0.00    -0.038 C  
BRANCH  31  32
HETATM   32  S   UNL     1     -11.369  14.894  69.926  1.00  0.00    -0.286 S  
HETATM   33  O   UNL     1     -12.270  15.887  70.601  1.00  0.00    -0.393 OA 
BRANCH  32  34
HETATM   34  C   UNL     1     -11.562  15.129  68.130  1.00  0.00    -0.341 C  
BRANCH  34  35
HETATM   35  C   UNL     1     -11.692  13.801  67.393  1.00  0.00    -0.417 C  
BRANCH  35  36
HETATM   36  C   UNL     1     -12.529  13.943  66.122  1.00  0.00    -0.478 C  
BRANCH  36  37
HETATM   37  C   UNL     1     -11.688  14.140  64.862  1.00  0.00    -0.392 C  
HETATM   38  F   UNL     1     -11.903  15.402  64.393  1.00  0.00    -0.422 F  
HETATM   39  C   UNL     1     -11.943  13.098  63.763  1.00  0.00    -0.508 C  
HETATM   40  F   UNL     1     -10.376  14.112  65.245  1.00  0.00    -0.310 F  
HETATM   41  F   UNL     1     -12.767  12.107  64.167  1.00  0.00    -0.522 F  
HETATM   42  F   UNL     1     -12.496  13.670  62.668  1.00  0.00    -0.260 F  
HETATM   43  F   UNL     1     -10.793  12.505  63.354  1.00  0.00    -0.435 F  
ENDBRANCH  36  37
ENDBRANCH  35  36
ENDBRANCH  34  35
ENDBRANCH  32  34
ENDBRANCH  31  32
ENDBRANCH  30  31
ENDBRANCH  29  30
ENDBRANCH  28  29
ENDBRANCH  27  28
ENDBRANCH  26  27
ENDBRANCH  25  26
ENDBRANCH  24  25
ENDBRANCH  23  24
ENDBRANCH  21  23
TORSDOF 14
ENDMDL
MODEL       60
REMARK 921   NORMALIZED FREE ENERGY PREDICTED BY IDOCK:   -5.86 KCAL/MOL
REMARK 922        TOTAL FREE ENERGY PREDICTED BY IDOCK:  -13.95 KCAL/MOL
REMARK 923 INTER-LIGAND FREE ENERGY PREDICTED BY IDOCK:  -11.57 KCAL/MOL
REMARK 924 INTRA-LIGAND FREE ENERGY PREDICTED BY IDOCK:   -2.38 KCAL/MOL
REMARK 927      BINDING AFFINITY PREDICTED BY RF-SCORE:    0.00 PKD
ROOT
HETATM    1  C   UNL     1     -10.187   9.505  70.950  1.00  0.00    -0.356 C  
HETATM    2  C   UNL     1     -10.341   9.589  69.538  1.00  0.00    -0.229 C  
HETATM    3  C   UNL     1     -11.122   8.427  70.089  1.00  0.00    -0.183 C  
HETATM    4  C   UNL     1     -11.243   8.588  72.110  1.00  0.00    -0.362 C  
HETATM    5  O   UNL     1     -12.014   8.046  73.188  1.00  0.00    -0.646 OA 
HETATM    6  C   UNL     1     -12.052   9.363  71.315  1.00  0.00    -0.424 C  
HETATM    7  C   UNL     1     -12.971   7.775  71.151  1.00  0.00    -0.172 C  
HETATM    8  C   UNL     1     -12.811  10.605  71.615  1.00  0.00    -0.570 C  
HETATM    9  H   UNL     1     -12.071   8.121  74.133  1.00  0.00     0.000 HD 
HETATM   10  C   UNL     1     -11.926   6.354  71.431  1.00  0.00    -0.307 C  
HETATM   11  C   UNL     1     -10.222   6.392  71.284  1.00  0.00    -0.232 C  
HETATM   12  C   UNL     1      -9.400   5.222  71.839  1.00  0.00    -0.167 A  
HETATM   13  C   UNL     1     -10.005   3.969  72.053  1.00  0.00    -0.246 A  
HETATM   14  C   UNL     1      -9.246   2.835  72.359  1.00  0.00    -0.139 A  
HETATM   15  C   UNL     1      -7.869   2.944  72.464  1.00  0.00    -0.058 A  
HETATM   16  C   UNL     1      -7.242   4.163  72.250  1.00  0.00    -0.061 A  
HETATM   17  O   UNL     1      -7.084   1.867  72.756  1.00  0.00    -0.022 OA 
HETATM   18  C   UNL     1      -7.987   5.305  71.900  1.00  0.00    -0.113 A  
HETATM   19  H   UNL     1      -6.140   1.941  72.828  1.00  0.00     0.000 HD 
HETATM   20  C   UNL     1      -7.206   6.576  71.610  1.00  0.00    -0.086 C  
HETATM   21  C   UNL     1      -7.918   7.616  70.712  1.00  0.00    -0.102 C  
HETATM   22  C   UNL     1      -9.288   7.881  71.381  1.00  0.00    -0.174 C  
ENDROOT
BRANCH  21  23
HETATM   23  C   UNL     1      -8.030   7.115  69.257  1.00  0.00    -0.119 C  
BRANCH  23  24
HETATM   24  C   UNL     1      -7.279   7.914  68.208  1.00  0.00    -0.090 C  
BRANCH  24  25
HETATM   25  C   UNL     1      -7.858   7.644  66.810  1.00  0.00    -0.107 C  
BRANCH  25  26
HETATM   26  C   UNL     1      -9.394   7.594  66.751  1.00  0.00    -0.218 C  
BRANCH  26  27
HETATM   27  C   UNL     1     -10.036   8.857  66.177  1.00  0.00    -0.290 C  
BRANCH  27  28
HETATM   28  C   UNL     1      -9.043   9.670  65.345  1.00  0.00    -0.265 C  
BRANCH  28  29
HETATM   29  C   UNL     1      -9.648  10.226  64.054  1.00  0.00    -0.365 C  
BRANCH  29  30
HETATM   30  C   UNL     1     -10.805  11.218  64.253  1.00  0.00    -0.398 C  
BRANCH  30  31
HETATM   31  C   UNL     1     -10.428  12.689  64.158  1.00  0.00    -0.413 C  
BRANCH  31  32
HETATM   32  S   UNL     1     -11.822  13.788  64.571  1.00  0.00    -0.435 S  
HETATM   33  O   UNL     1     -12.980  12.913  64.952  1.00  0.00    -0.754 OA 
BRANCH  32  34
HETATM   34  C   UNL     1     -11.139  14.475  66.114  1.00  0.00    -0.334 C  
BRANCH  34  35
HETATM   35  C   UNL     1     -11.964  14.072  67.331  1.00  0.00    -0.439 C  
BRANCH  35  36
HETATM   36  C   UNL     1     -11.876  15.118  68.441  1.00  0.00    -0.293 C  
BRANCH  36  37
HETATM   37  C   UNL     1     -11.442  14.538  69.786  1.00  0.00    -0.279 C  
HETATM   38  F   UNL     1     -11.287  13.190  69.644  1.00  0.00    -0.298 F  
HETATM   39  C   UNL     1     -12.391  14.860  70.949  1.00  0.00    -0.328 C  
HETATM   40  F   UNL     1     -10.191  15.022  70.049  1.00  0.00    -0.232 F  
HETATM   41  F   UNL     1     -13.370  15.721  70.598  1.00  0.00    -0.511 F  
HETATM   42  F   UNL     1     -12.983  13.737  71.420  1.00  0.00    -0.381 F  
HETATM   43  F   UNL     1     -11.735  15.421  71.996  1.00  0.00    -0.375 F  
ENDBRANCH  36  37
ENDBRANCH  35  36
ENDBRANCH  34  35
ENDBRANCH  32  34
ENDBRANCH  31  32
ENDBRANCH  30  31
ENDBRANCH  29  30
ENDBRANCH  28  29
ENDBRANCH  27  28
ENDBRANCH  26  27
ENDBRANCH  25  26
ENDBRANCH  24  25
ENDBRANCH  23  24
ENDBRANCH  21  23
TORSDOF 14
ENDMDL
MODEL       61
REMARK 921   NORMALIZED FREE ENERGY PREDICTED BY IDOCK:   -5.86 KCAL/MOL
REMARK 922        TOTAL FREE ENERGY PREDICTED BY IDOCK:  -13.94 KCAL/MOL
REMARK 923 INTER-LIGAND FREE ENERGY PREDICTED BY IDOCK:  -10.53 KCAL/MOL
REMARK 924 INTRA-LIGAND FREE ENERGY PREDICTED BY IDOCK:   -3.41 KCAL/MOL
REMARK 927      BINDING AFFINITY PREDICTED BY RF-SCORE:    0.00 PKD
ROOT
HETATM    1  C   UNL     1      -8.340  12.916  68.428  1.00  0.00    -0.116 C  
HETATM    2  C   UNL     1      -8.155  12.088  67.286  1.00  0.00    -0.174 C  
HETATM    3  C   UNL     1      -7.205  13.254  67.254  1.00  0.00    -0.033 C  
HETATM    4  C   UNL     1      -7.181  14.160  69.072  1.00  0.00    -0.110 C  
HETATM    5  O   UNL     1      -6.366  15.081  69.804  1.00  0.00    -0.129 OA 
HETATM    6  C   UNL     1      -6.491  12.987  68.886  1.00  0.00    -0.094 C  
HETATM    7  C   UNL     1      -5.308  14.120  68.044  1.00  0.00    -0.109 C  
HETATM    8  C   UNL     1      -5.967  11.999  69.865  1.00  0.00    -0.149 C  
HETATM    9  H   UNL     1      -6.354  15.504  70.654  1.00  0.00     0.000 HD 
HETATM   10  C   UNL     1      -6.103  15.599  67.434  1.00  0.00    -0.079 C  
HETATM   11  C   UNL     1      -7.782  15.710  67.127  1.00  0.00    -0.258 C  
HETATM   12  C   UNL     1      -8.409  17.092  66.905  1.00  0.00    -0.247 A  
HETATM   13  C   UNL     1      -7.606  18.181  66.520  1.00  0.00    -0.273 A  
HETATM   14  C   UNL     1      -8.169  19.395  66.111  1.00  0.00    -0.319 A  
HETATM   15  C   UNL     1      -9.547  19.536  66.094  1.00  0.00    -0.362 A  
HETATM   16  C   UNL     1     -10.367  18.478  66.460  1.00  0.00    -0.447 A  
HETATM   17  O   UNL     1     -10.145  20.697  65.700  1.00  0.00    -0.478 OA 
HETATM   18  C   UNL     1      -9.818  17.236  66.833  1.00  0.00    -0.287 A  
HETATM   19  H   UNL     1     -11.090  20.794  65.688  1.00  0.00     0.000 HD 
HETATM   20  C   UNL     1     -10.794  16.115  67.142  1.00  0.00    -0.216 C  
HETATM   21  C   UNL     1     -10.242  14.677  66.993  1.00  0.00    -0.261 C  
HETATM   22  C   UNL     1      -8.961  14.627  67.859  1.00  0.00    -0.174 C  
ENDROOT
BRANCH  21  23
HETATM   23  C   UNL     1      -9.997  14.323  65.511  1.00  0.00    -0.341 C  
BRANCH  23  24
HETATM   24  C   UNL     1     -11.108  14.675  64.540  1.00  0.00    -0.269 C  
BRANCH  24  25
HETATM   25  C   UNL     1     -11.986  13.446  64.258  1.00  0.00    -0.481 C  
BRANCH  25  26
HETATM   26  C   UNL     1     -11.372  12.106  64.700  1.00  0.00    -0.382 C  
BRANCH  26  27
HETATM   27  C   UNL     1     -10.582  11.392  63.603  1.00  0.00    -0.476 C  
BRANCH  27  28
HETATM   28  C   UNL     1      -9.504  10.476  64.184  1.00  0.00    -0.342 C  
BRANCH  28  29
HETATM   29  C   UNL     1      -9.958   9.727  65.438  1.00  0.00    -0.302 C  
BRANCH  29  30
HETATM   30  C   UNL     1      -9.191   8.428  65.732  1.00  0.00    -0.175 C  
BRANCH  30  31
HETATM   31  C   UNL     1      -9.615   7.692  66.995  1.00  0.00    -0.175 C  
BRANCH  31  32
HETATM   32  S   UNL     1      -8.263   7.574  68.213  1.00  0.00    -0.125 S  
HETATM   33  O   UNL     1      -7.316   8.705  67.935  1.00  0.00    -0.089 OA 
BRANCH  32  34
HETATM   34  C   UNL     1      -9.227   8.033  69.689  1.00  0.00    -0.152 C  
BRANCH  34  35
HETATM   35  C   UNL     1     -10.456   8.862  69.332  1.00  0.00    -0.228 C  
BRANCH  35  36
HETATM   36  C   UNL     1     -10.370  10.272  69.914  1.00  0.00    -0.281 C  
BRANCH  36  37
HETATM   37  C   UNL     1     -11.699  11.023  69.879  1.00  0.00    -0.346 C  
HETATM   38  F   UNL     1     -11.439  12.352  69.710  1.00  0.00    -0.316 F  
HETATM   39  C   UNL     1     -12.588  10.793  71.110  1.00  0.00    -0.428 C  
HETATM   40  F   UNL     1     -12.353  10.633  68.744  1.00  0.00    -0.257 F  
HETATM   41  F   UNL     1     -12.092   9.850  71.940  1.00  0.00    -0.443 F  
HETATM   42  F   UNL     1     -12.735  11.933  71.825  1.00  0.00    -0.426 F  
HETATM   43  F   UNL     1     -13.835  10.388  70.762  1.00  0.00    -0.174 F  
ENDBRANCH  36  37
ENDBRANCH  35  36
ENDBRANCH  34  35
ENDBRANCH  32  34
ENDBRANCH  31  32
ENDBRANCH  30  31
ENDBRANCH  29  30
ENDBRANCH  28  29
ENDBRANCH  27  28
ENDBRANCH  26  27
ENDBRANCH  25  26
ENDBRANCH  24  25
ENDBRANCH  23  24
ENDBRANCH  21  23
TORSDOF 14
ENDMDL
MODEL       62
REMARK 921   NORMALIZED FREE ENERGY PREDICTED BY IDOCK:   -5.83 KCAL/MOL
REMARK 922        TOTAL FREE ENERGY PREDICTED BY IDOCK:  -13.89 KCAL/MOL
REMARK 923 INTER-LIGAND FREE ENERGY PREDICTED BY IDOCK:   -9.75 KCAL/MOL
REMARK 924 INTRA-LIGAND FREE ENERGY PREDICTED BY IDOCK:   -4.14 KCAL/MOL
REMARK 927      BINDING AFFINITY PREDICTED BY RF-SCORE:    0.00 PKD
ROOT
HETATM    1  C   UNL     1      -8.384  13.037  68.272  1.00  0.00    -0.158 C  
HETATM    2  C   UNL     1      -8.111  12.512  66.977  1.00  0.00    -0.105 C  
HETATM    3  C   UNL     1      -7.130  13.598  67.328  1.00  0.00     0.041 C  
HETATM    4  C   UNL     1      -7.260  14.016  69.311  1.00  0.00    -0.016 C  
HETATM    5  O   UNL     1      -6.495  14.680  70.323  1.00  0.00    -0.176 OA 
HETATM    6  C   UNL     1      -6.589  12.893  68.894  1.00  0.00    -0.095 C  
HETATM    7  C   UNL     1      -5.296  14.137  68.477  1.00  0.00    -0.098 C  
HETATM    8  C   UNL     1      -6.193  11.665  69.632  1.00  0.00    -0.127 C  
HETATM    9  H   UNL     1      -6.555  14.876  71.250  1.00  0.00     0.000 HD 
HETATM   10  C   UNL     1      -5.984  15.761  68.196  1.00  0.00    -0.135 C  
HETATM   11  C   UNL     1      -7.621  16.034  67.780  1.00  0.00    -0.157 C  
HETATM   12  C   UNL     1      -8.183  17.458  67.862  1.00  0.00    -0.225 A  
HETATM   13  C   UNL     1      -7.315  18.565  67.839  1.00  0.00    -0.247 A  
HETATM   14  C   UNL     1      -7.800  19.871  67.705  1.00  0.00    -0.325 A  
HETATM   15  C   UNL     1      -9.165  20.084  67.602  1.00  0.00    -0.349 A  
HETATM   16  C   UNL     1     -10.046  19.013  67.612  1.00  0.00    -0.448 A  
HETATM   17  O   UNL     1      -9.687  21.336  67.465  1.00  0.00    -0.456 OA 
HETATM   18  C   UNL     1      -9.573  17.690  67.704  1.00  0.00    -0.268 A  
HETATM   19  H   UNL     1     -10.623  21.483  67.395  1.00  0.00     0.000 HD 
HETATM   20  C   UNL     1     -10.607  16.580  67.630  1.00  0.00    -0.321 C  
HETATM   21  C   UNL     1     -10.083  15.198  67.169  1.00  0.00    -0.239 C  
HETATM   22  C   UNL     1      -8.897  14.865  68.105  1.00  0.00    -0.174 C  
ENDROOT
BRANCH  21  23
HETATM   23  C   UNL     1      -9.703  15.215  65.674  1.00  0.00    -0.351 C  
BRANCH  23  24
HETATM   24  C   UNL     1     -10.460  14.257  64.773  1.00  0.00    -0.421 C  
BRANCH  24  25
HETATM   25  C   UNL     1     -11.964  14.299  65.087  1.00  0.00    -0.395 C  
BRANCH  25  26
HETATM   26  C   UNL     1     -12.533  12.995  65.672  1.00  0.00    -0.452 C  
BRANCH  26  27
HETATM   27  C   UNL     1     -11.486  11.902  65.890  1.00  0.00    -0.340 C  
BRANCH  27  28
HETATM   28  C   UNL     1     -11.642  11.231  67.255  1.00  0.00    -0.171 C  
BRANCH  28  29
HETATM   29  C   UNL     1     -11.880  12.224  68.395  1.00  0.00    -0.358 C  
BRANCH  29  30
HETATM   30  C   UNL     1     -11.694  11.647  69.807  1.00  0.00    -0.425 C  
BRANCH  30  31
HETATM   31  C   UNL     1     -12.782  10.688  70.268  1.00  0.00    -0.209 C  
BRANCH  31  32
HETATM   32  S   UNL     1     -12.217   9.599  71.616  1.00  0.00    -0.400 S  
HETATM   33  O   UNL     1     -12.825   8.248  71.381  1.00  0.00    -0.305 OA 
BRANCH  32  34
HETATM   34  C   UNL     1     -10.467   9.492  71.123  1.00  0.00    -0.288 C  
BRANCH  34  35
HETATM   35  C   UNL     1     -10.133   8.143  70.497  1.00  0.00    -0.201 C  
BRANCH  35  36
HETATM   36  C   UNL     1     -10.376   8.149  68.988  1.00  0.00    -0.229 C  
BRANCH  36  37
HETATM   37  C   UNL     1      -9.148   8.558  68.178  1.00  0.00    -0.138 C  
HETATM   38  F   UNL     1      -8.987   9.908  68.291  1.00  0.00    -0.118 F  
HETATM   39  C   UNL     1      -9.194   8.135  66.702  1.00  0.00    -0.180 C  
HETATM   40  F   UNL     1      -8.058   8.009  68.793  1.00  0.00    -0.115 F  
HETATM   41  F   UNL     1     -10.256   7.350  66.420  1.00  0.00    -0.276 F  
HETATM   42  F   UNL     1      -9.255   9.215  65.888  1.00  0.00    -0.195 F  
HETATM   43  F   UNL     1      -8.087   7.439  66.343  1.00  0.00    -0.104 F  
ENDBRANCH  36  37
ENDBRANCH  35  36
ENDBRANCH  34  35
ENDBRANCH  32  34
ENDBRANCH  31  32
ENDBRANCH  30  31
ENDBRANCH  29  30
ENDBRANCH  28  29
ENDBRANCH  27  28
ENDBRANCH  26  27
ENDBRANCH  25  26
ENDBRANCH  24  25
ENDBRANCH  23  24
ENDBRANCH  21  23
TORSDOF 14
ENDMDL
MODEL       63
REMARK 921   NORMALIZED FREE ENERGY PREDICTED BY IDOCK:   -5.81 KCAL/MOL
REMARK 922        TOTAL FREE ENERGY PREDICTED BY IDOCK:  -13.85 KCAL/MOL
REMARK 923 INTER-LIGAND FREE ENERGY PREDICTED BY IDOCK:  -12.09 KCAL/MOL
REMARK 924 INTRA-LIGAND FREE ENERGY PREDICTED BY IDOCK:   -1.77 KCAL/MOL
REMARK 927      BINDING AFFINITY PREDICTED BY RF-SCORE:    0.00 PKD
ROOT
HETATM    1  C   UNL     1      -8.607   4.578  65.406  1.00  0.00    -0.126 C  
HETATM    2  C   UNL     1      -7.353   5.248  65.346  1.00  0.00    -0.069 C  
HETATM    3  C   UNL     1      -7.466   4.451  66.616  1.00  0.00    -0.082 C  
HETATM    4  C   UNL     1      -9.043   3.177  66.479  1.00  0.00    -0.158 C  
HETATM    5  O   UNL     1      -9.540   2.006  67.137  1.00  0.00    -0.394 OA 
HETATM    6  C   UNL     1      -7.865   2.876  65.839  1.00  0.00    -0.081 C  
HETATM    7  C   UNL     1      -7.352   2.429  67.550  1.00  0.00    -0.056 C  
HETATM    8  C   UNL     1      -7.574   1.929  64.731  1.00  0.00    -0.063 C  
HETATM    9  H   UNL     1     -10.277   1.410  67.073  1.00  0.00     0.000 HD 
HETATM   10  C   UNL     1      -8.297   3.299  68.791  1.00  0.00    -0.084 C  
HETATM   11  C   UNL     1      -9.135   4.759  68.488  1.00  0.00    -0.150 C  
HETATM   12  C   UNL     1     -10.157   5.260  69.516  1.00  0.00    -0.322 A  
HETATM   13  C   UNL     1     -10.101   4.808  70.848  1.00  0.00    -0.275 A  
HETATM   14  C   UNL     1     -10.880   5.395  71.850  1.00  0.00    -0.253 A  
HETATM   15  C   UNL     1     -11.735   6.437  71.528  1.00  0.00    -0.313 A  
HETATM   16  C   UNL     1     -11.805   6.911  70.226  1.00  0.00    -0.311 A  
HETATM   17  O   UNL     1     -12.512   7.046  72.469  1.00  0.00    -0.491 OA 
HETATM   18  C   UNL     1     -10.997   6.360  69.213  1.00  0.00    -0.418 A  
HETATM   19  H   UNL     1     -13.097   7.760  72.249  1.00  0.00     0.000 HD 
HETATM   20  C   UNL     1     -11.088   6.995  67.836  1.00  0.00    -0.135 C  
HETATM   21  C   UNL     1      -9.858   6.796  66.919  1.00  0.00    -0.229 C  
HETATM   22  C   UNL     1      -9.610   5.270  66.871  1.00  0.00    -0.153 C  
ENDROOT
BRANCH  21  23
HETATM   23  C   UNL     1      -8.644   7.601  67.428  1.00  0.00    -0.125 C  
BRANCH  23  24
HETATM   24  C   UNL     1      -8.094   8.660  66.491  1.00  0.00    -0.103 C  
BRANCH  24  25
HETATM   25  C   UNL     1      -9.212   9.225  65.602  1.00  0.00    -0.291 C  
BRANCH  25  26
HETATM   26  C   UNL     1      -8.832   9.384  64.119  1.00  0.00    -0.216 C  
BRANCH  26  27
HETATM   27  C   UNL     1      -9.475  10.592  63.438  1.00  0.00    -0.354 C  
BRANCH  27  28
HETATM   28  C   UNL     1     -10.633  11.158  64.262  1.00  0.00    -0.425 C  
BRANCH  28  29
HETATM   29  C   UNL     1     -10.539  12.670  64.480  1.00  0.00    -0.369 C  
BRANCH  29  30
HETATM   30  C   UNL     1     -10.051  13.097  65.873  1.00  0.00    -0.292 C  
BRANCH  30  31
HETATM   31  C   UNL     1     -10.942  14.093  66.600  1.00  0.00    -0.303 C  
BRANCH  31  32
HETATM   32  S   UNL     1     -12.155  13.272  67.685  1.00  0.00    -0.156 S  
HETATM   33  O   UNL     1     -11.883  11.798  67.619  1.00  0.00    -0.558 OA 
BRANCH  32  34
HETATM   34  C   UNL     1     -11.497  13.867  69.276  1.00  0.00    -0.297 C  
BRANCH  34  35
HETATM   35  C   UNL     1     -12.525  13.756  70.396  1.00  0.00    -0.384 C  
BRANCH  35  36
HETATM   36  C   UNL     1     -12.996  15.132  70.865  1.00  0.00    -0.488 C  
BRANCH  36  37
HETATM   37  C   UNL     1     -13.410  15.161  72.334  1.00  0.00    -0.422 C  
HETATM   38  F   UNL     1     -14.401  16.086  72.484  1.00  0.00    -0.584 F  
HETATM   39  C   UNL     1     -12.256  15.435  73.311  1.00  0.00    -0.477 C  
HETATM   40  F   UNL     1     -13.991  13.957  72.614  1.00  0.00    -0.556 F  
HETATM   41  F   UNL     1     -11.053  15.459  72.699  1.00  0.00    -0.478 F  
HETATM   42  F   UNL     1     -12.420  16.623  73.939  1.00  0.00    -0.520 F  
HETATM   43  F   UNL     1     -12.182  14.489  74.281  1.00  0.00    -0.527 F  
ENDBRANCH  36  37
ENDBRANCH  35  36
ENDBRANCH  34  35
ENDBRANCH  32  34
ENDBRANCH  31  32
ENDBRANCH  30  31
ENDBRANCH  29  30
ENDBRANCH  28  29
ENDBRANCH  27  28
ENDBRANCH  26  27
ENDBRANCH  25  26
ENDBRANCH  24  25
ENDBRANCH  23  24
ENDBRANCH  21  23
TORSDOF 14
ENDMDL
MODEL       64
REMARK 921   NORMALIZED FREE ENERGY PREDICTED BY IDOCK:   -5.79 KCAL/MOL
REMARK 922        TOTAL FREE ENERGY PREDICTED BY IDOCK:  -13.82 KCAL/MOL
REMARK 923 INTER-LIGAND FREE ENERGY PREDICTED BY IDOCK:  -10.79 KCAL/MOL
REMARK 924 INTRA-LIGAND FREE ENERGY PREDICTED BY IDOCK:   -3.03 KCAL/MOL
REMARK 927      BINDING AFFINITY PREDICTED BY RF-SCORE:    0.00 PKD
ROOT
HETATM    1  C   UNL     1      -7.202  10.845  67.518  1.00  0.00    -0.095 C  
HETATM    2  C   UNL     1      -7.813  10.367  68.711  1.00  0.00    -0.108 C  
HETATM    3  C   UNL     1      -8.664  10.044  67.514  1.00  0.00    -0.125 C  
HETATM    4  C   UNL     1      -7.585  10.335  65.817  1.00  0.00    -0.143 C  
HETATM    5  O   UNL     1      -7.645   9.982  64.430  1.00  0.00    -0.139 OA 
HETATM    6  C   UNL     1      -7.382   9.203  66.568  1.00  0.00    -0.089 C  
HETATM    7  C   UNL     1      -8.958   8.698  65.760  1.00  0.00    -0.244 C  
HETATM    8  C   UNL     1      -6.248   8.243  66.594  1.00  0.00    -0.054 C  
HETATM    9  H   UNL     1      -7.141  10.118  63.637  1.00  0.00     0.000 HD 
HETATM   10  C   UNL     1      -9.940  10.101  65.252  1.00  0.00    -0.381 C  
HETATM   11  C   UNL     1      -9.769  11.665  65.923  1.00  0.00    -0.260 C  
HETATM   12  C   UNL     1     -10.429  12.855  65.217  1.00  0.00    -0.312 A  
HETATM   13  C   UNL     1     -11.496  12.646  64.323  1.00  0.00    -0.420 A  
HETATM   14  C   UNL     1     -12.251  13.713  63.824  1.00  0.00    -0.413 A  
HETATM   15  C   UNL     1     -11.938  15.007  64.208  1.00  0.00    -0.295 A  
HETATM   16  C   UNL     1     -10.898  15.246  65.094  1.00  0.00    -0.441 A  
HETATM   17  O   UNL     1     -12.646  16.081  63.753  1.00  0.00    -0.835 OA 
HETATM   18  C   UNL     1     -10.156  14.181  65.638  1.00  0.00    -0.350 A  
HETATM   19  H   UNL     1     -12.432  16.968  64.016  1.00  0.00     0.000 HD 
HETATM   20  C   UNL     1      -9.088  14.534  66.659  1.00  0.00    -0.277 C  
HETATM   21  C   UNL     1      -8.689  13.404  67.638  1.00  0.00    -0.198 C  
HETATM   22  C   UNL     1      -8.308  12.195  66.752  1.00  0.00    -0.111 C  
ENDROOT
BRANCH  21  23
HETATM   23  C   UNL     1      -9.825  13.103  68.637  1.00  0.00    -0.089 C  
BRANCH  23  24
HETATM   24  C   UNL     1     -10.686  14.280  69.056  1.00  0.00    -0.259 C  
BRANCH  24  25
HETATM   25  C   UNL     1     -12.133  13.828  69.301  1.00  0.00    -0.374 C  
BRANCH  25  26
HETATM   26  C   UNL     1     -12.344  13.029  70.599  1.00  0.00    -0.391 C  
BRANCH  26  27
HETATM   27  C   UNL     1     -12.443  11.518  70.390  1.00  0.00    -0.324 C  
BRANCH  27  28
HETATM   28  C   UNL     1     -12.970  10.806  71.637  1.00  0.00    -0.581 C  
BRANCH  28  29
HETATM   29  C   UNL     1     -13.558   9.424  71.343  1.00  0.00    -0.362 C  
BRANCH  29  30
HETATM   30  C   UNL     1     -12.582   8.251  71.521  1.00  0.00    -0.333 C  
BRANCH  30  31
HETATM   31  C   UNL     1     -11.410   8.514  72.455  1.00  0.00    -0.342 C  
BRANCH  31  32
HETATM   32  S   UNL     1      -9.837   8.705  71.552  1.00  0.00    -0.300 S  
HETATM   33  O   UNL     1      -8.745   8.795  72.578  1.00  0.00    -0.406 OA 
BRANCH  32  34
HETATM   34  C   UNL     1      -9.764   7.032  70.837  1.00  0.00    -0.174 C  
BRANCH  34  35
HETATM   35  C   UNL     1      -9.528   7.067  69.331  1.00  0.00    -0.145 C  
BRANCH  35  36
HETATM   36  C   UNL     1     -10.377   6.024  68.605  1.00  0.00    -0.264 C  
BRANCH  36  37
HETATM   37  C   UNL     1      -9.553   5.049  67.767  1.00  0.00    -0.146 C  
HETATM   38  F   UNL     1      -8.240   5.408  67.856  1.00  0.00    -0.098 F  
HETATM   39  C   UNL     1      -9.993   4.949  66.298  1.00  0.00    -0.234 C  
HETATM   40  F   UNL     1      -9.638   3.827  68.370  1.00  0.00    -0.208 F  
HETATM   41  F   UNL     1     -11.126   5.640  66.047  1.00  0.00    -0.218 F  
HETATM   42  F   UNL     1      -9.033   5.421  65.469  1.00  0.00    -0.150 F  
HETATM   43  F   UNL     1     -10.229   3.665  65.929  1.00  0.00    -0.097 F  
ENDBRANCH  36  37
ENDBRANCH  35  36
ENDBRANCH  34  35
ENDBRANCH  32  34
ENDBRANCH  31  32
ENDBRANCH  30  31
ENDBRANCH  29  30
ENDBRANCH  28  29
ENDBRANCH  27  28
ENDBRANCH  26  27
ENDBRANCH  25  26
ENDBRANCH  24  25
ENDBRANCH  23  24
ENDBRANCH  21  23
TORSDOF 14
ENDMDL
MODEL       65
REMARK 921   NORMALIZED FREE ENERGY PREDICTED BY IDOCK:   -5.79 KCAL/MOL
REMARK 922        TOTAL FREE ENERGY PREDICTED BY IDOCK:  -13.81 KCAL/MOL
REMARK 923 INTER-LIGAND FREE ENERGY PREDICTED BY IDOCK:  -11.45 KCAL/MOL
REMARK 924 INTRA-LIGAND FREE ENERGY PREDICTED BY IDOCK:   -2.36 KCAL/MOL
REMARK 927      BINDING AFFINITY PREDICTED BY RF-SCORE:    0.00 PKD
ROOT
HETATM    1  C   UNL     1     -10.823   7.590  68.132  1.00  0.00    -0.070 C  
HETATM    2  C   UNL     1     -10.817   6.930  66.872  1.00  0.00    -0.380 C  
HETATM    3  C   UNL     1      -9.414   7.098  67.389  1.00  0.00    -0.156 C  
HETATM    4  C   UNL     1      -9.473   7.631  69.348  1.00  0.00    -0.152 C  
HETATM    5  O   UNL     1      -8.593   7.678  70.477  1.00  0.00    -0.134 OA 
HETATM    6  C   UNL     1      -9.689   6.322  68.991  1.00  0.00    -0.147 C  
HETATM    7  C   UNL     1      -7.857   6.346  68.797  1.00  0.00    -0.109 C  
HETATM    8  C   UNL     1     -10.318   5.201  69.736  1.00  0.00    -0.332 C  
HETATM    9  H   UNL     1      -8.620   7.927  71.393  1.00  0.00     0.000 HD 
HETATM   10  C   UNL     1      -7.230   7.987  68.477  1.00  0.00    -0.085 C  
HETATM   11  C   UNL     1      -8.187   9.257  67.849  1.00  0.00    -0.115 C  
HETATM   12  C   UNL     1      -7.649  10.692  67.899  1.00  0.00    -0.091 A  
HETATM   13  C   UNL     1      -6.267  10.926  68.033  1.00  0.00    -0.053 A  
HETATM   14  C   UNL     1      -5.725  12.206  67.876  1.00  0.00    -0.069 A  
HETATM   15  C   UNL     1      -6.563  13.272  67.593  1.00  0.00    -0.167 A  
HETATM   16  C   UNL     1      -7.929  13.073  67.447  1.00  0.00    -0.173 A  
HETATM   17  O   UNL     1      -6.084  14.538  67.427  1.00  0.00    -0.340 OA 
HETATM   18  C   UNL     1      -8.485  11.784  67.560  1.00  0.00    -0.154 A  
HETATM   19  H   UNL     1      -6.658  15.269  67.233  1.00  0.00     0.000 HD 
HETATM   20  C   UNL     1      -9.978  11.653  67.307  1.00  0.00    -0.210 C  
HETATM   21  C   UNL     1     -10.469  10.250  66.878  1.00  0.00    -0.291 C  
HETATM   22  C   UNL     1      -9.945   9.273  67.956  1.00  0.00    -0.216 C  
ENDROOT
BRANCH  21  23
HETATM   23  C   UNL     1      -9.996   9.904  65.451  1.00  0.00    -0.349 C  
BRANCH  23  24
HETATM   24  C   UNL     1      -9.071  10.906  64.784  1.00  0.00    -0.197 C  
BRANCH  24  25
HETATM   25  C   UNL     1      -9.884  11.981  64.048  1.00  0.00    -0.237 C  
BRANCH  25  26
HETATM   26  C   UNL     1     -11.281  11.528  63.591  1.00  0.00    -0.451 C  
BRANCH  26  27
HETATM   27  C   UNL     1     -12.383  12.556  63.848  1.00  0.00    -0.576 C  
BRANCH  27  28
HETATM   28  C   UNL     1     -12.486  12.919  65.330  1.00  0.00    -0.511 C  
BRANCH  28  29
HETATM   29  C   UNL     1     -12.294  14.412  65.603  1.00  0.00    -0.347 C  
BRANCH  29  30
HETATM   30  C   UNL     1     -10.845  14.839  65.888  1.00  0.00    -0.331 C  
BRANCH  30  31
HETATM   31  C   UNL     1     -10.690  16.094  66.735  1.00  0.00    -0.235 C  
BRANCH  31  32
HETATM   32  S   UNL     1     -10.121  15.720  68.426  1.00  0.00    -0.226 S  
HETATM   33  O   UNL     1      -9.540  16.983  68.989  1.00  0.00    -0.255 OA 
BRANCH  32  34
HETATM   34  C   UNL     1     -11.760  15.497  69.188  1.00  0.00    -0.365 C  
BRANCH  34  35
HETATM   35  C   UNL     1     -12.153  14.026  69.275  1.00  0.00    -0.380 C  
BRANCH  35  36
HETATM   36  C   UNL     1     -11.945  13.472  70.684  1.00  0.00    -0.308 C  
BRANCH  36  37
HETATM   37  C   UNL     1     -12.982  13.967  71.689  1.00  0.00    -0.352 C  
HETATM   38  F   UNL     1     -14.100  14.347  71.003  1.00  0.00    -0.374 F  
HETATM   39  C   UNL     1     -12.489  15.102  72.598  1.00  0.00    -0.376 C  
HETATM   40  F   UNL     1     -13.364  12.891  72.439  1.00  0.00    -0.569 F  
HETATM   41  F   UNL     1     -11.174  15.361  72.440  1.00  0.00    -0.500 F  
HETATM   42  F   UNL     1     -13.165  16.250  72.356  1.00  0.00    -0.477 F  
HETATM   43  F   UNL     1     -12.674  14.812  73.911  1.00  0.00    -0.591 F  
ENDBRANCH  36  37
ENDBRANCH  35  36
ENDBRANCH  34  35
ENDBRANCH  32  34
ENDBRANCH  31  32
ENDBRANCH  30  31
ENDBRANCH  29  30
ENDBRANCH  28  29
ENDBRANCH  27  28
ENDBRANCH  26  27
ENDBRANCH  25  26
ENDBRANCH  24  25
ENDBRANCH  23  24
ENDBRANCH  21  23
TORSDOF 14
ENDMDL
MODEL       66
REMARK 921   NORMALIZED FREE ENERGY PREDICTED BY IDOCK:   -5.78 KCAL/MOL
REMARK 922        TOTAL FREE ENERGY PREDICTED BY IDOCK:  -13.81 KCAL/MOL
REMARK 923 INTER-LIGAND FREE ENERGY PREDICTED BY IDOCK:   -9.87 KCAL/MOL
REMARK 924 INTRA-LIGAND FREE ENERGY PREDICTED BY IDOCK:   -3.94 KCAL/MOL
REMARK 927      BINDING AFFINITY PREDICTED BY RF-SCORE:    0.00 PKD
ROOT
HETATM    1  C   UNL     1      -8.725   6.688  69.565  1.00  0.00    -0.135 C  
HETATM    2  C   UNL     1      -7.458   7.072  70.088  1.00  0.00    -0.086 C  
HETATM    3  C   UNL     1      -8.475   8.158  70.313  1.00  0.00    -0.126 C  
HETATM    4  C   UNL     1     -10.338   7.425  69.965  1.00  0.00    -0.219 C  
HETATM    5  O   UNL     1     -11.699   7.776  70.237  1.00  0.00    -0.476 OA 
HETATM    6  C   UNL     1      -9.698   7.129  71.144  1.00  0.00    -0.168 C  
HETATM    7  C   UNL     1     -10.197   8.856  71.546  1.00  0.00    -0.398 C  
HETATM    8  C   UNL     1      -9.947   6.058  72.144  1.00  0.00    -0.189 C  
HETATM    9  H   UNL     1     -12.570   7.434  70.074  1.00  0.00     0.000 HD 
HETATM   10  C   UNL     1     -10.429   9.853  70.083  1.00  0.00    -0.339 C  
HETATM   11  C   UNL     1      -9.732   9.481  68.566  1.00  0.00    -0.162 C  
HETATM   12  C   UNL     1     -10.233  10.212  67.315  1.00  0.00    -0.273 A  
HETATM   13  C   UNL     1     -10.903  11.444  67.436  1.00  0.00    -0.301 A  
HETATM   14  C   UNL     1     -11.188  12.233  66.316  1.00  0.00    -0.367 A  
HETATM   15  C   UNL     1     -10.813  11.791  65.057  1.00  0.00    -0.295 A  
HETATM   16  C   UNL     1     -10.143  10.586  64.906  1.00  0.00    -0.403 A  
HETATM   17  O   UNL     1     -11.064  12.524  63.935  1.00  0.00    -0.359 OA 
HETATM   18  C   UNL     1      -9.811   9.800  66.026  1.00  0.00    -0.342 A  
HETATM   19  H   UNL     1     -10.807  12.222  63.072  1.00  0.00     0.000 HD 
HETATM   20  C   UNL     1      -9.010   8.535  65.769  1.00  0.00    -0.229 C  
HETATM   21  C   UNL     1      -8.186   8.002  66.966  1.00  0.00    -0.116 C  
HETATM   22  C   UNL     1      -9.188   7.862  68.136  1.00  0.00    -0.136 C  
ENDROOT
BRANCH  21  23
HETATM   23  C   UNL     1      -6.995   8.930  67.282  1.00  0.00    -0.078 C  
BRANCH  23  24
HETATM   24  C   UNL     1      -6.554   9.866  66.172  1.00  0.00    -0.084 C  
BRANCH  24  25
HETATM   25  C   UNL     1      -6.372  11.293  66.711  1.00  0.00    -0.139 C  
BRANCH  25  26
HETATM   26  C   UNL     1      -6.547  11.430  68.234  1.00  0.00    -0.058 C  
BRANCH  26  27
HETATM   27  C   UNL     1      -7.296  12.691  68.663  1.00  0.00    -0.101 C  
BRANCH  27  28
HETATM   28  C   UNL     1      -7.233  13.781  67.592  1.00  0.00    -0.183 C  
BRANCH  28  29
HETATM   29  C   UNL     1      -7.086  15.190  68.170  1.00  0.00    -0.124 C  
BRANCH  29  30
HETATM   30  C   UNL     1      -6.317  16.180  67.280  1.00  0.00    -0.204 C  
BRANCH  30  31
HETATM   31  C   UNL     1      -6.926  17.570  67.175  1.00  0.00    -0.171 C  
BRANCH  31  32
HETATM   32  S   UNL     1      -8.083  17.923  68.538  1.00  0.00    -0.286 S  
HETATM   33  O   UNL     1      -7.657  19.221  69.159  1.00  0.00    -0.337 OA 
BRANCH  32  34
HETATM   34  C   UNL     1      -9.554  18.273  67.522  1.00  0.00    -0.280 C  
BRANCH  34  35
HETATM   35  C   UNL     1     -10.774  17.493  67.998  1.00  0.00    -0.342 C  
BRANCH  35  36
HETATM   36  C   UNL     1     -10.427  16.037  68.304  1.00  0.00    -0.269 C  
BRANCH  36  37
HETATM   37  C   UNL     1     -10.845  15.596  69.705  1.00  0.00    -0.287 C  
HETATM   38  F   UNL     1      -9.729  15.199  70.383  1.00  0.00    -0.136 F  
HETATM   39  C   UNL     1     -11.917  14.497  69.728  1.00  0.00    -0.332 C  
HETATM   40  F   UNL     1     -11.293  16.708  70.361  1.00  0.00    -0.351 F  
HETATM   41  F   UNL     1     -12.402  14.217  68.499  1.00  0.00    -0.339 F  
HETATM   42  F   UNL     1     -11.425  13.346  70.246  1.00  0.00    -0.276 F  
HETATM   43  F   UNL     1     -12.980  14.845  70.496  1.00  0.00    -0.379 F  
ENDBRANCH  36  37
ENDBRANCH  35  36
ENDBRANCH  34  35
ENDBRANCH  32  34
ENDBRANCH  31  32
ENDBRANCH  30  31
ENDBRANCH  29  30
ENDBRANCH  28  29
ENDBRANCH  27  28
ENDBRANCH  26  27
ENDBRANCH  25  26
ENDBRANCH  24  25
ENDBRANCH  23  24
ENDBRANCH  21  23
TORSDOF 14
ENDMDL
MODEL       67
REMARK 921   NORMALIZED FREE ENERGY PREDICTED BY IDOCK:   -5.77 KCAL/MOL
REMARK 922        TOTAL FREE ENERGY PREDICTED BY IDOCK:  -13.78 KCAL/MOL
REMARK 923 INTER-LIGAND FREE ENERGY PREDICTED BY IDOCK:  -10.00 KCAL/MOL
REMARK 924 INTRA-LIGAND FREE ENERGY PREDICTED BY IDOCK:   -3.79 KCAL/MOL
REMARK 927      BINDING AFFINITY PREDICTED BY RF-SCORE:    0.00 PKD
ROOT
HETATM    1  C   UNL     1      -9.366   4.519  65.073  1.00  0.00    -0.157 C  
HETATM    2  C   UNL     1      -8.264   5.347  64.720  1.00  0.00    -0.132 C  
HETATM    3  C   UNL     1      -7.969   4.581  65.981  1.00  0.00    -0.099 C  
HETATM    4  C   UNL     1      -9.346   3.106  66.217  1.00  0.00    -0.097 C  
HETATM    5  O   UNL     1      -9.512   1.901  66.972  1.00  0.00    -0.368 OA 
HETATM    6  C   UNL     1      -8.320   2.944  65.318  1.00  0.00    -0.093 C  
HETATM    7  C   UNL     1      -7.366   2.623  66.860  1.00  0.00    -0.065 C  
HETATM    8  C   UNL     1      -8.169   2.010  64.171  1.00  0.00    -0.078 C  
HETATM    9  H   UNL     1     -10.155   1.211  67.082  1.00  0.00     0.000 HD 
HETATM   10  C   UNL     1      -8.105   3.398  68.289  1.00  0.00    -0.080 C  
HETATM   11  C   UNL     1      -9.181   4.724  68.192  1.00  0.00    -0.155 C  
HETATM   12  C   UNL     1      -9.994   5.116  69.432  1.00  0.00    -0.292 A  
HETATM   13  C   UNL     1      -9.569   4.718  70.713  1.00  0.00    -0.249 A  
HETATM   14  C   UNL     1     -10.166   5.227  71.872  1.00  0.00    -0.264 A  
HETATM   15  C   UNL     1     -11.205   6.137  71.760  1.00  0.00    -0.284 A  
HETATM   16  C   UNL     1     -11.641   6.556  70.511  1.00  0.00    -0.455 A  
HETATM   17  O   UNL     1     -11.817   6.665  72.858  1.00  0.00    -0.482 OA 
HETATM   18  C   UNL     1     -11.024   6.085  69.337  1.00  0.00    -0.455 A  
HETATM   19  H   UNL     1     -12.530   7.289  72.782  1.00  0.00     0.000 HD 
HETATM   20  C   UNL     1     -11.518   6.660  68.020  1.00  0.00     0.157 C  
HETATM   21  C   UNL     1     -10.520   6.598  66.839  1.00  0.00    -0.349 C  
HETATM   22  C   UNL     1     -10.086   5.117  66.733  1.00  0.00    -0.264 C  
ENDROOT
BRANCH  21  23
HETATM   23  C   UNL     1      -9.343   7.572  67.050  1.00  0.00    -0.186 C  
BRANCH  23  24
HETATM   24  C   UNL     1      -9.302   8.789  66.145  1.00  0.00    -0.297 C  
BRANCH  24  25
HETATM   25  C   UNL     1      -7.945   9.499  66.259  1.00  0.00    -0.107 C  
BRANCH  25  26
HETATM   26  C   UNL     1      -7.045   8.983  67.395  1.00  0.00    -0.079 C  
BRANCH  26  27
HETATM   27  C   UNL     1      -7.177   9.768  68.699  1.00  0.00    -0.073 C  
BRANCH  27  28
HETATM   28  C   UNL     1      -7.213   8.844  69.917  1.00  0.00    -0.052 C  
BRANCH  28  29
HETATM   29  C   UNL     1      -8.600   8.735  70.553  1.00  0.00    -0.187 C  
BRANCH  29  30
HETATM   30  C   UNL     1      -9.647   9.715  70.001  1.00  0.00    -0.281 C  
BRANCH  30  31
HETATM   31  C   UNL     1     -10.790  10.050  70.949  1.00  0.00    -0.206 C  
BRANCH  31  32
HETATM   32  S   UNL     1     -12.190  10.840  70.090  1.00  0.00    -0.338 S  
HETATM   33  O   UNL     1     -12.156  12.301  70.433  1.00  0.00    -0.355 OA 
BRANCH  32  34
HETATM   34  C   UNL     1     -11.557  10.674  68.390  1.00  0.00    -0.194 C  
BRANCH  34  35
HETATM   35  C   UNL     1     -11.876  11.898  67.540  1.00  0.00    -0.249 C  
BRANCH  35  36
HETATM   36  C   UNL     1     -10.886  12.056  66.388  1.00  0.00    -0.314 C  
BRANCH  36  37
HETATM   37  C   UNL     1     -11.505  12.681  65.139  1.00  0.00    -0.326 C  
HETATM   38  F   UNL     1     -12.802  13.001  65.415  1.00  0.00    -0.533 F  
HETATM   39  C   UNL     1     -11.415  11.804  63.882  1.00  0.00    -0.393 C  
HETATM   40  F   UNL     1     -10.872  13.874  64.930  1.00  0.00    -0.320 F  
HETATM   41  F   UNL     1     -10.674  10.691  64.076  1.00  0.00    -0.422 F  
HETATM   42  F   UNL     1     -12.644  11.411  63.472  1.00  0.00    -0.459 F  
HETATM   43  F   UNL     1     -10.853  12.469  62.842  1.00  0.00    -0.367 F  
ENDBRANCH  36  37
ENDBRANCH  35  36
ENDBRANCH  34  35
ENDBRANCH  32  34
ENDBRANCH  31  32
ENDBRANCH  30  31
ENDBRANCH  29  30
ENDBRANCH  28  29
ENDBRANCH  27  28
ENDBRANCH  26  27
ENDBRANCH  25  26
ENDBRANCH  24  25
ENDBRANCH  23  24
ENDBRANCH  21  23
TORSDOF 14
ENDMDL
MODEL       68
REMARK 921   NORMALIZED FREE ENERGY PREDICTED BY IDOCK:   -5.73 KCAL/MOL
REMARK 922        TOTAL FREE ENERGY PREDICTED BY IDOCK:  -13.71 KCAL/MOL
REMARK 923 INTER-LIGAND FREE ENERGY PREDICTED BY IDOCK:  -11.03 KCAL/MOL
REMARK 924 INTRA-LIGAND FREE ENERGY PREDICTED BY IDOCK:   -2.68 KCAL/MOL
REMARK 927      BINDING AFFINITY PREDICTED BY RF-SCORE:    0.00 PKD
ROOT
HETATM    1  C   UNL     1      -9.656   8.934  70.612  1.00  0.00    -0.262 C  
HETATM    2  C   UNL     1     -10.908   9.600  70.495  1.00  0.00    -0.371 C  
HETATM    3  C   UNL     1     -11.084   8.114  70.346  1.00  0.00    -0.239 C  
HETATM    4  C   UNL     1      -9.389   7.168  70.946  1.00  0.00    -0.160 C  
HETATM    5  O   UNL     1      -8.967   5.852  71.323  1.00  0.00    -0.139 OA 
HETATM    6  C   UNL     1     -10.267   7.653  71.884  1.00  0.00    -0.234 C  
HETATM    7  C   UNL     1     -11.214   6.150  71.395  1.00  0.00    -0.346 C  
HETATM    8  C   UNL     1     -10.083   7.948  73.329  1.00  0.00    -0.313 C  
HETATM    9  H   UNL     1      -8.175   5.410  71.603  1.00  0.00     0.000 HD 
HETATM   10  C   UNL     1     -10.811   5.602  69.744  1.00  0.00    -0.370 C  
HETATM   11  C   UNL     1     -10.117   6.618  68.555  1.00  0.00    -0.166 C  
HETATM   12  C   UNL     1      -9.530   5.987  67.287  1.00  0.00    -0.119 A  
HETATM   13  C   UNL     1      -9.928   4.698  66.886  1.00  0.00    -0.239 A  
HETATM   14  C   UNL     1      -9.573   4.180  65.636  1.00  0.00    -0.188 A  
HETATM   15  C   UNL     1      -8.804   4.945  64.774  1.00  0.00    -0.147 A  
HETATM   16  C   UNL     1      -8.403   6.223  65.136  1.00  0.00    -0.119 A  
HETATM   17  O   UNL     1      -8.435   4.487  63.544  1.00  0.00    -0.102 OA 
HETATM   18  C   UNL     1      -8.787   6.776  66.373  1.00  0.00    -0.153 A  
HETATM   19  H   UNL     1      -7.908   5.011  62.952  1.00  0.00     0.000 HD 
HETATM   20  C   UNL     1      -8.365   8.209  66.648  1.00  0.00    -0.111 C  
HETATM   21  C   UNL     1      -9.222   8.978  67.682  1.00  0.00    -0.150 C  
HETATM   22  C   UNL     1      -9.243   8.094  68.951  1.00  0.00    -0.147 C  
ENDROOT
BRANCH  21  23
HETATM   23  C   UNL     1     -10.626   9.288  67.124  1.00  0.00    -0.286 C  
BRANCH  23  24
HETATM   24  C   UNL     1     -11.079  10.735  67.198  1.00  0.00    -0.297 C  
BRANCH  24  25
HETATM   25  C   UNL     1     -10.398  11.568  66.101  1.00  0.00    -0.287 C  
BRANCH  25  26
HETATM   26  C   UNL     1      -9.241  12.454  66.594  1.00  0.00    -0.218 C  
BRANCH  26  27
HETATM   27  C   UNL     1      -9.115  12.523  68.116  1.00  0.00    -0.204 C  
BRANCH  27  28
HETATM   28  C   UNL     1      -8.168  13.640  68.556  1.00  0.00    -0.112 C  
BRANCH  28  29
HETATM   29  C   UNL     1      -7.730  14.551  67.408  1.00  0.00    -0.215 C  
BRANCH  29  30
HETATM   30  C   UNL     1      -8.529  15.857  67.274  1.00  0.00    -0.207 C  
BRANCH  30  31
HETATM   31  C   UNL     1      -8.757  16.618  68.573  1.00  0.00    -0.242 C  
BRANCH  31  32
HETATM   32  S   UNL     1     -10.503  17.089  68.801  1.00  0.00    -0.343 S  
HETATM   33  O   UNL     1     -10.729  18.349  68.019  1.00  0.00    -0.357 OA 
BRANCH  32  34
HETATM   34  C   UNL     1     -11.247  15.726  67.848  1.00  0.00    -0.313 C  
BRANCH  34  35
HETATM   35  C   UNL     1     -11.851  14.660  68.756  1.00  0.00    -0.348 C  
BRANCH  35  36
HETATM   36  C   UNL     1     -12.528  15.280  69.977  1.00  0.00    -0.330 C  
BRANCH  36  37
HETATM   37  C   UNL     1     -12.254  14.518  71.272  1.00  0.00    -0.355 C  
HETATM   38  F   UNL     1     -12.059  13.203  70.966  1.00  0.00    -0.419 F  
HETATM   39  C   UNL     1     -13.347  14.674  72.340  1.00  0.00    -0.417 C  
HETATM   40  F   UNL     1     -11.055  14.961  71.755  1.00  0.00    -0.377 F  
HETATM   41  F   UNL     1     -14.289  15.575  71.992  1.00  0.00    -0.550 F  
HETATM   42  F   UNL     1     -13.972  13.496  72.573  1.00  0.00    -0.579 F  
HETATM   43  F   UNL     1     -12.836  15.084  73.528  1.00  0.00    -0.498 F  
ENDBRANCH  36  37
ENDBRANCH  35  36
ENDBRANCH  34  35
ENDBRANCH  32  34
ENDBRANCH  31  32
ENDBRANCH  30  31
ENDBRANCH  29  30
ENDBRANCH  28  29
ENDBRANCH  27  28
ENDBRANCH  26  27
ENDBRANCH  25  26
ENDBRANCH  24  25
ENDBRANCH  23  24
ENDBRANCH  21  23
TORSDOF 14
ENDMDL
MODEL       69
REMARK 921   NORMALIZED FREE ENERGY PREDICTED BY IDOCK:   -5.72 KCAL/MOL
REMARK 922        TOTAL FREE ENERGY PREDICTED BY IDOCK:  -13.69 KCAL/MOL
REMARK 923 INTER-LIGAND FREE ENERGY PREDICTED BY IDOCK:  -10.60 KCAL/MOL
REMARK 924 INTRA-LIGAND FREE ENERGY PREDICTED BY IDOCK:   -3.09 KCAL/MOL
REMARK 927      BINDING AFFINITY PREDICTED BY RF-SCORE:    0.00 PKD
ROOT
HETATM    1  C   UNL     1      -9.395   5.995  70.869  1.00  0.00    -0.175 C  
HETATM    2  C   UNL     1      -8.413   6.551  71.736  1.00  0.00    -0.123 C  
HETATM    3  C   UNL     1      -9.518   7.540  71.482  1.00  0.00    -0.166 C  
HETATM    4  C   UNL     1     -11.093   6.591  70.620  1.00  0.00    -0.309 C  
HETATM    5  O   UNL     1     -12.486   6.819  70.380  1.00  0.00    -0.574 OA 
HETATM    6  C   UNL     1     -10.877   6.465  71.970  1.00  0.00    -0.277 C  
HETATM    7  C   UNL     1     -11.601   8.159  71.981  1.00  0.00    -0.389 C  
HETATM    8  C   UNL     1     -11.378   5.463  72.948  1.00  0.00    -0.365 C  
HETATM    9  H   UNL     1     -13.223   6.376  69.977  1.00  0.00     0.000 HD 
HETATM   10  C   UNL     1     -11.387   8.997  70.419  1.00  0.00    -0.242 C  
HETATM   11  C   UNL     1     -10.188   8.571  69.275  1.00  0.00    -0.211 C  
HETATM   12  C   UNL     1     -10.280   9.137  67.853  1.00  0.00    -0.266 A  
HETATM   13  C   UNL     1     -11.035  10.298  67.600  1.00  0.00    -0.356 A  
HETATM   14  C   UNL     1     -10.973  10.955  66.366  1.00  0.00    -0.156 A  
HETATM   15  C   UNL     1     -10.160  10.448  65.364  1.00  0.00    -0.284 A  
HETATM   16  C   UNL     1      -9.398   9.311  65.586  1.00  0.00    -0.308 A  
HETATM   17  O   UNL     1     -10.062  11.053  64.146  1.00  0.00    -0.287 OA 
HETATM   18  C   UNL     1      -9.416   8.662  66.835  1.00  0.00    -0.235 A  
HETATM   19  H   UNL     1      -9.505  10.706  63.459  1.00  0.00     0.000 HD 
HETATM   20  C   UNL     1      -8.490   7.471  67.008  1.00  0.00    -0.122 C  
HETATM   21  C   UNL     1      -8.090   7.131  68.464  1.00  0.00    -0.125 C  
HETATM   22  C   UNL     1      -9.420   6.987  69.242  1.00  0.00    -0.147 C  
ENDROOT
BRANCH  21  23
HETATM   23  C   UNL     1      -7.147   8.201  69.050  1.00  0.00    -0.062 C  
BRANCH  23  24
HETATM   24  C   UNL     1      -6.290   8.963  68.056  1.00  0.00    -0.056 C  
BRANCH  24  25
HETATM   25  C   UNL     1      -6.142  10.431  68.487  1.00  0.00    -0.043 C  
BRANCH  25  26
HETATM   26  C   UNL     1      -7.386  11.301  68.233  1.00  0.00    -0.095 C  
BRANCH  26  27
HETATM   27  C   UNL     1      -7.190  12.366  67.154  1.00  0.00    -0.081 C  
BRANCH  27  28
HETATM   28  C   UNL     1      -7.989  13.634  67.458  1.00  0.00    -0.189 C  
BRANCH  28  29
HETATM   29  C   UNL     1      -9.336  13.356  68.128  1.00  0.00    -0.217 C  
BRANCH  29  30
HETATM   30  C   UNL     1     -10.340  14.518  68.077  1.00  0.00    -0.229 C  
BRANCH  30  31
HETATM   31  C   UNL     1     -11.491  14.343  67.097  1.00  0.00    -0.362 C  
BRANCH  31  32
HETATM   32  S   UNL     1     -10.931  14.360  65.362  1.00  0.00    -0.362 S  
HETATM   33  O   UNL     1     -11.979  13.657  64.550  1.00  0.00    -0.383 OA 
BRANCH  32  34
HETATM   34  C   UNL     1     -11.128  16.146  65.062  1.00  0.00    -0.294 C  
BRANCH  34  35
HETATM   35  C   UNL     1      -9.930  16.944  65.565  1.00  0.00    -0.011 C  
BRANCH  35  36
HETATM   36  C   UNL     1     -10.362  18.257  66.214  1.00  0.00    -0.422 C  
BRANCH  36  37
HETATM   37  C   UNL     1      -9.926  18.383  67.673  1.00  0.00    -0.338 C  
HETATM   38  F   UNL     1     -10.891  17.828  68.461  1.00  0.00    -0.317 F  
HETATM   39  C   UNL     1      -9.618  19.821  68.118  1.00  0.00    -0.380 C  
HETATM   40  F   UNL     1      -8.824  17.592  67.834  1.00  0.00    -0.229 F  
HETATM   41  F   UNL     1      -9.652  20.701  67.095  1.00  0.00    -0.529 F  
HETATM   42  F   UNL     1     -10.504  20.242  69.051  1.00  0.00    -0.536 F  
HETATM   43  F   UNL     1      -8.387  19.922  68.678  1.00  0.00    -0.341 F  
ENDBRANCH  36  37
ENDBRANCH  35  36
ENDBRANCH  34  35
ENDBRANCH  32  34
ENDBRANCH  31  32
ENDBRANCH  30  31
ENDBRANCH  29  30
ENDBRANCH  28  29
ENDBRANCH  27  28
ENDBRANCH  26  27
ENDBRANCH  25  26
ENDBRANCH  24  25
ENDBRANCH  23  24
ENDBRANCH  21  23
TORSDOF 14
ENDMDL
MODEL       70
REMARK 921   NORMALIZED FREE ENERGY PREDICTED BY IDOCK:   -5.69 KCAL/MOL
REMARK 922        TOTAL FREE ENERGY PREDICTED BY IDOCK:  -13.64 KCAL/MOL
REMARK 923 INTER-LIGAND FREE ENERGY PREDICTED BY IDOCK:   -9.05 KCAL/MOL
REMARK 924 INTRA-LIGAND FREE ENERGY PREDICTED BY IDOCK:   -4.59 KCAL/MOL
REMARK 927      BINDING AFFINITY PREDICTED BY RF-SCORE:    0.00 PKD
ROOT
HETATM    1  C   UNL     1     -10.898   7.895  71.153  1.00  0.00    -0.257 C  
HETATM    2  C   UNL     1      -9.871   8.239  72.075  1.00  0.00    -0.327 C  
HETATM    3  C   UNL     1     -10.221   9.418  71.209  1.00  0.00    -0.340 C  
HETATM    4  C   UNL     1     -11.957   9.043  70.223  1.00  0.00     0.193 C  
HETATM    5  O   UNL     1     -12.964   9.765  69.505  1.00  0.00     0.288 OA 
HETATM    6  C   UNL     1     -11.990   9.407  71.547  1.00  0.00    -0.456 C  
HETATM    7  C   UNL     1     -11.667  11.072  70.828  1.00  0.00    -0.286 C  
HETATM    8  C   UNL     1     -13.058   9.260  72.571  1.00  0.00    -0.416 C  
HETATM    9  H   UNL     1     -13.776   9.590  69.045  1.00  0.00     0.000 HD 
HETATM   10  C   UNL     1     -10.865  10.979  69.236  1.00  0.00    -0.285 C  
HETATM   11  C   UNL     1      -9.981   9.615  68.702  1.00  0.00    -0.179 C  
HETATM   12  C   UNL     1      -9.597   9.509  67.221  1.00  0.00    -0.192 A  
HETATM   13  C   UNL     1      -9.562  10.661  66.414  1.00  0.00    -0.230 A  
HETATM   14  C   UNL     1      -9.021  10.632  65.124  1.00  0.00    -0.217 A  
HETATM   15  C   UNL     1      -8.516   9.444  64.622  1.00  0.00    -0.167 A  
HETATM   16  C   UNL     1      -8.528   8.293  65.397  1.00  0.00    -0.189 A  
HETATM   17  O   UNL     1      -7.975   9.364  63.373  1.00  0.00    -0.129 OA 
HETATM   18  C   UNL     1      -9.030   8.314  66.712  1.00  0.00    -0.174 A  
HETATM   19  H   UNL     1      -7.628   8.550  63.029  1.00  0.00     0.000 HD 
HETATM   20  C   UNL     1      -8.930   7.025  67.510  1.00  0.00    -0.117 C  
HETATM   21  C   UNL     1      -8.939   7.181  69.049  1.00  0.00    -0.134 C  
HETATM   22  C   UNL     1     -10.204   8.006  69.381  1.00  0.00    -0.210 C  
ENDROOT
BRANCH  21  23
HETATM   23  C   UNL     1      -7.632   7.827  69.554  1.00  0.00    -0.100 C  
BRANCH  23  24
HETATM   24  C   UNL     1      -6.338   7.250  69.010  1.00  0.00    -0.036 C  
BRANCH  24  25
HETATM   25  C   UNL     1      -5.491   8.351  68.355  1.00  0.00    -0.034 C  
BRANCH  25  26
HETATM   26  C   UNL     1      -6.081   9.767  68.469  1.00  0.00    -0.042 C  
BRANCH  26  27
HETATM   27  C   UNL     1      -5.826  10.647  67.246  1.00  0.00    -0.046 C  
BRANCH  27  28
HETATM   28  C   UNL     1      -5.957  12.134  67.579  1.00  0.00    -0.124 C  
BRANCH  28  29
HETATM   29  C   UNL     1      -7.079  12.435  68.575  1.00  0.00    -0.100 C  
BRANCH  29  30
HETATM   30  C   UNL     1      -8.018  13.581  68.169  1.00  0.00    -0.149 C  
BRANCH  30  31
HETATM   31  C   UNL     1      -8.145  14.710  69.182  1.00  0.00    -0.078 C  
BRANCH  31  32
HETATM   32  S   UNL     1      -9.846  15.359  69.283  1.00  0.00    -0.275 S  
HETATM   33  O   UNL     1      -9.750  16.856  69.296  1.00  0.00    -0.215 OA 
BRANCH  32  34
HETATM   34  C   UNL     1     -10.391  14.870  67.616  1.00  0.00    -0.242 C  
BRANCH  34  35
HETATM   35  C   UNL     1     -11.739  14.158  67.643  1.00  0.00    -0.421 C  
BRANCH  35  36
HETATM   36  C   UNL     1     -11.779  12.994  66.653  1.00  0.00    -0.438 C  
BRANCH  36  37
HETATM   37  C   UNL     1     -12.470  13.343  65.336  1.00  0.00    -0.494 C  
HETATM   38  F   UNL     1     -13.161  12.247  64.909  1.00  0.00    -0.475 F  
HETATM   39  C   UNL     1     -11.521  13.852  64.241  1.00  0.00    -0.318 C  
HETATM   40  F   UNL     1     -13.419  14.285  65.616  1.00  0.00    -0.474 F  
HETATM   41  F   UNL     1     -10.261  14.035  64.688  1.00  0.00    -0.432 F  
HETATM   42  F   UNL     1     -11.466  12.985  63.202  1.00  0.00    -0.493 F  
HETATM   43  F   UNL     1     -11.931  15.041  63.732  1.00  0.00    -0.246 F  
ENDBRANCH  36  37
ENDBRANCH  35  36
ENDBRANCH  34  35
ENDBRANCH  32  34
ENDBRANCH  31  32
ENDBRANCH  30  31
ENDBRANCH  29  30
ENDBRANCH  28  29
ENDBRANCH  27  28
ENDBRANCH  26  27
ENDBRANCH  25  26
ENDBRANCH  24  25
ENDBRANCH  23  24
ENDBRANCH  21  23
TORSDOF 14
ENDMDL
MODEL       71
REMARK 921   NORMALIZED FREE ENERGY PREDICTED BY IDOCK:   -5.68 KCAL/MOL
REMARK 922        TOTAL FREE ENERGY PREDICTED BY IDOCK:  -13.62 KCAL/MOL
REMARK 923 INTER-LIGAND FREE ENERGY PREDICTED BY IDOCK:  -10.77 KCAL/MOL
REMARK 924 INTRA-LIGAND FREE ENERGY PREDICTED BY IDOCK:   -2.85 KCAL/MOL
REMARK 927      BINDING AFFINITY PREDICTED BY RF-SCORE:    0.00 PKD
ROOT
HETATM    1  C   UNL     1     -10.496   9.519  70.988  1.00  0.00    -0.377 C  
HETATM    2  C   UNL     1     -10.783   9.614  69.597  1.00  0.00    -0.260 C  
HETATM    3  C   UNL     1     -11.319   8.326  70.162  1.00  0.00    -0.060 C  
HETATM    4  C   UNL     1     -11.291   8.412  72.191  1.00  0.00    -0.366 C  
HETATM    5  O   UNL     1     -11.871   7.723  73.305  1.00  0.00    -0.651 OA 
HETATM    6  C   UNL     1     -12.277   9.067  71.494  1.00  0.00    -0.403 C  
HETATM    7  C   UNL     1     -12.943   7.356  71.341  1.00  0.00    -0.403 C  
HETATM    8  C   UNL     1     -13.196  10.161  71.904  1.00  0.00    -0.557 C  
HETATM    9  H   UNL     1     -11.858   7.763  74.253  1.00  0.00     0.000 HD 
HETATM   10  C   UNL     1     -11.666   6.116  71.480  1.00  0.00    -0.264 C  
HETATM   11  C   UNL     1     -10.008   6.432  71.199  1.00  0.00    -0.203 C  
HETATM   12  C   UNL     1      -8.967   5.396  71.638  1.00  0.00    -0.147 A  
HETATM   13  C   UNL     1      -9.345   4.057  71.850  1.00  0.00    -0.192 A  
HETATM   14  C   UNL     1      -8.392   3.052  72.048  1.00  0.00    -0.065 A  
HETATM   15  C   UNL     1      -7.045   3.379  72.047  1.00  0.00    -0.041 A  
HETATM   16  C   UNL     1      -6.640   4.689  71.832  1.00  0.00    -0.027 A  
HETATM   17  O   UNL     1      -6.077   2.437  72.232  1.00  0.00    -0.009 OA 
HETATM   18  C   UNL     1      -7.584   5.705  71.589  1.00  0.00    -0.099 A  
HETATM   19  H   UNL     1      -5.155   2.660  72.231  1.00  0.00     0.000 HD 
HETATM   20  C   UNL     1      -7.043   7.092  71.288  1.00  0.00    -0.069 C  
HETATM   21  C   UNL     1      -7.985   8.027  70.493  1.00  0.00    -0.096 C  
HETATM   22  C   UNL     1      -9.317   8.050  71.280  1.00  0.00    -0.182 C  
ENDROOT
BRANCH  21  23
HETATM   23  C   UNL     1      -8.140   7.554  69.033  1.00  0.00    -0.127 C  
BRANCH  23  24
HETATM   24  C   UNL     1      -6.863   7.179  68.305  1.00  0.00    -0.074 C  
BRANCH  24  25
HETATM   25  C   UNL     1      -6.870   7.750  66.878  1.00  0.00    -0.072 C  
BRANCH  25  26
HETATM   26  C   UNL     1      -7.838   8.926  66.663  1.00  0.00    -0.100 C  
BRANCH  26  27
HETATM   27  C   UNL     1      -7.161  10.297  66.662  1.00  0.00    -0.108 C  
BRANCH  27  28
HETATM   28  C   UNL     1      -7.110  10.905  68.065  1.00  0.00    -0.077 C  
BRANCH  28  29
HETATM   29  C   UNL     1      -8.238  11.904  68.333  1.00  0.00    -0.160 C  
BRANCH  29  30
HETATM   30  C   UNL     1      -8.389  13.012  67.279  1.00  0.00    -0.186 C  
BRANCH  30  31
HETATM   31  C   UNL     1      -9.708  13.013  66.519  1.00  0.00    -0.266 C  
BRANCH  31  32
HETATM   32  S   UNL     1     -10.876  14.254  67.165  1.00  0.00    -0.301 S  
HETATM   33  O   UNL     1     -11.897  14.503  66.093  1.00  0.00    -0.374 OA 
BRANCH  32  34
HETATM   34  C   UNL     1     -11.668  13.207  68.427  1.00  0.00    -0.351 C  
BRANCH  34  35
HETATM   35  C   UNL     1     -12.394  14.035  69.481  1.00  0.00    -0.275 C  
BRANCH  35  36
HETATM   36  C   UNL     1     -12.360  13.357  70.850  1.00  0.00    -0.436 C  
BRANCH  36  37
HETATM   37  C   UNL     1     -13.180  14.090  71.910  1.00  0.00    -0.395 C  
HETATM   38  F   UNL     1     -14.287  14.616  71.310  1.00  0.00    -0.460 F  
HETATM   39  C   UNL     1     -12.403  15.175  72.670  1.00  0.00    -0.378 C  
HETATM   40  F   UNL     1     -13.650  13.147  72.779  1.00  0.00    -0.607 F  
HETATM   41  F   UNL     1     -11.089  15.187  72.360  1.00  0.00    -0.504 F  
HETATM   42  F   UNL     1     -12.899  16.407  72.404  1.00  0.00    -0.457 F  
HETATM   43  F   UNL     1     -12.486  15.006  74.014  1.00  0.00    -0.591 F  
ENDBRANCH  36  37
ENDBRANCH  35  36
ENDBRANCH  34  35
ENDBRANCH  32  34
ENDBRANCH  31  32
ENDBRANCH  30  31
ENDBRANCH  29  30
ENDBRANCH  28  29
ENDBRANCH  27  28
ENDBRANCH  26  27
ENDBRANCH  25  26
ENDBRANCH  24  25
ENDBRANCH  23  24
ENDBRANCH  21  23
TORSDOF 14
ENDMDL
MODEL       72
REMARK 921   NORMALIZED FREE ENERGY PREDICTED BY IDOCK:   -5.65 KCAL/MOL
REMARK 922        TOTAL FREE ENERGY PREDICTED BY IDOCK:  -13.57 KCAL/MOL
REMARK 923 INTER-LIGAND FREE ENERGY PREDICTED BY IDOCK:   -9.73 KCAL/MOL
REMARK 924 INTRA-LIGAND FREE ENERGY PREDICTED BY IDOCK:   -3.85 KCAL/MOL
REMARK 927      BINDING AFFINITY PREDICTED BY RF-SCORE:    0.00 PKD
ROOT
HETATM    1  C   UNL     1      -9.169   9.866  65.411  1.00  0.00    -0.264 C  
HETATM    2  C   UNL     1      -8.101  10.794  65.562  1.00  0.00    -0.084 C  
HETATM    3  C   UNL     1      -7.874   9.581  66.421  1.00  0.00    -0.097 C  
HETATM    4  C   UNL     1      -9.157   8.107  65.867  1.00  0.00    -0.130 C  
HETATM    5  O   UNL     1      -9.308   6.693  66.035  1.00  0.00    -0.337 OA 
HETATM    6  C   UNL     1      -8.041   8.361  65.108  1.00  0.00    -0.147 C  
HETATM    7  C   UNL     1      -7.219   7.450  66.481  1.00  0.00    -0.079 C  
HETATM    8  C   UNL     1      -7.714   7.993  63.705  1.00  0.00    -0.136 C  
HETATM    9  H   UNL     1      -9.908   6.004  65.776  1.00  0.00     0.000 HD 
HETATM   10  C   UNL     1      -8.145   7.540  68.005  1.00  0.00    -0.124 C  
HETATM   11  C   UNL     1      -9.299   8.758  68.338  1.00  0.00    -0.141 C  
HETATM   12  C   UNL     1     -10.253   8.578  69.525  1.00  0.00    -0.206 A  
HETATM   13  C   UNL     1      -9.925   7.692  70.569  1.00  0.00    -0.184 A  
HETATM   14  C   UNL     1     -10.665   7.658  71.756  1.00  0.00    -0.252 A  
HETATM   15  C   UNL     1     -11.752   8.504  71.907  1.00  0.00    -0.341 A  
HETATM   16  C   UNL     1     -12.095   9.394  70.900  1.00  0.00    -0.327 A  
HETATM   17  O   UNL     1     -12.502   8.512  73.046  1.00  0.00    -0.604 OA 
HETATM   18  C   UNL     1     -11.336   9.472  69.716  1.00  0.00    -0.117 A  
HETATM   19  H   UNL     1     -13.247   9.091  73.150  1.00  0.00     0.000 HD 
HETATM   20  C   UNL     1     -11.742  10.530  68.705  1.00  0.00    -0.157 C  
HETATM   21  C   UNL     1     -10.634  10.991  67.728  1.00  0.00    -0.250 C  
HETATM   22  C   UNL     1     -10.086   9.700  67.074  1.00  0.00    -0.275 C  
ENDROOT
BRANCH  21  23
HETATM   23  C   UNL     1      -9.555  11.818  68.457  1.00  0.00    -0.173 C  
BRANCH  23  24
HETATM   24  C   UNL     1      -9.902  13.263  68.761  1.00  0.00    -0.012 C  
BRANCH  24  25
HETATM   25  C   UNL     1      -8.646  14.145  68.689  1.00  0.00    -0.126 C  
BRANCH  25  26
HETATM   26  C   UNL     1      -7.610  13.700  67.642  1.00  0.00    -0.186 C  
BRANCH  26  27
HETATM   27  C   UNL     1      -6.433  14.662  67.483  1.00  0.00    -0.079 C  
BRANCH  27  28
HETATM   28  C   UNL     1      -6.823  16.099  67.833  1.00  0.00    -0.153 C  
BRANCH  28  29
HETATM   29  C   UNL     1      -6.907  17.018  66.612  1.00  0.00    -0.279 C  
BRANCH  29  30
HETATM   30  C   UNL     1      -7.015  18.517  66.934  1.00  0.00    -0.215 C  
BRANCH  30  31
HETATM   31  C   UNL     1      -8.402  19.121  66.766  1.00  0.00    -0.293 C  
BRANCH  31  32
HETATM   32  S   UNL     1      -9.274  19.301  68.357  1.00  0.00    -0.368 S  
HETATM   33  O   UNL     1     -10.234  20.444  68.211  1.00  0.00    -0.322 OA 
BRANCH  32  34
HETATM   34  C   UNL     1     -10.250  17.766  68.273  1.00  0.00    -0.382 C  
BRANCH  34  35
HETATM   35  C   UNL     1     -10.560  17.367  66.834  1.00  0.00    -0.216 C  
BRANCH  35  36
HETATM   36  C   UNL     1     -11.144  15.957  66.756  1.00  0.00    -0.064 C  
BRANCH  36  37
HETATM   37  C   UNL     1     -10.809  15.234  65.453  1.00  0.00    -0.387 C  
HETATM   38  F   UNL     1     -11.088  16.071  64.412  1.00  0.00    -0.452 F  
HETATM   39  C   UNL     1     -11.523  13.886  65.276  1.00  0.00    -0.315 C  
HETATM   40  F   UNL     1      -9.454  15.059  65.426  1.00  0.00    -0.335 F  
HETATM   41  F   UNL     1     -12.213  13.515  66.376  1.00  0.00    -0.405 F  
HETATM   42  F   UNL     1     -12.395  13.928  64.241  1.00  0.00    -0.432 F  
HETATM   43  F   UNL     1     -10.649  12.884  65.007  1.00  0.00    -0.284 F  
ENDBRANCH  36  37
ENDBRANCH  35  36
ENDBRANCH  34  35
ENDBRANCH  32  34
ENDBRANCH  31  32
ENDBRANCH  30  31
ENDBRANCH  29  30
ENDBRANCH  28  29
ENDBRANCH  27  28
ENDBRANCH  26  27
ENDBRANCH  25  26
ENDBRANCH  24  25
ENDBRANCH  23  24
ENDBRANCH  21  23
TORSDOF 14
ENDMDL
MODEL       73
REMARK 921   NORMALIZED FREE ENERGY PREDICTED BY IDOCK:   -5.65 KCAL/MOL
REMARK 922        TOTAL FREE ENERGY PREDICTED BY IDOCK:  -13.56 KCAL/MOL
REMARK 923 INTER-LIGAND FREE ENERGY PREDICTED BY IDOCK:  -10.77 KCAL/MOL
REMARK 924 INTRA-LIGAND FREE ENERGY PREDICTED BY IDOCK:   -2.79 KCAL/MOL
REMARK 927      BINDING AFFINITY PREDICTED BY RF-SCORE:    0.00 PKD
ROOT
HETATM    1  C   UNL     1      -9.925   6.055  73.068  1.00  0.00    -0.186 C  
HETATM    2  C   UNL     1     -11.347   6.040  73.010  1.00  0.00    -0.177 C  
HETATM    3  C   UNL     1     -10.761   5.338  71.816  1.00  0.00    -0.240 C  
HETATM    4  C   UNL     1      -8.785   4.989  72.136  1.00  0.00    -0.129 C  
HETATM    5  O   UNL     1      -7.736   4.174  71.602  1.00  0.00    -0.066 OA 
HETATM    6  C   UNL     1      -9.725   4.188  72.738  1.00  0.00    -0.185 C  
HETATM    7  C   UNL     1      -9.818   3.470  71.044  1.00  0.00    -0.156 C  
HETATM    8  C   UNL     1      -9.621   3.271  73.903  1.00  0.00    -0.127 C  
HETATM    9  H   UNL     1      -6.813   4.010  71.751  1.00  0.00     0.000 HD 
HETATM   10  C   UNL     1      -9.303   4.629  69.787  1.00  0.00    -0.215 C  
HETATM   11  C   UNL     1      -9.292   6.325  70.013  1.00  0.00    -0.164 C  
HETATM   12  C   UNL     1      -8.551   7.207  69.002  1.00  0.00    -0.129 A  
HETATM   13  C   UNL     1      -8.272   6.723  67.709  1.00  0.00    -0.120 A  
HETATM   14  C   UNL     1      -7.787   7.566  66.703  1.00  0.00    -0.106 A  
HETATM   15  C   UNL     1      -7.564   8.904  66.983  1.00  0.00    -0.094 A  
HETATM   16  C   UNL     1      -7.837   9.413  68.245  1.00  0.00    -0.090 A  
HETATM   17  O   UNL     1      -7.096   9.767  66.037  1.00  0.00    -0.094 OA 
HETATM   18  C   UNL     1      -8.365   8.589  69.257  1.00  0.00    -0.120 A  
HETATM   19  H   UNL     1      -6.943  10.684  66.228  1.00  0.00     0.000 HD 
HETATM   20  C   UNL     1      -8.704   9.252  70.580  1.00  0.00    -0.282 C  
HETATM   21  C   UNL     1      -9.762   8.528  71.447  1.00  0.00    -0.287 C  
HETATM   22  C   UNL     1      -9.254   7.076  71.605  1.00  0.00    -0.144 C  
ENDROOT
BRANCH  21  23
HETATM   23  C   UNL     1     -11.165   8.625  70.813  1.00  0.00    -0.298 C  
BRANCH  23  24
HETATM   24  C   UNL     1     -11.962   9.879  71.121  1.00  0.00    -0.473 C  
BRANCH  24  25
HETATM   25  C   UNL     1     -11.544  11.025  70.186  1.00  0.00    -0.421 C  
BRANCH  25  26
HETATM   26  C   UNL     1     -12.082  10.908  68.749  1.00  0.00    -0.124 C  
BRANCH  26  27
HETATM   27  C   UNL     1     -11.040  10.447  67.730  1.00  0.00    -0.365 C  
BRANCH  27  28
HETATM   28  C   UNL     1     -10.766  11.519  66.675  1.00  0.00    -0.311 C  
BRANCH  28  29
HETATM   29  C   UNL     1     -11.967  12.429  66.409  1.00  0.00    -0.346 C  
BRANCH  29  30
HETATM   30  C   UNL     1     -12.002  13.067  65.012  1.00  0.00    -0.438 C  
BRANCH  30  31
HETATM   31  C   UNL     1     -12.232  14.572  64.987  1.00  0.00    -0.373 C  
BRANCH  31  32
HETATM   32  S   UNL     1     -10.689  15.503  64.718  1.00  0.00    -0.168 S  
HETATM   33  O   UNL     1     -11.069  16.937  64.492  1.00  0.00    -1.054 OA 
BRANCH  32  34
HETATM   34  C   UNL     1     -10.035  15.383  66.414  1.00  0.00    -0.278 C  
BRANCH  34  35
HETATM   35  C   UNL     1     -10.689  16.394  67.349  1.00  0.00    -0.278 C  
BRANCH  35  36
HETATM   36  C   UNL     1     -11.628  15.713  68.343  1.00  0.00    -0.358 C  
BRANCH  36  37
HETATM   37  C   UNL     1     -10.925  15.241  69.614  1.00  0.00    -0.284 C  
HETATM   38  F   UNL     1     -10.428  13.990  69.392  1.00  0.00    -0.203 F  
HETATM   39  C   UNL     1     -11.809  15.261  70.870  1.00  0.00    -0.341 C  
HETATM   40  F   UNL     1      -9.832  16.041  69.792  1.00  0.00    -0.258 F  
HETATM   41  F   UNL     1     -13.013  15.831  70.649  1.00  0.00    -0.490 F  
HETATM   42  F   UNL     1     -12.028  14.007  71.333  1.00  0.00    -0.389 F  
HETATM   43  F   UNL     1     -11.230  15.953  71.883  1.00  0.00    -0.411 F  
ENDBRANCH  36  37
ENDBRANCH  35  36
ENDBRANCH  34  35
ENDBRANCH  32  34
ENDBRANCH  31  32
ENDBRANCH  30  31
ENDBRANCH  29  30
ENDBRANCH  28  29
ENDBRANCH  27  28
ENDBRANCH  26  27
ENDBRANCH  25  26
ENDBRANCH  24  25
ENDBRANCH  23  24
ENDBRANCH  21  23
TORSDOF 14
ENDMDL
MODEL       74
REMARK 921   NORMALIZED FREE ENERGY PREDICTED BY IDOCK:   -5.64 KCAL/MOL
REMARK 922        TOTAL FREE ENERGY PREDICTED BY IDOCK:  -13.55 KCAL/MOL
REMARK 923 INTER-LIGAND FREE ENERGY PREDICTED BY IDOCK:   -9.88 KCAL/MOL
REMARK 924 INTRA-LIGAND FREE ENERGY PREDICTED BY IDOCK:   -3.67 KCAL/MOL
REMARK 927      BINDING AFFINITY PREDICTED BY RF-SCORE:    0.00 PKD
ROOT
HETATM    1  C   UNL     1      -9.846   5.026  67.168  1.00  0.00    -0.204 C  
HETATM    2  C   UNL     1     -10.992   5.740  66.718  1.00  0.00    -0.239 C  
HETATM    3  C   UNL     1      -9.833   6.675  66.926  1.00  0.00    -0.222 C  
HETATM    4  C   UNL     1      -8.122   5.600  67.135  1.00  0.00    -0.102 C  
HETATM    5  O   UNL     1      -6.707   5.809  67.080  1.00  0.00    -0.057 OA 
HETATM    6  C   UNL     1      -8.660   5.789  65.885  1.00  0.00    -0.146 C  
HETATM    7  C   UNL     1      -7.915   7.459  66.102  1.00  0.00    -0.112 C  
HETATM    8  C   UNL     1      -8.436   5.061  64.608  1.00  0.00    -0.145 C  
HETATM    9  H   UNL     1      -5.907   5.306  67.177  1.00  0.00     0.000 HD 
HETATM   10  C   UNL     1      -7.724   7.899  67.821  1.00  0.00    -0.121 C  
HETATM   11  C   UNL     1      -8.623   7.178  69.086  1.00  0.00    -0.133 C  
HETATM   12  C   UNL     1      -8.176   7.396  70.536  1.00  0.00    -0.127 A  
HETATM   13  C   UNL     1      -7.352   8.488  70.868  1.00  0.00    -0.068 A  
HETATM   14  C   UNL     1      -7.097   8.832  72.200  1.00  0.00    -0.007 A  
HETATM   15  C   UNL     1      -7.658   8.079  73.218  1.00  0.00    -0.147 A  
HETATM   16  C   UNL     1      -8.482   7.002  72.924  1.00  0.00    -0.130 A  
HETATM   17  O   UNL     1      -7.444   8.376  74.532  1.00  0.00    -0.204 OA 
HETATM   18  C   UNL     1      -8.783   6.667  71.590  1.00  0.00    -0.130 A  
HETATM   19  H   UNL     1      -7.828   7.860  75.230  1.00  0.00     0.000 HD 
HETATM   20  C   UNL     1      -9.755   5.521  71.369  1.00  0.00    -0.205 C  
HETATM   21  C   UNL     1     -10.502   5.522  70.013  1.00  0.00    -0.373 C  
HETATM   22  C   UNL     1      -9.403   5.607  68.928  1.00  0.00    -0.144 C  
ENDROOT
BRANCH  21  23
HETATM   23  C   UNL     1     -11.530   6.670  69.941  1.00  0.00    -0.414 C  
BRANCH  23  24
HETATM   24  C   UNL     1     -12.178   7.080  71.251  1.00  0.00    -0.419 C  
BRANCH  24  25
HETATM   25  C   UNL     1     -11.773   8.513  71.626  1.00  0.00    -0.369 C  
BRANCH  25  26
HETATM   26  C   UNL     1     -11.937   9.543  70.495  1.00  0.00    -0.197 C  
BRANCH  26  27
HETATM   27  C   UNL     1     -10.632  10.214  70.071  1.00  0.00    -0.338 C  
BRANCH  27  28
HETATM   28  C   UNL     1     -10.447  10.187  68.553  1.00  0.00    -0.221 C  
BRANCH  28  29
HETATM   29  C   UNL     1      -9.466  11.245  68.042  1.00  0.00    -0.173 C  
BRANCH  29  30
HETATM   30  C   UNL     1     -10.033  12.196  66.977  1.00  0.00    -0.213 C  
BRANCH  30  31
HETATM   31  C   UNL     1     -11.551  12.224  66.869  1.00  0.00    -0.361 C  
BRANCH  31  32
HETATM   32  S   UNL     1     -12.117  12.731  65.212  1.00  0.00    -0.472 S  
HETATM   33  O   UNL     1     -13.194  13.759  65.406  1.00  0.00    -0.722 OA 
BRANCH  32  34
HETATM   34  C   UNL     1     -10.611  13.622  64.705  1.00  0.00    -0.422 C  
BRANCH  34  35
HETATM   35  C   UNL     1     -10.738  15.126  64.924  1.00  0.00    -0.421 C  
BRANCH  35  36
HETATM   36  C   UNL     1      -9.689  15.640  65.910  1.00  0.00    -0.388 C  
BRANCH  36  37
HETATM   37  C   UNL     1     -10.280  16.078  67.248  1.00  0.00    -0.277 C  
HETATM   38  F   UNL     1     -10.480  17.427  67.210  1.00  0.00    -0.314 F  
HETATM   39  C   UNL     1      -9.436  15.686  68.470  1.00  0.00    -0.200 C  
HETATM   40  F   UNL     1     -11.527  15.527  67.338  1.00  0.00    -0.329 F  
HETATM   41  F   UNL     1      -8.390  14.896  68.147  1.00  0.00    -0.131 F  
HETATM   42  F   UNL     1      -8.945  16.781  69.095  1.00  0.00    -0.260 F  
HETATM   43  F   UNL     1     -10.166  15.008  69.391  1.00  0.00    -0.217 F  
ENDBRANCH  36  37
ENDBRANCH  35  36
ENDBRANCH  34  35
ENDBRANCH  32  34
ENDBRANCH  31  32
ENDBRANCH  30  31
ENDBRANCH  29  30
ENDBRANCH  28  29
ENDBRANCH  27  28
ENDBRANCH  26  27
ENDBRANCH  25  26
ENDBRANCH  24  25
ENDBRANCH  23  24
ENDBRANCH  21  23
TORSDOF 14
ENDMDL
MODEL       75
REMARK 921   NORMALIZED FREE ENERGY PREDICTED BY IDOCK:   -5.64 KCAL/MOL
REMARK 922        TOTAL FREE ENERGY PREDICTED BY IDOCK:  -13.55 KCAL/MOL
REMARK 923 INTER-LIGAND FREE ENERGY PREDICTED BY IDOCK:  -10.55 KCAL/MOL
REMARK 924 INTRA-LIGAND FREE ENERGY PREDICTED BY IDOCK:   -3.00 KCAL/MOL
REMARK 927      BINDING AFFINITY PREDICTED BY RF-SCORE:    0.00 PKD
ROOT
HETATM    1  C   UNL     1      -9.053   8.674  70.479  1.00  0.00    -0.188 C  
HETATM    2  C   UNL     1      -9.817   9.830  70.156  1.00  0.00    -0.306 C  
HETATM    3  C   UNL     1     -10.561   8.580  69.774  1.00  0.00    -0.224 C  
HETATM    4  C   UNL     1      -9.667   6.969  70.630  1.00  0.00    -0.172 C  
HETATM    5  O   UNL     1      -9.967   5.600  70.919  1.00  0.00    -0.178 OA 
HETATM    6  C   UNL     1     -10.473   7.784  71.387  1.00  0.00    -0.237 C  
HETATM    7  C   UNL     1     -11.797   6.868  70.491  1.00  0.00    -0.385 C  
HETATM    8  C   UNL     1     -10.583   7.947  72.860  1.00  0.00    -0.434 C  
HETATM    9  H   UNL     1      -9.549   4.847  71.319  1.00  0.00     0.000 HD 
HETATM   10  C   UNL     1     -11.233   6.218  68.926  1.00  0.00    -0.387 C  
HETATM   11  C   UNL     1      -9.877   6.833  68.083  1.00  0.00    -0.144 C  
HETATM   12  C   UNL     1      -9.292   6.022  66.920  1.00  0.00    -0.140 A  
HETATM   13  C   UNL     1     -10.076   5.051  66.268  1.00  0.00    -0.275 A  
HETATM   14  C   UNL     1      -9.650   4.445  65.082  1.00  0.00    -0.183 A  
HETATM   15  C   UNL     1      -8.425   4.797  64.538  1.00  0.00    -0.140 A  
HETATM   16  C   UNL     1      -7.633   5.757  65.151  1.00  0.00    -0.086 A  
HETATM   17  O   UNL     1      -7.966   4.238  63.382  1.00  0.00    -0.080 OA 
HETATM   18  C   UNL     1      -8.066   6.407  66.323  1.00  0.00    -0.114 A  
HETATM   19  H   UNL     1      -7.127   4.479  63.008  1.00  0.00     0.000 HD 
HETATM   20  C   UNL     1      -7.167   7.498  66.878  1.00  0.00    -0.085 C  
HETATM   21  C   UNL     1      -7.860   8.556  67.770  1.00  0.00    -0.103 C  
HETATM   22  C   UNL     1      -8.602   7.758  68.869  1.00  0.00    -0.132 C  
ENDROOT
BRANCH  21  23
HETATM   23  C   UNL     1      -8.787   9.467  66.939  1.00  0.00    -0.140 C  
BRANCH  23  24
HETATM   24  C   UNL     1      -8.206  10.032  65.656  1.00  0.00    -0.143 C  
BRANCH  24  25
HETATM   25  C   UNL     1      -9.211   9.893  64.503  1.00  0.00    -0.315 C  
BRANCH  25  26
HETATM   26  C   UNL     1     -10.493  10.729  64.667  1.00  0.00    -0.346 C  
BRANCH  26  27
HETATM   27  C   UNL     1     -10.750  11.704  63.518  1.00  0.00    -0.495 C  
BRANCH  27  28
HETATM   28  C   UNL     1     -12.164  12.285  63.573  1.00  0.00    -0.669 C  
BRANCH  28  29
HETATM   29  C   UNL     1     -12.189  13.803  63.764  1.00  0.00    -0.364 C  
BRANCH  29  30
HETATM   30  C   UNL     1     -11.471  14.311  65.024  1.00  0.00    -0.364 C  
BRANCH  30  31
HETATM   31  C   UNL     1     -10.980  15.750  64.960  1.00  0.00    -0.417 C  
BRANCH  31  32
HETATM   32  S   UNL     1      -9.683  16.094  66.193  1.00  0.00    -0.346 S  
HETATM   33  O   UNL     1      -8.967  17.336  65.751  1.00  0.00    -0.521 OA 
BRANCH  32  34
HETATM   34  C   UNL     1     -10.778  16.568  67.570  1.00  0.00    -0.283 C  
BRANCH  34  35
HETATM   35  C   UNL     1     -10.526  15.725  68.815  1.00  0.00    -0.228 C  
BRANCH  35  36
HETATM   36  C   UNL     1     -11.675  14.753  69.078  1.00  0.00    -0.343 C  
BRANCH  36  37
HETATM   37  C   UNL     1     -11.222  13.302  69.215  1.00  0.00    -0.208 C  
HETATM   38  F   UNL     1      -9.858  13.278  69.247  1.00  0.00     0.073 F  
HETATM   39  C   UNL     1     -11.758  12.365  68.122  1.00  0.00    -0.353 C  
HETATM   40  F   UNL     1     -11.622  12.869  70.447  1.00  0.00    -0.300 F  
HETATM   41  F   UNL     1     -12.654  12.971  67.314  1.00  0.00    -0.206 F  
HETATM   42  F   UNL     1     -10.754  11.898  67.344  1.00  0.00    -0.224 F  
HETATM   43  F   UNL     1     -12.379  11.280  68.649  1.00  0.00    -0.357 F  
ENDBRANCH  36  37
ENDBRANCH  35  36
ENDBRANCH  34  35
ENDBRANCH  32  34
ENDBRANCH  31  32
ENDBRANCH  30  31
ENDBRANCH  29  30
ENDBRANCH  28  29
ENDBRANCH  27  28
ENDBRANCH  26  27
ENDBRANCH  25  26
ENDBRANCH  24  25
ENDBRANCH  23  24
ENDBRANCH  21  23
TORSDOF 14
ENDMDL
MODEL       76
REMARK 921   NORMALIZED FREE ENERGY PREDICTED BY IDOCK:   -5.62 KCAL/MOL
REMARK 922        TOTAL FREE ENERGY PREDICTED BY IDOCK:  -13.51 KCAL/MOL
REMARK 923 INTER-LIGAND FREE ENERGY PREDICTED BY IDOCK:  -10.58 KCAL/MOL
REMARK 924 INTRA-LIGAND FREE ENERGY PREDICTED BY IDOCK:   -2.93 KCAL/MOL
REMARK 927      BINDING AFFINITY PREDICTED BY RF-SCORE:    0.00 PKD
ROOT
HETATM    1  C   UNL     1      -8.289   5.556  65.401  1.00  0.00    -0.142 C  
HETATM    2  C   UNL     1      -7.010   5.564  66.024  1.00  0.00    -0.066 C  
HETATM    3  C   UNL     1      -8.058   6.104  66.959  1.00  0.00    -0.106 C  
HETATM    4  C   UNL     1      -9.904   5.678  66.227  1.00  0.00    -0.123 C  
HETATM    5  O   UNL     1     -11.260   5.633  66.686  1.00  0.00    -0.555 OA 
HETATM    6  C   UNL     1      -9.176   4.696  66.853  1.00  0.00    -0.133 C  
HETATM    7  C   UNL     1      -9.725   5.610  68.355  1.00  0.00    -0.161 C  
HETATM    8  C   UNL     1      -9.310   3.216  66.823  1.00  0.00    -0.148 C  
HETATM    9  H   UNL     1     -12.123   5.434  66.344  1.00  0.00     0.000 HD 
HETATM   10  C   UNL     1     -10.097   7.322  68.010  1.00  0.00    -0.207 C  
HETATM   11  C   UNL     1      -9.484   8.166  66.654  1.00  0.00    -0.274 C  
HETATM   12  C   UNL     1     -10.098   9.520  66.279  1.00  0.00    -0.327 A  
HETATM   13  C   UNL     1     -10.814  10.263  67.236  1.00  0.00    -0.312 A  
HETATM   14  C   UNL     1     -11.207  11.583  66.991  1.00  0.00    -0.365 A  
HETATM   15  C   UNL     1     -10.895  12.174  65.777  1.00  0.00    -0.281 A  
HETATM   16  C   UNL     1     -10.182  11.470  64.816  1.00  0.00    -0.331 A  
HETATM   17  O   UNL     1     -11.251  13.458  65.491  1.00  0.00    -0.288 OA 
HETATM   18  C   UNL     1      -9.743  10.156  65.063  1.00  0.00    -0.384 A  
HETATM   19  H   UNL     1     -11.038  13.863  64.659  1.00  0.00     0.000 HD 
HETATM   20  C   UNL     1      -8.904   9.495  63.983  1.00  0.00    -0.243 C  
HETATM   21  C   UNL     1      -7.981   8.345  64.453  1.00  0.00    -0.148 C  
HETATM   22  C   UNL     1      -8.897   7.352  65.207  1.00  0.00     0.145 C  
ENDROOT
BRANCH  21  23
HETATM   23  C   UNL     1      -6.815   8.880  65.310  1.00  0.00    -0.072 C  
BRANCH  23  24
HETATM   24  C   UNL     1      -6.210  10.203  64.878  1.00  0.00    -0.125 C  
BRANCH  24  25
HETATM   25  C   UNL     1      -5.784  11.025  66.104  1.00  0.00    -0.143 C  
BRANCH  25  26
HETATM   26  C   UNL     1      -6.512  10.655  67.408  1.00  0.00    -0.059 C  
BRANCH  26  27
HETATM   27  C   UNL     1      -6.546  11.780  68.442  1.00  0.00    -0.055 C  
BRANCH  27  28
HETATM   28  C   UNL     1      -7.881  12.526  68.425  1.00  0.00    -0.141 C  
BRANCH  28  29
HETATM   29  C   UNL     1      -7.959  13.605  67.343  1.00  0.00    -0.177 C  
BRANCH  29  30
HETATM   30  C   UNL     1      -8.025  15.048  67.869  1.00  0.00    -0.146 C  
BRANCH  30  31
HETATM   31  C   UNL     1      -9.237  15.851  67.418  1.00  0.00    -0.201 C  
BRANCH  31  32
HETATM   32  S   UNL     1     -10.181  16.525  68.823  1.00  0.00    -0.286 S  
HETATM   33  O   UNL     1     -11.217  17.453  68.259  1.00  0.00    -0.142 OA 
BRANCH  32  34
HETATM   34  C   UNL     1     -11.038  14.990  69.298  1.00  0.00    -0.272 C  
BRANCH  34  35
HETATM   35  C   UNL     1     -12.354  15.270  70.015  1.00  0.00    -0.366 C  
BRANCH  35  36
HETATM   36  C   UNL     1     -12.724  14.138  70.973  1.00  0.00    -0.433 C  
BRANCH  36  37
HETATM   37  C   UNL     1     -13.342  14.629  72.280  1.00  0.00    -0.392 C  
HETATM   38  F   UNL     1     -14.377  15.466  71.980  1.00  0.00    -0.523 F  
HETATM   39  C   UNL     1     -12.349  15.310  73.233  1.00  0.00    -0.475 C  
HETATM   40  F   UNL     1     -13.915  13.547  72.887  1.00  0.00    -0.544 F  
HETATM   41  F   UNL     1     -11.072  15.223  72.802  1.00  0.00    -0.491 F  
HETATM   42  F   UNL     1     -12.641  16.622  73.387  1.00  0.00    -0.471 F  
HETATM   43  F   UNL     1     -12.379  14.757  74.472  1.00  0.00    -0.618 F  
ENDBRANCH  36  37
ENDBRANCH  35  36
ENDBRANCH  34  35
ENDBRANCH  32  34
ENDBRANCH  31  32
ENDBRANCH  30  31
ENDBRANCH  29  30
ENDBRANCH  28  29
ENDBRANCH  27  28
ENDBRANCH  26  27
ENDBRANCH  25  26
ENDBRANCH  24  25
ENDBRANCH  23  24
ENDBRANCH  21  23
TORSDOF 14
ENDMDL
MODEL       77
REMARK 921   NORMALIZED FREE ENERGY PREDICTED BY IDOCK:   -5.60 KCAL/MOL
REMARK 922        TOTAL FREE ENERGY PREDICTED BY IDOCK:  -13.47 KCAL/MOL
REMARK 923 INTER-LIGAND FREE ENERGY PREDICTED BY IDOCK:   -9.49 KCAL/MOL
REMARK 924 INTRA-LIGAND FREE ENERGY PREDICTED BY IDOCK:   -3.98 KCAL/MOL
REMARK 927      BINDING AFFINITY PREDICTED BY RF-SCORE:    0.00 PKD
ROOT
HETATM    1  C   UNL     1     -11.523   6.970  69.469  1.00  0.00    -0.078 C  
HETATM    2  C   UNL     1     -10.852   5.727  69.647  1.00  0.00    -0.418 C  
HETATM    3  C   UNL     1     -10.194   6.806  70.463  1.00  0.00    -0.212 C  
HETATM    4  C   UNL     1     -11.406   8.434  70.540  1.00  0.00    -0.216 C  
HETATM    5  O   UNL     1     -11.551   9.631  71.312  1.00  0.00    -0.334 OA 
HETATM    6  C   UNL     1     -11.677   7.344  71.332  1.00  0.00    -0.316 C  
HETATM    7  C   UNL     1     -10.285   8.042  72.317  1.00  0.00    -0.325 C  
HETATM    8  C   UNL     1     -12.921   6.936  72.035  1.00  0.00    -0.178 C  
HETATM    9  H   UNL     1     -12.118  10.392  71.348  1.00  0.00     0.000 HD 
HETATM   10  C   UNL     1      -9.185   9.038  71.325  1.00  0.00    -0.314 C  
HETATM   11  C   UNL     1      -9.064   8.903  69.624  1.00  0.00    -0.151 C  
HETATM   12  C   UNL     1      -8.330   9.998  68.839  1.00  0.00    -0.130 A  
HETATM   13  C   UNL     1      -7.409  10.840  69.490  1.00  0.00    -0.125 A  
HETATM   14  C   UNL     1      -6.577  11.705  68.771  1.00  0.00    -0.072 A  
HETATM   15  C   UNL     1      -6.664  11.744  67.389  1.00  0.00    -0.120 A  
HETATM   16  C   UNL     1      -7.556  10.920  66.718  1.00  0.00    -0.134 A  
HETATM   17  O   UNL     1      -5.872  12.566  66.643  1.00  0.00    -0.464 OA 
HETATM   18  C   UNL     1      -8.371  10.013  67.422  1.00  0.00    -0.118 A  
HETATM   19  H   UNL     1      -5.932  12.593  65.695  1.00  0.00     0.000 HD 
HETATM   20  C   UNL     1      -9.259   9.098  66.597  1.00  0.00    -0.207 C  
HETATM   21  C   UNL     1      -9.696   7.782  67.283  1.00  0.00    -0.224 C  
HETATM   22  C   UNL     1     -10.335   8.201  68.628  1.00  0.00    -0.224 C  
ENDROOT
BRANCH  21  23
HETATM   23  C   UNL     1      -8.507   6.813  67.442  1.00  0.00    -0.121 C  
BRANCH  23  24
HETATM   24  C   UNL     1      -7.507   6.776  66.301  1.00  0.00    -0.077 C  
BRANCH  24  25
HETATM   25  C   UNL     1      -8.132   6.123  65.059  1.00  0.00    -0.133 C  
BRANCH  25  26
HETATM   26  C   UNL     1      -8.017   6.955  63.770  1.00  0.00    -0.064 C  
BRANCH  26  27
HETATM   27  C   UNL     1      -6.899   7.997  63.801  1.00  0.00    -0.074 C  
BRANCH  27  28
HETATM   28  C   UNL     1      -7.333   9.314  63.155  1.00  0.00    -0.102 C  
BRANCH  28  29
HETATM   29  C   UNL     1      -8.851   9.508  63.134  1.00  0.00    -0.239 C  
BRANCH  29  30
HETATM   30  C   UNL     1      -9.322  10.961  63.298  1.00  0.00    -0.324 C  
BRANCH  30  31
HETATM   31  C   UNL     1     -10.723  11.132  63.868  1.00  0.00    -0.337 C  
BRANCH  31  32
HETATM   32  S   UNL     1     -11.131  12.880  64.187  1.00  0.00    -0.420 S  
HETATM   33  O   UNL     1     -12.202  13.271  63.211  1.00  0.00    -0.663 OA 
BRANCH  32  34
HETATM   34  C   UNL     1     -11.937  12.649  65.804  1.00  0.00    -0.446 C  
BRANCH  34  35
HETATM   35  C   UNL     1     -10.922  12.553  66.938  1.00  0.00    -0.296 C  
BRANCH  35  36
HETATM   36  C   UNL     1      -9.932  13.717  66.906  1.00  0.00    -0.260 C  
BRANCH  36  37
HETATM   37  C   UNL     1      -9.943  14.555  68.183  1.00  0.00    -0.220 C  
HETATM   38  F   UNL     1     -11.082  14.268  68.877  1.00  0.00    -0.231 F  
HETATM   39  C   UNL     1      -9.814  16.067  67.948  1.00  0.00    -0.226 C  
HETATM   40  F   UNL     1      -8.917  14.109  68.967  1.00  0.00    -0.145 F  
HETATM   41  F   UNL     1      -9.570  16.373  66.655  1.00  0.00    -0.224 F  
HETATM   42  F   UNL     1     -10.944  16.716  68.316  1.00  0.00    -0.318 F  
HETATM   43  F   UNL     1      -8.802  16.605  68.673  1.00  0.00    -0.209 F  
ENDBRANCH  36  37
ENDBRANCH  35  36
ENDBRANCH  34  35
ENDBRANCH  32  34
ENDBRANCH  31  32
ENDBRANCH  30  31
ENDBRANCH  29  30
ENDBRANCH  28  29
ENDBRANCH  27  28
ENDBRANCH  26  27
ENDBRANCH  25  26
ENDBRANCH  24  25
ENDBRANCH  23  24
ENDBRANCH  21  23
TORSDOF 14
ENDMDL
MODEL       78
REMARK 921   NORMALIZED FREE ENERGY PREDICTED BY IDOCK:   -5.59 KCAL/MOL
REMARK 922        TOTAL FREE ENERGY PREDICTED BY IDOCK:  -13.47 KCAL/MOL
REMARK 923 INTER-LIGAND FREE ENERGY PREDICTED BY IDOCK:  -10.60 KCAL/MOL
REMARK 924 INTRA-LIGAND FREE ENERGY PREDICTED BY IDOCK:   -2.87 KCAL/MOL
REMARK 927      BINDING AFFINITY PREDICTED BY RF-SCORE:    0.00 PKD
ROOT
HETATM    1  C   UNL     1      -8.399  13.095  68.283  1.00  0.00    -0.152 C  
HETATM    2  C   UNL     1      -8.103  12.535  67.009  1.00  0.00    -0.105 C  
HETATM    3  C   UNL     1      -7.127  13.629  67.348  1.00  0.00    -0.097 C  
HETATM    4  C   UNL     1      -7.293  14.101  69.317  1.00  0.00    -0.016 C  
HETATM    5  O   UNL     1      -6.546  14.791  70.324  1.00  0.00    -0.182 OA 
HETATM    6  C   UNL     1      -6.616  12.966  68.942  1.00  0.00    -0.095 C  
HETATM    7  C   UNL     1      -5.314  14.198  68.516  1.00  0.00    -0.098 C  
HETATM    8  C   UNL     1      -6.235  11.758  69.720  1.00  0.00    -0.138 C  
HETATM    9  H   UNL     1      -6.623  15.011  71.245  1.00  0.00     0.000 HD 
HETATM   10  C   UNL     1      -5.994  15.814  68.179  1.00  0.00    -0.135 C  
HETATM   11  C   UNL     1      -7.623  16.077  67.725  1.00  0.00    -0.157 C  
HETATM   12  C   UNL     1      -8.185  17.503  67.759  1.00  0.00    -0.219 A  
HETATM   13  C   UNL     1      -7.315  18.609  67.723  1.00  0.00    -0.242 A  
HETATM   14  C   UNL     1      -7.795  19.911  67.545  1.00  0.00    -0.325 A  
HETATM   15  C   UNL     1      -9.158  20.122  67.411  1.00  0.00    -0.364 A  
HETATM   16  C   UNL     1     -10.041  19.052  67.434  1.00  0.00    -0.443 A  
HETATM   17  O   UNL     1      -9.676  21.371  67.231  1.00  0.00    -0.507 OA 
HETATM   18  C   UNL     1      -9.571  17.732  67.570  1.00  0.00    -0.268 A  
HETATM   19  H   UNL     1     -10.610  21.516  67.140  1.00  0.00     0.000 HD 
HETATM   20  C   UNL     1     -10.605  16.621  67.506  1.00  0.00    -0.311 C  
HETATM   21  C   UNL     1     -10.075  15.228  67.092  1.00  0.00    -0.240 C  
HETATM   22  C   UNL     1      -8.906  14.919  68.058  1.00  0.00    -0.167 C  
ENDROOT
BRANCH  21  23
HETATM   23  C   UNL     1      -9.667  15.204  65.605  1.00  0.00    -0.351 C  
BRANCH  23  24
HETATM   24  C   UNL     1     -10.492  14.316  64.692  1.00  0.00    -0.325 C  
BRANCH  24  25
HETATM   25  C   UNL     1     -11.986  14.439  65.028  1.00  0.00    -0.413 C  
BRANCH  25  26
HETATM   26  C   UNL     1     -12.518  13.358  65.985  1.00  0.00    -0.431 C  
BRANCH  26  27
HETATM   27  C   UNL     1     -11.652  12.100  66.046  1.00  0.00    -0.420 C  
BRANCH  27  28
HETATM   28  C   UNL     1     -11.649  11.480  67.444  1.00  0.00    -0.307 C  
BRANCH  28  29
HETATM   29  C   UNL     1     -11.980  12.482  68.552  1.00  0.00    -0.266 C  
BRANCH  29  30
HETATM   30  C   UNL     1     -12.018  11.893  69.971  1.00  0.00    -0.409 C  
BRANCH  30  31
HETATM   31  C   UNL     1     -13.029  10.776  70.186  1.00  0.00     0.011 C  
BRANCH  31  32
HETATM   32  S   UNL     1     -12.640   9.766  71.652  1.00  0.00    -0.437 S  
HETATM   33  O   UNL     1     -13.360   8.458  71.494  1.00  0.00    -0.327 OA 
BRANCH  32  34
HETATM   34  C   UNL     1     -10.884   9.460  71.276  1.00  0.00    -0.361 C  
BRANCH  34  35
HETATM   35  C   UNL     1     -10.707   8.353  70.243  1.00  0.00    -0.240 C  
BRANCH  35  36
HETATM   36  C   UNL     1      -9.911   7.178  70.809  1.00  0.00    -0.180 C  
BRANCH  36  37
HETATM   37  C   UNL     1     -10.729   5.895  70.931  1.00  0.00    -0.273 C  
HETATM   38  F   UNL     1     -11.894   6.059  70.240  1.00  0.00    -0.380 F  
HETATM   39  C   UNL     1     -11.010   5.458  72.377  1.00  0.00    -0.240 C  
HETATM   40  F   UNL     1     -10.047   4.916  70.265  1.00  0.00    -0.264 F  
HETATM   41  F   UNL     1     -10.356   6.216  73.284  1.00  0.00    -0.181 F  
HETATM   42  F   UNL     1     -12.331   5.529  72.660  1.00  0.00    -0.315 F  
HETATM   43  F   UNL     1     -10.632   4.174  72.598  1.00  0.00    -0.231 F  
ENDBRANCH  36  37
ENDBRANCH  35  36
ENDBRANCH  34  35
ENDBRANCH  32  34
ENDBRANCH  31  32
ENDBRANCH  30  31
ENDBRANCH  29  30
ENDBRANCH  28  29
ENDBRANCH  27  28
ENDBRANCH  26  27
ENDBRANCH  25  26
ENDBRANCH  24  25
ENDBRANCH  23  24
ENDBRANCH  21  23
TORSDOF 14
ENDMDL
MODEL       79
REMARK 921   NORMALIZED FREE ENERGY PREDICTED BY IDOCK:   -5.56 KCAL/MOL
REMARK 922        TOTAL FREE ENERGY PREDICTED BY IDOCK:  -13.41 KCAL/MOL
REMARK 923 INTER-LIGAND FREE ENERGY PREDICTED BY IDOCK:   -9.61 KCAL/MOL
REMARK 924 INTRA-LIGAND FREE ENERGY PREDICTED BY IDOCK:   -3.80 KCAL/MOL
REMARK 927      BINDING AFFINITY PREDICTED BY RF-SCORE:    0.00 PKD
ROOT
HETATM    1  C   UNL     1     -11.785  12.466  67.062  1.00  0.00    -0.423 C  
HETATM    2  C   UNL     1     -10.853  13.298  67.744  1.00  0.00    -0.268 C  
HETATM    3  C   UNL     1     -10.261  12.778  66.462  1.00  0.00    -0.261 C  
HETATM    4  C   UNL     1     -11.730  11.972  65.313  1.00  0.00    -0.252 C  
HETATM    5  O   UNL     1     -11.938  11.580  63.952  1.00  0.00    -0.378 OA 
HETATM    6  C   UNL     1     -11.586  13.337  65.378  1.00  0.00    -0.346 C  
HETATM    7  C   UNL     1     -10.180  12.981  64.243  1.00  0.00    -0.316 C  
HETATM    8  C   UNL     1     -12.529  14.433  65.033  1.00  0.00    -0.366 C  
HETATM    9  H   UNL     1     -12.624  11.203  63.415  1.00  0.00     0.000 HD 
HETATM   10  C   UNL     1      -9.559  11.318  64.431  1.00  0.00    -0.257 C  
HETATM   11  C   UNL     1      -9.802  10.374  65.837  1.00  0.00    -0.294 C  
HETATM   12  C   UNL     1      -9.505   8.870  65.786  1.00  0.00    -0.272 A  
HETATM   13  C   UNL     1      -8.652   8.350  64.795  1.00  0.00    -0.077 A  
HETATM   14  C   UNL     1      -8.198   7.027  64.843  1.00  0.00    -0.076 A  
HETATM   15  C   UNL     1      -8.602   6.205  65.882  1.00  0.00    -0.147 A  
HETATM   16  C   UNL     1      -9.435   6.691  66.879  1.00  0.00    -0.184 A  
HETATM   17  O   UNL     1      -8.185   4.910  65.976  1.00  0.00    -0.110 OA 
HETATM   18  C   UNL     1      -9.867   8.031  66.869  1.00  0.00    -0.318 A  
HETATM   19  H   UNL     1      -8.462   4.346  66.688  1.00  0.00     0.000 HD 
HETATM   20  C   UNL     1     -10.713   8.492  68.043  1.00  0.00    -0.122 C  
HETATM   21  C   UNL     1     -10.706  10.014  68.325  1.00  0.00    -0.280 C  
HETATM   22  C   UNL     1     -11.095  10.690  66.989  1.00  0.00    -0.217 C  
ENDROOT
BRANCH  21  23
HETATM   23  C   UNL     1      -9.339  10.474  68.873  1.00  0.00    -0.192 C  
BRANCH  23  24
HETATM   24  C   UNL     1      -8.485   9.411  69.539  1.00  0.00    -0.152 C  
BRANCH  24  25
HETATM   25  C   UNL     1      -9.053   9.053  70.921  1.00  0.00    -0.309 C  
BRANCH  25  26
HETATM   26  C   UNL     1      -8.046   8.387  71.875  1.00  0.00    -0.193 C  
BRANCH  26  27
HETATM   27  C   UNL     1      -8.532   8.286  73.321  1.00  0.00    -0.267 C  
BRANCH  27  28
HETATM   28  C   UNL     1      -8.493   6.845  73.833  1.00  0.00    -0.161 C  
BRANCH  28  29
HETATM   29  C   UNL     1      -7.242   6.081  73.397  1.00  0.00    -0.085 C  
BRANCH  29  30
HETATM   30  C   UNL     1      -7.511   4.763  72.653  1.00  0.00    -0.086 C  
BRANCH  30  31
HETATM   31  C   UNL     1      -6.951   4.685  71.240  1.00  0.00    -0.042 C  
BRANCH  31  32
HETATM   32  S   UNL     1      -8.181   5.165  69.983  1.00  0.00    -0.083 S  
HETATM   33  O   UNL     1      -8.159   4.110  68.916  1.00  0.00    -0.071 OA 
BRANCH  32  34
HETATM   34  C   UNL     1      -9.675   4.882  70.986  1.00  0.00    -0.185 C  
BRANCH  34  35
HETATM   35  C   UNL     1     -10.817   5.805  70.578  1.00  0.00    -0.348 C  
BRANCH  35  36
HETATM   36  C   UNL     1     -11.565   6.345  71.796  1.00  0.00    -0.367 C  
BRANCH  36  37
HETATM   37  C   UNL     1     -12.863   7.067  71.439  1.00  0.00    -0.356 C  
HETATM   38  F   UNL     1     -13.067   6.946  70.096  1.00  0.00     0.010 F  
HETATM   39  C   UNL     1     -12.905   8.541  71.867  1.00  0.00    -0.363 C  
HETATM   40  F   UNL     1     -13.884   6.375  72.026  1.00  0.00    -0.310 F  
HETATM   41  F   UNL     1     -11.836   8.897  72.612  1.00  0.00    -0.391 F  
HETATM   42  F   UNL     1     -12.944   9.361  70.790  1.00  0.00    -0.268 F  
HETATM   43  F   UNL     1     -14.007   8.820  72.607  1.00  0.00    -0.426 F  
ENDBRANCH  36  37
ENDBRANCH  35  36
ENDBRANCH  34  35
ENDBRANCH  32  34
ENDBRANCH  31  32
ENDBRANCH  30  31
ENDBRANCH  29  30
ENDBRANCH  28  29
ENDBRANCH  27  28
ENDBRANCH  26  27
ENDBRANCH  25  26
ENDBRANCH  24  25
ENDBRANCH  23  24
ENDBRANCH  21  23
TORSDOF 14
ENDMDL
MODEL       80
REMARK 921   NORMALIZED FREE ENERGY PREDICTED BY IDOCK:   -5.56 KCAL/MOL
REMARK 922        TOTAL FREE ENERGY PREDICTED BY IDOCK:  -13.39 KCAL/MOL
REMARK 923 INTER-LIGAND FREE ENERGY PREDICTED BY IDOCK:  -10.35 KCAL/MOL
REMARK 924 INTRA-LIGAND FREE ENERGY PREDICTED BY IDOCK:   -3.04 KCAL/MOL
REMARK 927      BINDING AFFINITY PREDICTED BY RF-SCORE:    0.00 PKD
ROOT
HETATM    1  C   UNL     1     -11.590  15.522  68.268  1.00  0.00    -0.344 C  
HETATM    2  C   UNL     1     -11.395  15.592  69.676  1.00  0.00    -0.331 C  
HETATM    3  C   UNL     1     -10.096  15.301  68.975  1.00  0.00    -0.239 C  
HETATM    4  C   UNL     1     -10.310  15.638  66.983  1.00  0.00    -0.289 C  
HETATM    5  O   UNL     1      -9.484  15.831  65.830  1.00  0.00    -0.335 OA 
HETATM    6  C   UNL     1     -10.154  16.699  67.841  1.00  0.00    -0.270 C  
HETATM    7  C   UNL     1      -8.399  16.140  67.797  1.00  0.00    -0.162 C  
HETATM    8  C   UNL     1     -10.452  18.145  67.666  1.00  0.00    -0.432 C  
HETATM    9  H   UNL     1      -9.584  15.989  64.899  1.00  0.00     0.000 HD 
HETATM   10  C   UNL     1      -8.249  14.410  67.382  1.00  0.00    -0.215 C  
HETATM   11  C   UNL     1      -9.517  13.278  67.577  1.00  0.00    -0.220 C  
HETATM   12  C   UNL     1      -9.397  11.901  66.913  1.00  0.00    -0.198 A  
HETATM   13  C   UNL     1      -8.134  11.403  66.540  1.00  0.00    -0.141 A  
HETATM   14  C   UNL     1      -7.967  10.077  66.126  1.00  0.00    -0.113 A  
HETATM   15  C   UNL     1      -9.066   9.235  66.070  1.00  0.00    -0.188 A  
HETATM   16  C   UNL     1     -10.322   9.695  66.440  1.00  0.00    -0.246 A  
HETATM   17  O   UNL     1      -8.955   7.934  65.677  1.00  0.00    -0.323 OA 
HETATM   18  C   UNL     1     -10.501  11.013  66.899  1.00  0.00    -0.293 A  
HETATM   19  H   UNL     1      -9.708   7.357  65.639  1.00  0.00     0.000 HD 
HETATM   20  C   UNL     1     -11.898  11.402  67.354  1.00  0.00    -0.038 C  
HETATM   21  C   UNL     1     -11.980  12.586  68.347  1.00  0.00    -0.271 C  
HETATM   22  C   UNL     1     -11.211  13.750  67.677  1.00  0.00    -0.316 C  
ENDROOT
BRANCH  21  23
HETATM   23  C   UNL     1     -11.422  12.196  69.731  1.00  0.00    -0.261 C  
BRANCH  23  24
HETATM   24  C   UNL     1     -11.599  10.747  70.147  1.00  0.00    -0.424 C  
BRANCH  24  25
HETATM   25  C   UNL     1     -12.925  10.563  70.901  1.00  0.00    -0.455 C  
BRANCH  25  26
HETATM   26  C   UNL     1     -12.830   9.678  72.156  1.00  0.00    -0.460 C  
BRANCH  26  27
HETATM   27  C   UNL     1     -12.298   8.271  71.887  1.00  0.00    -0.379 C  
BRANCH  27  28
HETATM   28  C   UNL     1     -10.865   8.099  72.393  1.00  0.00    -0.409 C  
BRANCH  28  29
HETATM   29  C   UNL     1     -10.720   6.990  73.437  1.00  0.00    -0.379 C  
BRANCH  29  30
HETATM   30  C   UNL     1      -9.388   6.990  74.204  1.00  0.00    -0.276 C  
BRANCH  30  31
HETATM   31  C   UNL     1      -8.491   8.194  73.954  1.00  0.00    -0.241 C  
BRANCH  31  32
HETATM   32  S   UNL     1      -6.991   7.754  73.017  1.00  0.00    -0.084 S  
HETATM   33  O   UNL     1      -5.916   7.448  74.018  1.00  0.00    -0.067 OA 
BRANCH  32  34
HETATM   34  C   UNL     1      -7.577   6.162  72.356  1.00  0.00    -0.099 C  
BRANCH  34  35
HETATM   35  C   UNL     1      -7.333   6.043  70.855  1.00  0.00    -0.082 C  
BRANCH  35  36
HETATM   36  C   UNL     1      -8.407   6.775  70.052  1.00  0.00    -0.135 C  
BRANCH  36  37
HETATM   37  C   UNL     1      -9.499   5.850  69.518  1.00  0.00    -0.138 C  
HETATM   38  F   UNL     1      -8.932   4.984  68.629  1.00  0.00    -0.102 F  
HETATM   39  C   UNL     1     -10.691   6.581  68.884  1.00  0.00    -0.273 C  
HETATM   40  F   UNL     1      -9.919   5.077  70.563  1.00  0.00    -0.236 F  
HETATM   41  F   UNL     1     -10.624   7.920  69.042  1.00  0.00    -0.217 F  
HETATM   42  F   UNL     1     -10.768   6.328  67.556  1.00  0.00    -0.213 F  
HETATM   43  F   UNL     1     -11.871   6.183  69.424  1.00  0.00    -0.458 F  
ENDBRANCH  36  37
ENDBRANCH  35  36
ENDBRANCH  34  35
ENDBRANCH  32  34
ENDBRANCH  31  32
ENDBRANCH  30  31
ENDBRANCH  29  30
ENDBRANCH  28  29
ENDBRANCH  27  28
ENDBRANCH  26  27
ENDBRANCH  25  26
ENDBRANCH  24  25
ENDBRANCH  23  24
ENDBRANCH  21  23
TORSDOF 14
ENDMDL
MODEL       81
REMARK 921   NORMALIZED FREE ENERGY PREDICTED BY IDOCK:   -5.55 KCAL/MOL
REMARK 922        TOTAL FREE ENERGY PREDICTED BY IDOCK:  -13.38 KCAL/MOL
REMARK 923 INTER-LIGAND FREE ENERGY PREDICTED BY IDOCK:   -9.10 KCAL/MOL
REMARK 924 INTRA-LIGAND FREE ENERGY PREDICTED BY IDOCK:   -4.29 KCAL/MOL
REMARK 927      BINDING AFFINITY PREDICTED BY RF-SCORE:    0.00 PKD
ROOT
HETATM    1  C   UNL     1      -9.925  13.885  68.838  1.00  0.00    -0.077 C  
HETATM    2  C   UNL     1      -8.748  14.681  68.927  1.00  0.00    -0.138 C  
HETATM    3  C   UNL     1      -9.375  14.812  67.566  1.00  0.00    -0.194 C  
HETATM    4  C   UNL     1     -11.251  14.036  67.605  1.00  0.00    -0.297 C  
HETATM    5  O   UNL     1     -12.447  14.071  66.818  1.00  0.00    -0.513 OA 
HETATM    6  C   UNL     1     -11.017  15.280  68.137  1.00  0.00    -0.292 C  
HETATM    7  C   UNL     1     -10.996  15.751  66.356  1.00  0.00    -0.159 C  
HETATM    8  C   UNL     1     -11.815  16.099  69.087  1.00  0.00    -0.182 C  
HETATM    9  H   UNL     1     -13.324  13.709  66.836  1.00  0.00     0.000 HD 
HETATM   10  C   UNL     1     -10.563  14.380  65.297  1.00  0.00    -0.398 C  
HETATM   11  C   UNL     1      -9.715  12.997  65.842  1.00  0.00    -0.187 C  
HETATM   12  C   UNL     1      -9.662  11.754  64.947  1.00  0.00    -0.199 A  
HETATM   13  C   UNL     1      -9.900  11.866  63.564  1.00  0.00    -0.359 A  
HETATM   14  C   UNL     1      -9.659  10.798  62.693  1.00  0.00    -0.296 A  
HETATM   15  C   UNL     1      -9.186   9.598  63.199  1.00  0.00    -0.102 A  
HETATM   16  C   UNL     1      -8.933   9.459  64.556  1.00  0.00    -0.227 A  
HETATM   17  O   UNL     1      -8.931   8.529  62.392  1.00  0.00    -0.437 OA 
HETATM   18  C   UNL     1      -9.130  10.537  65.441  1.00  0.00    -0.215 A  
HETATM   19  H   UNL     1      -8.607   7.706  62.738  1.00  0.00     0.000 HD 
HETATM   20  C   UNL     1      -8.753  10.313  66.895  1.00  0.00    -0.131 C  
HETATM   21  C   UNL     1      -8.432  11.587  67.713  1.00  0.00    -0.137 C  
HETATM   22  C   UNL     1      -9.653  12.520  67.536  1.00  0.00    -0.187 C  
ENDROOT
BRANCH  21  23
HETATM   23  C   UNL     1      -7.101  12.222  67.259  1.00  0.00    -0.138 C  
BRANCH  23  24
HETATM   24  C   UNL     1      -6.050  12.430  68.334  1.00  0.00    -0.056 C  
BRANCH  24  25
HETATM   25  C   UNL     1      -6.390  11.606  69.585  1.00  0.00    -0.133 C  
BRANCH  25  26
HETATM   26  C   UNL     1      -5.671  10.248  69.674  1.00  0.00    -0.039 C  
BRANCH  26  27
HETATM   27  C   UNL     1      -5.977   9.465  70.950  1.00  0.00    -0.064 C  
BRANCH  27  28
HETATM   28  C   UNL     1      -7.389   8.877  70.930  1.00  0.00    -0.100 C  
BRANCH  28  29
HETATM   29  C   UNL     1      -7.733   8.171  69.617  1.00  0.00    -0.101 C  
BRANCH  29  30
HETATM   30  C   UNL     1      -7.777   6.637  69.696  1.00  0.00    -0.107 C  
BRANCH  30  31
HETATM   31  C   UNL     1      -9.128   6.007  69.388  1.00  0.00    -0.133 C  
BRANCH  31  32
HETATM   32  S   UNL     1      -9.722   4.946  70.746  1.00  0.00    -0.213 S  
HETATM   33  O   UNL     1      -8.657   4.940  71.803  1.00  0.00    -0.123 OA 
BRANCH  32  34
HETATM   34  C   UNL     1     -11.057   6.034  71.336  1.00  0.00    -0.274 C  
BRANCH  34  35
HETATM   35  C   UNL     1     -11.377   7.139  70.335  1.00  0.00    -0.325 C  
BRANCH  35  36
HETATM   36  C   UNL     1     -11.581   8.485  71.030  1.00  0.00    -0.317 C  
BRANCH  36  37
HETATM   37  C   UNL     1     -11.181   9.679  70.166  1.00  0.00    -0.256 C  
HETATM   38  F   UNL     1     -10.034  10.215  70.675  1.00  0.00    -0.262 F  
HETATM   39  C   UNL     1     -12.270  10.752  70.028  1.00  0.00    -0.334 C  
HETATM   40  F   UNL     1     -10.839   9.190  68.936  1.00  0.00    -0.235 F  
HETATM   41  F   UNL     1     -13.443  10.377  70.582  1.00  0.00    -0.407 F  
HETATM   42  F   UNL     1     -11.891  11.911  70.616  1.00  0.00    -0.417 F  
HETATM   43  F   UNL     1     -12.529  11.043  68.728  1.00  0.00    -0.337 F  
ENDBRANCH  36  37
ENDBRANCH  35  36
ENDBRANCH  34  35
ENDBRANCH  32  34
ENDBRANCH  31  32
ENDBRANCH  30  31
ENDBRANCH  29  30
ENDBRANCH  28  29
ENDBRANCH  27  28
ENDBRANCH  26  27
ENDBRANCH  25  26
ENDBRANCH  24  25
ENDBRANCH  23  24
ENDBRANCH  21  23
TORSDOF 14
ENDMDL
MODEL       82
REMARK 921   NORMALIZED FREE ENERGY PREDICTED BY IDOCK:   -5.54 KCAL/MOL
REMARK 922        TOTAL FREE ENERGY PREDICTED BY IDOCK:  -13.38 KCAL/MOL
REMARK 923 INTER-LIGAND FREE ENERGY PREDICTED BY IDOCK:  -10.31 KCAL/MOL
REMARK 924 INTRA-LIGAND FREE ENERGY PREDICTED BY IDOCK:   -3.06 KCAL/MOL
REMARK 927      BINDING AFFINITY PREDICTED BY RF-SCORE:    0.00 PKD
ROOT
HETATM    1  C   UNL     1      -9.486   5.038  71.358  1.00  0.00    -0.206 C  
HETATM    2  C   UNL     1      -8.155   5.230  71.825  1.00  0.00    -0.117 C  
HETATM    3  C   UNL     1      -9.035   6.375  72.246  1.00  0.00    -0.139 C  
HETATM    4  C   UNL     1     -10.983   5.876  71.958  1.00  0.00    -0.266 C  
HETATM    5  O   UNL     1     -12.280   6.324  72.369  1.00  0.00    -0.516 OA 
HETATM    6  C   UNL     1     -10.305   5.380  73.045  1.00  0.00    -0.229 C  
HETATM    7  C   UNL     1     -10.591   7.087  73.675  1.00  0.00    -0.383 C  
HETATM    8  C   UNL     1     -10.603   4.226  73.934  1.00  0.00    -0.314 C  
HETATM    9  H   UNL     1     -13.191   6.091  72.235  1.00  0.00     0.000 HD 
HETATM   10  C   UNL     1     -10.808   8.270  72.356  1.00  0.00    -0.421 C  
HETATM   11  C   UNL     1     -10.251   8.015  70.758  1.00  0.00    -0.209 C  
HETATM   12  C   UNL     1     -10.750   8.937  69.639  1.00  0.00    -0.222 A  
HETATM   13  C   UNL     1     -11.277  10.205  69.947  1.00  0.00    -0.343 A  
HETATM   14  C   UNL     1     -11.546  11.146  68.948  1.00  0.00    -0.385 A  
HETATM   15  C   UNL     1     -11.300  10.823  67.623  1.00  0.00    -0.252 A  
HETATM   16  C   UNL     1     -10.773   9.585  67.287  1.00  0.00    -0.269 A  
HETATM   17  O   UNL     1     -11.542  11.707  66.612  1.00  0.00    -0.493 OA 
HETATM   18  C   UNL     1     -10.456   8.642  68.284  1.00  0.00    -0.234 A  
HETATM   19  H   UNL     1     -11.374  11.486  65.704  1.00  0.00     0.000 HD 
HETATM   20  C   UNL     1      -9.812   7.345  67.826  1.00  0.00    -0.187 C  
HETATM   21  C   UNL     1      -8.976   6.594  68.890  1.00  0.00    -0.130 C  
HETATM   22  C   UNL     1      -9.911   6.414  70.109  1.00  0.00    -0.191 C  
ENDROOT
BRANCH  21  23
HETATM   23  C   UNL     1      -7.675   7.356  69.219  1.00  0.00    -0.107 C  
BRANCH  23  24
HETATM   24  C   UNL     1      -7.036   8.126  68.078  1.00  0.00    -0.086 C  
BRANCH  24  25
HETATM   25  C   UNL     1      -6.396   9.423  68.596  1.00  0.00    -0.048 C  
BRANCH  25  26
HETATM   26  C   UNL     1      -7.334  10.309  69.435  1.00  0.00    -0.115 C  
BRANCH  26  27
HETATM   27  C   UNL     1      -7.876  11.525  68.684  1.00  0.00    -0.137 C  
BRANCH  27  28
HETATM   28  C   UNL     1      -6.989  12.755  68.878  1.00  0.00    -0.084 C  
BRANCH  28  29
HETATM   29  C   UNL     1      -7.665  14.063  68.460  1.00  0.00    -0.139 C  
BRANCH  29  30
HETATM   30  C   UNL     1      -7.136  15.322  69.165  1.00  0.00    -0.155 C  
BRANCH  30  31
HETATM   31  C   UNL     1      -6.582  16.400  68.244  1.00  0.00    -0.132 C  
BRANCH  31  32
HETATM   32  S   UNL     1      -7.042  18.077  68.791  1.00  0.00    -0.271 S  
HETATM   33  O   UNL     1      -6.358  19.047  67.872  1.00  0.00    -0.207 OA 
BRANCH  32  34
HETATM   34  C   UNL     1      -8.795  18.020  68.300  1.00  0.00    -0.286 C  
BRANCH  34  35
HETATM   35  C   UNL     1      -8.962  18.006  66.785  1.00  0.00    -0.279 C  
BRANCH  35  36
HETATM   36  C   UNL     1     -10.361  17.544  66.378  1.00  0.00    -0.334 C  
BRANCH  36  37
HETATM   37  C   UNL     1     -10.412  16.081  65.944  1.00  0.00    -0.359 C  
HETATM   38  F   UNL     1     -10.965  16.021  64.698  1.00  0.00    -0.441 F  
HETATM   39  C   UNL     1     -11.161  15.158  66.917  1.00  0.00    -0.314 C  
HETATM   40  F   UNL     1      -9.122  15.660  65.790  1.00  0.00    -0.356 F  
HETATM   41  F   UNL     1     -11.517  15.786  68.058  1.00  0.00    -0.335 F  
HETATM   42  F   UNL     1     -12.287  14.664  66.353  1.00  0.00    -0.371 F  
HETATM   43  F   UNL     1     -10.407  14.090  67.280  1.00  0.00    -0.254 F  
ENDBRANCH  36  37
ENDBRANCH  35  36
ENDBRANCH  34  35
ENDBRANCH  32  34
ENDBRANCH  31  32
ENDBRANCH  30  31
ENDBRANCH  29  30
ENDBRANCH  28  29
ENDBRANCH  27  28
ENDBRANCH  26  27
ENDBRANCH  25  26
ENDBRANCH  24  25
ENDBRANCH  23  24
ENDBRANCH  21  23
TORSDOF 14
ENDMDL
MODEL       83
REMARK 921   NORMALIZED FREE ENERGY PREDICTED BY IDOCK:   -5.54 KCAL/MOL
REMARK 922        TOTAL FREE ENERGY PREDICTED BY IDOCK:  -13.36 KCAL/MOL
REMARK 923 INTER-LIGAND FREE ENERGY PREDICTED BY IDOCK:  -11.29 KCAL/MOL
REMARK 924 INTRA-LIGAND FREE ENERGY PREDICTED BY IDOCK:   -2.07 KCAL/MOL
REMARK 927      BINDING AFFINITY PREDICTED BY RF-SCORE:    0.00 PKD
ROOT
HETATM    1  C   UNL     1      -9.825   5.741  72.105  1.00  0.00    -0.181 C  
HETATM    2  C   UNL     1     -11.231   5.849  71.915  1.00  0.00    -0.323 C  
HETATM    3  C   UNL     1     -10.559   5.395  70.648  1.00  0.00    -0.302 C  
HETATM    4  C   UNL     1      -8.651   4.832  71.057  1.00  0.00    -0.112 C  
HETATM    5  O   UNL     1      -7.596   4.081  70.445  1.00  0.00    -0.044 OA 
HETATM    6  C   UNL     1      -9.691   3.989  71.365  1.00  0.00    -0.253 C  
HETATM    7  C   UNL     1      -9.641   3.686  69.549  1.00  0.00    -0.207 C  
HETATM    8  C   UNL     1      -9.762   2.825  72.286  1.00  0.00    -0.220 C  
HETATM    9  H   UNL     1      -6.704   3.818  70.636  1.00  0.00     0.000 HD 
HETATM   10  C   UNL     1      -8.932   5.058  68.652  1.00  0.00    -0.127 C  
HETATM   11  C   UNL     1      -8.855   6.651  69.270  1.00  0.00    -0.133 C  
HETATM   12  C   UNL     1      -7.963   7.682  68.567  1.00  0.00    -0.123 A  
HETATM   13  C   UNL     1      -7.575   7.486  67.228  1.00  0.00    -0.108 A  
HETATM   14  C   UNL     1      -6.940   8.496  66.497  1.00  0.00    -0.075 A  
HETATM   15  C   UNL     1      -6.677   9.714  67.103  1.00  0.00    -0.075 A  
HETATM   16  C   UNL     1      -7.055   9.941  68.418  1.00  0.00    -0.072 A  
HETATM   17  O   UNL     1      -6.064  10.731  66.433  1.00  0.00    -0.093 OA 
HETATM   18  C   UNL     1      -7.733   8.950  69.155  1.00  0.00    -0.092 A  
HETATM   19  H   UNL     1      -5.884  11.566  66.847  1.00  0.00     0.000 HD 
HETATM   20  C   UNL     1      -8.176   9.318  70.561  1.00  0.00    -0.219 C  
HETATM   21  C   UNL     1      -9.358   8.499  71.132  1.00  0.00    -0.249 C  
HETATM   22  C   UNL     1      -8.948   7.014  70.991  1.00  0.00    -0.151 C  
ENDROOT
BRANCH  21  23
HETATM   23  C   UNL     1     -10.677   8.845  70.412  1.00  0.00    -0.261 C  
BRANCH  23  24
HETATM   24  C   UNL     1     -11.163  10.277  70.542  1.00  0.00    -0.408 C  
BRANCH  24  25
HETATM   25  C   UNL     1     -10.821  11.078  69.276  1.00  0.00    -0.285 C  
BRANCH  25  26
HETATM   26  C   UNL     1     -11.408  10.502  67.976  1.00  0.00    -0.319 C  
BRANCH  26  27
HETATM   27  C   UNL     1     -10.356  10.123  66.933  1.00  0.00    -0.298 C  
BRANCH  27  28
HETATM   28  C   UNL     1     -10.184  11.216  65.878  1.00  0.00    -0.303 C  
BRANCH  28  29
HETATM   29  C   UNL     1     -11.353  12.203  65.831  1.00  0.00    -0.407 C  
BRANCH  29  30
HETATM   30  C   UNL     1     -11.593  12.862  64.463  1.00  0.00    -0.400 C  
BRANCH  30  31
HETATM   31  C   UNL     1     -12.239  14.239  64.507  1.00  0.00    -0.455 C  
BRANCH  31  32
HETATM   32  S   UNL     1     -11.005  15.578  64.591  1.00  0.00    -0.206 S  
HETATM   33  O   UNL     1     -11.638  16.803  63.998  1.00  0.00    -1.195 OA 
BRANCH  32  34
HETATM   34  C   UNL     1     -11.005  15.795  66.399  1.00  0.00    -0.159 C  
BRANCH  34  35
HETATM   35  C   UNL     1      -9.684  16.362  66.905  1.00  0.00    -0.260 C  
BRANCH  35  36
HETATM   36  C   UNL     1      -9.410  17.750  66.328  1.00  0.00    -0.219 C  
BRANCH  36  37
HETATM   37  C   UNL     1     -10.260  18.849  66.963  1.00  0.00    -0.378 C  
HETATM   38  F   UNL     1     -10.871  19.551  65.966  1.00  0.00    -0.509 F  
HETATM   39  C   UNL     1      -9.482  19.789  67.896  1.00  0.00    -0.354 C  
HETATM   40  F   UNL     1     -11.270  18.233  67.647  1.00  0.00    -0.338 F  
HETATM   41  F   UNL     1      -8.210  19.386  68.098  1.00  0.00    -0.316 F  
HETATM   42  F   UNL     1      -9.440  21.047  67.395  1.00  0.00    -0.565 F  
HETATM   43  F   UNL     1     -10.062  19.878  69.119  1.00  0.00    -0.501 F  
ENDBRANCH  36  37
ENDBRANCH  35  36
ENDBRANCH  34  35
ENDBRANCH  32  34
ENDBRANCH  31  32
ENDBRANCH  30  31
ENDBRANCH  29  30
ENDBRANCH  28  29
ENDBRANCH  27  28
ENDBRANCH  26  27
ENDBRANCH  25  26
ENDBRANCH  24  25
ENDBRANCH  23  24
ENDBRANCH  21  23
TORSDOF 14
ENDMDL
MODEL       84
REMARK 921   NORMALIZED FREE ENERGY PREDICTED BY IDOCK:   -5.53 KCAL/MOL
REMARK 922        TOTAL FREE ENERGY PREDICTED BY IDOCK:  -13.35 KCAL/MOL
REMARK 923 INTER-LIGAND FREE ENERGY PREDICTED BY IDOCK:  -11.09 KCAL/MOL
REMARK 924 INTRA-LIGAND FREE ENERGY PREDICTED BY IDOCK:   -2.26 KCAL/MOL
REMARK 927      BINDING AFFINITY PREDICTED BY RF-SCORE:    0.00 PKD
ROOT
HETATM    1  C   UNL     1      -9.071   8.088  66.618  1.00  0.00    -0.199 C  
HETATM    2  C   UNL     1      -7.728   8.004  67.081  1.00  0.00    -0.101 C  
HETATM    3  C   UNL     1      -8.671   7.379  68.074  1.00  0.00    -0.124 C  
HETATM    4  C   UNL     1     -10.490   7.118  67.209  1.00  0.00    -0.301 C  
HETATM    5  O   UNL     1     -11.694   6.377  67.439  1.00  0.00    -0.580 OA 
HETATM    6  C   UNL     1      -9.467   6.248  66.921  1.00  0.00    -0.157 C  
HETATM    7  C   UNL     1      -9.903   5.593  68.586  1.00  0.00    -0.190 C  
HETATM    8  C   UNL     1      -9.290   5.292  65.796  1.00  0.00    -0.151 C  
HETATM    9  H   UNL     1     -12.545   6.255  67.035  1.00  0.00     0.000 HD 
HETATM   10  C   UNL     1     -10.685   6.824  69.616  1.00  0.00    -0.290 C  
HETATM   11  C   UNL     1     -10.531   8.508  69.357  1.00  0.00    -0.223 C  
HETATM   12  C   UNL     1     -11.476   9.465  70.093  1.00  0.00    -0.175 A  
HETATM   13  C   UNL     1     -12.139   9.047  71.262  1.00  0.00    -0.375 A  
HETATM   14  C   UNL     1     -12.840   9.952  72.067  1.00  0.00    -0.488 A  
HETATM   15  C   UNL     1     -12.894  11.288  71.704  1.00  0.00    -0.405 A  
HETATM   16  C   UNL     1     -12.244  11.733  70.562  1.00  0.00    -0.438 A  
HETATM   17  O   UNL     1     -13.561  12.209  72.456  1.00  0.00    -0.582 OA 
HETATM   18  C   UNL     1     -11.499  10.844  69.764  1.00  0.00    -0.390 A  
HETATM   19  H   UNL     1     -13.598  13.125  72.208  1.00  0.00     0.000 HD 
HETATM   20  C   UNL     1     -10.758  11.437  68.577  1.00  0.00    -0.235 C  
HETATM   21  C   UNL     1      -9.542  10.628  68.067  1.00  0.00    -0.167 C  
HETATM   22  C   UNL     1     -10.069   9.197  67.804  1.00  0.00    -0.253 C  
ENDROOT
BRANCH  21  23
HETATM   23  C   UNL     1      -8.375  10.678  69.074  1.00  0.00    -0.153 C  
BRANCH  23  24
HETATM   24  C   UNL     1      -7.061  11.238  68.560  1.00  0.00    -0.083 C  
BRANCH  24  25
HETATM   25  C   UNL     1      -6.366  12.067  69.650  1.00  0.00    -0.120 C  
BRANCH  25  26
HETATM   26  C   UNL     1      -5.278  13.024  69.132  1.00  0.00    -0.069 C  
BRANCH  26  27
HETATM   27  C   UNL     1      -5.384  14.444  69.686  1.00  0.00    -0.091 C  
BRANCH  27  28
HETATM   28  C   UNL     1      -5.405  15.489  68.569  1.00  0.00    -0.099 C  
BRANCH  28  29
HETATM   29  C   UNL     1      -6.785  15.669  67.934  1.00  0.00    -0.167 C  
BRANCH  29  30
HETATM   30  C   UNL     1      -7.971  15.481  68.893  1.00  0.00    -0.187 C  
BRANCH  30  31
HETATM   31  C   UNL     1      -9.081  14.570  68.389  1.00  0.00    -0.191 C  
BRANCH  31  32
HETATM   32  S   UNL     1     -10.575  15.499  67.913  1.00  0.00    -0.281 S  
HETATM   33  O   UNL     1     -11.734  14.876  68.634  1.00  0.00    -0.318 OA 
BRANCH  32  34
HETATM   34  C   UNL     1     -10.179  17.053  68.777  1.00  0.00    -0.317 C  
BRANCH  34  35
HETATM   35  C   UNL     1     -10.740  18.269  68.049  1.00  0.00    -0.290 C  
BRANCH  35  36
HETATM   36  C   UNL     1     -10.038  19.556  68.482  1.00  0.00    -0.543 C  
BRANCH  36  37
HETATM   37  C   UNL     1      -9.054  20.087  67.442  1.00  0.00    -0.357 C  
HETATM   38  F   UNL     1      -9.210  19.368  66.293  1.00  0.00    -0.326 F  
HETATM   39  C   UNL     1      -7.587  20.076  67.897  1.00  0.00    -0.290 C  
HETATM   40  F   UNL     1      -9.443  21.359  67.131  1.00  0.00    -0.435 F  
HETATM   41  F   UNL     1      -7.448  19.729  69.195  1.00  0.00    -0.378 F  
HETATM   42  F   UNL     1      -6.854  19.209  67.160  1.00  0.00    -0.197 F  
HETATM   43  F   UNL     1      -7.006  21.294  67.755  1.00  0.00    -0.376 F  
ENDBRANCH  36  37
ENDBRANCH  35  36
ENDBRANCH  34  35
ENDBRANCH  32  34
ENDBRANCH  31  32
ENDBRANCH  30  31
ENDBRANCH  29  30
ENDBRANCH  28  29
ENDBRANCH  27  28
ENDBRANCH  26  27
ENDBRANCH  25  26
ENDBRANCH  24  25
ENDBRANCH  23  24
ENDBRANCH  21  23
TORSDOF 14
ENDMDL
MODEL       85
REMARK 921   NORMALIZED FREE ENERGY PREDICTED BY IDOCK:   -5.52 KCAL/MOL
REMARK 922        TOTAL FREE ENERGY PREDICTED BY IDOCK:  -13.33 KCAL/MOL
REMARK 923 INTER-LIGAND FREE ENERGY PREDICTED BY IDOCK:  -10.33 KCAL/MOL
REMARK 924 INTRA-LIGAND FREE ENERGY PREDICTED BY IDOCK:   -3.01 KCAL/MOL
REMARK 927      BINDING AFFINITY PREDICTED BY RF-SCORE:    0.00 PKD
ROOT
HETATM    1  C   UNL     1      -8.424   8.067  67.042  1.00  0.00    -0.120 C  
HETATM    2  C   UNL     1      -7.175   7.781  67.662  1.00  0.00    -0.091 C  
HETATM    3  C   UNL     1      -8.212   6.772  68.071  1.00  0.00    -0.114 C  
HETATM    4  C   UNL     1      -9.833   6.935  66.857  1.00  0.00    -0.183 C  
HETATM    5  O   UNL     1     -10.990   6.171  66.500  1.00  0.00    -0.628 OA 
HETATM    6  C   UNL     1      -8.705   6.293  66.406  1.00  0.00    -0.137 C  
HETATM    7  C   UNL     1      -9.355   4.949  67.486  1.00  0.00    -0.148 C  
HETATM    8  C   UNL     1      -8.261   5.957  65.028  1.00  0.00    -0.138 C  
HETATM    9  H   UNL     1     -11.748   6.246  65.932  1.00  0.00     0.000 HD 
HETATM   10  C   UNL     1     -10.401   5.573  68.791  1.00  0.00    -0.271 C  
HETATM   11  C   UNL     1     -10.350   7.189  69.350  1.00  0.00    -0.206 C  
HETATM   12  C   UNL     1     -11.484   7.704  70.245  1.00  0.00    -0.144 A  
HETATM   13  C   UNL     1     -12.294   6.798  70.954  1.00  0.00    -0.336 A  
HETATM   14  C   UNL     1     -13.194   7.234  71.932  1.00  0.00    -0.289 A  
HETATM   15  C   UNL     1     -13.302   8.589  72.205  1.00  0.00    -0.351 A  
HETATM   16  C   UNL     1     -12.511   9.506  71.529  1.00  0.00    -0.463 A  
HETATM   17  O   UNL     1     -14.161   9.064  73.151  1.00  0.00    -1.142 OA 
HETATM   18  C   UNL     1     -11.569   9.081  70.572  1.00  0.00    -0.209 A  
HETATM   19  H   UNL     1     -14.235   9.992  73.338  1.00  0.00     0.000 HD 
HETATM   20  C   UNL     1     -10.695  10.151  69.941  1.00  0.00    -0.340 C  
HETATM   21  C   UNL     1      -9.345   9.664  69.361  1.00  0.00    -0.201 C  
HETATM   22  C   UNL     1      -9.697   8.512  68.389  1.00  0.00    -0.169 C  
ENDROOT
BRANCH  21  23
HETATM   23  C   UNL     1      -8.371   9.249  70.482  1.00  0.00    -0.237 C  
BRANCH  23  24
HETATM   24  C   UNL     1      -6.959   9.794  70.387  1.00  0.00    -0.139 C  
BRANCH  24  25
HETATM   25  C   UNL     1      -6.953  11.150  69.665  1.00  0.00    -0.088 C  
BRANCH  25  26
HETATM   26  C   UNL     1      -6.233  11.150  68.305  1.00  0.00    -0.049 C  
BRANCH  26  27
HETATM   27  C   UNL     1      -6.916  12.005  67.239  1.00  0.00    -0.146 C  
BRANCH  27  28
HETATM   28  C   UNL     1      -7.358  13.360  67.795  1.00  0.00    -0.158 C  
BRANCH  28  29
HETATM   29  C   UNL     1      -6.188  14.254  68.212  1.00  0.00    -0.117 C  
BRANCH  29  30
HETATM   30  C   UNL     1      -6.421  15.760  68.018  1.00  0.00    -0.150 C  
BRANCH  30  31
HETATM   31  C   UNL     1      -7.579  16.129  67.102  1.00  0.00    -0.202 C  
BRANCH  31  32
HETATM   32  S   UNL     1      -8.045  17.885  67.250  1.00  0.00    -0.215 S  
HETATM   33  O   UNL     1      -8.560  18.322  65.910  1.00  0.00    -0.502 OA 
BRANCH  32  34
HETATM   34  C   UNL     1      -9.491  17.662  68.333  1.00  0.00    -0.298 C  
BRANCH  34  35
HETATM   35  C   UNL     1      -9.947  16.207  68.382  1.00  0.00    -0.230 C  
BRANCH  35  36
HETATM   36  C   UNL     1     -10.048  15.699  69.820  1.00  0.00    -0.291 C  
BRANCH  36  37
HETATM   37  C   UNL     1     -11.469  15.321  70.230  1.00  0.00    -0.297 C  
HETATM   38  F   UNL     1     -11.602  15.535  71.571  1.00  0.00    -0.320 F  
HETATM   39  C   UNL     1     -11.872  13.884  69.864  1.00  0.00    -0.328 C  
HETATM   40  F   UNL     1     -12.313  16.215  69.633  1.00  0.00    -0.264 F  
HETATM   41  F   UNL     1     -10.940  13.258  69.115  1.00  0.00    -0.263 F  
HETATM   42  F   UNL     1     -12.075  13.137  70.975  1.00  0.00    -0.419 F  
HETATM   43  F   UNL     1     -13.029  13.850  69.156  1.00  0.00     0.068 F  
ENDBRANCH  36  37
ENDBRANCH  35  36
ENDBRANCH  34  35
ENDBRANCH  32  34
ENDBRANCH  31  32
ENDBRANCH  30  31
ENDBRANCH  29  30
ENDBRANCH  28  29
ENDBRANCH  27  28
ENDBRANCH  26  27
ENDBRANCH  25  26
ENDBRANCH  24  25
ENDBRANCH  23  24
ENDBRANCH  21  23
TORSDOF 14
ENDMDL
MODEL       86
REMARK 921   NORMALIZED FREE ENERGY PREDICTED BY IDOCK:   -5.52 KCAL/MOL
REMARK 922        TOTAL FREE ENERGY PREDICTED BY IDOCK:  -13.32 KCAL/MOL
REMARK 923 INTER-LIGAND FREE ENERGY PREDICTED BY IDOCK:   -9.90 KCAL/MOL
REMARK 924 INTRA-LIGAND FREE ENERGY PREDICTED BY IDOCK:   -3.42 KCAL/MOL
REMARK 927      BINDING AFFINITY PREDICTED BY RF-SCORE:    0.00 PKD
ROOT
HETATM    1  C   UNL     1      -8.282   4.824  66.288  1.00  0.00    -0.107 C  
HETATM    2  C   UNL     1      -6.939   5.293  66.346  1.00  0.00    -0.067 C  
HETATM    3  C   UNL     1      -7.297   4.552  67.606  1.00  0.00    -0.069 C  
HETATM    4  C   UNL     1      -9.032   3.533  67.324  1.00  0.00    -0.146 C  
HETATM    5  O   UNL     1      -9.766   2.469  67.939  1.00  0.00    -0.330 OA 
HETATM    6  C   UNL     1      -7.859   3.040  66.806  1.00  0.00    -0.076 C  
HETATM    7  C   UNL     1      -7.589   2.560  68.564  1.00  0.00    -0.047 C  
HETATM    8  C   UNL     1      -7.613   2.033  65.740  1.00  0.00    -0.071 C  
HETATM    9  H   UNL     1     -10.577   1.992  67.808  1.00  0.00     0.000 HD 
HETATM   10  C   UNL     1      -8.502   3.593  69.698  1.00  0.00    -0.094 C  
HETATM   11  C   UNL     1      -9.069   5.158  69.301  1.00  0.00    -0.140 C  
HETATM   12  C   UNL     1     -10.095   5.834  70.219  1.00  0.00    -0.273 A  
HETATM   13  C   UNL     1     -10.239   5.411  71.553  1.00  0.00    -0.280 A  
HETATM   14  C   UNL     1     -11.011   6.134  72.469  1.00  0.00    -0.296 A  
HETATM   15  C   UNL     1     -11.657   7.288  72.055  1.00  0.00    -0.274 A  
HETATM   16  C   UNL     1     -11.528   7.735  70.749  1.00  0.00    -0.285 A  
HETATM   17  O   UNL     1     -12.418   8.030  72.910  1.00  0.00    -0.602 OA 
HETATM   18  C   UNL     1     -10.722   7.043  69.825  1.00  0.00    -0.265 A  
HETATM   19  H   UNL     1     -12.861   8.821  72.627  1.00  0.00     0.000 HD 
HETATM   20  C   UNL     1     -10.580   7.651  68.441  1.00  0.00    -0.166 C  
HETATM   21  C   UNL     1      -9.312   7.244  67.651  1.00  0.00    -0.139 C  
HETATM   22  C   UNL     1      -9.302   5.697  67.641  1.00  0.00    -0.111 C  
ENDROOT
BRANCH  21  23
HETATM   23  C   UNL     1      -8.044   7.864  68.271  1.00  0.00    -0.123 C  
BRANCH  23  24
HETATM   24  C   UNL     1      -7.442   9.048  67.537  1.00  0.00    -0.081 C  
BRANCH  24  25
HETATM   25  C   UNL     1      -7.836  10.365  68.223  1.00  0.00    -0.105 C  
BRANCH  25  26
HETATM   26  C   UNL     1      -8.496  11.399  67.295  1.00  0.00    -0.148 C  
BRANCH  26  27
HETATM   27  C   UNL     1      -9.112  10.798  66.032  1.00  0.00    -0.204 C  
BRANCH  27  28
HETATM   28  C   UNL     1     -10.622  10.599  66.176  1.00  0.00    -0.211 C  
BRANCH  28  29
HETATM   29  C   UNL     1     -11.278  11.608  67.120  1.00  0.00    -0.371 C  
BRANCH  29  30
HETATM   30  C   UNL     1     -11.695  11.042  68.487  1.00  0.00    -0.348 C  
BRANCH  30  31
HETATM   31  C   UNL     1     -11.605  12.018  69.652  1.00  0.00    -0.301 C  
BRANCH  31  32
HETATM   32  S   UNL     1     -11.971  13.731  69.148  1.00  0.00    -0.347 S  
HETATM   33  O   UNL     1     -12.669  14.393  70.300  1.00  0.00    -0.348 OA 
BRANCH  32  34
HETATM   34  C   UNL     1     -10.259  14.350  69.132  1.00  0.00    -0.127 C  
BRANCH  34  35
HETATM   35  C   UNL     1      -9.889  14.969  67.789  1.00  0.00    -0.220 C  
BRANCH  35  36
HETATM   36  C   UNL     1     -11.128  15.253  66.941  1.00  0.00    -0.288 C  
BRANCH  36  37
HETATM   37  C   UNL     1     -10.913  14.999  65.451  1.00  0.00    -0.373 C  
HETATM   38  F   UNL     1     -10.548  16.174  64.861  1.00  0.00    -0.400 F  
HETATM   39  C   UNL     1     -12.123  14.382  64.734  1.00  0.00    -0.452 C  
HETATM   40  F   UNL     1      -9.826  14.180  65.334  1.00  0.00    -0.330 F  
HETATM   41  F   UNL     1     -13.114  14.042  65.586  1.00  0.00    -0.554 F  
HETATM   42  F   UNL     1     -12.641  15.240  63.824  1.00  0.00    -0.334 F  
HETATM   43  F   UNL     1     -11.787  13.254  64.058  1.00  0.00    -0.398 F  
ENDBRANCH  36  37
ENDBRANCH  35  36
ENDBRANCH  34  35
ENDBRANCH  32  34
ENDBRANCH  31  32
ENDBRANCH  30  31
ENDBRANCH  29  30
ENDBRANCH  28  29
ENDBRANCH  27  28
ENDBRANCH  26  27
ENDBRANCH  25  26
ENDBRANCH  24  25
ENDBRANCH  23  24
ENDBRANCH  21  23
TORSDOF 14
ENDMDL
MODEL       87
REMARK 921   NORMALIZED FREE ENERGY PREDICTED BY IDOCK:   -5.52 KCAL/MOL
REMARK 922        TOTAL FREE ENERGY PREDICTED BY IDOCK:  -13.32 KCAL/MOL
REMARK 923 INTER-LIGAND FREE ENERGY PREDICTED BY IDOCK:  -10.13 KCAL/MOL
REMARK 924 INTRA-LIGAND FREE ENERGY PREDICTED BY IDOCK:   -3.20 KCAL/MOL
REMARK 927      BINDING AFFINITY PREDICTED BY RF-SCORE:    0.00 PKD
ROOT
HETATM    1  C   UNL     1      -8.546  12.747  68.567  1.00  0.00    -0.048 C  
HETATM    2  C   UNL     1      -8.480  11.940  67.396  1.00  0.00    -0.166 C  
HETATM    3  C   UNL     1      -7.466  13.049  67.332  1.00  0.00    -0.136 C  
HETATM    4  C   UNL     1      -7.278  13.903  69.166  1.00  0.00    -0.038 C  
HETATM    5  O   UNL     1      -6.366  14.755  69.867  1.00  0.00    -0.135 OA 
HETATM    6  C   UNL     1      -6.672  12.697  68.909  1.00  0.00    -0.098 C  
HETATM    7  C   UNL     1      -5.477  13.782  68.022  1.00  0.00    -0.115 C  
HETATM    8  C   UNL     1      -6.149  11.654  69.831  1.00  0.00    -0.147 C  
HETATM    9  H   UNL     1      -6.277  15.154  70.725  1.00  0.00     0.000 HD 
HETATM   10  C   UNL     1      -6.217  15.320  67.498  1.00  0.00    -0.102 C  
HETATM   11  C   UNL     1      -7.902  15.537  67.299  1.00  0.00    -0.236 C  
HETATM   12  C   UNL     1      -8.458  16.958  67.149  1.00  0.00    -0.218 A  
HETATM   13  C   UNL     1      -7.616  18.009  66.740  1.00  0.00    -0.247 A  
HETATM   14  C   UNL     1      -8.130  19.265  66.396  1.00  0.00    -0.327 A  
HETATM   15  C   UNL     1      -9.496  19.486  66.468  1.00  0.00    -0.375 A  
HETATM   16  C   UNL     1     -10.353  18.468  66.859  1.00  0.00    -0.431 A  
HETATM   17  O   UNL     1     -10.046  20.690  66.140  1.00  0.00    -0.508 OA 
HETATM   18  C   UNL     1      -9.857  17.186  67.168  1.00  0.00    -0.271 A  
HETATM   19  H   UNL     1     -10.982  20.842  66.189  1.00  0.00     0.000 HD 
HETATM   20  C   UNL     1     -10.878  16.116  67.511  1.00  0.00    -0.284 C  
HETATM   21  C   UNL     1     -10.423  14.653  67.294  1.00  0.00    -0.266 C  
HETATM   22  C   UNL     1      -9.097  14.505  68.078  1.00  0.00    -0.185 C  
ENDROOT
BRANCH  21  23
HETATM   23  C   UNL     1     -10.290  14.326  65.792  1.00  0.00    -0.341 C  
BRANCH  23  24
HETATM   24  C   UNL     1     -11.031  15.239  64.834  1.00  0.00    -0.445 C  
BRANCH  24  25
HETATM   25  C   UNL     1     -12.328  14.573  64.350  1.00  0.00    -0.437 C  
BRANCH  25  26
HETATM   26  C   UNL     1     -12.466  13.088  64.729  1.00  0.00    -0.485 C  
BRANCH  26  27
HETATM   27  C   UNL     1     -12.263  12.127  63.558  1.00  0.00    -0.670 C  
BRANCH  27  28
HETATM   28  C   UNL     1     -10.805  11.681  63.434  1.00  0.00    -0.453 C  
BRANCH  28  29
HETATM   29  C   UNL     1     -10.357  10.755  64.566  1.00  0.00    -0.401 C  
BRANCH  29  30
HETATM   30  C   UNL     1      -8.930  10.202  64.427  1.00  0.00    -0.264 C  
BRANCH  30  31
HETATM   31  C   UNL     1      -8.702   8.824  65.031  1.00  0.00    -0.148 C  
BRANCH  31  32
HETATM   32  S   UNL     1      -6.936   8.481  65.323  1.00  0.00    -0.079 S  
HETATM   33  O   UNL     1      -6.385   9.630  66.116  1.00  0.00    -0.066 OA 
BRANCH  32  34
HETATM   34  C   UNL     1      -7.148   7.087  66.476  1.00  0.00    -0.077 C  
BRANCH  34  35
HETATM   35  C   UNL     1      -8.614   6.701  66.640  1.00  0.00    -0.123 C  
BRANCH  35  36
HETATM   36  C   UNL     1      -9.062   6.803  68.097  1.00  0.00    -0.123 C  
BRANCH  36  37
HETATM   37  C   UNL     1     -10.425   7.470  68.266  1.00  0.00    -0.180 C  
HETATM   38  F   UNL     1     -11.106   7.363  67.088  1.00  0.00    -0.385 F  
HETATM   39  C   UNL     1     -10.361   8.933  68.728  1.00  0.00    -0.211 C  
HETATM   40  F   UNL     1     -11.132   6.721  69.164  1.00  0.00    -0.253 F  
HETATM   41  F   UNL     1      -9.107   9.324  69.040  1.00  0.00    -0.138 F  
HETATM   42  F   UNL     1     -10.824   9.768  67.768  1.00  0.00    -0.285 F  
HETATM   43  F   UNL     1     -11.122   9.147  69.830  1.00  0.00    -0.234 F  
ENDBRANCH  36  37
ENDBRANCH  35  36
ENDBRANCH  34  35
ENDBRANCH  32  34
ENDBRANCH  31  32
ENDBRANCH  30  31
ENDBRANCH  29  30
ENDBRANCH  28  29
ENDBRANCH  27  28
ENDBRANCH  26  27
ENDBRANCH  25  26
ENDBRANCH  24  25
ENDBRANCH  23  24
ENDBRANCH  21  23
TORSDOF 14
ENDMDL
MODEL       88
REMARK 921   NORMALIZED FREE ENERGY PREDICTED BY IDOCK:   -5.50 KCAL/MOL
REMARK 922        TOTAL FREE ENERGY PREDICTED BY IDOCK:  -13.29 KCAL/MOL
REMARK 923 INTER-LIGAND FREE ENERGY PREDICTED BY IDOCK:  -11.14 KCAL/MOL
REMARK 924 INTRA-LIGAND FREE ENERGY PREDICTED BY IDOCK:   -2.15 KCAL/MOL
REMARK 927      BINDING AFFINITY PREDICTED BY RF-SCORE:    0.00 PKD
ROOT
HETATM    1  C   UNL     1     -11.457  10.877  67.867  1.00  0.00    -0.344 C  
HETATM    2  C   UNL     1     -10.704  11.379  68.966  1.00  0.00    -0.245 C  
HETATM    3  C   UNL     1      -9.878  11.390  67.708  1.00  0.00    -0.186 C  
HETATM    4  C   UNL     1     -11.086  11.094  66.102  1.00  0.00    -0.085 C  
HETATM    5  O   UNL     1     -11.042  11.256  64.680  1.00  0.00    -0.264 OA 
HETATM    6  C   UNL     1     -11.042  12.328  66.704  1.00  0.00    -0.344 C  
HETATM    7  C   UNL     1      -9.449  12.432  65.784  1.00  0.00    -0.094 C  
HETATM    8  C   UNL     1     -11.984  13.476  66.640  1.00  0.00    -0.452 C  
HETATM    9  H   UNL     1     -11.606  11.118  63.928  1.00  0.00     0.000 HD 
HETATM   10  C   UNL     1      -8.763  10.821  65.433  1.00  0.00    -0.190 C  
HETATM   11  C   UNL     1      -9.171   9.409  66.310  1.00  0.00    -0.229 C  
HETATM   12  C   UNL     1      -8.773   8.040  65.745  1.00  0.00    -0.175 A  
HETATM   13  C   UNL     1      -7.738   7.938  64.796  1.00  0.00    -0.118 A  
HETATM   14  C   UNL     1      -7.214   6.697  64.418  1.00  0.00    -0.069 A  
HETATM   15  C   UNL     1      -7.730   5.540  64.979  1.00  0.00    -0.093 A  
HETATM   16  C   UNL     1      -8.744   5.608  65.923  1.00  0.00    -0.147 A  
HETATM   17  O   UNL     1      -7.251   4.307  64.647  1.00  0.00    -0.066 OA 
HETATM   18  C   UNL     1      -9.254   6.850  66.346  1.00  0.00    -0.186 A  
HETATM   19  H   UNL     1      -7.604   3.513  65.031  1.00  0.00     0.000 HD 
HETATM   20  C   UNL     1     -10.308   6.827  67.439  1.00  0.00    -0.286 C  
HETATM   21  C   UNL     1     -10.444   8.123  68.274  1.00  0.00    -0.210 C  
HETATM   22  C   UNL     1     -10.653   9.263  67.249  1.00  0.00    -0.303 C  
ENDROOT
BRANCH  21  23
HETATM   23  C   UNL     1      -9.218   8.332  69.186  1.00  0.00    -0.151 C  
BRANCH  23  24
HETATM   24  C   UNL     1      -9.469   8.267  70.682  1.00  0.00    -0.181 C  
BRANCH  24  25
HETATM   25  C   UNL     1     -10.362   7.065  71.025  1.00  0.00    -0.216 C  
BRANCH  25  26
HETATM   26  C   UNL     1     -11.835   7.419  71.297  1.00  0.00    -0.330 C  
BRANCH  26  27
HETATM   27  C   UNL     1     -12.025   8.601  72.248  1.00  0.00    -0.438 C  
BRANCH  27  28
HETATM   28  C   UNL     1     -12.067   9.932  71.496  1.00  0.00    -0.496 C  
BRANCH  28  29
HETATM   29  C   UNL     1     -13.242  10.822  71.905  1.00  0.00    -0.524 C  
BRANCH  29  30
HETATM   30  C   UNL     1     -13.144  12.283  71.438  1.00  0.00    -0.285 C  
BRANCH  30  31
HETATM   31  C   UNL     1     -13.816  13.304  72.345  1.00  0.00    -0.529 C  
BRANCH  31  32
HETATM   32  S   UNL     1     -13.514  15.017  71.800  1.00  0.00    -0.456 S  
HETATM   33  O   UNL     1     -12.730  15.697  72.885  1.00  0.00    -0.370 OA 
BRANCH  32  34
HETATM   34  C   UNL     1     -12.347  14.640  70.453  1.00  0.00    -0.339 C  
BRANCH  34  35
HETATM   35  C   UNL     1     -12.126  15.840  69.538  1.00  0.00    -0.261 C  
BRANCH  35  36
HETATM   36  C   UNL     1     -10.747  16.461  69.751  1.00  0.00    -0.324 C  
BRANCH  36  37
HETATM   37  C   UNL     1     -10.203  17.168  68.512  1.00  0.00    -0.346 C  
HETATM   38  F   UNL     1      -9.110  16.483  68.069  1.00  0.00    -0.198 F  
HETATM   39  C   UNL     1      -9.867  18.652  68.726  1.00  0.00    -0.379 C  
HETATM   40  F   UNL     1     -11.141  17.033  67.527  1.00  0.00    -0.291 F  
HETATM   41  F   UNL     1     -10.249  19.101  69.941  1.00  0.00    -0.159 F  
HETATM   42  F   UNL     1      -8.537  18.872  68.607  1.00  0.00    -0.344 F  
HETATM   43  F   UNL     1     -10.476  19.444  67.809  1.00  0.00    -0.434 F  
ENDBRANCH  36  37
ENDBRANCH  35  36
ENDBRANCH  34  35
ENDBRANCH  32  34
ENDBRANCH  31  32
ENDBRANCH  30  31
ENDBRANCH  29  30
ENDBRANCH  28  29
ENDBRANCH  27  28
ENDBRANCH  26  27
ENDBRANCH  25  26
ENDBRANCH  24  25
ENDBRANCH  23  24
ENDBRANCH  21  23
TORSDOF 14
ENDMDL
MODEL       89
REMARK 921   NORMALIZED FREE ENERGY PREDICTED BY IDOCK:   -5.49 KCAL/MOL
REMARK 922        TOTAL FREE ENERGY PREDICTED BY IDOCK:  -13.28 KCAL/MOL
REMARK 923 INTER-LIGAND FREE ENERGY PREDICTED BY IDOCK:   -8.95 KCAL/MOL
REMARK 924 INTRA-LIGAND FREE ENERGY PREDICTED BY IDOCK:   -4.33 KCAL/MOL
REMARK 927      BINDING AFFINITY PREDICTED BY RF-SCORE:    0.00 PKD
ROOT
HETATM    1  C   UNL     1     -10.876   9.313  67.901  1.00  0.00    -0.181 C  
HETATM    2  C   UNL     1     -10.212  10.399  68.538  1.00  0.00    -0.191 C  
HETATM    3  C   UNL     1      -9.229   9.324  68.159  1.00  0.00    -0.136 C  
HETATM    4  C   UNL     1     -10.114   8.014  66.884  1.00  0.00    -0.292 C  
HETATM    5  O   UNL     1      -9.733   6.989  65.960  1.00  0.00    -0.405 OA 
HETATM    6  C   UNL     1      -9.682   9.232  66.419  1.00  0.00    -0.325 C  
HETATM    7  C   UNL     1      -8.044   8.395  66.515  1.00  0.00    -0.101 C  
HETATM    8  C   UNL     1     -10.033   9.984  65.185  1.00  0.00    -0.350 C  
HETATM    9  H   UNL     1     -10.147   6.376  65.363  1.00  0.00     0.000 HD 
HETATM   10  C   UNL     1      -8.031   7.065  67.706  1.00  0.00    -0.114 C  
HETATM   11  C   UNL     1      -9.147   6.943  68.997  1.00  0.00    -0.138 C  
HETATM   12  C   UNL     1      -9.251   5.623  69.771  1.00  0.00    -0.165 A  
HETATM   13  C   UNL     1      -8.188   4.700  69.743  1.00  0.00    -0.069 A  
HETATM   14  C   UNL     1      -8.162   3.591  70.595  1.00  0.00    -0.074 A  
HETATM   15  C   UNL     1      -9.208   3.387  71.481  1.00  0.00    -0.123 A  
HETATM   16  C   UNL     1     -10.265   4.283  71.539  1.00  0.00    -0.138 A  
HETATM   17  O   UNL     1      -9.227   2.323  72.335  1.00  0.00    -0.077 OA 
HETATM   18  C   UNL     1     -10.286   5.427  70.718  1.00  0.00    -0.322 A  
HETATM   19  H   UNL     1      -9.944   2.183  72.942  1.00  0.00     0.000 HD 
HETATM   20  C   UNL     1     -11.446   6.390  70.907  1.00  0.00    -0.406 C  
HETATM   21  C   UNL     1     -11.192   7.849  70.457  1.00  0.00    -0.259 C  
HETATM   22  C   UNL     1     -10.708   7.758  68.990  1.00  0.00    -0.119 C  
ENDROOT
BRANCH  21  23
HETATM   23  C   UNL     1     -10.192   8.557  71.393  1.00  0.00    -0.303 C  
BRANCH  23  24
HETATM   24  C   UNL     1     -10.049   7.982  72.790  1.00  0.00    -0.378 C  
BRANCH  24  25
HETATM   25  C   UNL     1      -8.588   8.063  73.259  1.00  0.00    -0.297 C  
BRANCH  25  26
HETATM   26  C   UNL     1      -7.693   6.913  72.767  1.00  0.00    -0.093 C  
BRANCH  26  27
HETATM   27  C   UNL     1      -6.650   7.335  71.732  1.00  0.00    -0.047 C  
BRANCH  27  28
HETATM   28  C   UNL     1      -6.529   8.857  71.636  1.00  0.00    -0.076 C  
BRANCH  28  29
HETATM   29  C   UNL     1      -6.362   9.362  70.201  1.00  0.00    -0.058 C  
BRANCH  29  30
HETATM   30  C   UNL     1      -6.054  10.862  70.073  1.00  0.00    -0.121 C  
BRANCH  30  31
HETATM   31  C   UNL     1      -6.804  11.589  68.966  1.00  0.00    -0.107 C  
BRANCH  31  32
HETATM   32  S   UNL     1      -5.913  13.069  68.384  1.00  0.00    -0.086 S  
HETATM   33  O   UNL     1      -5.505  12.812  66.963  1.00  0.00    -0.344 OA 
BRANCH  32  34
HETATM   34  C   UNL     1      -7.336  14.205  68.337  1.00  0.00    -0.115 C  
BRANCH  34  35
HETATM   35  C   UNL     1      -8.553  13.566  67.677  1.00  0.00    -0.185 C  
BRANCH  35  36
HETATM   36  C   UNL     1      -9.486  14.619  67.081  1.00  0.00    -0.234 C  
BRANCH  36  37
HETATM   37  C   UNL     1     -10.413  14.065  66.002  1.00  0.00    -0.304 C  
HETATM   38  F   UNL     1     -10.618  15.038  65.068  1.00  0.00    -0.341 F  
HETATM   39  C   UNL     1     -11.751  13.528  66.532  1.00  0.00    -0.371 C  
HETATM   40  F   UNL     1      -9.730  13.076  65.352  1.00  0.00    -0.247 F  
HETATM   41  F   UNL     1     -11.807  13.512  67.881  1.00  0.00    -0.330 F  
HETATM   42  F   UNL     1     -12.788  14.276  66.087  1.00  0.00    -0.488 F  
HETATM   43  F   UNL     1     -11.983  12.257  66.118  1.00  0.00    -0.441 F  
ENDBRANCH  36  37
ENDBRANCH  35  36
ENDBRANCH  34  35
ENDBRANCH  32  34
ENDBRANCH  31  32
ENDBRANCH  30  31
ENDBRANCH  29  30
ENDBRANCH  28  29
ENDBRANCH  27  28
ENDBRANCH  26  27
ENDBRANCH  25  26
ENDBRANCH  24  25
ENDBRANCH  23  24
ENDBRANCH  21  23
TORSDOF 14
ENDMDL
MODEL       90
REMARK 921   NORMALIZED FREE ENERGY PREDICTED BY IDOCK:   -5.49 KCAL/MOL
REMARK 922        TOTAL FREE ENERGY PREDICTED BY IDOCK:  -13.27 KCAL/MOL
REMARK 923 INTER-LIGAND FREE ENERGY PREDICTED BY IDOCK:  -10.33 KCAL/MOL
REMARK 924 INTRA-LIGAND FREE ENERGY PREDICTED BY IDOCK:   -2.95 KCAL/MOL
REMARK 927      BINDING AFFINITY PREDICTED BY RF-SCORE:    0.00 PKD
ROOT
HETATM    1  C   UNL     1     -11.269   8.306  70.580  1.00  0.00    -0.247 C  
HETATM    2  C   UNL     1     -10.126   8.469  71.412  1.00  0.00    -0.302 C  
HETATM    3  C   UNL     1     -10.735   9.804  71.080  1.00  0.00    -0.342 C  
HETATM    4  C   UNL     1     -12.580   9.528  70.277  1.00  0.00     0.362 C  
HETATM    5  O   UNL     1     -13.763  10.291  70.011  1.00  0.00    -0.261 OA 
HETATM    6  C   UNL     1     -12.404   9.416  71.634  1.00  0.00    -0.465 C  
HETATM    7  C   UNL     1     -12.371  11.254  71.519  1.00  0.00    -0.222 C  
HETATM    8  C   UNL     1     -13.249   8.777  72.677  1.00  0.00    -0.331 C  
HETATM    9  H   UNL     1     -14.625  10.162  69.636  1.00  0.00     0.000 HD 
HETATM   10  C   UNL     1     -11.867  11.823  69.903  1.00  0.00    -0.423 C  
HETATM   11  C   UNL     1     -10.975  10.867  68.801  1.00  0.00    -0.285 C  
HETATM   12  C   UNL     1     -10.859  11.322  67.341  1.00  0.00    -0.311 A  
HETATM   13  C   UNL     1     -11.077  12.671  67.001  1.00  0.00    -0.322 A  
HETATM   14  C   UNL     1     -10.780  13.158  65.723  1.00  0.00    -0.292 A  
HETATM   15  C   UNL     1     -10.269  12.296  64.766  1.00  0.00    -0.282 A  
HETATM   16  C   UNL     1     -10.034  10.964  65.074  1.00  0.00    -0.356 A  
HETATM   17  O   UNL     1      -9.959  12.723  63.509  1.00  0.00    -0.673 OA 
HETATM   18  C   UNL     1     -10.288  10.467  66.366  1.00  0.00    -0.278 A  
HETATM   19  H   UNL     1      -9.609  12.133  62.852  1.00  0.00     0.000 HD 
HETATM   20  C   UNL     1      -9.927   9.015  66.630  1.00  0.00    -0.349 C  
HETATM   21  C   UNL     1      -9.669   8.641  68.110  1.00  0.00    -0.178 C  
HETATM   22  C   UNL     1     -10.923   9.109  68.886  1.00  0.00    -0.016 C  
ENDROOT
BRANCH  21  23
HETATM   23  C   UNL     1      -8.357   9.268  68.624  1.00  0.00    -0.118 C  
BRANCH  23  24
HETATM   24  C   UNL     1      -7.181   8.325  68.802  1.00  0.00    -0.079 C  
BRANCH  24  25
HETATM   25  C   UNL     1      -6.710   7.790  67.440  1.00  0.00    -0.068 C  
BRANCH  25  26
HETATM   26  C   UNL     1      -5.741   8.719  66.688  1.00  0.00    -0.047 C  
BRANCH  26  27
HETATM   27  C   UNL     1      -6.275   9.221  65.347  1.00  0.00    -0.064 C  
BRANCH  27  28
HETATM   28  C   UNL     1      -6.763  10.668  65.437  1.00  0.00    -0.019 C  
BRANCH  28  29
HETATM   29  C   UNL     1      -6.027  11.491  66.496  1.00  0.00    -0.101 C  
BRANCH  29  30
HETATM   30  C   UNL     1      -6.911  12.026  67.634  1.00  0.00    -0.118 C  
BRANCH  30  31
HETATM   31  C   UNL     1      -7.617  13.343  67.347  1.00  0.00    -0.128 C  
BRANCH  31  32
HETATM   32  S   UNL     1      -6.933  14.721  68.323  1.00  0.00    -0.132 S  
HETATM   33  O   UNL     1      -5.824  15.330  67.515  1.00  0.00    -0.293 OA 
BRANCH  32  34
HETATM   34  C   UNL     1      -8.364  15.841  68.198  1.00  0.00    -0.160 C  
BRANCH  34  35
HETATM   35  C   UNL     1      -8.081  17.029  67.286  1.00  0.00    -0.203 C  
BRANCH  35  36
HETATM   36  C   UNL     1      -8.299  18.357  68.008  1.00  0.00    -0.287 C  
BRANCH  36  37
HETATM   37  C   UNL     1      -8.535  19.530  67.060  1.00  0.00    -0.296 C  
HETATM   38  F   UNL     1      -7.653  20.522  67.374  1.00  0.00    -0.321 F  
HETATM   39  C   UNL     1      -9.976  20.062  67.058  1.00  0.00    -0.445 C  
HETATM   40  F   UNL     1      -8.183  19.113  65.807  1.00  0.00    -0.276 F  
HETATM   41  F   UNL     1     -10.812  19.300  67.795  1.00  0.00    -0.494 F  
HETATM   42  F   UNL     1     -10.031  21.323  67.549  1.00  0.00    -0.568 F  
HETATM   43  F   UNL     1     -10.494  20.110  65.805  1.00  0.00    -0.536 F  
ENDBRANCH  36  37
ENDBRANCH  35  36
ENDBRANCH  34  35
ENDBRANCH  32  34
ENDBRANCH  31  32
ENDBRANCH  30  31
ENDBRANCH  29  30
ENDBRANCH  28  29
ENDBRANCH  27  28
ENDBRANCH  26  27
ENDBRANCH  25  26
ENDBRANCH  24  25
ENDBRANCH  23  24
ENDBRANCH  21  23
TORSDOF 14
ENDMDL
MODEL       91
REMARK 921   NORMALIZED FREE ENERGY PREDICTED BY IDOCK:   -5.49 KCAL/MOL
REMARK 922        TOTAL FREE ENERGY PREDICTED BY IDOCK:  -13.27 KCAL/MOL
REMARK 923 INTER-LIGAND FREE ENERGY PREDICTED BY IDOCK:  -11.23 KCAL/MOL
REMARK 924 INTRA-LIGAND FREE ENERGY PREDICTED BY IDOCK:   -2.04 KCAL/MOL
REMARK 927      BINDING AFFINITY PREDICTED BY RF-SCORE:    0.00 PKD
ROOT
HETATM    1  C   UNL     1      -9.180   7.541  65.938  1.00  0.00    -0.034 C  
HETATM    2  C   UNL     1      -7.802   7.831  66.146  1.00  0.00    -0.095 C  
HETATM    3  C   UNL     1      -8.274   6.780  67.113  1.00  0.00    -0.121 C  
HETATM    4  C   UNL     1     -10.086   6.077  66.520  1.00  0.00    -0.137 C  
HETATM    5  O   UNL     1     -10.940   4.956  66.772  1.00  0.00    -0.270 OA 
HETATM    6  C   UNL     1      -8.947   5.651  65.882  1.00  0.00    -0.160 C  
HETATM    7  C   UNL     1      -8.788   4.630  67.407  1.00  0.00    -0.110 C  
HETATM    8  C   UNL     1      -8.758   5.000  64.559  1.00  0.00    -0.132 C  
HETATM    9  H   UNL     1     -11.786   4.627  66.495  1.00  0.00     0.000 HD 
HETATM   10  C   UNL     1      -9.641   5.353  68.799  1.00  0.00    -0.182 C  
HETATM   11  C   UNL     1     -10.043   7.012  68.902  1.00  0.00    -0.174 C  
HETATM   12  C   UNL     1     -11.034   7.474  69.977  1.00  0.00    -0.252 A  
HETATM   13  C   UNL     1     -11.266   6.679  71.115  1.00  0.00    -0.340 A  
HETATM   14  C   UNL     1     -11.999   7.161  72.205  1.00  0.00    -0.304 A  
HETATM   15  C   UNL     1     -12.518   8.445  72.164  1.00  0.00    -0.370 A  
HETATM   16  C   UNL     1     -12.299   9.256  71.060  1.00  0.00    -0.300 A  
HETATM   17  O   UNL     1     -13.236   8.962  73.201  1.00  0.00    -0.867 OA 
HETATM   18  C   UNL     1     -11.528   8.802  69.973  1.00  0.00     0.047 A  
HETATM   19  H   UNL     1     -13.592   9.842  73.174  1.00  0.00     0.000 HD 
HETATM   20  C   UNL     1     -11.278   9.789  68.845  1.00  0.00    -0.076 C  
HETATM   21  C   UNL     1     -10.027   9.518  67.975  1.00  0.00    -0.198 C  
HETATM   22  C   UNL     1     -10.162   8.056  67.488  1.00  0.00    -0.311 C  
ENDROOT
BRANCH  21  23
HETATM   23  C   UNL     1      -8.729   9.786  68.764  1.00  0.00    -0.128 C  
BRANCH  23  24
HETATM   24  C   UNL     1      -8.019  11.095  68.473  1.00  0.00    -0.143 C  
BRANCH  24  25
HETATM   25  C   UNL     1      -7.724  11.224  66.970  1.00  0.00    -0.147 C  
BRANCH  25  26
HETATM   26  C   UNL     1      -8.914  11.706  66.123  1.00  0.00    -0.180 C  
BRANCH  26  27
HETATM   27  C   UNL     1      -9.114  10.920  64.827  1.00  0.00    -0.197 C  
BRANCH  27  28
HETATM   28  C   UNL     1      -9.685  11.798  63.713  1.00  0.00    -0.255 C  
BRANCH  28  29
HETATM   29  C   UNL     1     -11.203  11.677  63.564  1.00  0.00    -0.462 C  
BRANCH  29  30
HETATM   30  C   UNL     1     -12.022  12.496  64.574  1.00  0.00    -0.472 C  
BRANCH  30  31
HETATM   31  C   UNL     1     -12.037  13.999  64.335  1.00  0.00    -0.458 C  
BRANCH  31  32
HETATM   32  S   UNL     1     -10.856  14.881  65.407  1.00  0.00    -0.396 S  
HETATM   33  O   UNL     1     -10.743  16.283  64.884  1.00  0.00    -0.646 OA 
BRANCH  32  34
HETATM   34  C   UNL     1     -11.892  14.950  66.903  1.00  0.00    -0.187 C  
BRANCH  34  35
HETATM   35  C   UNL     1     -11.196  15.681  68.045  1.00  0.00    -0.339 C  
BRANCH  35  36
HETATM   36  C   UNL     1     -12.069  15.727  69.298  1.00  0.00    -0.226 C  
BRANCH  36  37
HETATM   37  C   UNL     1     -11.472  14.965  70.480  1.00  0.00    -0.262 C  
HETATM   38  F   UNL     1     -11.426  13.639  70.159  1.00  0.00    -0.303 F  
HETATM   39  C   UNL     1     -12.211  15.180  71.809  1.00  0.00    -0.355 C  
HETATM   40  F   UNL     1     -10.168  15.356  70.595  1.00  0.00    -0.297 F  
HETATM   41  F   UNL     1     -13.175  16.121  71.721  1.00  0.00    -0.482 F  
HETATM   42  F   UNL     1     -12.793  14.034  72.234  1.00  0.00    -0.393 F  
HETATM   43  F   UNL     1     -11.368  15.576  72.796  1.00  0.00    -0.517 F  
ENDBRANCH  36  37
ENDBRANCH  35  36
ENDBRANCH  34  35
ENDBRANCH  32  34
ENDBRANCH  31  32
ENDBRANCH  30  31
ENDBRANCH  29  30
ENDBRANCH  28  29
ENDBRANCH  27  28
ENDBRANCH  26  27
ENDBRANCH  25  26
ENDBRANCH  24  25
ENDBRANCH  23  24
ENDBRANCH  21  23
TORSDOF 14
ENDMDL
MODEL       92
REMARK 921   NORMALIZED FREE ENERGY PREDICTED BY IDOCK:   -5.48 KCAL/MOL
REMARK 922        TOTAL FREE ENERGY PREDICTED BY IDOCK:  -13.27 KCAL/MOL
REMARK 923 INTER-LIGAND FREE ENERGY PREDICTED BY IDOCK:  -10.91 KCAL/MOL
REMARK 924 INTRA-LIGAND FREE ENERGY PREDICTED BY IDOCK:   -2.36 KCAL/MOL
REMARK 927      BINDING AFFINITY PREDICTED BY RF-SCORE:    0.00 PKD
ROOT
HETATM    1  C   UNL     1      -6.951  10.502  66.983  1.00  0.00    -0.089 C  
HETATM    2  C   UNL     1      -7.704  11.520  66.332  1.00  0.00     0.003 C  
HETATM    3  C   UNL     1      -8.600  10.657  67.179  1.00  0.00    -0.127 C  
HETATM    4  C   UNL     1      -7.467   9.514  68.419  1.00  0.00    -0.077 C  
HETATM    5  O   UNL     1      -7.629   8.731  69.607  1.00  0.00    -0.072 OA 
HETATM    6  C   UNL     1      -7.676  10.840  68.714  1.00  0.00    -0.121 C  
HETATM    7  C   UNL     1      -9.320  10.196  69.238  1.00  0.00    -0.227 C  
HETATM    8  C   UNL     1      -6.942  11.762  69.620  1.00  0.00     0.094 C  
HETATM    9  H   UNL     1      -7.100   8.197  70.187  1.00  0.00     0.000 HD 
HETATM   10  C   UNL     1      -9.752   8.678  68.404  1.00  0.00    -0.176 C  
HETATM   11  C   UNL     1      -9.060   8.187  66.918  1.00  0.00    -0.185 C  
HETATM   12  C   UNL     1      -9.261   6.743  66.443  1.00  0.00    -0.185 A  
HETATM   13  C   UNL     1     -10.324   5.972  66.949  1.00  0.00    -0.303 A  
HETATM   14  C   UNL     1     -10.659   4.734  66.390  1.00  0.00    -0.203 A  
HETATM   15  C   UNL     1      -9.924   4.248  65.321  1.00  0.00    -0.219 A  
HETATM   16  C   UNL     1      -8.876   4.988  64.794  1.00  0.00    -0.128 A  
HETATM   17  O   UNL     1     -10.212   3.049  64.738  1.00  0.00    -0.377 OA 
HETATM   18  C   UNL     1      -8.552   6.254  65.317  1.00  0.00    -0.068 A  
HETATM   19  H   UNL     1      -9.709   2.715  64.006  1.00  0.00     0.000 HD 
HETATM   20  C   UNL     1      -7.440   7.023  64.625  1.00  0.00    -0.098 C  
HETATM   21  C   UNL     1      -7.466   8.560  64.807  1.00  0.00    -0.095 C  
HETATM   22  C   UNL     1      -7.516   8.801  66.334  1.00  0.00    -0.087 C  
ENDROOT
BRANCH  21  23
HETATM   23  C   UNL     1      -8.648   9.193  64.045  1.00  0.00    -0.186 C  
BRANCH  23  24
HETATM   24  C   UNL     1      -8.298  10.243  63.007  1.00  0.00    -0.170 C  
BRANCH  24  25
HETATM   25  C   UNL     1      -9.513  11.135  62.713  1.00  0.00    -0.357 C  
BRANCH  25  26
HETATM   26  C   UNL     1     -10.523  11.244  63.869  1.00  0.00    -0.452 C  
BRANCH  26  27
HETATM   27  C   UNL     1     -11.320  12.549  63.878  1.00  0.00    -0.504 C  
BRANCH  27  28
HETATM   28  C   UNL     1     -12.496  12.488  64.854  1.00  0.00    -0.524 C  
BRANCH  28  29
HETATM   29  C   UNL     1     -12.141  12.973  66.261  1.00  0.00    -0.453 C  
BRANCH  29  30
HETATM   30  C   UNL     1     -10.973  13.969  66.330  1.00  0.00    -0.300 C  
BRANCH  30  31
HETATM   31  C   UNL     1     -10.123  13.892  67.590  1.00  0.00    -0.241 C  
BRANCH  31  32
HETATM   32  S   UNL     1      -9.130  15.399  67.846  1.00  0.00    -0.179 S  
HETATM   33  O   UNL     1      -8.760  15.924  66.490  1.00  0.00    -0.257 OA 
BRANCH  32  34
HETATM   34  C   UNL     1     -10.464  16.461  68.487  1.00  0.00    -0.291 C  
BRANCH  34  35
HETATM   35  C   UNL     1     -11.491  15.667  69.286  1.00  0.00    -0.368 C  
BRANCH  35  36
HETATM   36  C   UNL     1     -11.505  16.085  70.755  1.00  0.00    -0.444 C  
BRANCH  36  37
HETATM   37  C   UNL     1     -12.537  15.329  71.589  1.00  0.00    -0.375 C  
HETATM   38  F   UNL     1     -13.762  15.493  71.012  1.00  0.00    -0.525 F  
HETATM   39  C   UNL     1     -12.573  15.734  73.070  1.00  0.00    -0.483 C  
HETATM   40  F   UNL     1     -12.255  13.997  71.470  1.00  0.00    -0.381 F  
HETATM   41  F   UNL     1     -11.582  16.590  73.399  1.00  0.00    -0.428 F  
HETATM   42  F   UNL     1     -13.748  16.328  73.385  1.00  0.00    -0.662 F  
HETATM   43  F   UNL     1     -12.448  14.660  73.890  1.00  0.00    -0.586 F  
ENDBRANCH  36  37
ENDBRANCH  35  36
ENDBRANCH  34  35
ENDBRANCH  32  34
ENDBRANCH  31  32
ENDBRANCH  30  31
ENDBRANCH  29  30
ENDBRANCH  28  29
ENDBRANCH  27  28
ENDBRANCH  26  27
ENDBRANCH  25  26
ENDBRANCH  24  25
ENDBRANCH  23  24
ENDBRANCH  21  23
TORSDOF 14
ENDMDL
MODEL       93
REMARK 921   NORMALIZED FREE ENERGY PREDICTED BY IDOCK:   -5.47 KCAL/MOL
REMARK 922        TOTAL FREE ENERGY PREDICTED BY IDOCK:  -13.24 KCAL/MOL
REMARK 923 INTER-LIGAND FREE ENERGY PREDICTED BY IDOCK:   -9.35 KCAL/MOL
REMARK 924 INTRA-LIGAND FREE ENERGY PREDICTED BY IDOCK:   -3.89 KCAL/MOL
REMARK 927      BINDING AFFINITY PREDICTED BY RF-SCORE:    0.00 PKD
ROOT
HETATM    1  C   UNL     1     -11.402  12.010  66.893  1.00  0.00    -0.400 C  
HETATM    2  C   UNL     1     -10.467  12.865  67.540  1.00  0.00    -0.226 C  
HETATM    3  C   UNL     1     -10.068  12.632  66.108  1.00  0.00    -0.268 C  
HETATM    4  C   UNL     1     -11.618  11.788  65.102  1.00  0.00    -0.145 C  
HETATM    5  O   UNL     1     -12.029  11.569  63.748  1.00  0.00    -0.456 OA 
HETATM    6  C   UNL     1     -11.633  13.135  65.371  1.00  0.00    -0.362 C  
HETATM    7  C   UNL     1     -10.434  13.163  63.974  1.00  0.00    -0.258 C  
HETATM    8  C   UNL     1     -12.751  14.114  65.379  1.00  0.00    -0.453 C  
HETATM    9  H   UNL     1     -12.754  11.175  63.277  1.00  0.00     0.000 HD 
HETATM   10  C   UNL     1      -9.590  11.603  63.772  1.00  0.00    -0.210 C  
HETATM   11  C   UNL     1      -9.444  10.440  65.018  1.00  0.00    -0.308 C  
HETATM   12  C   UNL     1      -8.980   9.022  64.664  1.00  0.00    -0.112 A  
HETATM   13  C   UNL     1      -8.273   8.785  63.471  1.00  0.00    -0.164 A  
HETATM   14  C   UNL     1      -7.659   7.554  63.218  1.00  0.00    -0.118 A  
HETATM   15  C   UNL     1      -7.756   6.538  64.156  1.00  0.00    -0.105 A  
HETATM   16  C   UNL     1      -8.439   6.743  65.346  1.00  0.00    -0.102 A  
HETATM   17  O   UNL     1      -7.173   5.321  63.959  1.00  0.00    -0.048 OA 
HETATM   18  C   UNL     1      -9.026   7.990  65.635  1.00  0.00    -0.102 A  
HETATM   19  H   UNL     1      -7.239   4.625  64.601  1.00  0.00     0.000 HD 
HETATM   20  C   UNL     1      -9.685   8.144  66.995  1.00  0.00    -0.275 C  
HETATM   21  C   UNL     1      -9.811   9.592  67.524  1.00  0.00    -0.213 C  
HETATM   22  C   UNL     1     -10.526  10.388  66.407  1.00  0.00    -0.246 C  
ENDROOT
BRANCH  21  23
HETATM   23  C   UNL     1      -8.432  10.170  67.906  1.00  0.00    -0.118 C  
BRANCH  23  24
HETATM   24  C   UNL     1      -8.263  10.620  69.346  1.00  0.00    -0.089 C  
BRANCH  24  25
HETATM   25  C   UNL     1      -8.536   9.455  70.309  1.00  0.00    -0.249 C  
BRANCH  25  26
HETATM   26  C   UNL     1      -7.651   8.217  70.085  1.00  0.00    -0.077 C  
BRANCH  26  27
HETATM   27  C   UNL     1      -8.256   6.915  70.611  1.00  0.00    -0.120 C  
BRANCH  27  28
HETATM   28  C   UNL     1      -8.485   5.902  69.488  1.00  0.00    -0.114 C  
BRANCH  28  29
HETATM   29  C   UNL     1      -9.635   4.933  69.772  1.00  0.00    -0.243 C  
BRANCH  29  30
HETATM   30  C   UNL     1      -9.335   3.863  70.834  1.00  0.00    -0.222 C  
BRANCH  30  31
HETATM   31  C   UNL     1     -10.244   3.883  72.054  1.00  0.00    -0.099 C  
BRANCH  31  32
HETATM   32  S   UNL     1      -9.353   4.353  73.573  1.00  0.00    -0.114 S  
HETATM   33  O   UNL     1      -7.916   4.569  73.196  1.00  0.00    -0.093 OA 
BRANCH  32  34
HETATM   34  C   UNL     1     -10.102   5.998  73.794  1.00  0.00    -0.229 C  
BRANCH  34  35
HETATM   35  C   UNL     1     -11.217   6.256  72.787  1.00  0.00    -0.272 C  
BRANCH  35  36
HETATM   36  C   UNL     1     -11.317   7.738  72.427  1.00  0.00    -0.400 C  
BRANCH  36  37
HETATM   37  C   UNL     1     -12.171   8.004  71.189  1.00  0.00    -0.245 C  
HETATM   38  F   UNL     1     -11.375   7.898  70.086  1.00  0.00    -0.265 F  
HETATM   39  C   UNL     1     -12.905   9.353  71.205  1.00  0.00    -0.309 C  
HETATM   40  F   UNL     1     -13.068   6.978  71.090  1.00  0.00    -0.410 F  
HETATM   41  F   UNL     1     -12.774  10.001  72.383  1.00  0.00    -0.413 F  
HETATM   42  F   UNL     1     -12.441  10.172  70.232  1.00  0.00    -0.314 F  
HETATM   43  F   UNL     1     -14.236   9.205  70.988  1.00  0.00    -0.381 F  
ENDBRANCH  36  37
ENDBRANCH  35  36
ENDBRANCH  34  35
ENDBRANCH  32  34
ENDBRANCH  31  32
ENDBRANCH  30  31
ENDBRANCH  29  30
ENDBRANCH  28  29
ENDBRANCH  27  28
ENDBRANCH  26  27
ENDBRANCH  25  26
ENDBRANCH  24  25
ENDBRANCH  23  24
ENDBRANCH  21  23
TORSDOF 14
ENDMDL
MODEL       94
REMARK 921   NORMALIZED FREE ENERGY PREDICTED BY IDOCK:   -5.46 KCAL/MOL
REMARK 922        TOTAL FREE ENERGY PREDICTED BY IDOCK:  -13.23 KCAL/MOL
REMARK 923 INTER-LIGAND FREE ENERGY PREDICTED BY IDOCK:   -9.58 KCAL/MOL
REMARK 924 INTRA-LIGAND FREE ENERGY PREDICTED BY IDOCK:   -3.65 KCAL/MOL
REMARK 927      BINDING AFFINITY PREDICTED BY RF-SCORE:    0.00 PKD
ROOT
HETATM    1  C   UNL     1      -7.666  11.053  66.257  1.00  0.00    -0.132 C  
HETATM    2  C   UNL     1      -6.306  10.800  66.591  1.00  0.00    -0.103 C  
HETATM    3  C   UNL     1      -7.026   9.513  66.288  1.00  0.00    -0.091 C  
HETATM    4  C   UNL     1      -8.807   9.925  65.403  1.00  0.00    -0.168 C  
HETATM    5  O   UNL     1      -9.812   9.246  64.641  1.00  0.00    -0.277 OA 
HETATM    6  C   UNL     1      -7.649   9.998  64.670  1.00  0.00    -0.143 C  
HETATM    7  C   UNL     1      -7.820   8.164  64.700  1.00  0.00    -0.136 C  
HETATM    8  C   UNL     1      -7.356  10.671  63.377  1.00  0.00     0.142 C  
HETATM    9  H   UNL     1     -10.644   9.438  64.227  1.00  0.00     0.000 HD 
HETATM   10  C   UNL     1      -8.767   7.595  66.103  1.00  0.00    -0.176 C  
HETATM   11  C   UNL     1      -8.985   8.513  67.530  1.00  0.00    -0.142 C  
HETATM   12  C   UNL     1     -10.054   8.079  68.540  1.00  0.00    -0.218 A  
HETATM   13  C   UNL     1     -10.531   6.754  68.541  1.00  0.00    -0.234 A  
HETATM   14  C   UNL     1     -11.346   6.273  69.572  1.00  0.00    -0.475 A  
HETATM   15  C   UNL     1     -11.703   7.118  70.610  1.00  0.00    -0.307 A  
HETATM   16  C   UNL     1     -11.241   8.426  70.642  1.00  0.00    -0.275 A  
HETATM   17  O   UNL     1     -12.491   6.696  71.640  1.00  0.00    -0.352 OA 
HETATM   18  C   UNL     1     -10.386   8.914  69.636  1.00  0.00    -0.214 A  
HETATM   19  H   UNL     1     -12.736   7.275  72.352  1.00  0.00     0.000 HD 
HETATM   20  C   UNL     1      -9.871  10.334  69.797  1.00  0.00    -0.201 C  
HETATM   21  C   UNL     1      -8.551  10.662  69.057  1.00  0.00    -0.150 C  
HETATM   22  C   UNL     1      -8.787  10.262  67.581  1.00  0.00    -0.121 C  
ENDROOT
BRANCH  21  23
HETATM   23  C   UNL     1      -7.352   9.941  69.706  1.00  0.00    -0.129 C  
BRANCH  23  24
HETATM   24  C   UNL     1      -6.357  10.816  70.445  1.00  0.00    -0.108 C  
BRANCH  24  25
HETATM   25  C   UNL     1      -5.745  11.857  69.494  1.00  0.00    -0.080 C  
BRANCH  25  26
HETATM   26  C   UNL     1      -6.161  13.310  69.781  1.00  0.00    -0.110 C  
BRANCH  26  27
HETATM   27  C   UNL     1      -7.020  13.939  68.685  1.00  0.00    -0.108 C  
BRANCH  27  28
HETATM   28  C   UNL     1      -6.173  14.713  67.674  1.00  0.00    -0.106 C  
BRANCH  28  29
HETATM   29  C   UNL     1      -6.556  16.190  67.567  1.00  0.00    -0.200 C  
BRANCH  29  30
HETATM   30  C   UNL     1      -7.606  16.664  68.584  1.00  0.00    -0.214 C  
BRANCH  30  31
HETATM   31  C   UNL     1      -8.281  17.989  68.256  1.00  0.00    -0.292 C  
BRANCH  31  32
HETATM   32  S   UNL     1     -10.089  17.822  68.097  1.00  0.00    -0.384 S  
HETATM   33  O   UNL     1     -10.621  19.156  67.660  1.00  0.00    -0.434 OA 
BRANCH  32  34
HETATM   34  C   UNL     1     -10.104  16.734  66.636  1.00  0.00    -0.300 C  
BRANCH  34  35
HETATM   35  C   UNL     1     -10.672  15.357  66.957  1.00  0.00    -0.321 C  
BRANCH  35  36
HETATM   36  C   UNL     1      -9.979  14.261  66.149  1.00  0.00    -0.330 C  
BRANCH  36  37
HETATM   37  C   UNL     1     -10.794  13.788  64.947  1.00  0.00    -0.391 C  
HETATM   38  F   UNL     1     -11.457  14.861  64.427  1.00  0.00    -0.367 F  
HETATM   39  C   UNL     1     -11.768  12.641  65.255  1.00  0.00    -0.378 C  
HETATM   40  F   UNL     1      -9.905  13.407  63.982  1.00  0.00    -0.269 F  
HETATM   41  F   UNL     1     -11.625  12.160  66.508  1.00  0.00    -0.371 F  
HETATM   42  F   UNL     1     -13.053  13.042  65.114  1.00  0.00    -0.522 F  
HETATM   43  F   UNL     1     -11.594  11.592  64.412  1.00  0.00    -0.390 F  
ENDBRANCH  36  37
ENDBRANCH  35  36
ENDBRANCH  34  35
ENDBRANCH  32  34
ENDBRANCH  31  32
ENDBRANCH  30  31
ENDBRANCH  29  30
ENDBRANCH  28  29
ENDBRANCH  27  28
ENDBRANCH  26  27
ENDBRANCH  25  26
ENDBRANCH  24  25
ENDBRANCH  23  24
ENDBRANCH  21  23
TORSDOF 14
ENDMDL
MODEL       95
REMARK 921   NORMALIZED FREE ENERGY PREDICTED BY IDOCK:   -5.46 KCAL/MOL
REMARK 922        TOTAL FREE ENERGY PREDICTED BY IDOCK:  -13.22 KCAL/MOL
REMARK 923 INTER-LIGAND FREE ENERGY PREDICTED BY IDOCK:   -9.76 KCAL/MOL
REMARK 924 INTRA-LIGAND FREE ENERGY PREDICTED BY IDOCK:   -3.47 KCAL/MOL
REMARK 927      BINDING AFFINITY PREDICTED BY RF-SCORE:    0.00 PKD
ROOT
HETATM    1  C   UNL     1      -8.623   4.805  66.238  1.00  0.00    -0.114 C  
HETATM    2  C   UNL     1      -7.298   5.107  65.817  1.00  0.00    -0.077 C  
HETATM    3  C   UNL     1      -7.412   5.195  67.315  1.00  0.00    -0.083 C  
HETATM    4  C   UNL     1      -9.157   4.346  67.914  1.00  0.00    -0.127 C  
HETATM    5  O   UNL     1      -9.755   3.851  69.117  1.00  0.00    -0.176 OA 
HETATM    6  C   UNL     1      -8.094   3.548  67.569  1.00  0.00    -0.081 C  
HETATM    7  C   UNL     1      -7.501   4.065  69.235  1.00  0.00    -0.054 C  
HETATM    8  C   UNL     1      -8.036   2.109  67.201  1.00  0.00    -0.067 C  
HETATM    9  H   UNL     1     -10.571   3.454  69.397  1.00  0.00     0.000 HD 
HETATM   10  C   UNL     1      -8.203   5.624  69.751  1.00  0.00    -0.106 C  
HETATM   11  C   UNL     1      -8.851   6.774  68.663  1.00  0.00    -0.123 C  
HETATM   12  C   UNL     1      -9.700   7.926  69.214  1.00  0.00    -0.159 A  
HETATM   13  C   UNL     1      -9.593   8.302  70.566  1.00  0.00    -0.180 A  
HETATM   14  C   UNL     1     -10.192   9.470  71.049  1.00  0.00    -0.332 A  
HETATM   15  C   UNL     1     -10.916  10.274  70.183  1.00  0.00    -0.314 A  
HETATM   16  C   UNL     1     -11.032   9.936  68.842  1.00  0.00    -0.214 A  
HETATM   17  O   UNL     1     -11.515  11.424  70.603  1.00  0.00    -0.425 OA 
HETATM   18  C   UNL     1     -10.401   8.786  68.331  1.00  0.00    -0.242 A  
HETATM   19  H   UNL     1     -12.011  11.975  70.010  1.00  0.00     0.000 HD 
HETATM   20  C   UNL     1     -10.520   8.540  66.837  1.00  0.00    -0.345 C  
HETATM   21  C   UNL     1      -9.414   7.659  66.207  1.00  0.00    -0.176 C  
HETATM   22  C   UNL     1      -9.389   6.356  67.039  1.00  0.00    -0.143 C  
ENDROOT
BRANCH  21  23
HETATM   23  C   UNL     1      -8.061   8.398  66.178  1.00  0.00    -0.106 C  
BRANCH  23  24
HETATM   24  C   UNL     1      -8.047   9.758  65.505  1.00  0.00    -0.125 C  
BRANCH  24  25
HETATM   25  C   UNL     1      -7.145  10.732  66.278  1.00  0.00    -0.134 C  
BRANCH  25  26
HETATM   26  C   UNL     1      -7.801  11.369  67.515  1.00  0.00    -0.126 C  
BRANCH  26  27
HETATM   27  C   UNL     1      -8.030  12.875  67.392  1.00  0.00    -0.178 C  
BRANCH  27  28
HETATM   28  C   UNL     1      -7.157  13.663  68.370  1.00  0.00    -0.107 C  
BRANCH  28  29
HETATM   29  C   UNL     1      -6.728  15.030  67.833  1.00  0.00    -0.172 C  
BRANCH  29  30
HETATM   30  C   UNL     1      -7.820  15.803  67.076  1.00  0.00    -0.271 C  
BRANCH  30  31
HETATM   31  C   UNL     1      -8.597  16.814  67.907  1.00  0.00    -0.202 C  
BRANCH  31  32
HETATM   32  S   UNL     1     -10.229  17.190  67.187  1.00  0.00    -0.319 S  
HETATM   33  O   UNL     1      -9.991  17.771  65.824  1.00  0.00    -0.545 OA 
BRANCH  32  34
HETATM   34  C   UNL     1     -10.789  15.473  66.948  1.00  0.00    -0.301 C  
BRANCH  34  35
HETATM   35  C   UNL     1     -11.161  15.193  65.496  1.00  0.00    -0.347 C  
BRANCH  35  36
HETATM   36  C   UNL     1     -10.502  13.913  64.984  1.00  0.00    -0.428 C  
BRANCH  36  37
HETATM   37  C   UNL     1     -11.422  12.695  65.036  1.00  0.00    -0.329 C  
HETATM   38  F   UNL     1     -11.083  11.945  66.124  1.00  0.00    -0.311 F  
HETATM   39  C   UNL     1     -11.413  11.841  63.760  1.00  0.00    -0.420 C  
HETATM   40  F   UNL     1     -12.684  13.154  65.289  1.00  0.00    -0.489 F  
HETATM   41  F   UNL     1     -10.696  12.404  62.763  1.00  0.00    -0.254 F  
HETATM   42  F   UNL     1     -10.892  10.615  63.997  1.00  0.00    -0.378 F  
HETATM   43  F   UNL     1     -12.665  11.645  63.276  1.00  0.00    -0.679 F  
ENDBRANCH  36  37
ENDBRANCH  35  36
ENDBRANCH  34  35
ENDBRANCH  32  34
ENDBRANCH  31  32
ENDBRANCH  30  31
ENDBRANCH  29  30
ENDBRANCH  28  29
ENDBRANCH  27  28
ENDBRANCH  26  27
ENDBRANCH  25  26
ENDBRANCH  24  25
ENDBRANCH  23  24
ENDBRANCH  21  23
TORSDOF 14
ENDMDL
MODEL       96
REMARK 921   NORMALIZED FREE ENERGY PREDICTED BY IDOCK:   -5.46 KCAL/MOL
REMARK 922        TOTAL FREE ENERGY PREDICTED BY IDOCK:  -13.21 KCAL/MOL
REMARK 923 INTER-LIGAND FREE ENERGY PREDICTED BY IDOCK:   -9.28 KCAL/MOL
REMARK 924 INTRA-LIGAND FREE ENERGY PREDICTED BY IDOCK:   -3.93 KCAL/MOL
REMARK 927      BINDING AFFINITY PREDICTED BY RF-SCORE:    0.00 PKD
ROOT
HETATM    1  C   UNL     1     -11.581  13.016  66.745  1.00  0.00    -0.420 C  
HETATM    2  C   UNL     1     -10.514  13.859  67.165  1.00  0.00    -0.269 C  
HETATM    3  C   UNL     1     -10.067  12.957  66.048  1.00  0.00    -0.290 C  
HETATM    4  C   UNL     1     -11.689  12.092  65.183  1.00  0.00    -0.310 C  
HETATM    5  O   UNL     1     -12.023  11.399  63.976  1.00  0.00    -0.273 OA 
HETATM    6  C   UNL     1     -11.373  13.396  64.889  1.00  0.00    -0.345 C  
HETATM    7  C   UNL     1     -10.091  12.578  63.851  1.00  0.00    -0.308 C  
HETATM    8  C   UNL     1     -12.191  14.486  64.295  1.00  0.00    -0.441 C  
HETATM    9  H   UNL     1     -12.781  10.995  63.571  1.00  0.00     0.000 HD 
HETATM   10  C   UNL     1      -9.672  10.948  64.449  1.00  0.00    -0.342 C  
HETATM   11  C   UNL     1      -9.948  10.433  66.057  1.00  0.00    -0.301 C  
HETATM   12  C   UNL     1      -9.844   8.940  66.390  1.00  0.00    -0.353 A  
HETATM   13  C   UNL     1      -9.121   8.075  65.547  1.00  0.00     0.010 A  
HETATM   14  C   UNL     1      -8.833   6.759  65.925  1.00  0.00    -0.127 A  
HETATM   15  C   UNL     1      -9.276   6.290  67.151  1.00  0.00    -0.122 A  
HETATM   16  C   UNL     1      -9.983   7.120  68.009  1.00  0.00    -0.184 A  
HETATM   17  O   UNL     1      -9.018   5.017  67.568  1.00  0.00    -0.109 OA 
HETATM   18  C   UNL     1     -10.244   8.460  67.662  1.00  0.00    -0.298 A  
HETATM   19  H   UNL     1      -9.321   4.695  68.408  1.00  0.00     0.000 HD 
HETATM   20  C   UNL     1     -10.957   9.314  68.697  1.00  0.00    -0.039 C  
HETATM   21  C   UNL     1     -10.743  10.842  68.574  1.00  0.00    -0.245 C  
HETATM   22  C   UNL     1     -11.123  11.204  67.119  1.00  0.00    -0.352 C  
ENDROOT
BRANCH  21  23
HETATM   23  C   UNL     1      -9.300  11.237  68.951  1.00  0.00    -0.084 C  
BRANCH  23  24
HETATM   24  C   UNL     1      -8.485  10.192  69.690  1.00  0.00    -0.172 C  
BRANCH  24  25
HETATM   25  C   UNL     1      -7.062  10.708  69.954  1.00  0.00    -0.133 C  
BRANCH  25  26
HETATM   26  C   UNL     1      -5.960   9.641  69.833  1.00  0.00    -0.041 C  
BRANCH  26  27
HETATM   27  C   UNL     1      -6.196   8.629  68.712  1.00  0.00    -0.045 C  
BRANCH  27  28
HETATM   28  C   UNL     1      -6.717   7.296  69.251  1.00  0.00    -0.049 C  
BRANCH  28  29
HETATM   29  C   UNL     1      -6.103   6.905  70.597  1.00  0.00    -0.028 C  
BRANCH  29  30
HETATM   30  C   UNL     1      -7.107   6.754  71.750  1.00  0.00    -0.075 C  
BRANCH  30  31
HETATM   31  C   UNL     1      -7.580   5.333  72.022  1.00  0.00    -0.098 C  
BRANCH  31  32
HETATM   32  S   UNL     1      -9.107   4.928  71.112  1.00  0.00    -0.145 S  
HETATM   33  O   UNL     1      -8.914   3.569  70.505  1.00  0.00    -0.075 OA 
BRANCH  32  34
HETATM   34  C   UNL     1     -10.200   4.720  72.554  1.00  0.00    -0.190 C  
BRANCH  34  35
HETATM   35  C   UNL     1     -11.451   5.586  72.450  1.00  0.00    -0.266 C  
BRANCH  35  36
HETATM   36  C   UNL     1     -11.221   6.798  71.550  1.00  0.00    -0.300 C  
BRANCH  36  37
HETATM   37  C   UNL     1     -11.220   8.124  72.308  1.00  0.00    -0.359 C  
HETATM   38  F   UNL     1     -11.080   7.858  73.639  1.00  0.00    -0.309 F  
HETATM   39  C   UNL     1     -12.455   9.000  72.053  1.00  0.00    -0.390 C  
HETATM   40  F   UNL     1     -10.084   8.793  71.949  1.00  0.00    -0.307 F  
HETATM   41  F   UNL     1     -13.257   8.499  71.089  1.00  0.00    -0.286 F  
HETATM   42  F   UNL     1     -13.199   9.132  73.177  1.00  0.00    -0.373 F  
HETATM   43  F   UNL     1     -12.113  10.253  71.664  1.00  0.00    -0.435 F  
ENDBRANCH  36  37
ENDBRANCH  35  36
ENDBRANCH  34  35
ENDBRANCH  32  34
ENDBRANCH  31  32
ENDBRANCH  30  31
ENDBRANCH  29  30
ENDBRANCH  28  29
ENDBRANCH  27  28
ENDBRANCH  26  27
ENDBRANCH  25  26
ENDBRANCH  24  25
ENDBRANCH  23  24
ENDBRANCH  21  23
TORSDOF 14
ENDMDL
MODEL       97
REMARK 921   NORMALIZED FREE ENERGY PREDICTED BY IDOCK:   -5.45 KCAL/MOL
REMARK 922        TOTAL FREE ENERGY PREDICTED BY IDOCK:  -13.21 KCAL/MOL
REMARK 923 INTER-LIGAND FREE ENERGY PREDICTED BY IDOCK:  -10.14 KCAL/MOL
REMARK 924 INTRA-LIGAND FREE ENERGY PREDICTED BY IDOCK:   -3.07 KCAL/MOL
REMARK 927      BINDING AFFINITY PREDICTED BY RF-SCORE:    0.00 PKD
ROOT
HETATM    1  C   UNL     1      -8.065  12.199  68.259  1.00  0.00    -0.166 C  
HETATM    2  C   UNL     1      -7.767  11.889  66.902  1.00  0.00    -0.106 C  
HETATM    3  C   UNL     1      -6.942  13.055  67.373  1.00  0.00    -0.123 C  
HETATM    4  C   UNL     1      -7.056  13.195  69.397  1.00  0.00     0.166 C  
HETATM    5  O   UNL     1      -6.357  13.831  70.472  1.00  0.00    -0.374 OA 
HETATM    6  C   UNL     1      -6.245  12.246  68.823  1.00  0.00    -0.072 C  
HETATM    7  C   UNL     1      -5.164  13.711  68.549  1.00  0.00    -0.089 C  
HETATM    8  C   UNL     1      -5.647  11.007  69.387  1.00  0.00    -0.042 C  
HETATM    9  H   UNL     1      -6.411  13.897  71.418  1.00  0.00     0.000 HD 
HETATM   10  C   UNL     1      -6.090  15.237  68.496  1.00  0.00    -0.094 C  
HETATM   11  C   UNL     1      -7.763  15.314  68.150  1.00  0.00    -0.120 C  
HETATM   12  C   UNL     1      -8.523  16.617  68.428  1.00  0.00    -0.216 A  
HETATM   13  C   UNL     1      -7.826  17.835  68.535  1.00  0.00    -0.290 A  
HETATM   14  C   UNL     1      -8.500  19.060  68.582  1.00  0.00    -0.394 A  
HETATM   15  C   UNL     1      -9.884  19.079  68.533  1.00  0.00    -0.411 A  
HETATM   16  C   UNL     1     -10.600  17.896  68.420  1.00  0.00    -0.275 A  
HETATM   17  O   UNL     1     -10.588  20.247  68.572  1.00  0.00    -0.339 OA 
HETATM   18  C   UNL     1      -9.936  16.657  68.329  1.00  0.00    -0.261 A  
HETATM   19  H   UNL     1     -11.536  20.260  68.539  1.00  0.00     0.000 HD 
HETATM   20  C   UNL     1     -10.801  15.424  68.129  1.00  0.00    -0.285 C  
HETATM   21  C   UNL     1     -10.100  14.206  67.481  1.00  0.00    -0.236 C  
HETATM   22  C   UNL     1      -8.843  13.937  68.343  1.00  0.00    -0.177 C  
ENDROOT
BRANCH  21  23
HETATM   23  C   UNL     1      -9.783  14.468  65.995  1.00  0.00    -0.331 C  
BRANCH  23  24
HETATM   24  C   UNL     1     -10.620  13.710  64.981  1.00  0.00    -0.394 C  
BRANCH  24  25
HETATM   25  C   UNL     1     -11.656  12.826  65.692  1.00  0.00    -0.410 C  
BRANCH  25  26
HETATM   26  C   UNL     1     -11.220  11.364  65.894  1.00  0.00    -0.172 C  
BRANCH  26  27
HETATM   27  C   UNL     1     -11.337  10.873  67.337  1.00  0.00    -0.273 C  
BRANCH  27  28
HETATM   28  C   UNL     1     -10.721   9.485  67.516  1.00  0.00    -0.311 C  
BRANCH  28  29
HETATM   29  C   UNL     1     -10.006   8.974  66.264  1.00  0.00    -0.352 C  
BRANCH  29  30
HETATM   30  C   UNL     1      -9.230   7.660  66.450  1.00  0.00    -0.223 C  
BRANCH  30  31
HETATM   31  C   UNL     1      -7.938   7.772  67.246  1.00  0.00    -0.118 C  
BRANCH  31  32
HETATM   32  S   UNL     1      -8.090   7.060  68.916  1.00  0.00    -0.122 S  
HETATM   33  O   UNL     1      -8.404   8.189  69.854  1.00  0.00    -0.119 OA 
BRANCH  32  34
HETATM   34  C   UNL     1      -9.640   6.141  68.646  1.00  0.00    -0.127 C  
BRANCH  34  35
HETATM   35  C   UNL     1     -10.428   5.961  69.939  1.00  0.00    -0.337 C  
BRANCH  35  36
HETATM   36  C   UNL     1     -11.678   6.838  69.963  1.00  0.00    -0.330 C  
BRANCH  36  37
HETATM   37  C   UNL     1     -12.274   7.006  71.359  1.00  0.00    -0.366 C  
HETATM   38  F   UNL     1     -13.626   7.136  71.238  1.00  0.00    -0.428 F  
HETATM   39  C   UNL     1     -11.683   8.175  72.162  1.00  0.00    -0.359 C  
HETATM   40  F   UNL     1     -12.079   5.829  72.025  1.00  0.00    -0.314 F  
HETATM   41  F   UNL     1     -10.638   8.759  71.537  1.00  0.00    -0.277 F  
HETATM   42  F   UNL     1     -12.614   9.133  72.385  1.00  0.00    -0.427 F  
HETATM   43  F   UNL     1     -11.237   7.776  73.379  1.00  0.00    -0.442 F  
ENDBRANCH  36  37
ENDBRANCH  35  36
ENDBRANCH  34  35
ENDBRANCH  32  34
ENDBRANCH  31  32
ENDBRANCH  30  31
ENDBRANCH  29  30
ENDBRANCH  28  29
ENDBRANCH  27  28
ENDBRANCH  26  27
ENDBRANCH  25  26
ENDBRANCH  24  25
ENDBRANCH  23  24
ENDBRANCH  21  23
TORSDOF 14
ENDMDL
MODEL       98
REMARK 921   NORMALIZED FREE ENERGY PREDICTED BY IDOCK:   -5.44 KCAL/MOL
REMARK 922        TOTAL FREE ENERGY PREDICTED BY IDOCK:  -13.18 KCAL/MOL
REMARK 923 INTER-LIGAND FREE ENERGY PREDICTED BY IDOCK:  -11.57 KCAL/MOL
REMARK 924 INTRA-LIGAND FREE ENERGY PREDICTED BY IDOCK:   -1.61 KCAL/MOL
REMARK 927      BINDING AFFINITY PREDICTED BY RF-SCORE:    0.00 PKD
ROOT
HETATM    1  C   UNL     1     -10.443   9.760  70.943  1.00  0.00    -0.298 C  
HETATM    2  C   UNL     1     -10.680   9.973  69.556  1.00  0.00    -0.269 C  
HETATM    3  C   UNL     1     -11.366   8.719  70.024  1.00  0.00    -0.040 C  
HETATM    4  C   UNL     1     -11.384   8.672  72.055  1.00  0.00    -0.362 C  
HETATM    5  O   UNL     1     -12.064   7.982  73.109  1.00  0.00    -0.656 OA 
HETATM    6  C   UNL     1     -12.275   9.473  71.384  1.00  0.00    -0.455 C  
HETATM    7  C   UNL     1     -13.117   7.858  71.105  1.00  0.00    -0.120 C  
HETATM    8  C   UNL     1     -13.082  10.633  71.846  1.00  0.00    -0.563 C  
HETATM    9  H   UNL     1     -12.073   7.960  74.059  1.00  0.00     0.000 HD 
HETATM   10  C   UNL     1     -11.984   6.480  71.188  1.00  0.00    -0.365 C  
HETATM   11  C   UNL     1     -10.295   6.631  70.961  1.00  0.00    -0.234 C  
HETATM   12  C   UNL     1      -9.383   5.463  71.352  1.00  0.00    -0.179 A  
HETATM   13  C   UNL     1      -9.908   4.162  71.468  1.00  0.00    -0.255 A  
HETATM   14  C   UNL     1      -9.074   3.049  71.618  1.00  0.00    -0.163 A  
HETATM   15  C   UNL     1      -7.700   3.227  71.665  1.00  0.00    -0.053 A  
HETATM   16  C   UNL     1      -7.152   4.495  71.545  1.00  0.00    -0.050 A  
HETATM   17  O   UNL     1      -6.845   2.174  71.806  1.00  0.00    -0.022 OA 
HETATM   18  C   UNL     1      -7.974   5.622  71.351  1.00  0.00    -0.113 A  
HETATM   19  H   UNL     1      -5.904   2.296  71.839  1.00  0.00     0.000 HD 
HETATM   20  C   UNL     1      -7.280   6.958  71.152  1.00  0.00    -0.076 C  
HETATM   21  C   UNL     1      -8.095   8.038  70.402  1.00  0.00    -0.112 C  
HETATM   22  C   UNL     1      -9.437   8.156  71.162  1.00  0.00    -0.192 C  
ENDROOT
BRANCH  21  23
HETATM   23  C   UNL     1      -8.260   7.678  68.911  1.00  0.00    -0.128 C  
BRANCH  23  24
HETATM   24  C   UNL     1      -7.646   8.640  67.911  1.00  0.00    -0.098 C  
BRANCH  24  25
HETATM   25  C   UNL     1      -8.198   8.377  66.502  1.00  0.00    -0.105 C  
BRANCH  25  26
HETATM   26  C   UNL     1      -9.698   8.677  66.335  1.00  0.00    -0.333 C  
BRANCH  26  27
HETATM   27  C   UNL     1      -9.992  10.000  65.628  1.00  0.00    -0.355 C  
BRANCH  27  28
HETATM   28  C   UNL     1      -9.474  10.002  64.189  1.00  0.00    -0.314 C  
BRANCH  28  29
HETATM   29  C   UNL     1     -10.086  11.108  63.326  1.00  0.00    -0.426 C  
BRANCH  29  30
HETATM   30  C   UNL     1     -10.640  12.310  64.107  1.00  0.00    -0.408 C  
BRANCH  30  31
HETATM   31  C   UNL     1     -11.833  13.007  63.470  1.00  0.00    -0.516 C  
BRANCH  31  32
HETATM   32  S   UNL     1     -12.277  14.548  64.337  1.00  0.00    -0.375 S  
HETATM   33  O   UNL     1     -13.065  14.161  65.555  1.00  0.00    -0.691 OA 
BRANCH  32  34
HETATM   34  C   UNL     1     -10.605  14.997  64.902  1.00  0.00    -0.374 C  
BRANCH  34  35
HETATM   35  C   UNL     1     -10.639  15.827  66.181  1.00  0.00    -0.318 C  
BRANCH  35  36
HETATM   36  C   UNL     1     -10.157  17.256  65.937  1.00  0.00    -0.226 C  
BRANCH  36  37
HETATM   37  C   UNL     1     -10.337  18.171  67.146  1.00  0.00    -0.379 C  
HETATM   38  F   UNL     1     -11.238  19.142  66.821  1.00  0.00    -0.410 F  
HETATM   39  C   UNL     1      -9.032  18.790  67.670  1.00  0.00    -0.279 C  
HETATM   40  F   UNL     1     -10.936  17.431  68.126  1.00  0.00    -0.371 F  
HETATM   41  F   UNL     1      -7.938  18.298  67.050  1.00  0.00    -0.210 F  
HETATM   42  F   UNL     1      -9.029  20.134  67.503  1.00  0.00    -0.367 F  
HETATM   43  F   UNL     1      -8.864  18.563  68.997  1.00  0.00    -0.305 F  
ENDBRANCH  36  37
ENDBRANCH  35  36
ENDBRANCH  34  35
ENDBRANCH  32  34
ENDBRANCH  31  32
ENDBRANCH  30  31
ENDBRANCH  29  30
ENDBRANCH  28  29
ENDBRANCH  27  28
ENDBRANCH  26  27
ENDBRANCH  25  26
ENDBRANCH  24  25
ENDBRANCH  23  24
ENDBRANCH  21  23
TORSDOF 14
ENDMDL
MODEL       99
REMARK 921   NORMALIZED FREE ENERGY PREDICTED BY IDOCK:   -5.43 KCAL/MOL
REMARK 922        TOTAL FREE ENERGY PREDICTED BY IDOCK:  -13.17 KCAL/MOL
REMARK 923 INTER-LIGAND FREE ENERGY PREDICTED BY IDOCK:   -8.84 KCAL/MOL
REMARK 924 INTRA-LIGAND FREE ENERGY PREDICTED BY IDOCK:   -4.34 KCAL/MOL
REMARK 927      BINDING AFFINITY PREDICTED BY RF-SCORE:    0.00 PKD
ROOT
HETATM    1  C   UNL     1      -8.440   9.645  67.244  1.00  0.00    -0.132 C  
HETATM    2  C   UNL     1      -7.017   9.600  67.219  1.00  0.00    -0.085 C  
HETATM    3  C   UNL     1      -7.592   8.209  67.206  1.00  0.00    -0.097 C  
HETATM    4  C   UNL     1      -9.581   8.301  66.802  1.00  0.00    -0.224 C  
HETATM    5  O   UNL     1     -10.634   7.427  66.382  1.00  0.00    -0.461 OA 
HETATM    6  C   UNL     1      -8.671   8.443  65.783  1.00  0.00    -0.199 C  
HETATM    7  C   UNL     1      -8.556   6.615  65.981  1.00  0.00    -0.152 C  
HETATM    8  C   UNL     1      -8.820   9.010  64.417  1.00  0.00    -0.107 C  
HETATM    9  H   UNL     1     -11.564   7.469  66.193  1.00  0.00     0.000 HD 
HETATM   10  C   UNL     1      -9.019   6.080  67.620  1.00  0.00    -0.111 C  
HETATM   11  C   UNL     1      -9.000   7.105  68.989  1.00  0.00    -0.134 C  
HETATM   12  C   UNL     1      -9.701   6.647  70.274  1.00  0.00    -0.182 A  
HETATM   13  C   UNL     1      -9.961   5.281  70.490  1.00  0.00    -0.299 A  
HETATM   14  C   UNL     1     -10.406   4.811  71.730  1.00  0.00    -0.230 A  
HETATM   15  C   UNL     1     -10.608   5.707  72.768  1.00  0.00    -0.228 A  
HETATM   16  C   UNL     1     -10.352   7.059  72.588  1.00  0.00    -0.235 A  
HETATM   17  O   UNL     1     -11.037   5.299  73.996  1.00  0.00    -0.411 OA 
HETATM   18  C   UNL     1      -9.863   7.543  71.360  1.00  0.00    -0.191 A  
HETATM   19  H   UNL     1     -11.175   5.913  74.707  1.00  0.00     0.000 HD 
HETATM   20  C   UNL     1      -9.539   9.025  71.282  1.00  0.00    -0.361 C  
HETATM   21  C   UNL     1      -8.515   9.438  70.197  1.00  0.00    -0.224 C  
HETATM   22  C   UNL     1      -9.057   8.861  68.868  1.00  0.00    -0.140 C  
ENDROOT
BRANCH  21  23
HETATM   23  C   UNL     1      -7.097   8.944  70.551  1.00  0.00    -0.064 C  
BRANCH  23  24
HETATM   24  C   UNL     1      -6.028  10.010  70.700  1.00  0.00    -0.094 C  
BRANCH  24  25
HETATM   25  C   UNL     1      -6.506  11.340  70.097  1.00  0.00    -0.071 C  
BRANCH  25  26
HETATM   26  C   UNL     1      -5.381  12.238  69.554  1.00  0.00    -0.071 C  
BRANCH  26  27
HETATM   27  C   UNL     1      -5.813  13.149  68.405  1.00  0.00    -0.080 C  
BRANCH  27  28
HETATM   28  C   UNL     1      -7.326  13.372  68.396  1.00  0.00    -0.112 C  
BRANCH  28  29
HETATM   29  C   UNL     1      -7.720  14.850  68.360  1.00  0.00    -0.115 C  
BRANCH  29  30
HETATM   30  C   UNL     1      -7.972  15.422  66.956  1.00  0.00    -0.259 C  
BRANCH  30  31
HETATM   31  C   UNL     1      -9.312  16.118  66.766  1.00  0.00    -0.234 C  
BRANCH  31  32
HETATM   32  S   UNL     1     -10.280  16.185  68.309  1.00  0.00    -0.257 S  
HETATM   33  O   UNL     1     -10.655  17.620  68.537  1.00  0.00    -0.346 OA 
BRANCH  32  34
HETATM   34  C   UNL     1     -11.770  15.333  67.698  1.00  0.00    -0.167 C  
BRANCH  34  35
HETATM   35  C   UNL     1     -11.537  14.684  66.338  1.00  0.00    -0.343 C  
BRANCH  35  36
HETATM   36  C   UNL     1     -12.121  13.273  66.282  1.00  0.00    -0.472 C  
BRANCH  36  37
HETATM   37  C   UNL     1     -11.166  12.201  66.803  1.00  0.00    -0.322 C  
HETATM   38  F   UNL     1     -11.240  11.119  65.975  1.00  0.00    -0.298 F  
HETATM   39  C   UNL     1     -11.412  11.790  68.262  1.00  0.00    -0.307 C  
HETATM   40  F   UNL     1      -9.897  12.686  66.656  1.00  0.00    -0.220 F  
HETATM   41  F   UNL     1     -12.343  12.557  68.868  1.00  0.00    -0.260 F  
HETATM   42  F   UNL     1     -11.825  10.503  68.343  1.00  0.00    -0.336 F  
HETATM   43  F   UNL     1     -10.284  11.884  69.009  1.00  0.00    -0.205 F  
ENDBRANCH  36  37
ENDBRANCH  35  36
ENDBRANCH  34  35
ENDBRANCH  32  34
ENDBRANCH  31  32
ENDBRANCH  30  31
ENDBRANCH  29  30
ENDBRANCH  28  29
ENDBRANCH  27  28
ENDBRANCH  26  27
ENDBRANCH  25  26
ENDBRANCH  24  25
ENDBRANCH  23  24
ENDBRANCH  21  23
TORSDOF 14
ENDMDL
MODEL      100
REMARK 921   NORMALIZED FREE ENERGY PREDICTED BY IDOCK:   -5.43 KCAL/MOL
REMARK 922        TOTAL FREE ENERGY PREDICTED BY IDOCK:  -13.16 KCAL/MOL
REMARK 923 INTER-LIGAND FREE ENERGY PREDICTED BY IDOCK:  -10.05 KCAL/MOL
REMARK 924 INTRA-LIGAND FREE ENERGY PREDICTED BY IDOCK:   -3.12 KCAL/MOL
REMARK 927      BINDING AFFINITY PREDICTED BY RF-SCORE:    0.00 PKD
ROOT
HETATM    1  C   UNL     1     -10.270  11.621  65.213  1.00  0.00    -0.316 C  
HETATM    2  C   UNL     1     -10.900  10.725  66.123  1.00  0.00    -0.124 C  
HETATM    3  C   UNL     1     -11.371  12.135  66.355  1.00  0.00    -0.411 C  
HETATM    4  C   UNL     1     -10.810  13.305  64.792  1.00  0.00    -0.360 C  
HETATM    5  O   UNL     1     -11.132  14.584  64.235  1.00  0.00    -0.611 OA 
HETATM    6  C   UNL     1     -11.888  12.464  64.662  1.00  0.00    -0.445 C  
HETATM    7  C   UNL     1     -12.705  13.781  65.658  1.00  0.00    -0.523 C  
HETATM    8  C   UNL     1     -12.579  11.947  63.451  1.00  0.00    -0.555 C  
HETATM    9  H   UNL     1     -10.870  15.131  63.505  1.00  0.00     0.000 HD 
HETATM   10  C   UNL     1     -11.538  14.712  66.638  1.00  0.00    -0.359 C  
HETATM   11  C   UNL     1      -9.991  14.125  67.074  1.00  0.00    -0.260 C  
HETATM   12  C   UNL     1      -8.956  15.102  67.644  1.00  0.00    -0.183 A  
HETATM   13  C   UNL     1      -9.371  16.321  68.212  1.00  0.00    -0.204 A  
HETATM   14  C   UNL     1      -8.481  17.136  68.922  1.00  0.00    -0.187 A  
HETATM   15  C   UNL     1      -7.160  16.743  69.062  1.00  0.00    -0.221 A  
HETATM   16  C   UNL     1      -6.723  15.542  68.521  1.00  0.00    -0.113 A  
HETATM   17  O   UNL     1      -6.255  17.499  69.748  1.00  0.00    -0.244 OA 
HETATM   18  C   UNL     1      -7.614  14.691  67.841  1.00  0.00    -0.151 A  
HETATM   19  H   UNL     1      -5.350  17.230  69.844  1.00  0.00     0.000 HD 
HETATM   20  C   UNL     1      -7.061  13.363  67.351  1.00  0.00    -0.108 C  
HETATM   21  C   UNL     1      -8.101  12.238  67.133  1.00  0.00    -0.173 C  
HETATM   22  C   UNL     1      -9.176  12.834  66.195  1.00  0.00    -0.040 C  
ENDROOT
BRANCH  21  23
HETATM   23  C   UNL     1      -8.668  11.733  68.476  1.00  0.00    -0.118 C  
BRANCH  23  24
HETATM   24  C   UNL     1      -8.499  10.253  68.768  1.00  0.00    -0.130 C  
BRANCH  24  25
HETATM   25  C   UNL     1      -7.873   9.535  67.562  1.00  0.00    -0.102 C  
BRANCH  25  26
HETATM   26  C   UNL     1      -8.160   8.026  67.495  1.00  0.00    -0.123 C  
BRANCH  26  27
HETATM   27  C   UNL     1      -9.630   7.662  67.703  1.00  0.00    -0.175 C  
BRANCH  27  28
HETATM   28  C   UNL     1      -9.933   6.236  67.243  1.00  0.00    -0.180 C  
BRANCH  28  29
HETATM   29  C   UNL     1      -8.702   5.326  67.241  1.00  0.00    -0.107 C  
BRANCH  29  30
HETATM   30  C   UNL     1      -8.226   4.875  68.630  1.00  0.00    -0.084 C  
BRANCH  30  31
HETATM   31  C   UNL     1      -9.166   3.933  69.368  1.00  0.00    -0.153 C  
BRANCH  31  32
HETATM   32  S   UNL     1     -10.110   4.783  70.675  1.00  0.00    -0.184 S  
HETATM   33  O   UNL     1     -10.021   3.935  71.910  1.00  0.00    -0.174 OA 
BRANCH  32  34
HETATM   34  C   UNL     1      -8.981   6.193  70.911  1.00  0.00    -0.143 C  
BRANCH  34  35
HETATM   35  C   UNL     1      -9.695   7.401  71.508  1.00  0.00    -0.170 C  
BRANCH  35  36
HETATM   36  C   UNL     1     -11.083   7.590  70.900  1.00  0.00    -0.279 C  
BRANCH  36  37
HETATM   37  C   UNL     1     -11.612   9.017  71.030  1.00  0.00    -0.300 C  
HETATM   38  F   UNL     1     -10.751   9.725  71.816  1.00  0.00    -0.345 F  
HETATM   39  C   UNL     1     -13.047   9.113  71.568  1.00  0.00    -0.349 C  
HETATM   40  F   UNL     1     -11.532   9.591  69.792  1.00  0.00    -0.230 F  
HETATM   41  F   UNL     1     -13.636   7.904  71.696  1.00  0.00    -0.339 F  
HETATM   42  F   UNL     1     -13.073   9.712  72.782  1.00  0.00    -0.398 F  
HETATM   43  F   UNL     1     -13.843   9.850  70.753  1.00  0.00    -0.378 F  
ENDBRANCH  36  37
ENDBRANCH  35  36
ENDBRANCH  34  35
ENDBRANCH  32  34
ENDBRANCH  31  32
ENDBRANCH  30  31
ENDBRANCH  29  30
ENDBRANCH  28  29
ENDBRANCH  27  28
ENDBRANCH  26  27
ENDBRANCH  25  26
ENDBRANCH  24  25
ENDBRANCH  23  24
ENDBRANCH  21  23
TORSDOF 14
ENDMDL
MODEL      101
REMARK 921   NORMALIZED FREE ENERGY PREDICTED BY IDOCK:   -5.43 KCAL/MOL
REMARK 922        TOTAL FREE ENERGY PREDICTED BY IDOCK:  -13.16 KCAL/MOL
REMARK 923 INTER-LIGAND FREE ENERGY PREDICTED BY IDOCK:  -10.19 KCAL/MOL
REMARK 924 INTRA-LIGAND FREE ENERGY PREDICTED BY IDOCK:   -2.97 KCAL/MOL
REMARK 927      BINDING AFFINITY PREDICTED BY RF-SCORE:    0.00 PKD
ROOT
HETATM    1  C   UNL     1     -10.141   9.352  70.976  1.00  0.00    -0.353 C  
HETATM    2  C   UNL     1     -10.442   9.397  69.586  1.00  0.00    -0.236 C  
HETATM    3  C   UNL     1     -11.028   8.163  70.216  1.00  0.00    -0.240 C  
HETATM    4  C   UNL     1     -10.969   8.340  72.239  1.00  0.00    -0.348 C  
HETATM    5  O   UNL     1     -11.564   7.731  73.389  1.00  0.00    -0.623 OA 
HETATM    6  C   UNL     1     -11.934   9.007  71.524  1.00  0.00    -0.414 C  
HETATM    7  C   UNL     1     -12.679   7.323  71.458  1.00  0.00    -0.422 C  
HETATM    8  C   UNL     1     -12.796  10.160  71.893  1.00  0.00    -0.526 C  
HETATM    9  H   UNL     1     -11.537   7.813  74.335  1.00  0.00     0.000 HD 
HETATM   10  C   UNL     1     -11.458   6.033  71.640  1.00  0.00    -0.293 C  
HETATM   11  C   UNL     1      -9.791   6.260  71.325  1.00  0.00    -0.197 C  
HETATM   12  C   UNL     1      -8.792   5.198  71.800  1.00  0.00    -0.144 A  
HETATM   13  C   UNL     1      -9.228   3.889  72.078  1.00  0.00    -0.173 A  
HETATM   14  C   UNL     1      -8.319   2.851  72.311  1.00  0.00    -0.071 A  
HETATM   15  C   UNL     1      -6.959   3.116  72.279  1.00  0.00    -0.031 A  
HETATM   16  C   UNL     1      -6.498   4.394  72.000  1.00  0.00    -0.022 A  
HETATM   17  O   UNL     1      -6.033   2.139  72.496  1.00  0.00    -0.008 OA 
HETATM   18  C   UNL     1      -7.398   5.440  71.720  1.00  0.00    -0.090 A  
HETATM   19  H   UNL     1      -5.101   2.319  72.475  1.00  0.00     0.000 HD 
HETATM   20  C   UNL     1      -6.798   6.786  71.349  1.00  0.00    -0.062 C  
HETATM   21  C   UNL     1      -7.708   7.726  70.522  1.00  0.00    -0.088 C  
HETATM   22  C   UNL     1      -9.026   7.845  71.322  1.00  0.00    -0.155 C  
ENDROOT
BRANCH  21  23
HETATM   23  C   UNL     1      -7.904   7.194  69.088  1.00  0.00    -0.118 C  
BRANCH  23  24
HETATM   24  C   UNL     1      -6.896   7.655  68.052  1.00  0.00    -0.067 C  
BRANCH  24  25
HETATM   25  C   UNL     1      -7.206   9.091  67.601  1.00  0.00    -0.083 C  
BRANCH  25  26
HETATM   26  C   UNL     1      -7.523   9.238  66.103  1.00  0.00    -0.096 C  
BRANCH  26  27
HETATM   27  C   UNL     1      -8.925   8.771  65.715  1.00  0.00    -0.253 C  
BRANCH  27  28
HETATM   28  C   UNL     1      -9.780   9.923  65.184  1.00  0.00    -0.376 C  
BRANCH  28  29
HETATM   29  C   UNL     1      -9.285  10.477  63.846  1.00  0.00    -0.287 C  
BRANCH  29  30
HETATM   30  C   UNL     1     -10.041  11.714  63.335  1.00  0.00    -0.468 C  
BRANCH  30  31
HETATM   31  C   UNL     1     -11.378  11.985  64.010  1.00  0.00    -0.403 C  
BRANCH  31  32
HETATM   32  S   UNL     1     -11.538  13.718  64.554  1.00  0.00    -0.396 S  
HETATM   33  O   UNL     1     -12.616  14.347  63.720  1.00  0.00    -0.829 OA 
BRANCH  32  34
HETATM   34  C   UNL     1     -12.253  13.391  66.197  1.00  0.00    -0.415 C  
BRANCH  34  35
HETATM   35  C   UNL     1     -11.932  14.503  67.189  1.00  0.00    -0.373 C  
BRANCH  35  36
HETATM   36  C   UNL     1     -10.428  14.750  67.290  1.00  0.00    -0.264 C  
BRANCH  36  37
HETATM   37  C   UNL     1      -9.741  13.881  68.341  1.00  0.00    -0.226 C  
HETATM   38  F   UNL     1      -9.108  14.699  69.231  1.00  0.00    -0.165 F  
HETATM   39  C   UNL     1      -8.766  12.843  67.765  1.00  0.00    -0.188 C  
HETATM   40  F   UNL     1     -10.726  13.259  69.056  1.00  0.00    -0.243 F  
HETATM   41  F   UNL     1      -8.799  12.791  66.417  1.00  0.00    -0.190 F  
HETATM   42  F   UNL     1      -7.492  13.114  68.134  1.00  0.00    -0.092 F  
HETATM   43  F   UNL     1      -9.042  11.591  68.210  1.00  0.00    -0.157 F  
ENDBRANCH  36  37
ENDBRANCH  35  36
ENDBRANCH  34  35
ENDBRANCH  32  34
ENDBRANCH  31  32
ENDBRANCH  30  31
ENDBRANCH  29  30
ENDBRANCH  28  29
ENDBRANCH  27  28
ENDBRANCH  26  27
ENDBRANCH  25  26
ENDBRANCH  24  25
ENDBRANCH  23  24
ENDBRANCH  21  23
TORSDOF 14
ENDMDL
MODEL      102
REMARK 921   NORMALIZED FREE ENERGY PREDICTED BY IDOCK:   -5.41 KCAL/MOL
REMARK 922        TOTAL FREE ENERGY PREDICTED BY IDOCK:  -13.14 KCAL/MOL
REMARK 923 INTER-LIGAND FREE ENERGY PREDICTED BY IDOCK:  -11.44 KCAL/MOL
REMARK 924 INTRA-LIGAND FREE ENERGY PREDICTED BY IDOCK:   -1.70 KCAL/MOL
REMARK 927      BINDING AFFINITY PREDICTED BY RF-SCORE:    0.00 PKD
ROOT
HETATM    1  C   UNL     1      -9.653   5.864  66.164  1.00  0.00    -0.107 C  
HETATM    2  C   UNL     1      -8.531   6.726  66.011  1.00  0.00    -0.143 C  
HETATM    3  C   UNL     1      -8.182   5.553  66.886  1.00  0.00    -0.105 C  
HETATM    4  C   UNL     1      -9.632   4.138  66.733  1.00  0.00    -0.208 C  
HETATM    5  O   UNL     1      -9.815   2.749  67.031  1.00  0.00    -0.349 OA 
HETATM    6  C   UNL     1      -8.700   4.271  65.732  1.00  0.00    -0.119 C  
HETATM    7  C   UNL     1      -7.642   3.391  66.956  1.00  0.00    -0.079 C  
HETATM    8  C   UNL     1      -8.712   3.800  64.322  1.00  0.00    -0.107 C  
HETATM    9  H   UNL     1     -10.492   2.087  66.960  1.00  0.00     0.000 HD 
HETATM   10  C   UNL     1      -8.201   3.632  68.635  1.00  0.00    -0.084 C  
HETATM   11  C   UNL     1      -9.188   4.942  69.121  1.00  0.00    -0.166 C  
HETATM   12  C   UNL     1      -9.863   4.896  70.497  1.00  0.00    -0.297 A  
HETATM   13  C   UNL     1      -9.359   4.054  71.506  1.00  0.00    -0.207 A  
HETATM   14  C   UNL     1      -9.818   4.139  72.825  1.00  0.00    -0.197 A  
HETATM   15  C   UNL     1     -10.798   5.064  73.148  1.00  0.00    -0.286 A  
HETATM   16  C   UNL     1     -11.310   5.913  72.178  1.00  0.00    -0.344 A  
HETATM   17  O   UNL     1     -11.276   5.189  74.419  1.00  0.00    -0.251 OA 
HETATM   18  C   UNL     1     -10.829   5.870  70.855  1.00  0.00    -0.347 A  
HETATM   19  H   UNL     1     -11.948   5.822  74.641  1.00  0.00     0.000 HD 
HETATM   20  C   UNL     1     -11.393   6.891  69.882  1.00  0.00    -0.321 C  
HETATM   21  C   UNL     1     -10.507   7.218  68.656  1.00  0.00    -0.214 C  
HETATM   22  C   UNL     1     -10.185   5.857  67.995  1.00  0.00    -0.224 C  
ENDROOT
BRANCH  21  23
HETATM   23  C   UNL     1      -9.252   8.013  69.071  1.00  0.00    -0.148 C  
BRANCH  23  24
HETATM   24  C   UNL     1      -9.418   8.987  70.223  1.00  0.00    -0.230 C  
BRANCH  24  25
HETATM   25  C   UNL     1      -9.608  10.417  69.696  1.00  0.00    -0.142 C  
BRANCH  25  26
HETATM   26  C   UNL     1     -11.061  10.923  69.725  1.00  0.00    -0.328 C  
BRANCH  26  27
HETATM   27  C   UNL     1     -11.476  11.696  68.473  1.00  0.00    -0.358 C  
BRANCH  27  28
HETATM   28  C   UNL     1     -11.044  10.977  67.194  1.00  0.00    -0.333 C  
BRANCH  28  29
HETATM   29  C   UNL     1     -10.945  11.905  65.981  1.00  0.00    -0.355 C  
BRANCH  29  30
HETATM   30  C   UNL     1     -12.273  12.540  65.539  1.00  0.00    -0.442 C  
BRANCH  30  31
HETATM   31  C   UNL     1     -12.328  14.059  65.616  1.00  0.00    -0.479 C  
BRANCH  31  32
HETATM   32  S   UNL     1     -11.067  14.850  64.564  1.00  0.00    -0.139 S  
HETATM   33  O   UNL     1     -11.674  16.106  64.011  1.00  0.00    -0.829 OA 
BRANCH  32  34
HETATM   34  C   UNL     1      -9.922  15.347  65.890  1.00  0.00    -0.346 C  
BRANCH  34  35
HETATM   35  C   UNL     1     -10.350  16.651  66.554  1.00  0.00    -0.300 C  
BRANCH  35  36
HETATM   36  C   UNL     1      -9.412  17.801  66.190  1.00  0.00    -0.177 C  
BRANCH  36  37
HETATM   37  C   UNL     1      -9.172  18.774  67.343  1.00  0.00    -0.282 C  
HETATM   38  F   UNL     1      -9.163  18.066  68.509  1.00  0.00    -0.266 F  
HETATM   39  C   UNL     1     -10.180  19.930  67.414  1.00  0.00    -0.425 C  
HETATM   40  F   UNL     1      -7.903  19.260  67.203  1.00  0.00    -0.250 F  
HETATM   41  F   UNL     1     -11.016  19.957  66.354  1.00  0.00    -0.553 F  
HETATM   42  F   UNL     1     -10.939  19.848  68.532  1.00  0.00    -0.306 F  
HETATM   43  F   UNL     1      -9.561  21.137  67.452  1.00  0.00    -0.595 F  
ENDBRANCH  36  37
ENDBRANCH  35  36
ENDBRANCH  34  35
ENDBRANCH  32  34
ENDBRANCH  31  32
ENDBRANCH  30  31
ENDBRANCH  29  30
ENDBRANCH  28  29
ENDBRANCH  27  28
ENDBRANCH  26  27
ENDBRANCH  25  26
ENDBRANCH  24  25
ENDBRANCH  23  24
ENDBRANCH  21  23
TORSDOF 14
ENDMDL
MODEL      103
REMARK 921   NORMALIZED FREE ENERGY PREDICTED BY IDOCK:   -5.40 KCAL/MOL
REMARK 922        TOTAL FREE ENERGY PREDICTED BY IDOCK:  -13.11 KCAL/MOL
REMARK 923 INTER-LIGAND FREE ENERGY PREDICTED BY IDOCK:   -9.47 KCAL/MOL
REMARK 924 INTRA-LIGAND FREE ENERGY PREDICTED BY IDOCK:   -3.64 KCAL/MOL
REMARK 927      BINDING AFFINITY PREDICTED BY RF-SCORE:    0.00 PKD
ROOT
HETATM    1  C   UNL     1     -11.385  12.387  67.110  1.00  0.00    -0.390 C  
HETATM    2  C   UNL     1     -10.389  13.268  67.617  1.00  0.00    -0.230 C  
HETATM    3  C   UNL     1     -10.154  12.986  66.158  1.00  0.00    -0.287 C  
HETATM    4  C   UNL     1     -11.802  12.102  65.364  1.00  0.00    -0.295 C  
HETATM    5  O   UNL     1     -12.363  11.835  64.075  1.00  0.00    -0.327 OA 
HETATM    6  C   UNL     1     -11.796  13.458  65.588  1.00  0.00    -0.403 C  
HETATM    7  C   UNL     1     -10.764  13.442  64.062  1.00  0.00    -0.168 C  
HETATM    8  C   UNL     1     -12.914  14.433  65.690  1.00  0.00    -0.105 C  
HETATM    9  H   UNL     1     -13.134  11.422  63.703  1.00  0.00     0.000 HD 
HETATM   10  C   UNL     1      -9.937  11.878  63.819  1.00  0.00    -0.379 C  
HETATM   11  C   UNL     1      -9.642  10.760  65.080  1.00  0.00    -0.305 C  
HETATM   12  C   UNL     1      -9.211   9.332  64.724  1.00  0.00    -0.160 A  
HETATM   13  C   UNL     1      -8.642   9.057  63.466  1.00  0.00    -0.146 A  
HETATM   14  C   UNL     1      -8.052   7.819  63.187  1.00  0.00    -0.078 A  
HETATM   15  C   UNL     1      -8.034   6.836  64.164  1.00  0.00    -0.085 A  
HETATM   16  C   UNL     1      -8.578   7.080  65.417  1.00  0.00    -0.048 A  
HETATM   17  O   UNL     1      -7.468   5.616  63.943  1.00  0.00    -0.058 OA 
HETATM   18  C   UNL     1      -9.138   8.334  65.728  1.00  0.00    -0.169 A  
HETATM   19  H   UNL     1      -7.455   4.942  64.612  1.00  0.00     0.000 HD 
HETATM   20  C   UNL     1      -9.639   8.533  67.148  1.00  0.00    -0.232 C  
HETATM   21  C   UNL     1      -9.715   9.999  67.639  1.00  0.00    -0.185 C  
HETATM   22  C   UNL     1     -10.558  10.752  66.584  1.00  0.00    -0.291 C  
ENDROOT
BRANCH  21  23
HETATM   23  C   UNL     1      -8.306  10.594  67.841  1.00  0.00    -0.120 C  
BRANCH  23  24
HETATM   24  C   UNL     1      -7.838  10.751  69.276  1.00  0.00    -0.124 C  
BRANCH  24  25
HETATM   25  C   UNL     1      -8.421   9.636  70.157  1.00  0.00    -0.231 C  
BRANCH  25  26
HETATM   26  C   UNL     1      -7.440   8.495  70.479  1.00  0.00    -0.062 C  
BRANCH  26  27
HETATM   27  C   UNL     1      -8.092   7.286  71.150  1.00  0.00    -0.102 C  
BRANCH  27  28
HETATM   28  C   UNL     1      -8.213   6.101  70.190  1.00  0.00    -0.120 C  
BRANCH  28  29
HETATM   29  C   UNL     1      -9.459   6.165  69.304  1.00  0.00    -0.147 C  
BRANCH  29  30
HETATM   30  C   UNL     1     -10.740   5.605  69.943  1.00  0.00    -0.399 C  
BRANCH  30  31
HETATM   31  C   UNL     1     -11.756   6.646  70.387  1.00  0.00    -0.386 C  
BRANCH  31  32
HETATM   32  S   UNL     1     -12.072   6.582  72.181  1.00  0.00    -0.204 S  
HETATM   33  O   UNL     1     -11.027   5.691  72.785  1.00  0.00    -0.240 OA 
BRANCH  32  34
HETATM   34  C   UNL     1     -11.604   8.299  72.571  1.00  0.00    -0.385 C  
BRANCH  34  35
HETATM   35  C   UNL     1     -11.755   9.219  71.364  1.00  0.00    -0.431 C  
BRANCH  35  36
HETATM   36  C   UNL     1     -12.582  10.458  71.703  1.00  0.00    -0.521 C  
BRANCH  36  37
HETATM   37  C   UNL     1     -12.367  11.614  70.728  1.00  0.00    -0.358 C  
HETATM   38  F   UNL     1     -11.063  11.602  70.327  1.00  0.00    -0.192 F  
HETATM   39  C   UNL     1     -12.754  12.992  71.286  1.00  0.00    -0.293 C  
HETATM   40  F   UNL     1     -13.096  11.337  69.606  1.00  0.00     0.018 F  
HETATM   41  F   UNL     1     -13.351  12.914  72.495  1.00  0.00    -0.598 F  
HETATM   42  F   UNL     1     -11.667  13.787  71.417  1.00  0.00    -0.242 F  
HETATM   43  F   UNL     1     -13.616  13.643  70.467  1.00  0.00     0.005 F  
ENDBRANCH  36  37
ENDBRANCH  35  36
ENDBRANCH  34  35
ENDBRANCH  32  34
ENDBRANCH  31  32
ENDBRANCH  30  31
ENDBRANCH  29  30
ENDBRANCH  28  29
ENDBRANCH  27  28
ENDBRANCH  26  27
ENDBRANCH  25  26
ENDBRANCH  24  25
ENDBRANCH  23  24
ENDBRANCH  21  23
TORSDOF 14
ENDMDL
MODEL      104
REMARK 921   NORMALIZED FREE ENERGY PREDICTED BY IDOCK:   -5.38 KCAL/MOL
REMARK 922        TOTAL FREE ENERGY PREDICTED BY IDOCK:  -13.08 KCAL/MOL
REMARK 923 INTER-LIGAND FREE ENERGY PREDICTED BY IDOCK:  -10.15 KCAL/MOL
REMARK 924 INTRA-LIGAND FREE ENERGY PREDICTED BY IDOCK:   -2.93 KCAL/MOL
REMARK 927      BINDING AFFINITY PREDICTED BY RF-SCORE:    0.00 PKD
ROOT
HETATM    1  C   UNL     1      -9.587   5.144  66.961  1.00  0.00    -0.155 C  
HETATM    2  C   UNL     1     -10.838   5.718  66.597  1.00  0.00    -0.290 C  
HETATM    3  C   UNL     1      -9.821   6.793  66.871  1.00  0.00    -0.229 C  
HETATM    4  C   UNL     1      -7.967   5.968  66.954  1.00  0.00    -0.102 C  
HETATM    5  O   UNL     1      -6.599   6.388  66.897  1.00  0.00    -0.051 OA 
HETATM    6  C   UNL     1      -8.563   6.184  65.736  1.00  0.00    -0.153 C  
HETATM    7  C   UNL     1      -8.063   7.921  66.092  1.00  0.00    -0.109 C  
HETATM    8  C   UNL     1      -8.271   5.613  64.394  1.00  0.00    -0.120 C  
HETATM    9  H   UNL     1      -5.732   6.003  66.936  1.00  0.00     0.000 HD 
HETATM   10  C   UNL     1      -7.889   8.232  67.842  1.00  0.00    -0.114 C  
HETATM   11  C   UNL     1      -8.637   7.277  69.049  1.00  0.00    -0.129 C  
HETATM   12  C   UNL     1      -8.185   7.430  70.506  1.00  0.00    -0.127 A  
HETATM   13  C   UNL     1      -7.520   8.598  70.923  1.00  0.00    -0.083 A  
HETATM   14  C   UNL     1      -7.280   8.858  72.276  1.00  0.00     0.119 A  
HETATM   15  C   UNL     1      -7.696   7.943  73.231  1.00  0.00    -0.143 A  
HETATM   16  C   UNL     1      -8.362   6.786  72.852  1.00  0.00    -0.123 A  
HETATM   17  O   UNL     1      -7.490   8.152  74.563  1.00  0.00    -0.175 OA 
HETATM   18  C   UNL     1      -8.649   6.529  71.498  1.00  0.00    -0.129 A  
HETATM   19  H   UNL     1      -7.774   7.525  75.217  1.00  0.00     0.000 HD 
HETATM   20  C   UNL     1      -9.449   5.276  71.188  1.00  0.00    -0.206 C  
HETATM   21  C   UNL     1     -10.226   5.285  69.850  1.00  0.00    -0.364 C  
HETATM   22  C   UNL     1      -9.183   5.628  68.760  1.00  0.00    -0.133 C  
ENDROOT
BRANCH  21  23
HETATM   23  C   UNL     1     -11.412   6.271  69.899  1.00  0.00    -0.459 C  
BRANCH  23  24
HETATM   24  C   UNL     1     -11.903   6.670  71.278  1.00  0.00    -0.403 C  
BRANCH  24  25
HETATM   25  C   UNL     1     -12.867   7.862  71.182  1.00  0.00    -0.156 C  
BRANCH  25  26
HETATM   26  C   UNL     1     -12.382   9.138  71.892  1.00  0.00    -0.455 C  
BRANCH  26  27
HETATM   27  C   UNL     1     -11.063   9.688  71.350  1.00  0.00    -0.397 C  
BRANCH  27  28
HETATM   28  C   UNL     1     -11.045   9.715  69.821  1.00  0.00    -0.247 C  
BRANCH  28  29
HETATM   29  C   UNL     1     -12.011  10.740  69.222  1.00  0.00    -0.334 C  
BRANCH  29  30
HETATM   30  C   UNL     1     -11.531  11.400  67.920  1.00  0.00    -0.361 C  
BRANCH  30  31
HETATM   31  C   UNL     1     -12.033  12.817  67.684  1.00  0.00    -0.273 C  
BRANCH  31  32
HETATM   32  S   UNL     1     -10.695  13.950  67.184  1.00  0.00    -0.284 S  
HETATM   33  O   UNL     1     -10.804  14.137  65.699  1.00  0.00    -0.291 OA 
BRANCH  32  34
HETATM   34  C   UNL     1     -11.352  15.459  67.963  1.00  0.00    -0.341 C  
BRANCH  34  35
HETATM   35  C   UNL     1     -10.729  15.711  69.332  1.00  0.00    -0.252 C  
BRANCH  35  36
HETATM   36  C   UNL     1     -11.797  15.926  70.404  1.00  0.00    -0.358 C  
BRANCH  36  37
HETATM   37  C   UNL     1     -11.905  14.766  71.392  1.00  0.00    -0.335 C  
HETATM   38  F   UNL     1     -11.380  13.651  70.806  1.00  0.00    -0.103 F  
HETATM   39  C   UNL     1     -13.330  14.497  71.897  1.00  0.00    -0.365 C  
HETATM   40  F   UNL     1     -11.077  15.051  72.440  1.00  0.00    -0.471 F  
HETATM   41  F   UNL     1     -14.213  15.431  71.484  1.00  0.00    -0.512 F  
HETATM   42  F   UNL     1     -13.779  13.293  71.473  1.00  0.00    -0.373 F  
HETATM   43  F   UNL     1     -13.389  14.478  73.253  1.00  0.00    -0.568 F  
ENDBRANCH  36  37
ENDBRANCH  35  36
ENDBRANCH  34  35
ENDBRANCH  32  34
ENDBRANCH  31  32
ENDBRANCH  30  31
ENDBRANCH  29  30
ENDBRANCH  28  29
ENDBRANCH  27  28
ENDBRANCH  26  27
ENDBRANCH  25  26
ENDBRANCH  24  25
ENDBRANCH  23  24
ENDBRANCH  21  23
TORSDOF 14
ENDMDL
MODEL      105
REMARK 921   NORMALIZED FREE ENERGY PREDICTED BY IDOCK:   -5.38 KCAL/MOL
REMARK 922        TOTAL FREE ENERGY PREDICTED BY IDOCK:  -13.08 KCAL/MOL
REMARK 923 INTER-LIGAND FREE ENERGY PREDICTED BY IDOCK:   -9.52 KCAL/MOL
REMARK 924 INTRA-LIGAND FREE ENERGY PREDICTED BY IDOCK:   -3.56 KCAL/MOL
REMARK 927      BINDING AFFINITY PREDICTED BY RF-SCORE:    0.00 PKD
ROOT
HETATM    1  C   UNL     1     -11.275  15.533  71.041  1.00  0.00    -0.419 C  
HETATM    2  C   UNL     1     -12.114  16.164  70.080  1.00  0.00     0.011 C  
HETATM    3  C   UNL     1     -12.927  15.304  71.009  1.00  0.00    -0.526 C  
HETATM    4  C   UNL     1     -11.794  14.776  72.610  1.00  0.00    -0.110 C  
HETATM    5  O   UNL     1     -11.976  14.250  73.930  1.00  0.00    -0.050 OA 
HETATM    6  C   UNL     1     -12.334  16.037  72.543  1.00  0.00    -0.584 C  
HETATM    7  C   UNL     1     -13.861  15.126  73.026  1.00  0.00    -0.252 C  
HETATM    8  C   UNL     1     -11.984  17.287  73.268  1.00  0.00     0.586 C  
HETATM    9  H   UNL     1     -11.447  14.003  74.678  1.00  0.00     0.000 HD 
HETATM   10  C   UNL     1     -13.803  13.406  72.550  1.00  0.00    -0.595 C  
HETATM   11  C   UNL     1     -12.782  12.801  71.318  1.00  0.00    -0.364 C  
HETATM   12  C   UNL     1     -12.579  11.286  71.195  1.00  0.00    -0.501 A  
HETATM   13  C   UNL     1     -13.516  10.398  71.755  1.00  0.00    -0.366 A  
HETATM   14  C   UNL     1     -13.472   9.026  71.486  1.00  0.00    -0.397 A  
HETATM   15  C   UNL     1     -12.480   8.524  70.659  1.00  0.00     0.256 A  
HETATM   16  C   UNL     1     -11.547   9.375  70.084  1.00  0.00    -0.117 A  
HETATM   17  O   UNL     1     -12.397   7.195  70.362  1.00  0.00    -0.589 OA 
HETATM   18  C   UNL     1     -11.602  10.764  70.310  1.00  0.00    -0.427 A  
HETATM   19  H   UNL     1     -11.717   6.851  69.796  1.00  0.00     0.000 HD 
HETATM   20  C   UNL     1     -10.587  11.623  69.578  1.00  0.00     0.085 C  
HETATM   21  C   UNL     1     -10.980  13.105  69.370  1.00  0.00    -0.056 C  
HETATM   22  C   UNL     1     -11.336  13.646  70.775  1.00  0.00     0.659 C  
ENDROOT
BRANCH  21  23
HETATM   23  C   UNL     1     -12.128  13.241  68.348  1.00  0.00    -0.244 C  
BRANCH  23  24
HETATM   24  C   UNL     1     -11.923  14.247  67.231  1.00  0.00    -0.439 C  
BRANCH  24  25
HETATM   25  C   UNL     1     -11.949  13.545  65.864  1.00  0.00    -0.444 C  
BRANCH  25  26
HETATM   26  C   UNL     1     -11.866  12.011  65.930  1.00  0.00    -0.232 C  
BRANCH  26  27
HETATM   27  C   UNL     1     -10.608  11.428  65.286  1.00  0.00    -0.336 C  
BRANCH  27  28
HETATM   28  C   UNL     1      -9.715  10.733  66.314  1.00  0.00    -0.248 C  
BRANCH  28  29
HETATM   29  C   UNL     1      -8.221  10.964  66.074  1.00  0.00    -0.155 C  
BRANCH  29  30
HETATM   30  C   UNL     1      -7.488  11.703  67.205  1.00  0.00    -0.146 C  
BRANCH  30  31
HETATM   31  C   UNL     1      -7.884  13.160  67.396  1.00  0.00    -0.165 C  
BRANCH  31  32
HETATM   32  S   UNL     1      -7.105  13.900  68.869  1.00  0.00    -0.097 S  
HETATM   33  O   UNL     1      -5.748  14.389  68.455  1.00  0.00    -0.091 OA 
BRANCH  32  34
HETATM   34  C   UNL     1      -8.184  15.361  69.004  1.00  0.00    -0.217 C  
BRANCH  34  35
HETATM   35  C   UNL     1      -8.578  15.907  67.636  1.00  0.00    -0.172 C  
BRANCH  35  36
HETATM   36  C   UNL     1      -9.573  17.060  67.757  1.00  0.00    -0.244 C  
BRANCH  36  37
HETATM   37  C   UNL     1      -8.914  18.437  67.707  1.00  0.00    -0.281 C  
HETATM   38  F   UNL     1      -8.985  18.993  68.951  1.00  0.00    -0.366 F  
HETATM   39  C   UNL     1      -9.506  19.383  66.652  1.00  0.00    -0.350 C  
HETATM   40  F   UNL     1      -7.583  18.238  67.473  1.00  0.00    -0.208 F  
HETATM   41  F   UNL     1     -10.412  18.773  65.857  1.00  0.00    -0.436 F  
HETATM   42  F   UNL     1     -10.116  20.442  67.233  1.00  0.00    -0.529 F  
HETATM   43  F   UNL     1      -8.548  19.887  65.834  1.00  0.00    -0.366 F  
ENDBRANCH  36  37
ENDBRANCH  35  36
ENDBRANCH  34  35
ENDBRANCH  32  34
ENDBRANCH  31  32
ENDBRANCH  30  31
ENDBRANCH  29  30
ENDBRANCH  28  29
ENDBRANCH  27  28
ENDBRANCH  26  27
ENDBRANCH  25  26
ENDBRANCH  24  25
ENDBRANCH  23  24
ENDBRANCH  21  23
TORSDOF 14
ENDMDL
MODEL      106
REMARK 921   NORMALIZED FREE ENERGY PREDICTED BY IDOCK:   -5.36 KCAL/MOL
REMARK 922        TOTAL FREE ENERGY PREDICTED BY IDOCK:  -13.04 KCAL/MOL
REMARK 923 INTER-LIGAND FREE ENERGY PREDICTED BY IDOCK:   -8.58 KCAL/MOL
REMARK 924 INTRA-LIGAND FREE ENERGY PREDICTED BY IDOCK:   -4.46 KCAL/MOL
REMARK 927      BINDING AFFINITY PREDICTED BY RF-SCORE:    0.00 PKD
ROOT
HETATM    1  C   UNL     1     -11.327  10.471  68.453  1.00  0.00    -0.328 C  
HETATM    2  C   UNL     1     -10.702  11.440  69.288  1.00  0.00    -0.195 C  
HETATM    3  C   UNL     1      -9.670  10.615  68.569  1.00  0.00    -0.177 C  
HETATM    4  C   UNL     1     -10.562   9.561  67.079  1.00  0.00    -0.201 C  
HETATM    5  O   UNL     1     -10.190   8.845  65.896  1.00  0.00    -0.383 OA 
HETATM    6  C   UNL     1     -10.300  10.898  66.905  1.00  0.00    -0.285 C  
HETATM    7  C   UNL     1      -8.590  10.263  66.650  1.00  0.00    -0.130 C  
HETATM    8  C   UNL     1     -10.854  11.881  65.938  1.00  0.00    -0.342 C  
HETATM    9  H   UNL     1     -10.607   8.352  65.199  1.00  0.00     0.000 HD 
HETATM   10  C   UNL     1      -8.321   8.693  67.458  1.00  0.00    -0.120 C  
HETATM   11  C   UNL     1      -9.273   8.128  68.762  1.00  0.00    -0.144 C  
HETATM   12  C   UNL     1      -9.166   6.657  69.180  1.00  0.00    -0.136 A  
HETATM   13  C   UNL     1      -8.030   5.901  68.830  1.00  0.00    -0.102 A  
HETATM   14  C   UNL     1      -7.807   4.629  69.367  1.00  0.00    -0.062 A  
HETATM   15  C   UNL     1      -8.725   4.091  70.254  1.00  0.00    -0.074 A  
HETATM   16  C   UNL     1      -9.849   4.814  70.626  1.00  0.00    -0.292 A  
HETATM   17  O   UNL     1      -8.550   2.857  70.808  1.00  0.00    -0.059 OA 
HETATM   18  C   UNL     1     -10.068   6.113  70.128  1.00  0.00    -0.233 A  
HETATM   19  H   UNL     1      -9.179   2.489  71.416  1.00  0.00     0.000 HD 
HETATM   20  C   UNL     1     -11.285   6.856  70.652  1.00  0.00    -0.346 C  
HETATM   21  C   UNL     1     -11.222   8.400  70.568  1.00  0.00    -0.252 C  
HETATM   22  C   UNL     1     -10.895   8.729  69.092  1.00  0.00    -0.074 C  
ENDROOT
BRANCH  21  23
HETATM   23  C   UNL     1     -10.196   8.972  71.568  1.00  0.00    -0.414 C  
BRANCH  23  24
HETATM   24  C   UNL     1      -9.785   8.062  72.710  1.00  0.00    -0.348 C  
BRANCH  24  25
HETATM   25  C   UNL     1      -8.291   8.235  73.026  1.00  0.00    -0.246 C  
BRANCH  25  26
HETATM   26  C   UNL     1      -7.346   7.435  72.114  1.00  0.00    -0.072 C  
BRANCH  26  27
HETATM   27  C   UNL     1      -6.408   8.304  71.275  1.00  0.00    -0.038 C  
BRANCH  27  28
HETATM   28  C   UNL     1      -7.007   9.684  71.001  1.00  0.00     0.018 C  
BRANCH  28  29
HETATM   29  C   UNL     1      -6.312  10.430  69.860  1.00  0.00    -0.095 C  
BRANCH  29  30
HETATM   30  C   UNL     1      -6.631  11.931  69.775  1.00  0.00    -0.022 C  
BRANCH  30  31
HETATM   31  C   UNL     1      -6.148  12.630  68.512  1.00  0.00    -0.062 C  
BRANCH  31  32
HETATM   32  S   UNL     1      -6.673  14.374  68.444  1.00  0.00    -0.116 S  
HETATM   33  O   UNL     1      -5.735  15.085  67.513  1.00  0.00    -0.326 OA 
BRANCH  32  34
HETATM   34  C   UNL     1      -8.235  14.121  67.541  1.00  0.00    -0.186 C  
BRANCH  34  35
HETATM   35  C   UNL     1      -9.244  15.228  67.826  1.00  0.00    -0.187 C  
BRANCH  35  36
HETATM   36  C   UNL     1      -9.871  15.073  69.211  1.00  0.00    -0.200 C  
BRANCH  36  37
HETATM   37  C   UNL     1     -11.381  15.302  69.221  1.00  0.00    -0.298 C  
HETATM   38  F   UNL     1     -11.639  16.496  68.613  1.00  0.00    -0.344 F  
HETATM   39  C   UNL     1     -12.019  15.251  70.617  1.00  0.00    -0.343 C  
HETATM   40  F   UNL     1     -11.938  14.353  68.411  1.00  0.00    -0.335 F  
HETATM   41  F   UNL     1     -11.146  14.869  71.573  1.00  0.00    -0.350 F  
HETATM   42  F   UNL     1     -12.513  16.461  70.971  1.00  0.00    -0.286 F  
HETATM   43  F   UNL     1     -13.057  14.378  70.665  1.00  0.00    -0.394 F  
ENDBRANCH  36  37
ENDBRANCH  35  36
ENDBRANCH  34  35
ENDBRANCH  32  34
ENDBRANCH  31  32
ENDBRANCH  30  31
ENDBRANCH  29  30
ENDBRANCH  28  29
ENDBRANCH  27  28
ENDBRANCH  26  27
ENDBRANCH  25  26
ENDBRANCH  24  25
ENDBRANCH  23  24
ENDBRANCH  21  23
TORSDOF 14
ENDMDL
MODEL      107
REMARK 921   NORMALIZED FREE ENERGY PREDICTED BY IDOCK:   -5.35 KCAL/MOL
REMARK 922        TOTAL FREE ENERGY PREDICTED BY IDOCK:  -13.01 KCAL/MOL
REMARK 923 INTER-LIGAND FREE ENERGY PREDICTED BY IDOCK:  -10.37 KCAL/MOL
REMARK 924 INTRA-LIGAND FREE ENERGY PREDICTED BY IDOCK:   -2.65 KCAL/MOL
REMARK 927      BINDING AFFINITY PREDICTED BY RF-SCORE:    0.00 PKD
ROOT
HETATM    1  C   UNL     1     -10.777   7.223  68.585  1.00  0.00    -0.172 C  
HETATM    2  C   UNL     1     -10.788   6.624  67.294  1.00  0.00    -0.456 C  
HETATM    3  C   UNL     1      -9.376   6.834  67.768  1.00  0.00    -0.116 C  
HETATM    4  C   UNL     1      -9.385   7.271  69.752  1.00  0.00    -0.150 C  
HETATM    5  O   UNL     1      -8.466   7.307  70.850  1.00  0.00    -0.125 OA 
HETATM    6  C   UNL     1      -9.553   5.972  69.340  1.00  0.00    -0.161 C  
HETATM    7  C   UNL     1      -7.734   6.092  69.081  1.00  0.00    -0.095 C  
HETATM    8  C   UNL     1     -10.102   4.788  70.051  1.00  0.00    -0.308 C  
HETATM    9  H   UNL     1      -8.469   7.511  71.777  1.00  0.00     0.000 HD 
HETATM   10  C   UNL     1      -7.195   7.774  68.820  1.00  0.00    -0.081 C  
HETATM   11  C   UNL     1      -8.233   9.026  68.289  1.00  0.00    -0.116 C  
HETATM   12  C   UNL     1      -7.759  10.481  68.390  1.00  0.00    -0.104 A  
HETATM   13  C   UNL     1      -6.386  10.774  68.485  1.00  0.00    -0.050 A  
HETATM   14  C   UNL     1      -5.909  12.084  68.371  1.00  0.00    -0.049 A  
HETATM   15  C   UNL     1      -6.806  13.121  68.171  1.00  0.00    -0.111 A  
HETATM   16  C   UNL     1      -8.165  12.864  68.064  1.00  0.00    -0.168 A  
HETATM   17  O   UNL     1      -6.392  14.415  68.049  1.00  0.00    -0.126 OA 
HETATM   18  C   UNL     1      -8.658  11.547  68.134  1.00  0.00    -0.156 A  
HETATM   19  H   UNL     1      -7.006  15.126  67.912  1.00  0.00     0.000 HD 
HETATM   20  C   UNL     1     -10.151  11.356  67.929  1.00  0.00    -0.198 C  
HETATM   21  C   UNL     1     -10.593   9.953  67.450  1.00  0.00    -0.338 C  
HETATM   22  C   UNL     1      -9.984   8.952  68.460  1.00  0.00    -0.195 C  
ENDROOT
BRANCH  21  23
HETATM   23  C   UNL     1     -10.160   9.698  65.991  1.00  0.00    -0.318 C  
BRANCH  23  24
HETATM   24  C   UNL     1      -9.697  10.908  65.202  1.00  0.00    -0.312 C  
BRANCH  24  25
HETATM   25  C   UNL     1     -10.516  11.053  63.910  1.00  0.00    -0.422 C  
BRANCH  25  26
HETATM   26  C   UNL     1     -11.258  12.394  63.768  1.00  0.00    -0.520 C  
BRANCH  26  27
HETATM   27  C   UNL     1     -12.620  12.428  64.460  1.00  0.00    -0.477 C  
BRANCH  27  28
HETATM   28  C   UNL     1     -12.782  13.673  65.333  1.00  0.00    -0.500 C  
BRANCH  28  29
HETATM   29  C   UNL     1     -11.525  14.543  65.387  1.00  0.00    -0.348 C  
BRANCH  29  30
HETATM   30  C   UNL     1     -10.788  14.538  66.735  1.00  0.00    -0.305 C  
BRANCH  30  31
HETATM   31  C   UNL     1     -11.199  15.635  67.707  1.00  0.00    -0.297 C  
BRANCH  31  32
HETATM   32  S   UNL     1      -9.762  16.467  68.457  1.00  0.00    -0.249 S  
HETATM   33  O   UNL     1      -8.633  16.380  67.471  1.00  0.00    -0.171 OA 
BRANCH  32  34
HETATM   34  C   UNL     1     -10.404  18.170  68.386  1.00  0.00    -0.356 C  
BRANCH  34  35
HETATM   35  C   UNL     1     -10.005  18.876  67.094  1.00  0.00    -0.382 C  
BRANCH  35  36
HETATM   36  C   UNL     1      -9.191  20.139  67.373  1.00  0.00    -0.495 C  
BRANCH  36  37
HETATM   37  C   UNL     1      -7.685  19.932  67.228  1.00  0.00    -0.276 C  
HETATM   38  F   UNL     1      -7.473  18.917  66.341  1.00  0.00    -0.222 F  
HETATM   39  C   UNL     1      -6.954  19.662  68.551  1.00  0.00    -0.310 C  
HETATM   40  F   UNL     1      -7.180  21.051  66.627  1.00  0.00    -0.309 F  
HETATM   41  F   UNL     1      -7.758  19.799  69.627  1.00  0.00    -0.332 F  
HETATM   42  F   UNL     1      -6.441  18.409  68.578  1.00  0.00    -0.200 F  
HETATM   43  F   UNL     1      -5.912  20.512  68.733  1.00  0.00    -0.291 F  
ENDBRANCH  36  37
ENDBRANCH  35  36
ENDBRANCH  34  35
ENDBRANCH  32  34
ENDBRANCH  31  32
ENDBRANCH  30  31
ENDBRANCH  29  30
ENDBRANCH  28  29
ENDBRANCH  27  28
ENDBRANCH  26  27
ENDBRANCH  25  26
ENDBRANCH  24  25
ENDBRANCH  23  24
ENDBRANCH  21  23
TORSDOF 14
ENDMDL
MODEL      108
REMARK 921   NORMALIZED FREE ENERGY PREDICTED BY IDOCK:   -5.34 KCAL/MOL
REMARK 922        TOTAL FREE ENERGY PREDICTED BY IDOCK:  -13.00 KCAL/MOL
REMARK 923 INTER-LIGAND FREE ENERGY PREDICTED BY IDOCK:  -10.93 KCAL/MOL
REMARK 924 INTRA-LIGAND FREE ENERGY PREDICTED BY IDOCK:   -2.07 KCAL/MOL
REMARK 927      BINDING AFFINITY PREDICTED BY RF-SCORE:    0.00 PKD
ROOT
HETATM    1  C   UNL     1     -12.348  13.340  69.130  1.00  0.00    -0.016 C  
HETATM    2  C   UNL     1     -11.225  12.492  69.342  1.00  0.00    -0.215 C  
HETATM    3  C   UNL     1     -11.034  13.810  70.043  1.00  0.00     0.264 C  
HETATM    4  C   UNL     1     -12.800  14.812  70.095  1.00  0.00    -0.148 C  
HETATM    5  O   UNL     1     -13.393  15.911  70.796  1.00  0.00    -0.704 OA 
HETATM    6  C   UNL     1     -12.578  13.778  70.970  1.00  0.00    -0.446 C  
HETATM    7  C   UNL     1     -11.558  15.057  71.816  1.00  0.00    -0.425 C  
HETATM    8  C   UNL     1     -13.525  12.964  71.777  1.00  0.00    -0.369 C  
HETATM    9  H   UNL     1     -14.219  16.380  70.821  1.00  0.00     0.000 HD 
HETATM   10  C   UNL     1     -10.991  16.324  70.694  1.00  0.00    -0.179 C  
HETATM   11  C   UNL     1     -10.882  16.105  69.000  1.00  0.00    -0.299 C  
HETATM   12  C   UNL     1     -10.683  17.331  68.101  1.00  0.00    -0.363 A  
HETATM   13  C   UNL     1     -10.163  18.525  68.636  1.00  0.00    -0.363 A  
HETATM   14  C   UNL     1      -9.778  19.587  67.811  1.00  0.00    -0.458 A  
HETATM   15  C   UNL     1      -9.920  19.470  66.437  1.00  0.00    -0.438 A  
HETATM   16  C   UNL     1     -10.422  18.304  65.879  1.00  0.00    -0.324 A  
HETATM   17  O   UNL     1      -9.556  20.475  65.590  1.00  0.00    -0.598 OA 
HETATM   18  C   UNL     1     -10.774  17.209  66.692  1.00  0.00    -0.082 A  
HETATM   19  H   UNL     1      -9.653  20.396  64.649  1.00  0.00     0.000 HD 
HETATM   20  C   UNL     1     -11.241  15.948  65.986  1.00  0.00     0.090 C  
HETATM   21  C   UNL     1     -11.082  14.630  66.782  1.00  0.00    -0.335 C  
HETATM   22  C   UNL     1     -11.791  14.869  68.136  1.00  0.00    -0.307 C  
ENDROOT
BRANCH  21  23
HETATM   23  C   UNL     1      -9.597  14.239  66.925  1.00  0.00    -0.268 C  
BRANCH  23  24
HETATM   24  C   UNL     1      -9.215  12.851  66.446  1.00  0.00    -0.144 C  
BRANCH  24  25
HETATM   25  C   UNL     1     -10.245  12.329  65.433  1.00  0.00    -0.297 C  
BRANCH  25  26
HETATM   26  C   UNL     1     -10.151  10.821  65.143  1.00  0.00    -0.363 C  
BRANCH  26  27
HETATM   27  C   UNL     1     -10.111   9.947  66.397  1.00  0.00    -0.308 C  
BRANCH  27  28
HETATM   28  C   UNL     1      -9.098   8.810  66.263  1.00  0.00    -0.240 C  
BRANCH  28  29
HETATM   29  C   UNL     1      -9.131   7.829  67.437  1.00  0.00    -0.138 C  
BRANCH  29  30
HETATM   30  C   UNL     1      -7.832   7.750  68.255  1.00  0.00    -0.121 C  
BRANCH  30  31
HETATM   31  C   UNL     1      -8.015   7.587  69.757  1.00  0.00    -0.124 C  
BRANCH  31  32
HETATM   32  S   UNL     1      -8.037   9.188  70.628  1.00  0.00    -0.178 S  
HETATM   33  O   UNL     1      -7.303  10.173  69.765  1.00  0.00    -0.123 OA 
BRANCH  32  34
HETATM   34  C   UNL     1      -9.815   9.538  70.447  1.00  0.00    -0.271 C  
BRANCH  34  35
HETATM   35  C   UNL     1     -10.674   8.342  70.842  1.00  0.00    -0.260 C  
BRANCH  35  36
HETATM   36  C   UNL     1     -10.817   8.230  72.359  1.00  0.00    -0.421 C  
BRANCH  36  37
HETATM   37  C   UNL     1     -10.420   6.861  72.905  1.00  0.00    -0.244 C  
HETATM   38  F   UNL     1      -9.131   6.608  72.537  1.00  0.00    -0.135 F  
HETATM   39  C   UNL     1     -11.346   5.714  72.473  1.00  0.00    -0.294 C  
HETATM   40  F   UNL     1     -10.396   6.961  74.268  1.00  0.00    -0.364 F  
HETATM   41  F   UNL     1     -12.433   6.150  71.800  1.00  0.00    -0.353 F  
HETATM   42  F   UNL     1     -10.695   4.836  71.675  1.00  0.00    -0.244 F  
HETATM   43  F   UNL     1     -11.804   5.008  73.537  1.00  0.00    -0.320 F  
ENDBRANCH  36  37
ENDBRANCH  35  36
ENDBRANCH  34  35
ENDBRANCH  32  34
ENDBRANCH  31  32
ENDBRANCH  30  31
ENDBRANCH  29  30
ENDBRANCH  28  29
ENDBRANCH  27  28
ENDBRANCH  26  27
ENDBRANCH  25  26
ENDBRANCH  24  25
ENDBRANCH  23  24
ENDBRANCH  21  23
TORSDOF 14
ENDMDL
MODEL      109
REMARK 921   NORMALIZED FREE ENERGY PREDICTED BY IDOCK:   -5.33 KCAL/MOL
REMARK 922        TOTAL FREE ENERGY PREDICTED BY IDOCK:  -12.99 KCAL/MOL
REMARK 923 INTER-LIGAND FREE ENERGY PREDICTED BY IDOCK:  -10.09 KCAL/MOL
REMARK 924 INTRA-LIGAND FREE ENERGY PREDICTED BY IDOCK:   -2.90 KCAL/MOL
REMARK 927      BINDING AFFINITY PREDICTED BY RF-SCORE:    0.00 PKD
ROOT
HETATM    1  C   UNL     1      -8.601   6.179  65.411  1.00  0.00    -0.111 C  
HETATM    2  C   UNL     1      -7.196   6.312  65.596  1.00  0.00    -0.074 C  
HETATM    3  C   UNL     1      -7.876   6.006  66.903  1.00  0.00    -0.101 C  
HETATM    4  C   UNL     1      -9.780   5.394  66.550  1.00  0.00    -0.164 C  
HETATM    5  O   UNL     1     -10.837   4.718  67.239  1.00  0.00     0.036 OA 
HETATM    6  C   UNL     1      -8.736   4.525  66.349  1.00  0.00    -0.112 C  
HETATM    7  C   UNL     1      -8.798   4.434  68.187  1.00  0.00    -0.128 C  
HETATM    8  C   UNL     1      -8.658   3.261  65.569  1.00  0.00    -0.114 C  
HETATM    9  H   UNL     1     -11.728   4.431  67.075  1.00  0.00     0.000 HD 
HETATM   10  C   UNL     1      -9.514   5.899  68.915  1.00  0.00    -0.146 C  
HETATM   11  C   UNL     1      -9.590   7.410  68.116  1.00  0.00    -0.148 C  
HETATM   12  C   UNL     1     -10.488   8.512  68.689  1.00  0.00    -0.200 A  
HETATM   13  C   UNL     1     -10.885   8.472  70.039  1.00  0.00    -0.225 A  
HETATM   14  C   UNL     1     -11.526   9.558  70.644  1.00  0.00    -0.362 A  
HETATM   15  C   UNL     1     -11.788  10.697  69.900  1.00  0.00    -0.315 A  
HETATM   16  C   UNL     1     -11.401  10.771  68.569  1.00  0.00    -0.360 A  
HETATM   17  O   UNL     1     -12.406  11.784  70.444  1.00  0.00    -0.321 OA 
HETATM   18  C   UNL     1     -10.717   9.704  67.956  1.00  0.00    -0.284 A  
HETATM   19  H   UNL     1     -12.586  12.565  69.934  1.00  0.00     0.000 HD 
HETATM   20  C   UNL     1     -10.267   9.907  66.520  1.00  0.00    -0.292 C  
HETATM   21  C   UNL     1      -9.079   9.030  66.055  1.00  0.00    -0.257 C  
HETATM   22  C   UNL     1      -9.487   7.570  66.365  1.00  0.00    -0.208 C  
ENDROOT
BRANCH  21  23
HETATM   23  C   UNL     1      -7.765   9.461  66.737  1.00  0.00    -0.098 C  
BRANCH  23  24
HETATM   24  C   UNL     1      -7.021  10.621  66.102  1.00  0.00    -0.135 C  
BRANCH  24  25
HETATM   25  C   UNL     1      -6.936  11.805  67.077  1.00  0.00    -0.135 C  
BRANCH  25  26
HETATM   26  C   UNL     1      -8.242  12.603  67.231  1.00  0.00    -0.184 C  
BRANCH  26  27
HETATM   27  C   UNL     1      -8.033  14.092  67.504  1.00  0.00    -0.202 C  
BRANCH  27  28
HETATM   28  C   UNL     1      -8.915  14.589  68.650  1.00  0.00    -0.181 C  
BRANCH  28  29
HETATM   29  C   UNL     1      -8.420  15.897  69.271  1.00  0.00    -0.242 C  
BRANCH  29  30
HETATM   30  C   UNL     1      -7.895  16.936  68.268  1.00  0.00    -0.208 C  
BRANCH  30  31
HETATM   31  C   UNL     1      -8.388  18.359  68.484  1.00  0.00    -0.323 C  
BRANCH  31  32
HETATM   32  S   UNL     1      -9.374  18.969  67.078  1.00  0.00    -0.320 S  
HETATM   33  O   UNL     1      -8.496  18.913  65.862  1.00  0.00    -0.474 OA 
BRANCH  32  34
HETATM   34  C   UNL     1     -10.532  17.568  66.968  1.00  0.00    -0.293 C  
BRANCH  34  35
HETATM   35  C   UNL     1     -10.611  17.003  65.554  1.00  0.00    -0.184 C  
BRANCH  35  36
HETATM   36  C   UNL     1     -10.070  15.575  65.489  1.00  0.00    -0.406 C  
BRANCH  36  37
HETATM   37  C   UNL     1     -11.067  14.577  64.905  1.00  0.00    -0.394 C  
HETATM   38  F   UNL     1     -11.834  15.225  63.981  1.00  0.00    -0.349 F  
HETATM   39  C   UNL     1     -11.947  13.876  65.950  1.00  0.00    -0.407 C  
HETATM   40  F   UNL     1     -10.347  13.655  64.198  1.00  0.00    -0.432 F  
HETATM   41  F   UNL     1     -11.581  14.166  67.217  1.00  0.00    -0.312 F  
HETATM   42  F   UNL     1     -13.247  14.228  65.808  1.00  0.00    -0.526 F  
HETATM   43  F   UNL     1     -11.895  12.526  65.829  1.00  0.00    -0.397 F  
ENDBRANCH  36  37
ENDBRANCH  35  36
ENDBRANCH  34  35
ENDBRANCH  32  34
ENDBRANCH  31  32
ENDBRANCH  30  31
ENDBRANCH  29  30
ENDBRANCH  28  29
ENDBRANCH  27  28
ENDBRANCH  26  27
ENDBRANCH  25  26
ENDBRANCH  24  25
ENDBRANCH  23  24
ENDBRANCH  21  23
TORSDOF 14
ENDMDL
MODEL      110
REMARK 921   NORMALIZED FREE ENERGY PREDICTED BY IDOCK:   -5.32 KCAL/MOL
REMARK 922        TOTAL FREE ENERGY PREDICTED BY IDOCK:  -12.97 KCAL/MOL
REMARK 923 INTER-LIGAND FREE ENERGY PREDICTED BY IDOCK:   -9.89 KCAL/MOL
REMARK 924 INTRA-LIGAND FREE ENERGY PREDICTED BY IDOCK:   -3.09 KCAL/MOL
REMARK 927      BINDING AFFINITY PREDICTED BY RF-SCORE:    0.00 PKD
ROOT
HETATM    1  C   UNL     1     -10.666  15.495  65.916  1.00  0.00    -0.346 C  
HETATM    2  C   UNL     1      -9.323  15.032  65.822  1.00  0.00    -0.171 C  
HETATM    3  C   UNL     1     -10.197  13.995  66.473  1.00  0.00    -0.279 C  
HETATM    4  C   UNL     1     -12.149  14.484  66.202  1.00  0.00    -0.286 C  
HETATM    5  O   UNL     1     -13.436  13.863  66.289  1.00  0.00     0.064 OA 
HETATM    6  C   UNL     1     -11.438  13.920  65.171  1.00  0.00    -0.324 C  
HETATM    7  C   UNL     1     -11.716  12.392  66.162  1.00  0.00    -0.460 C  
HETATM    8  C   UNL     1     -11.704  13.886  63.709  1.00  0.00    -0.138 C  
HETATM    9  H   UNL     1     -14.349  14.091  66.162  1.00  0.00     0.000 HD 
HETATM   10  C   UNL     1     -11.976  12.744  67.893  1.00  0.00    -0.320 C  
HETATM   11  C   UNL     1     -11.464  14.191  68.650  1.00  0.00    -0.332 C  
HETATM   12  C   UNL     1     -11.999  14.532  70.046  1.00  0.00    -0.388 A  
HETATM   13  C   UNL     1     -12.523  13.519  70.870  1.00  0.00    -0.448 A  
HETATM   14  C   UNL     1     -12.826  13.757  72.215  1.00  0.00    -0.357 A  
HETATM   15  C   UNL     1     -12.617  15.018  72.749  1.00  0.00    -0.390 A  
HETATM   16  C   UNL     1     -12.092  16.035  71.964  1.00  0.00    -0.606 A  
HETATM   17  O   UNL     1     -12.892  15.300  74.055  1.00  0.00    -0.591 OA 
HETATM   18  C   UNL     1     -11.742  15.802  70.621  1.00  0.00    -0.412 A  
HETATM   19  H   UNL     1     -12.748  16.164  74.421  1.00  0.00     0.000 HD 
HETATM   20  C   UNL     1     -11.104  16.954  69.864  1.00  0.00     0.174 C  
HETATM   21  C   UNL     1     -10.234  16.562  68.646  1.00  0.00    -0.264 C  
HETATM   22  C   UNL     1     -11.133  15.671  67.756  1.00  0.00    -0.311 C  
ENDROOT
BRANCH  21  23
HETATM   23  C   UNL     1      -8.929  15.870  69.090  1.00  0.00    -0.256 C  
BRANCH  23  24
HETATM   24  C   UNL     1      -7.639  16.619  68.814  1.00  0.00    -0.227 C  
BRANCH  24  25
HETATM   25  C   UNL     1      -6.429  15.802  69.292  1.00  0.00    -0.154 C  
BRANCH  25  26
HETATM   26  C   UNL     1      -6.785  14.471  69.977  1.00  0.00    -0.110 C  
BRANCH  26  27
HETATM   27  C   UNL     1      -6.216  13.238  69.275  1.00  0.00    -0.104 C  
BRANCH  27  28
HETATM   28  C   UNL     1      -7.103  12.787  68.113  1.00  0.00    -0.105 C  
BRANCH  28  29
HETATM   29  C   UNL     1      -8.442  12.201  68.566  1.00  0.00    -0.083 C  
BRANCH  29  30
HETATM   30  C   UNL     1      -8.733  10.779  68.060  1.00  0.00    -0.132 C  
BRANCH  30  31
HETATM   31  C   UNL     1      -7.739   9.714  68.502  1.00  0.00    -0.081 C  
BRANCH  31  32
HETATM   32  S   UNL     1      -7.601   9.608  70.316  1.00  0.00    -0.166 S  
HETATM   33  O   UNL     1      -8.992   9.451  70.859  1.00  0.00    -0.229 OA 
BRANCH  32  34
HETATM   34  C   UNL     1      -6.805   7.972  70.403  1.00  0.00    -0.037 C  
BRANCH  34  35
HETATM   35  C   UNL     1      -7.674   6.953  71.131  1.00  0.00    -0.089 C  
BRANCH  35  36
HETATM   36  C   UNL     1      -8.572   6.186  70.161  1.00  0.00    -0.133 C  
BRANCH  36  37
HETATM   37  C   UNL     1     -10.015   6.059  70.645  1.00  0.00    -0.185 C  
HETATM   38  F   UNL     1     -10.383   4.748  70.561  1.00  0.00    -0.302 F  
HETATM   39  C   UNL     1     -11.013   6.955  69.897  1.00  0.00    -0.277 C  
HETATM   40  F   UNL     1     -10.021   6.354  71.978  1.00  0.00    -0.171 F  
HETATM   41  F   UNL     1     -10.408   7.803  69.038  1.00  0.00    -0.193 F  
HETATM   42  F   UNL     1     -11.897   6.214  69.187  1.00  0.00    -0.381 F  
HETATM   43  F   UNL     1     -11.742   7.718  70.749  1.00  0.00    -0.287 F  
ENDBRANCH  36  37
ENDBRANCH  35  36
ENDBRANCH  34  35
ENDBRANCH  32  34
ENDBRANCH  31  32
ENDBRANCH  30  31
ENDBRANCH  29  30
ENDBRANCH  28  29
ENDBRANCH  27  28
ENDBRANCH  26  27
ENDBRANCH  25  26
ENDBRANCH  24  25
ENDBRANCH  23  24
ENDBRANCH  21  23
TORSDOF 14
ENDMDL
MODEL      111
REMARK 921   NORMALIZED FREE ENERGY PREDICTED BY IDOCK:   -5.32 KCAL/MOL
REMARK 922        TOTAL FREE ENERGY PREDICTED BY IDOCK:  -12.97 KCAL/MOL
REMARK 923 INTER-LIGAND FREE ENERGY PREDICTED BY IDOCK:  -10.26 KCAL/MOL
REMARK 924 INTRA-LIGAND FREE ENERGY PREDICTED BY IDOCK:   -2.71 KCAL/MOL
REMARK 927      BINDING AFFINITY PREDICTED BY RF-SCORE:    0.00 PKD
ROOT
HETATM    1  C   UNL     1      -9.715   4.830  67.067  1.00  0.00    -0.205 C  
HETATM    2  C   UNL     1     -10.852   5.564  66.626  1.00  0.00    -0.257 C  
HETATM    3  C   UNL     1      -9.690   6.486  66.875  1.00  0.00    -0.199 C  
HETATM    4  C   UNL     1      -7.988   5.395  67.071  1.00  0.00    -0.101 C  
HETATM    5  O   UNL     1      -6.571   5.598  67.039  1.00  0.00    -0.052 OA 
HETATM    6  C   UNL     1      -8.510   5.624  65.822  1.00  0.00    -0.140 C  
HETATM    7  C   UNL     1      -7.758   7.283  66.097  1.00  0.00    -0.101 C  
HETATM    8  C   UNL     1      -8.275   4.934  64.526  1.00  0.00    -0.123 C  
HETATM    9  H   UNL     1      -5.775   5.088  67.131  1.00  0.00     0.000 HD 
HETATM   10  C   UNL     1      -7.586   7.671  67.831  1.00  0.00    -0.117 C  
HETATM   11  C   UNL     1      -8.504   6.917  69.063  1.00  0.00    -0.128 C  
HETATM   12  C   UNL     1      -8.073   7.088  70.524  1.00  0.00    -0.114 A  
HETATM   13  C   UNL     1      -7.247   8.165  70.898  1.00  0.00    -0.055 A  
HETATM   14  C   UNL     1      -7.006   8.468  72.243  1.00  0.00    -0.094 A  
HETATM   15  C   UNL     1      -7.583   7.688  73.232  1.00  0.00    -0.104 A  
HETATM   16  C   UNL     1      -8.409   6.625  72.896  1.00  0.00    -0.121 A  
HETATM   17  O   UNL     1      -7.383   7.944  74.556  1.00  0.00    -0.139 OA 
HETATM   18  C   UNL     1      -8.696   6.332  71.549  1.00  0.00    -0.134 A  
HETATM   19  H   UNL     1      -7.778   7.410  75.234  1.00  0.00     0.000 HD 
HETATM   20  C   UNL     1      -9.672   5.199  71.281  1.00  0.00    -0.228 C  
HETATM   21  C   UNL     1     -10.402   5.244  69.918  1.00  0.00    -0.374 C  
HETATM   22  C   UNL     1      -9.290   5.356  68.849  1.00  0.00    -0.161 C  
ENDROOT
BRANCH  21  23
HETATM   23  C   UNL     1     -11.423   6.400  69.868  1.00  0.00    -0.483 C  
BRANCH  23  24
HETATM   24  C   UNL     1     -12.082   6.776  71.182  1.00  0.00    -0.422 C  
BRANCH  24  25
HETATM   25  C   UNL     1     -12.281   8.297  71.268  1.00  0.00    -0.295 C  
BRANCH  25  26
HETATM   26  C   UNL     1     -11.024   9.086  71.675  1.00  0.00    -0.435 C  
BRANCH  26  27
HETATM   27  C   UNL     1     -10.347   9.818  70.517  1.00  0.00    -0.348 C  
BRANCH  27  28
HETATM   28  C   UNL     1     -11.310  10.049  69.351  1.00  0.00    -0.192 C  
BRANCH  28  29
HETATM   29  C   UNL     1     -11.712  11.516  69.180  1.00  0.00    -0.395 C  
BRANCH  29  30
HETATM   30  C   UNL     1     -11.204  12.183  67.892  1.00  0.00    -0.329 C  
BRANCH  30  31
HETATM   31  C   UNL     1     -11.834  13.528  67.562  1.00  0.00    -0.368 C  
BRANCH  31  32
HETATM   32  S   UNL     1     -10.732  14.924  67.961  1.00  0.00    -0.259 S  
HETATM   33  O   UNL     1      -9.642  14.391  68.844  1.00  0.00    -0.198 OA 
BRANCH  32  34
HETATM   34  C   UNL     1     -10.016  15.149  66.302  1.00  0.00    -0.288 C  
BRANCH  34  35
HETATM   35  C   UNL     1      -9.759  16.618  65.987  1.00  0.00    -0.306 C  
BRANCH  35  36
HETATM   36  C   UNL     1      -9.252  17.375  67.214  1.00  0.00    -0.234 C  
BRANCH  36  37
HETATM   37  C   UNL     1      -9.948  18.718  67.427  1.00  0.00    -0.335 C  
HETATM   38  F   UNL     1     -11.276  18.562  67.157  1.00  0.00    -0.336 F  
HETATM   39  C   UNL     1      -9.356  19.874  66.606  1.00  0.00    -0.395 C  
HETATM   40  F   UNL     1      -9.878  19.001  68.761  1.00  0.00    -0.380 F  
HETATM   41  F   UNL     1      -8.230  19.521  65.949  1.00  0.00    -0.326 F  
HETATM   42  F   UNL     1     -10.243  20.324  65.688  1.00  0.00    -0.537 F  
HETATM   43  F   UNL     1      -9.035  20.934  67.389  1.00  0.00    -0.454 F  
ENDBRANCH  36  37
ENDBRANCH  35  36
ENDBRANCH  34  35
ENDBRANCH  32  34
ENDBRANCH  31  32
ENDBRANCH  30  31
ENDBRANCH  29  30
ENDBRANCH  28  29
ENDBRANCH  27  28
ENDBRANCH  26  27
ENDBRANCH  25  26
ENDBRANCH  24  25
ENDBRANCH  23  24
ENDBRANCH  21  23
TORSDOF 14
ENDMDL
MODEL      112
REMARK 921   NORMALIZED FREE ENERGY PREDICTED BY IDOCK:   -5.30 KCAL/MOL
REMARK 922        TOTAL FREE ENERGY PREDICTED BY IDOCK:  -12.94 KCAL/MOL
REMARK 923 INTER-LIGAND FREE ENERGY PREDICTED BY IDOCK:   -9.88 KCAL/MOL
REMARK 924 INTRA-LIGAND FREE ENERGY PREDICTED BY IDOCK:   -3.06 KCAL/MOL
REMARK 927      BINDING AFFINITY PREDICTED BY RF-SCORE:    0.00 PKD
ROOT
HETATM    1  C   UNL     1     -10.288   5.653  67.865  1.00  0.00    -0.260 C  
HETATM    2  C   UNL     1     -11.161   6.634  67.315  1.00  0.00    -0.418 C  
HETATM    3  C   UNL     1      -9.724   7.009  67.076  1.00  0.00    -0.216 C  
HETATM    4  C   UNL     1      -8.531   5.412  67.467  1.00  0.00    -0.106 C  
HETATM    5  O   UNL     1      -7.192   4.980  67.204  1.00  0.00    -0.074 OA 
HETATM    6  C   UNL     1      -9.234   5.465  66.288  1.00  0.00    -0.157 C  
HETATM    7  C   UNL     1      -7.897   6.653  65.847  1.00  0.00    -0.102 C  
HETATM    8  C   UNL     1      -9.593   4.396  65.320  1.00  0.00    -0.186 C  
HETATM    9  H   UNL     1      -6.634   4.233  67.387  1.00  0.00     0.000 HD 
HETATM   10  C   UNL     1      -7.168   7.418  67.287  1.00  0.00    -0.093 C  
HETATM   11  C   UNL     1      -7.953   7.516  68.804  1.00  0.00    -0.126 C  
HETATM   12  C   UNL     1      -7.137   7.907  70.042  1.00  0.00    -0.050 A  
HETATM   13  C   UNL     1      -5.916   8.593  69.898  1.00  0.00    -0.031 A  
HETATM   14  C   UNL     1      -5.253   9.143  71.000  1.00  0.00    -0.031 A  
HETATM   15  C   UNL     1      -5.802   9.004  72.265  1.00  0.00    -0.063 A  
HETATM   16  C   UNL     1      -7.009   8.341  72.439  1.00  0.00    -0.104 A  
HETATM   17  O   UNL     1      -5.198   9.525  73.371  1.00  0.00    -0.128 OA 
HETATM   18  C   UNL     1      -7.710   7.818  71.335  1.00  0.00    -0.082 A  
HETATM   19  H   UNL     1      -5.573   9.430  74.238  1.00  0.00     0.000 HD 
HETATM   20  C   UNL     1      -9.058   7.178  71.615  1.00  0.00    -0.141 C  
HETATM   21  C   UNL     1     -10.043   7.128  70.421  1.00  0.00    -0.199 C  
HETATM   22  C   UNL     1      -9.270   6.444  69.268  1.00  0.00    -0.135 C  
ENDROOT
BRANCH  21  23
HETATM   23  C   UNL     1     -10.562   8.536  70.065  1.00  0.00    -0.230 C  
BRANCH  23  24
HETATM   24  C   UNL     1     -10.942   9.431  71.230  1.00  0.00    -0.440 C  
BRANCH  24  25
HETATM   25  C   UNL     1     -12.334   9.058  71.764  1.00  0.00    -0.438 C  
BRANCH  25  26
HETATM   26  C   UNL     1     -13.367  10.196  71.713  1.00  0.00    -0.485 C  
BRANCH  26  27
HETATM   27  C   UNL     1     -12.785  11.545  71.290  1.00  0.00    -0.469 C  
BRANCH  27  28
HETATM   28  C   UNL     1     -13.290  12.684  72.178  1.00  0.00    -0.570 C  
BRANCH  28  29
HETATM   29  C   UNL     1     -13.442  14.011  71.432  1.00  0.00    -0.360 C  
BRANCH  29  30
HETATM   30  C   UNL     1     -12.122  14.668  70.999  1.00  0.00    -0.393 C  
BRANCH  30  31
HETATM   31  C   UNL     1     -12.243  15.715  69.901  1.00  0.00    -0.294 C  
BRANCH  31  32
HETATM   32  S   UNL     1     -10.627  16.413  69.429  1.00  0.00    -0.326 S  
HETATM   33  O   UNL     1      -9.574  15.458  69.909  1.00  0.00    -0.259 OA 
BRANCH  32  34
HETATM   34  C   UNL     1     -10.780  16.182  67.629  1.00  0.00    -0.318 C  
BRANCH  34  35
HETATM   35  C   UNL     1     -11.452  14.858  67.280  1.00  0.00    -0.350 C  
BRANCH  35  36
HETATM   36  C   UNL     1     -10.428  13.738  67.106  1.00  0.00    -0.272 C  
BRANCH  36  37
HETATM   37  C   UNL     1     -11.051  12.408  66.686  1.00  0.00    -0.289 C  
HETATM   38  F   UNL     1     -12.330  12.643  66.273  1.00  0.00    -0.461 F  
HETATM   39  C   UNL     1     -11.020  11.324  67.774  1.00  0.00    -0.252 C  
HETATM   40  F   UNL     1     -10.382  11.982  65.574  1.00  0.00    -0.256 F  
HETATM   41  F   UNL     1     -10.315  11.700  68.862  1.00  0.00    -0.207 F  
HETATM   42  F   UNL     1     -12.271  11.009  68.184  1.00  0.00    -0.268 F  
HETATM   43  F   UNL     1     -10.458  10.175  67.324  1.00  0.00    -0.240 F  
ENDBRANCH  36  37
ENDBRANCH  35  36
ENDBRANCH  34  35
ENDBRANCH  32  34
ENDBRANCH  31  32
ENDBRANCH  30  31
ENDBRANCH  29  30
ENDBRANCH  28  29
ENDBRANCH  27  28
ENDBRANCH  26  27
ENDBRANCH  25  26
ENDBRANCH  24  25
ENDBRANCH  23  24
ENDBRANCH  21  23
TORSDOF 14
ENDMDL
MODEL      113
REMARK 921   NORMALIZED FREE ENERGY PREDICTED BY IDOCK:   -5.30 KCAL/MOL
REMARK 922        TOTAL FREE ENERGY PREDICTED BY IDOCK:  -12.93 KCAL/MOL
REMARK 923 INTER-LIGAND FREE ENERGY PREDICTED BY IDOCK:  -10.54 KCAL/MOL
REMARK 924 INTRA-LIGAND FREE ENERGY PREDICTED BY IDOCK:   -2.38 KCAL/MOL
REMARK 927      BINDING AFFINITY PREDICTED BY RF-SCORE:    0.00 PKD
ROOT
HETATM    1  C   UNL     1     -10.997   9.818  71.257  1.00  0.00    -0.331 C  
HETATM    2  C   UNL     1     -11.032   9.771  69.835  1.00  0.00    -0.299 C  
HETATM    3  C   UNL     1     -12.010   8.790  70.423  1.00  0.00     0.129 C  
HETATM    4  C   UNL     1     -12.257   9.180  72.401  1.00  0.00    -0.193 C  
HETATM    5  O   UNL     1     -13.176   8.865  73.453  1.00  0.00    -0.727 OA 
HETATM    6  C   UNL     1     -12.885   9.968  71.467  1.00  0.00    -0.537 C  
HETATM    7  C   UNL     1     -14.007   8.509  71.374  1.00  0.00    -0.331 C  
HETATM    8  C   UNL     1     -13.480  11.326  71.579  1.00  0.00    -0.014 C  
HETATM    9  H   UNL     1     -13.291   9.047  74.378  1.00  0.00     0.000 HD 
HETATM   10  C   UNL     1     -13.200   6.999  71.880  1.00  0.00    -0.252 C  
HETATM   11  C   UNL     1     -11.502   6.791  71.882  1.00  0.00    -0.318 C  
HETATM   12  C   UNL     1     -10.899   5.588  72.616  1.00  0.00    -0.305 A  
HETATM   13  C   UNL     1     -11.691   4.458  72.894  1.00  0.00     0.076 A  
HETATM   14  C   UNL     1     -11.126   3.270  73.372  1.00  0.00    -0.282 A  
HETATM   15  C   UNL     1      -9.759   3.204  73.588  1.00  0.00    -0.103 A  
HETATM   16  C   UNL     1      -8.950   4.297  73.315  1.00  0.00    -0.107 A  
HETATM   17  O   UNL     1      -9.160   2.069  74.049  1.00  0.00    -0.065 OA 
HETATM   18  C   UNL     1      -9.496   5.486  72.794  1.00  0.00    -0.160 A  
HETATM   19  H   UNL     1      -8.223   2.022  74.197  1.00  0.00     0.000 HD 
HETATM   20  C   UNL     1      -8.523   6.601  72.454  1.00  0.00    -0.117 C  
HETATM   21  C   UNL     1      -9.010   7.626  71.402  1.00  0.00    -0.144 C  
HETATM   22  C   UNL     1     -10.374   8.143  71.919  1.00  0.00    -0.300 C  
ENDROOT
BRANCH  21  23
HETATM   23  C   UNL     1      -9.084   6.993  69.997  1.00  0.00    -0.145 C  
BRANCH  23  24
HETATM   24  C   UNL     1      -7.784   6.929  69.216  1.00  0.00    -0.105 C  
BRANCH  24  25
HETATM   25  C   UNL     1      -7.596   8.203  68.379  1.00  0.00    -0.105 C  
BRANCH  25  26
HETATM   26  C   UNL     1      -7.879   8.031  66.876  1.00  0.00    -0.103 C  
BRANCH  26  27
HETATM   27  C   UNL     1      -9.365   7.961  66.527  1.00  0.00    -0.255 C  
BRANCH  27  28
HETATM   28  C   UNL     1      -9.869   9.276  65.929  1.00  0.00    -0.335 C  
BRANCH  28  29
HETATM   29  C   UNL     1      -9.071   9.731  64.706  1.00  0.00    -0.290 C  
BRANCH  29  30
HETATM   30  C   UNL     1      -9.767  10.786  63.832  1.00  0.00    -0.366 C  
BRANCH  30  31
HETATM   31  C   UNL     1     -11.040  11.381  64.417  1.00  0.00    -0.259 C  
BRANCH  31  32
HETATM   32  S   UNL     1     -11.194  13.163  64.065  1.00  0.00    -0.340 S  
HETATM   33  O   UNL     1     -12.661  13.478  64.003  1.00  0.00    -0.661 OA 
BRANCH  32  34
HETATM   34  C   UNL     1     -10.581  13.780  65.665  1.00  0.00    -0.298 C  
BRANCH  34  35
HETATM   35  C   UNL     1     -11.415  13.265  66.832  1.00  0.00    -0.376 C  
BRANCH  35  36
HETATM   36  C   UNL     1     -12.067  14.410  67.606  1.00  0.00    -0.312 C  
BRANCH  36  37
HETATM   37  C   UNL     1     -11.797  14.356  69.108  1.00  0.00    -0.323 C  
HETATM   38  F   UNL     1     -12.909  13.866  69.729  1.00  0.00    -0.296 F  
HETATM   39  C   UNL     1     -11.375  15.699  69.723  1.00  0.00    -0.327 C  
HETATM   40  F   UNL     1     -10.825  13.417  69.310  1.00  0.00    -0.246 F  
HETATM   41  F   UNL     1     -11.181  16.658  68.793  1.00  0.00    -0.320 F  
HETATM   42  F   UNL     1     -12.310  16.152  70.591  1.00  0.00    -0.387 F  
HETATM   43  F   UNL     1     -10.217  15.591  70.421  1.00  0.00    -0.312 F  
ENDBRANCH  36  37
ENDBRANCH  35  36
ENDBRANCH  34  35
ENDBRANCH  32  34
ENDBRANCH  31  32
ENDBRANCH  30  31
ENDBRANCH  29  30
ENDBRANCH  28  29
ENDBRANCH  27  28
ENDBRANCH  26  27
ENDBRANCH  25  26
ENDBRANCH  24  25
ENDBRANCH  23  24
ENDBRANCH  21  23
TORSDOF 14
ENDMDL
MODEL      114
REMARK 921   NORMALIZED FREE ENERGY PREDICTED BY IDOCK:   -5.26 KCAL/MOL
REMARK 922        TOTAL FREE ENERGY PREDICTED BY IDOCK:  -12.85 KCAL/MOL
REMARK 923 INTER-LIGAND FREE ENERGY PREDICTED BY IDOCK:  -10.33 KCAL/MOL
REMARK 924 INTRA-LIGAND FREE ENERGY PREDICTED BY IDOCK:   -2.52 KCAL/MOL
REMARK 927      BINDING AFFINITY PREDICTED BY RF-SCORE:    0.00 PKD
ROOT
HETATM    1  C   UNL     1     -10.091  14.811  66.114  1.00  0.00    -0.312 C  
HETATM    2  C   UNL     1      -8.774  14.281  66.221  1.00  0.00     0.265 C  
HETATM    3  C   UNL     1      -9.770  13.362  66.876  1.00  0.00    -0.253 C  
HETATM    4  C   UNL     1     -11.652  13.905  66.335  1.00  0.00    -0.367 C  
HETATM    5  O   UNL     1     -12.973  13.355  66.342  1.00  0.00    -0.054 OA 
HETATM    6  C   UNL     1     -10.867  13.199  65.457  1.00  0.00    -0.299 C  
HETATM    7  C   UNL     1     -11.335  11.804  66.566  1.00  0.00    -0.370 C  
HETATM    8  C   UNL     1     -10.976  13.015  63.986  1.00  0.00    -0.422 C  
HETATM    9  H   UNL     1     -13.853  13.608  66.089  1.00  0.00     0.000 HD 
HETATM   10  C   UNL     1     -11.759  12.358  68.209  1.00  0.00    -0.398 C  
HETATM   11  C   UNL     1     -11.250  13.855  68.862  1.00  0.00    -0.304 C  
HETATM   12  C   UNL     1     -11.912  14.373  70.145  1.00  0.00    -0.386 A  
HETATM   13  C   UNL     1     -12.579  13.482  71.007  1.00  0.00    -0.438 A  
HETATM   14  C   UNL     1     -13.010  13.881  72.277  1.00  0.00    -0.450 A  
HETATM   15  C   UNL     1     -12.788  15.183  72.695  1.00  0.00    -0.386 A  
HETATM   16  C   UNL     1     -12.126  16.083  71.871  1.00  0.00    -0.590 A  
HETATM   17  O   UNL     1     -13.186  15.620  73.924  1.00  0.00    -0.655 OA 
HETATM   18  C   UNL     1     -11.648  15.686  70.608  1.00  0.00    -0.394 A  
HETATM   19  H   UNL     1     -13.034  16.513  74.211  1.00  0.00     0.000 HD 
HETATM   20  C   UNL     1     -10.868  16.717  69.811  1.00  0.00    -0.156 C  
HETATM   21  C   UNL     1      -9.895  16.154  68.747  1.00  0.00    -0.230 C  
HETATM   22  C   UNL     1     -10.743  15.211  67.860  1.00  0.00    -0.268 C  
ENDROOT
BRANCH  21  23
HETATM   23  C   UNL     1      -8.687  15.459  69.406  1.00  0.00    -0.252 C  
BRANCH  23  24
HETATM   24  C   UNL     1      -7.318  16.025  69.077  1.00  0.00    -0.191 C  
BRANCH  24  25
HETATM   25  C   UNL     1      -6.214  15.169  69.714  1.00  0.00    -0.147 C  
BRANCH  25  26
HETATM   26  C   UNL     1      -6.708  13.865  70.364  1.00  0.00     0.265 C  
BRANCH  26  27
HETATM   27  C   UNL     1      -6.006  12.608  69.850  1.00  0.00    -0.141 C  
BRANCH  27  28
HETATM   28  C   UNL     1      -6.579  12.146  68.509  1.00  0.00    -0.063 C  
BRANCH  28  29
HETATM   29  C   UNL     1      -7.857  11.317  68.650  1.00  0.00    -0.139 C  
BRANCH  29  30
HETATM   30  C   UNL     1      -7.800  10.212  69.717  1.00  0.00    -0.175 C  
BRANCH  30  31
HETATM   31  C   UNL     1      -9.139   9.827  70.330  1.00  0.00    -0.157 C  
BRANCH  31  32
HETATM   32  S   UNL     1      -8.992   8.426  71.486  1.00  0.00    -0.215 S  
HETATM   33  O   UNL     1      -8.424   8.964  72.767  1.00  0.00    -0.380 OA 
BRANCH  32  34
HETATM   34  C   UNL     1     -10.772   8.153  71.762  1.00  0.00    -0.251 C  
BRANCH  34  35
HETATM   35  C   UNL     1     -11.246   6.834  71.162  1.00  0.00    -0.327 C  
BRANCH  35  36
HETATM   36  C   UNL     1     -10.215   5.724  71.362  1.00  0.00    -0.269 C  
BRANCH  36  37
HETATM   37  C   UNL     1     -10.420   4.932  72.652  1.00  0.00    -0.206 C  
HETATM   38  F   UNL     1      -9.663   5.504  73.633  1.00  0.00    -0.142 F  
HETATM   39  C   UNL     1     -10.112   3.432  72.529  1.00  0.00    -0.162 C  
HETATM   40  F   UNL     1     -11.717   5.119  73.038  1.00  0.00    -0.356 F  
HETATM   41  F   UNL     1      -9.851   3.058  71.258  1.00  0.00    -0.222 F  
HETATM   42  F   UNL     1      -9.042   3.091  73.285  1.00  0.00    -0.083 F  
HETATM   43  F   UNL     1     -11.149   2.669  72.955  1.00  0.00    -0.246 F  
ENDBRANCH  36  37
ENDBRANCH  35  36
ENDBRANCH  34  35
ENDBRANCH  32  34
ENDBRANCH  31  32
ENDBRANCH  30  31
ENDBRANCH  29  30
ENDBRANCH  28  29
ENDBRANCH  27  28
ENDBRANCH  26  27
ENDBRANCH  25  26
ENDBRANCH  24  25
ENDBRANCH  23  24
ENDBRANCH  21  23
TORSDOF 14
ENDMDL
MODEL      115
REMARK 921   NORMALIZED FREE ENERGY PREDICTED BY IDOCK:   -5.24 KCAL/MOL
REMARK 922        TOTAL FREE ENERGY PREDICTED BY IDOCK:  -12.82 KCAL/MOL
REMARK 923 INTER-LIGAND FREE ENERGY PREDICTED BY IDOCK:   -9.72 KCAL/MOL
REMARK 924 INTRA-LIGAND FREE ENERGY PREDICTED BY IDOCK:   -3.10 KCAL/MOL
REMARK 927      BINDING AFFINITY PREDICTED BY RF-SCORE:    0.00 PKD
ROOT
HETATM    1  C   UNL     1      -6.749   9.438  65.750  1.00  0.00    -0.077 C  
HETATM    2  C   UNL     1      -7.157   8.177  66.270  1.00  0.00    -0.073 C  
HETATM    3  C   UNL     1      -7.959   8.531  65.047  1.00  0.00    -0.131 C  
HETATM    4  C   UNL     1      -7.078  10.088  64.085  1.00  0.00    -0.126 C  
HETATM    5  O   UNL     1      -7.118  10.720  62.801  1.00  0.00    -0.324 OA 
HETATM    6  C   UNL     1      -6.556   8.824  63.956  1.00  0.00    -0.079 C  
HETATM    7  C   UNL     1      -7.992   8.629  62.819  1.00  0.00    -0.154 C  
HETATM    8  C   UNL     1      -5.216   8.365  63.506  1.00  0.00    -0.057 C  
HETATM    9  H   UNL     1      -6.706  11.448  62.351  1.00  0.00     0.000 HD 
HETATM   10  C   UNL     1      -9.322   9.756  63.207  1.00  0.00    -0.125 C  
HETATM   11  C   UNL     1      -9.518  10.493  64.738  1.00  0.00    -0.312 C  
HETATM   12  C   UNL     1     -10.494  11.668  64.881  1.00  0.00    -0.339 A  
HETATM   13  C   UNL     1     -11.518  11.857  63.933  1.00  0.00    -0.511 A  
HETATM   14  C   UNL     1     -12.543  12.786  64.142  1.00  0.00    -0.390 A  
HETATM   15  C   UNL     1     -12.549  13.546  65.301  1.00  0.00    -0.468 A  
HETATM   16  C   UNL     1     -11.559  13.377  66.258  1.00  0.00    -0.378 A  
HETATM   17  O   UNL     1     -13.528  14.462  65.553  1.00  0.00    -0.609 OA 
HETATM   18  C   UNL     1     -10.544  12.416  66.083  1.00  0.00    -0.283 A  
HETATM   19  H   UNL     1     -13.532  14.983  66.347  1.00  0.00     0.000 HD 
HETATM   20  C   UNL     1      -9.549  12.249  67.219  1.00  0.00    -0.187 C  
HETATM   21  C   UNL     1      -8.827  10.882  67.289  1.00  0.00    -0.134 C  
HETATM   22  C   UNL     1      -8.199  10.667  65.891  1.00  0.00    -0.159 C  
ENDROOT
BRANCH  21  23
HETATM   23  C   UNL     1      -9.797   9.759  67.708  1.00  0.00    -0.191 C  
BRANCH  23  24
HETATM   24  C   UNL     1     -10.899  10.144  68.678  1.00  0.00    -0.272 C  
BRANCH  24  25
HETATM   25  C   UNL     1     -10.407  10.017  70.128  1.00  0.00    -0.321 C  
BRANCH  25  26
HETATM   26  C   UNL     1     -11.514   9.725  71.157  1.00  0.00    -0.472 C  
BRANCH  26  27
HETATM   27  C   UNL     1     -11.911   8.251  71.241  1.00  0.00    -0.317 C  
BRANCH  27  28
HETATM   28  C   UNL     1     -11.778   7.708  72.664  1.00  0.00    -0.323 C  
BRANCH  28  29
HETATM   29  C   UNL     1     -10.340   7.726  73.187  1.00  0.00    -0.403 C  
BRANCH  29  30
HETATM   30  C   UNL     1      -9.787   6.358  73.615  1.00  0.00    -0.213 C  
BRANCH  30  31
HETATM   31  C   UNL     1      -8.370   6.053  73.151  1.00  0.00    -0.116 C  
BRANCH  31  32
HETATM   32  S   UNL     1      -8.342   5.096  71.600  1.00  0.00    -0.118 S  
HETATM   33  O   UNL     1      -7.746   3.756  71.915  1.00  0.00    -0.056 OA 
BRANCH  32  34
HETATM   34  C   UNL     1     -10.139   4.857  71.430  1.00  0.00    -0.198 C  
BRANCH  34  35
HETATM   35  C   UNL     1     -10.639   5.255  70.046  1.00  0.00    -0.300 C  
BRANCH  35  36
HETATM   36  C   UNL     1      -9.765   4.663  68.941  1.00  0.00    -0.236 C  
BRANCH  36  37
HETATM   37  C   UNL     1      -9.252   5.707  67.951  1.00  0.00    -0.106 C  
HETATM   38  F   UNL     1      -9.207   6.915  68.584  1.00  0.00    -0.132 F  
HETATM   39  C   UNL     1     -10.067   5.801  66.653  1.00  0.00    -0.193 C  
HETATM   40  F   UNL     1      -7.952   5.393  67.672  1.00  0.00    -0.097 F  
HETATM   41  F   UNL     1     -11.010   4.839  66.561  1.00  0.00    -0.257 F  
HETATM   42  F   UNL     1     -10.691   6.998  66.554  1.00  0.00    -0.317 F  
HETATM   43  F   UNL     1      -9.280   5.681  65.554  1.00  0.00    -0.163 F  
ENDBRANCH  36  37
ENDBRANCH  35  36
ENDBRANCH  34  35
ENDBRANCH  32  34
ENDBRANCH  31  32
ENDBRANCH  30  31
ENDBRANCH  29  30
ENDBRANCH  28  29
ENDBRANCH  27  28
ENDBRANCH  26  27
ENDBRANCH  25  26
ENDBRANCH  24  25
ENDBRANCH  23  24
ENDBRANCH  21  23
TORSDOF 14
ENDMDL
MODEL      116
REMARK 921   NORMALIZED FREE ENERGY PREDICTED BY IDOCK:   -5.23 KCAL/MOL
REMARK 922        TOTAL FREE ENERGY PREDICTED BY IDOCK:  -12.80 KCAL/MOL
REMARK 923 INTER-LIGAND FREE ENERGY PREDICTED BY IDOCK:  -10.37 KCAL/MOL
REMARK 924 INTRA-LIGAND FREE ENERGY PREDICTED BY IDOCK:   -2.43 KCAL/MOL
REMARK 927      BINDING AFFINITY PREDICTED BY RF-SCORE:    0.00 PKD
ROOT
HETATM    1  C   UNL     1      -9.210   7.140  70.113  1.00  0.00    -0.155 C  
HETATM    2  C   UNL     1      -8.040   7.655  70.738  1.00  0.00    -0.103 C  
HETATM    3  C   UNL     1      -9.151   8.669  70.776  1.00  0.00    -0.214 C  
HETATM    4  C   UNL     1     -10.906   7.770  70.286  1.00  0.00    -0.249 C  
HETATM    5  O   UNL     1     -12.311   8.027  70.386  1.00  0.00    -0.405 OA 
HETATM    6  C   UNL     1     -10.381   7.601  71.544  1.00  0.00    -0.223 C  
HETATM    7  C   UNL     1     -11.045   9.304  71.766  1.00  0.00    -0.398 C  
HETATM    8  C   UNL     1     -10.661   6.578  72.586  1.00  0.00    -0.248 C  
HETATM    9  H   UNL     1     -13.131   7.607  70.158  1.00  0.00     0.000 HD 
HETATM   10  C   UNL     1     -11.185  10.185  70.220  1.00  0.00    -0.387 C  
HETATM   11  C   UNL     1     -10.299   9.774  68.815  1.00  0.00    -0.227 C  
HETATM   12  C   UNL     1     -10.709  10.383  67.469  1.00  0.00    -0.339 A  
HETATM   13  C   UNL     1     -11.476  11.562  67.430  1.00  0.00    -0.349 A  
HETATM   14  C   UNL     1     -11.692  12.253  66.232  1.00  0.00    -0.431 A  
HETATM   15  C   UNL     1     -11.148  11.764  65.055  1.00  0.00    -0.284 A  
HETATM   16  C   UNL     1     -10.380  10.609  65.063  1.00  0.00    -0.341 A  
HETATM   17  O   UNL     1     -11.325  12.402  63.863  1.00  0.00    -0.362 OA 
HETATM   18  C   UNL     1     -10.119   9.924  66.265  1.00  0.00    -0.311 A  
HETATM   19  H   UNL     1     -10.953  12.068  63.057  1.00  0.00     0.000 HD 
HETATM   20  C   UNL     1      -9.204   8.714  66.185  1.00  0.00    -0.271 C  
HETATM   21  C   UNL     1      -8.482   8.325  67.498  1.00  0.00    -0.130 C  
HETATM   22  C   UNL     1      -9.595   8.180  68.563  1.00  0.00    -0.153 C  
ENDROOT
BRANCH  21  23
HETATM   23  C   UNL     1      -7.404   9.363  67.871  1.00  0.00    -0.083 C  
BRANCH  23  24
HETATM   24  C   UNL     1      -6.481   9.811  66.753  1.00  0.00    -0.066 C  
BRANCH  24  25
HETATM   25  C   UNL     1      -6.555  11.335  66.573  1.00  0.00    -0.108 C  
BRANCH  25  26
HETATM   26  C   UNL     1      -5.507  12.127  67.375  1.00  0.00    -0.124 C  
BRANCH  26  27
HETATM   27  C   UNL     1      -6.105  13.086  68.404  1.00  0.00    -0.081 C  
BRANCH  27  28
HETATM   28  C   UNL     1      -6.643  14.358  67.748  1.00  0.00    -0.189 C  
BRANCH  28  29
HETATM   29  C   UNL     1      -6.940  15.477  68.749  1.00  0.00    -0.118 C  
BRANCH  29  30
HETATM   30  C   UNL     1      -8.229  15.292  69.566  1.00  0.00    -0.188 C  
BRANCH  30  31
HETATM   31  C   UNL     1      -9.324  14.486  68.883  1.00  0.00    -0.136 C  
BRANCH  31  32
HETATM   32  S   UNL     1     -10.989  14.960  69.455  1.00  0.00    -0.280 S  
HETATM   33  O   UNL     1     -10.818  16.074  70.446  1.00  0.00    -0.323 OA 
BRANCH  32  34
HETATM   34  C   UNL     1     -11.573  15.711  67.902  1.00  0.00    -0.190 C  
BRANCH  34  35
HETATM   35  C   UNL     1     -10.550  15.569  66.780  1.00  0.00    -0.307 C  
BRANCH  35  36
HETATM   36  C   UNL     1     -10.609  16.751  65.814  1.00  0.00    -0.259 C  
BRANCH  36  37
HETATM   37  C   UNL     1     -10.149  18.067  66.438  1.00  0.00    -0.384 C  
HETATM   38  F   UNL     1     -10.667  19.095  65.707  1.00  0.00    -0.506 F  
HETATM   39  C   UNL     1      -8.625  18.206  66.571  1.00  0.00    -0.263 C  
HETATM   40  F   UNL     1     -10.741  18.159  67.666  1.00  0.00    -0.391 F  
HETATM   41  F   UNL     1      -7.970  17.072  66.240  1.00  0.00    -0.260 F  
HETATM   42  F   UNL     1      -8.155  19.198  65.779  1.00  0.00    -0.287 F  
HETATM   43  F   UNL     1      -8.256  18.513  67.840  1.00  0.00    -0.246 F  
ENDBRANCH  36  37
ENDBRANCH  35  36
ENDBRANCH  34  35
ENDBRANCH  32  34
ENDBRANCH  31  32
ENDBRANCH  30  31
ENDBRANCH  29  30
ENDBRANCH  28  29
ENDBRANCH  27  28
ENDBRANCH  26  27
ENDBRANCH  25  26
ENDBRANCH  24  25
ENDBRANCH  23  24
ENDBRANCH  21  23
TORSDOF 14
ENDMDL
MODEL      117
REMARK 921   NORMALIZED FREE ENERGY PREDICTED BY IDOCK:   -5.23 KCAL/MOL
REMARK 922        TOTAL FREE ENERGY PREDICTED BY IDOCK:  -12.80 KCAL/MOL
REMARK 923 INTER-LIGAND FREE ENERGY PREDICTED BY IDOCK:   -8.96 KCAL/MOL
REMARK 924 INTRA-LIGAND FREE ENERGY PREDICTED BY IDOCK:   -3.84 KCAL/MOL
REMARK 927      BINDING AFFINITY PREDICTED BY RF-SCORE:    0.00 PKD
ROOT
HETATM    1  C   UNL     1      -5.659  10.624  67.914  1.00  0.00    -0.043 C  
HETATM    2  C   UNL     1      -5.432  11.316  66.692  1.00  0.00    -0.126 C  
HETATM    3  C   UNL     1      -6.905  11.118  66.924  1.00  0.00    -0.127 C  
HETATM    4  C   UNL     1      -7.218  10.536  68.845  1.00  0.00    -0.086 C  
HETATM    5  O   UNL     1      -8.298  10.449  69.780  1.00  0.00    -0.338 OA 
HETATM    6  C   UNL     1      -6.959  11.856  68.566  1.00  0.00    -0.085 C  
HETATM    7  C   UNL     1      -8.718  11.815  68.020  1.00  0.00    -0.167 C  
HETATM    8  C   UNL     1      -6.505  12.965  69.444  1.00  0.00    -0.091 C  
HETATM    9  H   UNL     1      -8.445  10.177  70.678  1.00  0.00     0.000 HD 
HETATM   10  C   UNL     1      -9.244  10.175  67.547  1.00  0.00    -0.150 C  
HETATM   11  C   UNL     1      -8.161   8.933  67.087  1.00  0.00    -0.103 C  
HETATM   12  C   UNL     1      -8.675   7.491  67.000  1.00  0.00    -0.127 A  
HETATM   13  C   UNL     1     -10.053   7.237  66.858  1.00  0.00    -0.317 A  
HETATM   14  C   UNL     1     -10.532   5.955  66.569  1.00  0.00    -0.251 A  
HETATM   15  C   UNL     1      -9.637   4.906  66.430  1.00  0.00    -0.172 A  
HETATM   16  C   UNL     1      -8.273   5.126  66.556  1.00  0.00    -0.108 A  
HETATM   17  O   UNL     1     -10.054   3.640  66.145  1.00  0.00    -0.417 OA 
HETATM   18  C   UNL     1      -7.770   6.418  66.804  1.00  0.00    -0.100 A  
HETATM   19  H   UNL     1      -9.440   2.921  66.050  1.00  0.00     0.000 HD 
HETATM   20  C   UNL     1      -6.260   6.574  66.848  1.00  0.00    -0.040 C  
HETATM   21  C   UNL     1      -5.718   7.993  66.554  1.00  0.00    -0.040 C  
HETATM   22  C   UNL     1      -6.458   8.936  67.533  1.00  0.00    -0.061 C  
ENDROOT
BRANCH  21  23
HETATM   23  C   UNL     1      -5.912   8.370  65.071  1.00  0.00    -0.049 C  
BRANCH  23  24
HETATM   24  C   UNL     1      -5.493   7.329  64.049  1.00  0.00    -0.033 C  
BRANCH  24  25
HETATM   25  C   UNL     1      -6.612   7.104  63.020  1.00  0.00    -0.052 C  
BRANCH  25  26
HETATM   26  C   UNL     1      -7.957   7.755  63.384  1.00  0.00    -0.107 C  
BRANCH  26  27
HETATM   27  C   UNL     1      -8.400   8.851  62.414  1.00  0.00    -0.194 C  
BRANCH  27  28
HETATM   28  C   UNL     1      -8.383  10.232  63.072  1.00  0.00    -0.170 C  
BRANCH  28  29
HETATM   29  C   UNL     1      -9.731  10.952  63.003  1.00  0.00    -0.380 C  
BRANCH  29  30
HETATM   30  C   UNL     1     -10.518  10.986  64.322  1.00  0.00    -0.427 C  
BRANCH  30  31
HETATM   31  C   UNL     1     -10.753  12.371  64.906  1.00  0.00    -0.294 C  
BRANCH  31  32
HETATM   32  S   UNL     1     -12.288  13.133  64.284  1.00  0.00    -0.327 S  
HETATM   33  O   UNL     1     -13.271  12.023  64.049  1.00  0.00    -0.681 OA 
BRANCH  32  34
HETATM   34  C   UNL     1     -12.784  13.970  65.824  1.00  0.00    -0.450 C  
BRANCH  34  35
HETATM   35  C   UNL     1     -11.923  13.543  67.008  1.00  0.00    -0.440 C  
BRANCH  35  36
HETATM   36  C   UNL     1     -11.601  14.723  67.923  1.00  0.00    -0.373 C  
BRANCH  36  37
HETATM   37  C   UNL     1     -11.256  14.305  69.351  1.00  0.00    -0.273 C  
HETATM   38  F   UNL     1     -11.371  12.948  69.442  1.00  0.00    -0.284 F  
HETATM   39  C   UNL     1     -12.097  14.997  70.434  1.00  0.00    -0.333 C  
HETATM   40  F   UNL     1      -9.929  14.571  69.539  1.00  0.00    -0.156 F  
HETATM   41  F   UNL     1     -12.897  15.962  69.932  1.00  0.00    -0.289 F  
HETATM   42  F   UNL     1     -12.884  14.108  71.083  1.00  0.00    -0.361 F  
HETATM   43  F   UNL     1     -11.318  15.587  71.375  1.00  0.00    -0.336 F  
ENDBRANCH  36  37
ENDBRANCH  35  36
ENDBRANCH  34  35
ENDBRANCH  32  34
ENDBRANCH  31  32
ENDBRANCH  30  31
ENDBRANCH  29  30
ENDBRANCH  28  29
ENDBRANCH  27  28
ENDBRANCH  26  27
ENDBRANCH  25  26
ENDBRANCH  24  25
ENDBRANCH  23  24
ENDBRANCH  21  23
TORSDOF 14
ENDMDL
MODEL      118
REMARK 921   NORMALIZED FREE ENERGY PREDICTED BY IDOCK:   -5.21 KCAL/MOL
REMARK 922        TOTAL FREE ENERGY PREDICTED BY IDOCK:  -12.76 KCAL/MOL
REMARK 923 INTER-LIGAND FREE ENERGY PREDICTED BY IDOCK:   -9.41 KCAL/MOL
REMARK 924 INTRA-LIGAND FREE ENERGY PREDICTED BY IDOCK:   -3.36 KCAL/MOL
REMARK 927      BINDING AFFINITY PREDICTED BY RF-SCORE:    0.00 PKD
ROOT
HETATM    1  C   UNL     1     -12.202  13.292  66.569  1.00  0.00    -0.389 C  
HETATM    2  C   UNL     1     -12.511  14.183  67.635  1.00  0.00     0.135 C  
HETATM    3  C   UNL     1     -11.025  14.124  67.408  1.00  0.00    -0.306 C  
HETATM    4  C   UNL     1     -10.645  13.210  65.634  1.00  0.00    -0.277 C  
HETATM    5  O   UNL     1      -9.564  13.071  64.706  1.00  0.00    -0.515 OA 
HETATM    6  C   UNL     1     -11.066  14.518  65.651  1.00  0.00    -0.327 C  
HETATM    7  C   UNL     1      -9.316  14.803  66.147  1.00  0.00    -0.292 C  
HETATM    8  C   UNL     1     -11.658  15.365  64.582  1.00  0.00    -0.311 C  
HETATM    9  H   UNL     1      -9.386  12.644  63.876  1.00  0.00     0.000 HD 
HETATM   10  C   UNL     1      -8.588  13.368  66.922  1.00  0.00    -0.114 C  
HETATM   11  C   UNL     1      -9.506  12.121  67.649  1.00  0.00    -0.187 C  
HETATM   12  C   UNL     1      -8.815  10.799  68.008  1.00  0.00    -0.132 A  
HETATM   13  C   UNL     1      -7.417  10.750  68.161  1.00  0.00    -0.091 A  
HETATM   14  C   UNL     1      -6.780   9.620  68.686  1.00  0.00    -0.052 A  
HETATM   15  C   UNL     1      -7.537   8.520  69.055  1.00  0.00    -0.094 A  
HETATM   16  C   UNL     1      -8.918   8.541  68.924  1.00  0.00    -0.146 A  
HETATM   17  O   UNL     1      -6.964   7.396  69.575  1.00  0.00    -0.054 OA 
HETATM   18  C   UNL     1      -9.578   9.685  68.438  1.00  0.00    -0.154 A  
HETATM   19  H   UNL     1      -7.483   6.642  69.828  1.00  0.00     0.000 HD 
HETATM   20  C   UNL     1     -11.096   9.643  68.403  1.00  0.00    -0.090 C  
HETATM   21  C   UNL     1     -11.811  11.016  68.423  1.00  0.00    -0.254 C  
HETATM   22  C   UNL     1     -11.197  11.826  67.257  1.00  0.00    -0.364 C  
ENDROOT
BRANCH  21  23
HETATM   23  C   UNL     1     -11.663  11.703  69.796  1.00  0.00    -0.425 C  
BRANCH  23  24
HETATM   24  C   UNL     1     -11.694  10.797  71.013  1.00  0.00    -0.242 C  
BRANCH  24  25
HETATM   25  C   UNL     1     -13.098  10.779  71.635  1.00  0.00    -0.551 C  
BRANCH  25  26
HETATM   26  C   UNL     1     -13.549   9.404  72.159  1.00  0.00    -0.528 C  
BRANCH  26  27
HETATM   27  C   UNL     1     -12.402   8.423  72.398  1.00  0.00    -0.412 C  
BRANCH  27  28
HETATM   28  C   UNL     1     -12.582   7.134  71.595  1.00  0.00    -0.410 C  
BRANCH  28  29
HETATM   29  C   UNL     1     -11.264   6.557  71.073  1.00  0.00    -0.362 C  
BRANCH  29  30
HETATM   30  C   UNL     1     -10.426   5.802  72.117  1.00  0.00    -0.258 C  
BRANCH  30  31
HETATM   31  C   UNL     1     -10.120   4.350  71.781  1.00  0.00    -0.168 C  
BRANCH  31  32
HETATM   32  S   UNL     1      -8.332   4.041  71.614  1.00  0.00    -0.091 S  
HETATM   33  O   UNL     1      -7.918   3.183  72.773  1.00  0.00    -0.061 OA 
BRANCH  32  34
HETATM   34  C   UNL     1      -8.408   2.963  70.148  1.00  0.00    -0.044 C  
BRANCH  34  35
HETATM   35  C   UNL     1      -9.302   3.544  69.058  1.00  0.00    -0.240 C  
BRANCH  35  36
HETATM   36  C   UNL     1      -8.788   4.900  68.575  1.00  0.00    -0.117 C  
BRANCH  36  37
HETATM   37  C   UNL     1      -9.135   5.194  67.117  1.00  0.00    -0.112 C  
HETATM   38  F   UNL     1      -8.193   6.041  66.613  1.00  0.00    -0.103 F  
HETATM   39  C   UNL     1     -10.547   5.759  66.905  1.00  0.00    -0.308 C  
HETATM   40  F   UNL     1      -8.984   4.027  66.424  1.00  0.00    -0.112 F  
HETATM   41  F   UNL     1     -11.282   5.761  68.038  1.00  0.00    -0.312 F  
HETATM   42  F   UNL     1     -10.499   7.032  66.446  1.00  0.00    -0.253 F  
HETATM   43  F   UNL     1     -11.245   5.042  65.989  1.00  0.00    -0.282 F  
ENDBRANCH  36  37
ENDBRANCH  35  36
ENDBRANCH  34  35
ENDBRANCH  32  34
ENDBRANCH  31  32
ENDBRANCH  30  31
ENDBRANCH  29  30
ENDBRANCH  28  29
ENDBRANCH  27  28
ENDBRANCH  26  27
ENDBRANCH  25  26
ENDBRANCH  24  25
ENDBRANCH  23  24
ENDBRANCH  21  23
TORSDOF 14
ENDMDL
MODEL      119
REMARK 921   NORMALIZED FREE ENERGY PREDICTED BY IDOCK:   -5.18 KCAL/MOL
REMARK 922        TOTAL FREE ENERGY PREDICTED BY IDOCK:  -12.71 KCAL/MOL
REMARK 923 INTER-LIGAND FREE ENERGY PREDICTED BY IDOCK:  -10.22 KCAL/MOL
REMARK 924 INTRA-LIGAND FREE ENERGY PREDICTED BY IDOCK:   -2.48 KCAL/MOL
REMARK 927      BINDING AFFINITY PREDICTED BY RF-SCORE:    0.00 PKD
ROOT
HETATM    1  C   UNL     1      -7.703  15.766  69.122  1.00  0.00    -0.220 C  
HETATM    2  C   UNL     1      -6.407  15.422  68.644  1.00  0.00    -0.095 C  
HETATM    3  C   UNL     1      -7.206  16.102  67.566  1.00  0.00    -0.188 C  
HETATM    4  C   UNL     1      -8.855  16.963  68.383  1.00  0.00    -0.244 C  
HETATM    5  O   UNL     1      -9.840  17.943  68.038  1.00  0.00    -0.292 OA 
HETATM    6  C   UNL     1      -7.631  17.572  68.516  1.00  0.00    -0.266 C  
HETATM    7  C   UNL     1      -7.965  18.040  66.766  1.00  0.00    -0.261 C  
HETATM    8  C   UNL     1      -7.161  18.617  69.463  1.00  0.00     0.042 C  
HETATM    9  H   UNL     1     -10.610  18.345  68.419  1.00  0.00     0.000 HD 
HETATM   10  C   UNL     1      -9.085  16.905  65.962  1.00  0.00    -0.199 C  
HETATM   11  C   UNL     1      -9.352  15.303  66.500  1.00  0.00    -0.309 C  
HETATM   12  C   UNL     1     -10.545  14.518  65.940  1.00  0.00    -0.315 A  
HETATM   13  C   UNL     1     -11.135  14.900  64.720  1.00  0.00    -0.395 A  
HETATM   14  C   UNL     1     -12.081  14.091  64.083  1.00  0.00    -0.456 A  
HETATM   15  C   UNL     1     -12.457  12.891  64.665  1.00  0.00    -0.434 A  
HETATM   16  C   UNL     1     -11.887  12.483  65.863  1.00  0.00    -0.489 A  
HETATM   17  O   UNL     1     -13.372  12.066  64.082  1.00  0.00    -0.725 OA 
HETATM   18  C   UNL     1     -10.902  13.265  66.496  1.00  0.00    -0.288 A  
HETATM   19  H   UNL     1     -13.630  11.243  64.481  1.00  0.00     0.000 HD 
HETATM   20  C   UNL     1     -10.281  12.699  67.762  1.00  0.00    -0.222 C  
HETATM   21  C   UNL     1      -8.875  13.236  68.123  1.00  0.00    -0.187 C  
HETATM   22  C   UNL     1      -9.007  14.777  68.144  1.00  0.00    -0.179 C  
ENDROOT
BRANCH  21  23
HETATM   23  C   UNL     1      -7.810  12.723  67.133  1.00  0.00    -0.097 C  
BRANCH  23  24
HETATM   24  C   UNL     1      -8.094  11.391  66.463  1.00  0.00    -0.141 C  
BRANCH  24  25
HETATM   25  C   UNL     1      -7.462  10.241  67.261  1.00  0.00    -0.094 C  
BRANCH  25  26
HETATM   26  C   UNL     1      -8.460   9.178  67.753  1.00  0.00    -0.117 C  
BRANCH  26  27
HETATM   27  C   UNL     1      -8.142   8.621  69.141  1.00  0.00    -0.116 C  
BRANCH  27  28
HETATM   28  C   UNL     1      -8.630   9.553  70.251  1.00  0.00    -0.258 C  
BRANCH  28  29
HETATM   29  C   UNL     1     -10.151   9.720  70.278  1.00  0.00    -0.323 C  
BRANCH  29  30
HETATM   30  C   UNL     1     -10.830   9.273  71.582  1.00  0.00    -0.418 C  
BRANCH  30  31
HETATM   31  C   UNL     1     -10.068   8.234  72.392  1.00  0.00    -0.312 C  
BRANCH  31  32
HETATM   32  S   UNL     1     -10.951   6.642  72.479  1.00  0.00    -0.257 S  
HETATM   33  O   UNL     1     -12.013   6.664  71.418  1.00  0.00    -0.327 OA 
BRANCH  32  34
HETATM   34  C   UNL     1      -9.602   5.583  71.865  1.00  0.00    -0.156 C  
BRANCH  34  35
HETATM   35  C   UNL     1      -9.382   5.753  70.366  1.00  0.00    -0.186 C  
BRANCH  35  36
HETATM   36  C   UNL     1      -9.920   4.558  69.580  1.00  0.00    -0.251 C  
BRANCH  36  37
HETATM   37  C   UNL     1      -9.449   4.527  68.128  1.00  0.00    -0.149 C  
HETATM   38  F   UNL     1      -8.134   4.888  68.094  1.00  0.00    -0.085 F  
HETATM   39  C   UNL     1     -10.279   5.400  67.175  1.00  0.00    -0.224 C  
HETATM   40  F   UNL     1      -9.479   3.223  67.722  1.00  0.00    -0.203 F  
HETATM   41  F   UNL     1     -11.369   5.929  67.771  1.00  0.00    -0.325 F  
HETATM   42  F   UNL     1      -9.542   6.424  66.685  1.00  0.00    -0.154 F  
HETATM   43  F   UNL     1     -10.724   4.694  66.105  1.00  0.00    -0.308 F  
ENDBRANCH  36  37
ENDBRANCH  35  36
ENDBRANCH  34  35
ENDBRANCH  32  34
ENDBRANCH  31  32
ENDBRANCH  30  31
ENDBRANCH  29  30
ENDBRANCH  28  29
ENDBRANCH  27  28
ENDBRANCH  26  27
ENDBRANCH  25  26
ENDBRANCH  24  25
ENDBRANCH  23  24
ENDBRANCH  21  23
TORSDOF 14
ENDMDL
MODEL      120
REMARK 921   NORMALIZED FREE ENERGY PREDICTED BY IDOCK:   -5.17 KCAL/MOL
REMARK 922        TOTAL FREE ENERGY PREDICTED BY IDOCK:  -12.69 KCAL/MOL
REMARK 923 INTER-LIGAND FREE ENERGY PREDICTED BY IDOCK:   -8.77 KCAL/MOL
REMARK 924 INTRA-LIGAND FREE ENERGY PREDICTED BY IDOCK:   -3.92 KCAL/MOL
REMARK 927      BINDING AFFINITY PREDICTED BY RF-SCORE:    0.00 PKD
ROOT
HETATM    1  C   UNL     1      -6.136  10.839  67.749  1.00  0.00    -0.047 C  
HETATM    2  C   UNL     1      -5.786  11.337  66.462  1.00  0.00    -0.146 C  
HETATM    3  C   UNL     1      -7.263  11.061  66.540  1.00  0.00    -0.143 C  
HETATM    4  C   UNL     1      -7.799  10.779  68.480  1.00  0.00    -0.122 C  
HETATM    5  O   UNL     1      -8.990  10.761  69.274  1.00  0.00    -0.330 OA 
HETATM    6  C   UNL     1      -7.583  12.052  68.010  1.00  0.00    -0.120 C  
HETATM    7  C   UNL     1      -9.245  11.780  67.265  1.00  0.00    -0.173 C  
HETATM    8  C   UNL     1      -7.318  13.324  68.731  1.00  0.00    -0.070 C  
HETATM    9  H   UNL     1      -9.241  10.629  70.181  1.00  0.00     0.000 HD 
HETATM   10  C   UNL     1      -9.605  10.048  67.024  1.00  0.00    -0.212 C  
HETATM   11  C   UNL     1      -8.399   8.838  66.924  1.00  0.00    -0.108 C  
HETATM   12  C   UNL     1      -8.811   7.364  67.026  1.00  0.00    -0.132 A  
HETATM   13  C   UNL     1     -10.139   6.980  66.760  1.00  0.00    -0.270 A  
HETATM   14  C   UNL     1     -10.499   5.633  66.642  1.00  0.00    -0.340 A  
HETATM   15  C   UNL     1      -9.533   4.652  66.799  1.00  0.00    -0.162 A  
HETATM   16  C   UNL     1      -8.214   4.999  67.053  1.00  0.00    -0.107 A  
HETATM   17  O   UNL     1      -9.833   3.326  66.689  1.00  0.00    -0.412 OA 
HETATM   18  C   UNL     1      -7.826   6.351  67.133  1.00  0.00    -0.108 A  
HETATM   19  H   UNL     1      -9.171   2.654  66.797  1.00  0.00     0.000 HD 
HETATM   20  C   UNL     1      -6.348   6.633  67.337  1.00  0.00    -0.044 C  
HETATM   21  C   UNL     1      -5.856   8.024  66.870  1.00  0.00    -0.048 C  
HETATM   22  C   UNL     1      -6.775   9.052  67.570  1.00  0.00    -0.069 C  
ENDROOT
BRANCH  21  23
HETATM   23  C   UNL     1      -5.868   8.134  65.332  1.00  0.00    -0.044 C  
BRANCH  23  24
HETATM   24  C   UNL     1      -5.518   6.875  64.561  1.00  0.00    -0.031 C  
BRANCH  24  25
HETATM   25  C   UNL     1      -6.428   6.726  63.332  1.00  0.00    -0.042 C  
BRANCH  25  26
HETATM   26  C   UNL     1      -7.851   7.279  63.517  1.00  0.00    -0.108 C  
BRANCH  26  27
HETATM   27  C   UNL     1      -8.206   8.417  62.561  1.00  0.00    -0.179 C  
BRANCH  27  28
HETATM   28  C   UNL     1      -8.413   9.738  63.304  1.00  0.00    -0.181 C  
BRANCH  28  29
HETATM   29  C   UNL     1      -9.611  10.540  62.792  1.00  0.00    -0.323 C  
BRANCH  29  30
HETATM   30  C   UNL     1     -10.433  11.247  63.881  1.00  0.00    -0.452 C  
BRANCH  30  31
HETATM   31  C   UNL     1     -11.096  12.549  63.455  1.00  0.00    -0.439 C  
BRANCH  31  32
HETATM   32  S   UNL     1     -12.479  13.011  64.549  1.00  0.00    -0.333 S  
HETATM   33  O   UNL     1     -12.262  12.310  65.858  1.00  0.00    -0.634 OA 
BRANCH  32  34
HETATM   34  C   UNL     1     -12.022  14.756  64.794  1.00  0.00    -0.404 C  
BRANCH  34  35
HETATM   35  C   UNL     1     -10.511  14.942  64.887  1.00  0.00    -0.389 C  
BRANCH  35  36
HETATM   36  C   UNL     1     -10.042  15.014  66.339  1.00  0.00    -0.289 C  
BRANCH  36  37
HETATM   37  C   UNL     1      -9.385  16.345  66.698  1.00  0.00    -0.259 C  
HETATM   38  F   UNL     1      -8.131  16.365  66.161  1.00  0.00    -0.314 F  
HETATM   39  C   UNL     1      -9.339  16.641  68.204  1.00  0.00    -0.224 C  
HETATM   40  F   UNL     1     -10.076  17.325  66.044  1.00  0.00    -0.288 F  
HETATM   41  F   UNL     1     -10.019  15.731  68.934  1.00  0.00    -0.192 F  
HETATM   42  F   UNL     1      -8.064  16.661  68.659  1.00  0.00    -0.191 F  
HETATM   43  F   UNL     1      -9.874  17.854  68.496  1.00  0.00    -0.292 F  
ENDBRANCH  36  37
ENDBRANCH  35  36
ENDBRANCH  34  35
ENDBRANCH  32  34
ENDBRANCH  31  32
ENDBRANCH  30  31
ENDBRANCH  29  30
ENDBRANCH  28  29
ENDBRANCH  27  28
ENDBRANCH  26  27
ENDBRANCH  25  26
ENDBRANCH  24  25
ENDBRANCH  23  24
ENDBRANCH  21  23
TORSDOF 14
ENDMDL
MODEL      121
REMARK 921   NORMALIZED FREE ENERGY PREDICTED BY IDOCK:   -5.16 KCAL/MOL
REMARK 922        TOTAL FREE ENERGY PREDICTED BY IDOCK:  -12.68 KCAL/MOL
REMARK 923 INTER-LIGAND FREE ENERGY PREDICTED BY IDOCK:  -10.20 KCAL/MOL
REMARK 924 INTRA-LIGAND FREE ENERGY PREDICTED BY IDOCK:   -2.48 KCAL/MOL
REMARK 927      BINDING AFFINITY PREDICTED BY RF-SCORE:    0.00 PKD
ROOT
HETATM    1  C   UNL     1     -10.066  18.353  67.468  1.00  0.00    -0.373 C  
HETATM    2  C   UNL     1     -10.145  18.652  68.857  1.00  0.00    -0.357 C  
HETATM    3  C   UNL     1      -8.958  17.773  68.571  1.00  0.00    -0.288 C  
HETATM    4  C   UNL     1      -8.617  17.726  66.569  1.00  0.00    -0.257 C  
HETATM    5  O   UNL     1      -7.569  17.358  65.664  1.00  0.00    -0.434 OA 
HETATM    6  C   UNL     1      -8.226  18.820  67.301  1.00  0.00    -0.276 C  
HETATM    7  C   UNL     1      -6.869  17.677  67.797  1.00  0.00    -0.187 C  
HETATM    8  C   UNL     1      -7.882  20.203  66.878  1.00  0.00    -0.352 C  
HETATM    9  H   UNL     1      -7.409  17.336  64.729  1.00  0.00     0.000 HD 
HETATM   10  C   UNL     1      -7.340  15.961  67.652  1.00  0.00    -0.180 C  
HETATM   11  C   UNL     1      -8.965  15.427  67.636  1.00  0.00    -0.185 C  
HETATM   12  C   UNL     1      -9.273  13.988  67.202  1.00  0.00    -0.240 A  
HETATM   13  C   UNL     1      -8.266  13.005  67.245  1.00  0.00    -0.174 A  
HETATM   14  C   UNL     1      -8.561  11.650  67.055  1.00  0.00    -0.169 A  
HETATM   15  C   UNL     1      -9.869  11.265  66.810  1.00  0.00    -0.199 A  
HETATM   16  C   UNL     1     -10.885  12.209  66.771  1.00  0.00    -0.289 A  
HETATM   17  O   UNL     1     -10.209   9.957  66.623  1.00  0.00    -0.223 OA 
HETATM   18  C   UNL     1     -10.612  13.571  67.001  1.00  0.00    -0.269 A  
HETATM   19  H   UNL     1     -11.105   9.693  66.455  1.00  0.00     0.000 HD 
HETATM   20  C   UNL     1     -11.799  14.520  67.015  1.00  0.00    -0.408 C  
HETATM   21  C   UNL     1     -11.599  15.840  67.797  1.00  0.00    -0.097 C  
HETATM   22  C   UNL     1     -10.313  16.480  67.221  1.00  0.00    -0.296 C  
ENDROOT
BRANCH  21  23
HETATM   23  C   UNL     1     -11.532  15.585  69.317  1.00  0.00    -0.349 C  
BRANCH  23  24
HETATM   24  C   UNL     1     -12.565  14.632  69.888  1.00  0.00    -0.223 C  
BRANCH  24  25
HETATM   25  C   UNL     1     -12.452  14.571  71.419  1.00  0.00    -0.423 C  
BRANCH  25  26
HETATM   26  C   UNL     1     -13.097  13.330  72.060  1.00  0.00    -0.475 C  
BRANCH  26  27
HETATM   27  C   UNL     1     -12.982  12.062  71.215  1.00  0.00    -0.315 C  
BRANCH  27  28
HETATM   28  C   UNL     1     -13.260  10.803  72.038  1.00  0.00    -0.466 C  
BRANCH  28  29
HETATM   29  C   UNL     1     -12.641   9.539  71.440  1.00  0.00    -0.447 C  
BRANCH  29  30
HETATM   30  C   UNL     1     -11.478   9.783  70.465  1.00  0.00    -0.370 C  
BRANCH  30  31
HETATM   31  C   UNL     1     -10.850   8.530  69.872  1.00  0.00    -0.205 C  
BRANCH  31  32
HETATM   32  S   UNL     1     -11.496   7.006  70.634  1.00  0.00    -0.332 S  
HETATM   33  O   UNL     1     -11.261   5.888  69.661  1.00  0.00    -0.395 OA 
BRANCH  32  34
HETATM   34  C   UNL     1     -10.247   6.843  71.949  1.00  0.00    -0.188 C  
BRANCH  34  35
HETATM   35  C   UNL     1      -9.053   6.006  71.500  1.00  0.00    -0.148 C  
BRANCH  35  36
HETATM   36  C   UNL     1      -7.748   6.796  71.590  1.00  0.00    -0.096 C  
BRANCH  36  37
HETATM   37  C   UNL     1      -7.191   7.200  70.227  1.00  0.00    -0.071 C  
HETATM   38  F   UNL     1      -5.924   6.704  70.115  1.00  0.00    -0.021 F  
HETATM   39  C   UNL     1      -7.210   8.712  69.959  1.00  0.00    -0.051 C  
HETATM   40  F   UNL     1      -7.924   6.543  69.280  1.00  0.00    -0.102 F  
HETATM   41  F   UNL     1      -7.851   9.403  70.926  1.00  0.00    -0.148 F  
HETATM   42  F   UNL     1      -5.953   9.207  69.867  1.00  0.00    -0.033 F  
HETATM   43  F   UNL     1      -7.831   9.009  68.791  1.00  0.00    -0.090 F  
ENDBRANCH  36  37
ENDBRANCH  35  36
ENDBRANCH  34  35
ENDBRANCH  32  34
ENDBRANCH  31  32
ENDBRANCH  30  31
ENDBRANCH  29  30
ENDBRANCH  28  29
ENDBRANCH  27  28
ENDBRANCH  26  27
ENDBRANCH  25  26
ENDBRANCH  24  25
ENDBRANCH  23  24
ENDBRANCH  21  23
TORSDOF 14
ENDMDL
MODEL      122
REMARK 921   NORMALIZED FREE ENERGY PREDICTED BY IDOCK:   -5.14 KCAL/MOL
REMARK 922        TOTAL FREE ENERGY PREDICTED BY IDOCK:  -12.64 KCAL/MOL
REMARK 923 INTER-LIGAND FREE ENERGY PREDICTED BY IDOCK:   -9.79 KCAL/MOL
REMARK 924 INTRA-LIGAND FREE ENERGY PREDICTED BY IDOCK:   -2.85 KCAL/MOL
REMARK 927      BINDING AFFINITY PREDICTED BY RF-SCORE:    0.00 PKD
ROOT
HETATM    1  C   UNL     1      -8.940  17.417  66.147  1.00  0.00    -0.174 C  
HETATM    2  C   UNL     1     -10.217  17.688  66.713  1.00  0.00    -0.335 C  
HETATM    3  C   UNL     1      -9.132  17.877  67.738  1.00  0.00    -0.258 C  
HETATM    4  C   UNL     1      -7.324  17.916  66.812  1.00  0.00    -0.202 C  
HETATM    5  O   UNL     1      -5.979  18.317  67.095  1.00  0.00    -0.149 OA 
HETATM    6  C   UNL     1      -8.133  19.025  66.774  1.00  0.00    -0.279 C  
HETATM    7  C   UNL     1      -7.517  19.212  68.500  1.00  0.00    -0.360 C  
HETATM    8  C   UNL     1      -8.122  20.209  65.875  1.00  0.00    -0.168 C  
HETATM    9  H   UNL     1      -5.134  18.335  66.663  1.00  0.00     0.000 HD 
HETATM   10  C   UNL     1      -7.003  17.656  69.209  1.00  0.00    -0.161 C  
HETATM   11  C   UNL     1      -7.539  16.135  68.637  1.00  0.00    -0.183 C  
HETATM   12  C   UNL     1      -6.813  14.866  69.101  1.00  0.00    -0.132 A  
HETATM   13  C   UNL     1      -6.042  14.881  70.278  1.00  0.00    -0.158 A  
HETATM   14  C   UNL     1      -5.541  13.701  70.837  1.00  0.00    -0.200 A  
HETATM   15  C   UNL     1      -5.798  12.489  70.216  1.00  0.00    -0.159 A  
HETATM   16  C   UNL     1      -6.562  12.440  69.060  1.00  0.00    -0.100 A  
HETATM   17  O   UNL     1      -5.335  11.311  70.723  1.00  0.00    -0.106 OA 
HETATM   18  C   UNL     1      -7.110  13.614  68.507  1.00  0.00    -0.107 A  
HETATM   19  H   UNL     1      -5.511  10.480  70.298  1.00  0.00     0.000 HD 
HETATM   20  C   UNL     1      -7.996  13.452  67.284  1.00  0.00    -0.130 C  
HETATM   21  C   UNL     1      -9.013  14.591  67.032  1.00  0.00    -0.258 C  
HETATM   22  C   UNL     1      -8.185  15.898  67.016  1.00  0.00    -0.255 C  
ENDROOT
BRANCH  21  23
HETATM   23  C   UNL     1     -10.134  14.585  68.091  1.00  0.00    -0.227 C  
BRANCH  23  24
HETATM   24  C   UNL     1     -11.551  14.414  67.575  1.00  0.00    -0.398 C  
BRANCH  24  25
HETATM   25  C   UNL     1     -11.539  13.984  66.100  1.00  0.00    -0.374 C  
BRANCH  25  26
HETATM   26  C   UNL     1     -11.880  12.504  65.861  1.00  0.00    -0.489 C  
BRANCH  26  27
HETATM   27  C   UNL     1     -10.671  11.632  65.524  1.00  0.00    -0.333 C  
BRANCH  27  28
HETATM   28  C   UNL     1     -10.597  10.393  66.418  1.00  0.00    -0.198 C  
BRANCH  28  29
HETATM   29  C   UNL     1      -9.727  10.593  67.660  1.00  0.00    -0.186 C  
BRANCH  29  30
HETATM   30  C   UNL     1     -10.492  10.998  68.930  1.00  0.00    -0.229 C  
BRANCH  30  31
HETATM   31  C   UNL     1     -11.535   9.998  69.410  1.00  0.00    -0.083 C  
BRANCH  31  32
HETATM   32  S   UNL     1     -12.085  10.338  71.114  1.00  0.00    -0.400 S  
HETATM   33  O   UNL     1     -13.556  10.048  71.173  1.00  0.00    -0.313 OA 
BRANCH  32  34
HETATM   34  C   UNL     1     -11.232   8.947  71.924  1.00  0.00    -0.377 C  
BRANCH  34  35
HETATM   35  C   UNL     1     -11.195   7.707  71.038  1.00  0.00    -0.283 C  
BRANCH  35  36
HETATM   36  C   UNL     1     -11.890   6.520  71.702  1.00  0.00    -0.384 C  
BRANCH  36  37
HETATM   37  C   UNL     1     -10.919   5.538  72.355  1.00  0.00    -0.255 C  
HETATM   38  F   UNL     1     -10.054   6.244  73.139  1.00  0.00    -0.168 F  
HETATM   39  C   UNL     1     -10.155   4.650  71.361  1.00  0.00    -0.178 C  
HETATM   40  F   UNL     1     -11.645   4.766  73.218  1.00  0.00    -0.366 F  
HETATM   41  F   UNL     1     -10.587   4.801  70.091  1.00  0.00    -0.311 F  
HETATM   42  F   UNL     1      -8.830   4.926  71.380  1.00  0.00    -0.124 F  
HETATM   43  F   UNL     1     -10.282   3.333  71.662  1.00  0.00    -0.240 F  
ENDBRANCH  36  37
ENDBRANCH  35  36
ENDBRANCH  34  35
ENDBRANCH  32  34
ENDBRANCH  31  32
ENDBRANCH  30  31
ENDBRANCH  29  30
ENDBRANCH  28  29
ENDBRANCH  27  28
ENDBRANCH  26  27
ENDBRANCH  25  26
ENDBRANCH  24  25
ENDBRANCH  23  24
ENDBRANCH  21  23
TORSDOF 14
ENDMDL
MODEL      123
REMARK 921   NORMALIZED FREE ENERGY PREDICTED BY IDOCK:   -5.11 KCAL/MOL
REMARK 922        TOTAL FREE ENERGY PREDICTED BY IDOCK:  -12.59 KCAL/MOL
REMARK 923 INTER-LIGAND FREE ENERGY PREDICTED BY IDOCK:  -10.30 KCAL/MOL
REMARK 924 INTRA-LIGAND FREE ENERGY PREDICTED BY IDOCK:   -2.29 KCAL/MOL
REMARK 927      BINDING AFFINITY PREDICTED BY RF-SCORE:    0.00 PKD
ROOT
HETATM    1  C   UNL     1     -10.262  15.133  66.106  1.00  0.00    -0.310 C  
HETATM    2  C   UNL     1      -8.964  14.549  66.109  1.00  0.00     0.035 C  
HETATM    3  C   UNL     1      -9.958  13.636  66.774  1.00  0.00    -0.270 C  
HETATM    4  C   UNL     1     -11.843  14.277  66.372  1.00  0.00    -0.411 C  
HETATM    5  O   UNL     1     -13.184  13.778  66.429  1.00  0.00    -0.146 OA 
HETATM    6  C   UNL     1     -11.139  13.588  65.415  1.00  0.00    -0.302 C  
HETATM    7  C   UNL     1     -11.600  12.157  66.479  1.00  0.00    -0.425 C  
HETATM    8  C   UNL     1     -11.337  13.485  63.946  1.00  0.00    -0.225 C  
HETATM    9  H   UNL     1     -14.065  14.077  66.241  1.00  0.00     0.000 HD 
HETATM   10  C   UNL     1     -11.908  12.640  68.170  1.00  0.00    -0.366 C  
HETATM   11  C   UNL     1     -11.302  14.081  68.866  1.00  0.00    -0.314 C  
HETATM   12  C   UNL     1     -11.869  14.556  70.209  1.00  0.00    -0.373 A  
HETATM   13  C   UNL     1     -12.522  13.647  71.064  1.00  0.00    -0.456 A  
HETATM   14  C   UNL     1     -12.864  13.996  72.375  1.00  0.00    -0.406 A  
HETATM   15  C   UNL     1     -12.566  15.265  72.843  1.00  0.00    -0.408 A  
HETATM   16  C   UNL     1     -11.915  16.180  72.028  1.00  0.00    -0.607 A  
HETATM   17  O   UNL     1     -12.875  15.653  74.114  1.00  0.00    -0.684 OA 
HETATM   18  C   UNL     1     -11.526  15.832  70.721  1.00  0.00    -0.423 A  
HETATM   19  H   UNL     1     -12.671  16.522  74.435  1.00  0.00     0.000 HD 
HETATM   20  C   UNL     1     -10.750  16.873  69.931  1.00  0.00    -0.016 C  
HETATM   21  C   UNL     1      -9.863  16.330  68.786  1.00  0.00    -0.238 C  
HETATM   22  C   UNL     1     -10.797  15.467  67.904  1.00  0.00    -0.300 C  
ENDROOT
BRANCH  21  23
HETATM   23  C   UNL     1      -8.649  15.556  69.338  1.00  0.00    -0.259 C  
BRANCH  23  24
HETATM   24  C   UNL     1      -7.299  15.893  68.732  1.00  0.00    -0.159 C  
BRANCH  24  25
HETATM   25  C   UNL     1      -6.163  15.333  69.602  1.00  0.00    -0.147 C  
BRANCH  25  26
HETATM   26  C   UNL     1      -6.473  13.981  70.268  1.00  0.00    -0.033 C  
BRANCH  26  27
HETATM   27  C   UNL     1      -5.836  12.782  69.566  1.00  0.00    -0.105 C  
BRANCH  27  28
HETATM   28  C   UNL     1      -6.710  12.264  68.422  1.00  0.00    -0.064 C  
BRANCH  28  29
HETATM   29  C   UNL     1      -7.710  11.193  68.862  1.00  0.00    -0.137 C  
BRANCH  29  30
HETATM   30  C   UNL     1      -7.151  10.141  69.833  1.00  0.00    -0.144 C  
BRANCH  30  31
HETATM   31  C   UNL     1      -8.188   9.427  70.688  1.00  0.00    -0.168 C  
BRANCH  31  32
HETATM   32  S   UNL     1      -8.360   7.668  70.240  1.00  0.00    -0.134 S  
HETATM   33  O   UNL     1      -7.635   6.870  71.284  1.00  0.00    -0.085 OA 
BRANCH  32  34
HETATM   34  C   UNL     1     -10.141   7.505  70.582  1.00  0.00    -0.187 C  
BRANCH  34  35
HETATM   35  C   UNL     1     -10.927   7.105  69.337  1.00  0.00    -0.189 C  
BRANCH  35  36
HETATM   36  C   UNL     1     -10.188   6.043  68.524  1.00  0.00    -0.227 C  
BRANCH  36  37
HETATM   37  C   UNL     1     -10.217   6.304  67.020  1.00  0.00    -0.201 C  
HETATM   38  F   UNL     1     -11.276   7.119  66.744  1.00  0.00    -0.446 F  
HETATM   39  C   UNL     1     -10.268   5.034  66.159  1.00  0.00    -0.255 C  
HETATM   40  F   UNL     1      -9.105   7.037  66.716  1.00  0.00    -0.123 F  
HETATM   41  F   UNL     1     -10.134   3.905  66.888  1.00  0.00    -0.230 F  
HETATM   42  F   UNL     1     -11.439   4.948  65.484  1.00  0.00    -0.208 F  
HETATM   43  F   UNL     1      -9.281   5.015  65.228  1.00  0.00    -0.155 F  
ENDBRANCH  36  37
ENDBRANCH  35  36
ENDBRANCH  34  35
ENDBRANCH  32  34
ENDBRANCH  31  32
ENDBRANCH  30  31
ENDBRANCH  29  30
ENDBRANCH  28  29
ENDBRANCH  27  28
ENDBRANCH  26  27
ENDBRANCH  25  26
ENDBRANCH  24  25
ENDBRANCH  23  24
ENDBRANCH  21  23
TORSDOF 14
ENDMDL
MODEL      124
REMARK 921   NORMALIZED FREE ENERGY PREDICTED BY IDOCK:   -5.06 KCAL/MOL
REMARK 922        TOTAL FREE ENERGY PREDICTED BY IDOCK:  -12.50 KCAL/MOL
REMARK 923 INTER-LIGAND FREE ENERGY PREDICTED BY IDOCK:   -8.64 KCAL/MOL
REMARK 924 INTRA-LIGAND FREE ENERGY PREDICTED BY IDOCK:   -3.87 KCAL/MOL
REMARK 927      BINDING AFFINITY PREDICTED BY RF-SCORE:    0.00 PKD
ROOT
HETATM    1  C   UNL     1      -7.967   4.759  64.687  1.00  0.00    -0.099 C  
HETATM    2  C   UNL     1      -6.817   4.487  65.481  1.00  0.00    -0.057 C  
HETATM    3  C   UNL     1      -7.993   4.835  66.352  1.00  0.00    -0.103 C  
HETATM    4  C   UNL     1      -9.696   4.785  65.246  1.00  0.00    -0.087 C  
HETATM    5  O   UNL     1     -11.112   4.730  65.452  1.00  0.00    -0.812 OA 
HETATM    6  C   UNL     1      -9.126   3.611  65.672  1.00  0.00    -0.150 C  
HETATM    7  C   UNL     1      -9.897   4.118  67.266  1.00  0.00    -0.171 C  
HETATM    8  C   UNL     1      -9.306   2.213  65.200  1.00  0.00    -0.041 C  
HETATM    9  H   UNL     1     -11.908   4.707  64.935  1.00  0.00     0.000 HD 
HETATM   10  C   UNL     1     -10.140   5.884  67.370  1.00  0.00    -0.201 C  
HETATM   11  C   UNL     1      -9.268   7.014  66.427  1.00  0.00    -0.186 C  
HETATM   12  C   UNL     1      -9.757   8.466  66.362  1.00  0.00    -0.312 A  
HETATM   13  C   UNL     1     -10.603   8.975  67.366  1.00  0.00    -0.309 A  
HETATM   14  C   UNL     1     -10.898  10.340  67.449  1.00  0.00    -0.336 A  
HETATM   15  C   UNL     1     -10.356  11.213  66.519  1.00  0.00    -0.243 A  
HETATM   16  C   UNL     1      -9.512  10.744  65.523  1.00  0.00    -0.253 A  
HETATM   17  O   UNL     1     -10.610  12.552  66.560  1.00  0.00    -0.238 OA 
HETATM   18  C   UNL     1      -9.171   9.380  65.450  1.00  0.00    -0.305 A  
HETATM   19  H   UNL     1     -10.239  13.151  65.923  1.00  0.00     0.000 HD 
HETATM   20  C   UNL     1      -8.179   8.973  64.374  1.00  0.00    -0.165 C  
HETATM   21  C   UNL     1      -7.395   7.665  64.637  1.00  0.00    -0.085 C  
HETATM   22  C   UNL     1      -8.465   6.584  64.920  1.00  0.00     0.017 C  
ENDROOT
BRANCH  21  23
HETATM   23  C   UNL     1      -6.380   7.842  65.784  1.00  0.00    -0.042 C  
BRANCH  23  24
HETATM   24  C   UNL     1      -6.352   9.202  66.458  1.00  0.00    -0.066 C  
BRANCH  24  25
HETATM   25  C   UNL     1      -6.164   9.047  67.975  1.00  0.00    -0.051 C  
BRANCH  25  26
HETATM   26  C   UNL     1      -6.661  10.241  68.807  1.00  0.00    -0.053 C  
BRANCH  26  27
HETATM   27  C   UNL     1      -7.030   9.885  70.248  1.00  0.00    -0.147 C  
BRANCH  27  28
HETATM   28  C   UNL     1      -8.472   9.390  70.358  1.00  0.00    -0.247 C  
BRANCH  28  29
HETATM   29  C   UNL     1      -8.646   7.932  69.928  1.00  0.00    -0.139 C  
BRANCH  29  30
HETATM   30  C   UNL     1      -7.789   6.919  70.702  1.00  0.00    -0.101 C  
BRANCH  30  31
HETATM   31  C   UNL     1      -8.173   6.719  72.161  1.00  0.00    -0.104 C  
BRANCH  31  32
HETATM   32  S   UNL     1      -8.800   5.039  72.486  1.00  0.00    -0.122 S  
HETATM   33  O   UNL     1      -9.359   5.035  73.879  1.00  0.00    -0.124 OA 
BRANCH  32  34
HETATM   34  C   UNL     1     -10.216   5.083  71.341  1.00  0.00    -0.200 C  
BRANCH  34  35
HETATM   35  C   UNL     1     -11.384   5.881  71.909  1.00  0.00    -0.307 C  
BRANCH  35  36
HETATM   36  C   UNL     1     -11.960   6.848  70.876  1.00  0.00    -0.430 C  
BRANCH  36  37
HETATM   37  C   UNL     1     -12.068   8.284  71.385  1.00  0.00    -0.300 C  
HETATM   38  F   UNL     1     -11.071   8.496  72.291  1.00  0.00    -0.359 F  
HETATM   39  C   UNL     1     -13.436   8.640  71.986  1.00  0.00    -0.403 C  
HETATM   40  F   UNL     1     -11.785   9.107  70.332  1.00  0.00    -0.275 F  
HETATM   41  F   UNL     1     -14.346   7.656  71.825  1.00  0.00    -0.428 F  
HETATM   42  F   UNL     1     -13.335   8.892  73.312  1.00  0.00    -0.281 F  
HETATM   43  F   UNL     1     -13.962   9.754  71.417  1.00  0.00    -0.322 F  
ENDBRANCH  36  37
ENDBRANCH  35  36
ENDBRANCH  34  35
ENDBRANCH  32  34
ENDBRANCH  31  32
ENDBRANCH  30  31
ENDBRANCH  29  30
ENDBRANCH  28  29
ENDBRANCH  27  28
ENDBRANCH  26  27
ENDBRANCH  25  26
ENDBRANCH  24  25
ENDBRANCH  23  24
ENDBRANCH  21  23
TORSDOF 14
ENDMDL
MODEL      125
REMARK 921   NORMALIZED FREE ENERGY PREDICTED BY IDOCK:   -5.06 KCAL/MOL
REMARK 922        TOTAL FREE ENERGY PREDICTED BY IDOCK:  -12.50 KCAL/MOL
REMARK 923 INTER-LIGAND FREE ENERGY PREDICTED BY IDOCK:   -9.33 KCAL/MOL
REMARK 924 INTRA-LIGAND FREE ENERGY PREDICTED BY IDOCK:   -3.17 KCAL/MOL
REMARK 927      BINDING AFFINITY PREDICTED BY RF-SCORE:    0.00 PKD
ROOT
HETATM    1  C   UNL     1     -10.271  12.170  65.256  1.00  0.00    -0.304 C  
HETATM    2  C   UNL     1     -10.756  11.257  66.235  1.00  0.00    -0.312 C  
HETATM    3  C   UNL     1     -11.481  12.572  66.330  1.00  0.00    -0.418 C  
HETATM    4  C   UNL     1     -11.093  13.683  64.674  1.00  0.00    -0.381 C  
HETATM    5  O   UNL     1     -11.626  14.827  63.998  1.00  0.00    -0.628 OA 
HETATM    6  C   UNL     1     -11.997  12.651  64.607  1.00  0.00    -0.463 C  
HETATM    7  C   UNL     1     -13.069  13.878  65.466  1.00  0.00    -0.232 C  
HETATM    8  C   UNL     1     -12.545  11.912  63.439  1.00  0.00    -0.555 C  
HETATM    9  H   UNL     1     -11.445  15.347  63.224  1.00  0.00     0.000 HD 
HETATM   10  C   UNL     1     -12.121  15.089  66.373  1.00  0.00     0.145 C  
HETATM   11  C   UNL     1     -10.507  14.836  66.882  1.00  0.00    -0.277 C  
HETATM   12  C   UNL     1      -9.684  16.032  67.375  1.00  0.00    -0.232 A  
HETATM   13  C   UNL     1     -10.330  17.200  67.823  1.00  0.00    -0.347 A  
HETATM   14  C   UNL     1      -9.626  18.222  68.468  1.00  0.00    -0.358 A  
HETATM   15  C   UNL     1      -8.260  18.092  68.662  1.00  0.00    -0.281 A  
HETATM   16  C   UNL     1      -7.596  16.950  68.239  1.00  0.00    -0.202 A  
HETATM   17  O   UNL     1      -7.529  19.058  69.288  1.00  0.00    -0.265 OA 
HETATM   18  C   UNL     1      -8.296  15.893  67.627  1.00  0.00    -0.165 A  
HETATM   19  H   UNL     1      -6.593  18.970  69.421  1.00  0.00     0.000 HD 
HETATM   20  C   UNL     1      -7.498  14.651  67.269  1.00  0.00    -0.148 C  
HETATM   21  C   UNL     1      -8.309  13.340  67.142  1.00  0.00    -0.143 C  
HETATM   22  C   UNL     1      -9.446  13.645  66.137  1.00  0.00    -0.166 C  
ENDROOT
BRANCH  21  23
HETATM   23  C   UNL     1      -8.816  12.859  68.517  1.00  0.00    -0.044 C  
BRANCH  23  24
HETATM   24  C   UNL     1      -8.496  11.424  68.891  1.00  0.00    -0.028 C  
BRANCH  24  25
HETATM   25  C   UNL     1      -6.978  11.187  68.869  1.00  0.00    -0.095 C  
BRANCH  25  26
HETATM   26  C   UNL     1      -6.532   9.969  68.041  1.00  0.00    -0.058 C  
BRANCH  26  27
HETATM   27  C   UNL     1      -7.630   9.386  67.151  1.00  0.00    -0.091 C  
BRANCH  27  28
HETATM   28  C   UNL     1      -7.205   8.058  66.522  1.00  0.00    -0.080 C  
BRANCH  28  29
HETATM   29  C   UNL     1      -6.867   6.980  67.554  1.00  0.00    -0.073 C  
BRANCH  29  30
HETATM   30  C   UNL     1      -7.355   5.566  67.200  1.00  0.00    -0.080 C  
BRANCH  30  31
HETATM   31  C   UNL     1      -8.488   5.502  66.186  1.00  0.00    -0.122 C  
BRANCH  31  32
HETATM   32  S   UNL     1     -10.053   4.939  66.933  1.00  0.00    -0.213 S  
HETATM   33  O   UNL     1      -9.699   4.059  68.095  1.00  0.00    -0.149 OA 
BRANCH  32  34
HETATM   34  C   UNL     1     -10.584   6.542  67.617  1.00  0.00    -0.269 C  
BRANCH  34  35
HETATM   35  C   UNL     1     -10.925   6.443  69.100  1.00  0.00    -0.416 C  
BRANCH  35  36
HETATM   36  C   UNL     1      -9.716   6.767  69.976  1.00  0.00    -0.170 C  
BRANCH  36  37
HETATM   37  C   UNL     1      -9.747   8.181  70.552  1.00  0.00    -0.174 C  
HETATM   38  F   UNL     1      -8.482   8.691  70.510  1.00  0.00    -0.113 F  
HETATM   39  C   UNL     1     -10.326   8.274  71.971  1.00  0.00    -0.279 C  
HETATM   40  F   UNL     1     -10.478   8.951  69.692  1.00  0.00    -0.196 F  
HETATM   41  F   UNL     1     -10.838   7.100  72.401  1.00  0.00    -0.221 F  
HETATM   42  F   UNL     1      -9.381   8.659  72.860  1.00  0.00    -0.314 F  
HETATM   43  F   UNL     1     -11.327   9.186  72.049  1.00  0.00    -0.406 F  
ENDBRANCH  36  37
ENDBRANCH  35  36
ENDBRANCH  34  35
ENDBRANCH  32  34
ENDBRANCH  31  32
ENDBRANCH  30  31
ENDBRANCH  29  30
ENDBRANCH  28  29
ENDBRANCH  27  28
ENDBRANCH  26  27
ENDBRANCH  25  26
ENDBRANCH  24  25
ENDBRANCH  23  24
ENDBRANCH  21  23
TORSDOF 14
ENDMDL
MODEL      126
REMARK 921   NORMALIZED FREE ENERGY PREDICTED BY IDOCK:   -5.06 KCAL/MOL
REMARK 922        TOTAL FREE ENERGY PREDICTED BY IDOCK:  -12.48 KCAL/MOL
REMARK 923 INTER-LIGAND FREE ENERGY PREDICTED BY IDOCK:   -9.70 KCAL/MOL
REMARK 924 INTRA-LIGAND FREE ENERGY PREDICTED BY IDOCK:   -2.79 KCAL/MOL
REMARK 927      BINDING AFFINITY PREDICTED BY RF-SCORE:    0.00 PKD
ROOT
HETATM    1  C   UNL     1     -10.479  11.522  65.353  1.00  0.00    -0.333 C  
HETATM    2  C   UNL     1     -11.199  10.751  66.308  1.00  0.00     0.167 C  
HETATM    3  C   UNL     1     -11.525  12.212  66.452  1.00  0.00    -0.430 C  
HETATM    4  C   UNL     1     -10.843  13.223  64.828  1.00  0.00    -0.360 C  
HETATM    5  O   UNL     1     -11.032  14.493  64.193  1.00  0.00    -0.568 OA 
HETATM    6  C   UNL     1     -12.001  12.490  64.737  1.00  0.00    -0.469 C  
HETATM    7  C   UNL     1     -12.682  13.940  65.646  1.00  0.00    -0.534 C  
HETATM    8  C   UNL     1     -12.736  11.973  63.553  1.00  0.00    -0.567 C  
HETATM    9  H   UNL     1     -10.714  14.965  63.434  1.00  0.00     0.000 HD 
HETATM   10  C   UNL     1     -11.430  14.805  66.580  1.00  0.00    -0.339 C  
HETATM   11  C   UNL     1      -9.952  14.092  67.064  1.00  0.00    -0.257 C  
HETATM   12  C   UNL     1      -8.825  14.992  67.585  1.00  0.00    -0.183 A  
HETATM   13  C   UNL     1      -9.116  16.278  68.076  1.00  0.00    -0.188 A  
HETATM   14  C   UNL     1      -8.151  17.040  68.744  1.00  0.00    -0.250 A  
HETATM   15  C   UNL     1      -6.877  16.524  68.920  1.00  0.00    -0.186 A  
HETATM   16  C   UNL     1      -6.562  15.256  68.455  1.00  0.00    -0.110 A  
HETATM   17  O   UNL     1      -5.902  17.225  69.567  1.00  0.00    -0.204 OA 
HETATM   18  C   UNL     1      -7.533  14.459  67.818  1.00  0.00    -0.182 A  
HETATM   19  H   UNL     1      -5.029  16.872  69.688  1.00  0.00     0.000 HD 
HETATM   20  C   UNL     1      -7.116  13.056  67.413  1.00  0.00    -0.124 C  
HETATM   21  C   UNL     1      -8.264  12.030  67.253  1.00  0.00    -0.173 C  
HETATM   22  C   UNL     1      -9.270  12.675  66.271  1.00  0.00    -0.114 C  
ENDROOT
BRANCH  21  23
HETATM   23  C   UNL     1      -8.883  11.667  68.619  1.00  0.00    -0.084 C  
BRANCH  23  24
HETATM   24  C   UNL     1      -8.903  10.193  68.981  1.00  0.00    -0.166 C  
BRANCH  24  25
HETATM   25  C   UNL     1     -10.323   9.754  69.371  1.00  0.00    -0.232 C  
BRANCH  25  26
HETATM   26  C   UNL     1     -10.479   9.319  70.838  1.00  0.00    -0.372 C  
BRANCH  26  27
HETATM   27  C   UNL     1      -9.166   8.926  71.513  1.00  0.00    -0.322 C  
BRANCH  27  28
HETATM   28  C   UNL     1      -9.387   7.914  72.638  1.00  0.00    -0.275 C  
BRANCH  28  29
HETATM   29  C   UNL     1     -10.573   6.980  72.388  1.00  0.00    -0.252 C  
BRANCH  29  30
HETATM   30  C   UNL     1     -10.218   5.487  72.306  1.00  0.00    -0.244 C  
BRANCH  30  31
HETATM   31  C   UNL     1      -8.730   5.170  72.290  1.00  0.00    -0.125 C  
BRANCH  31  32
HETATM   32  S   UNL     1      -8.388   3.489  71.674  1.00  0.00    -0.066 S  
HETATM   33  O   UNL     1      -9.710   2.856  71.353  1.00  0.00    -0.155 OA 
BRANCH  32  34
HETATM   34  C   UNL     1      -7.622   3.962  70.091  1.00  0.00    -0.048 C  
BRANCH  34  35
HETATM   35  C   UNL     1      -8.626   3.943  68.944  1.00  0.00    -0.115 C  
BRANCH  35  36
HETATM   36  C   UNL     1      -8.331   5.038  67.921  1.00  0.00    -0.100 C  
BRANCH  36  37
HETATM   37  C   UNL     1      -9.177   6.294  68.116  1.00  0.00    -0.110 C  
HETATM   38  F   UNL     1      -9.170   6.616  69.442  1.00  0.00    -0.140 F  
HETATM   39  C   UNL     1     -10.616   6.174  67.592  1.00  0.00    -0.270 C  
HETATM   40  F   UNL     1      -8.529   7.320  67.489  1.00  0.00    -0.116 F  
HETATM   41  F   UNL     1     -10.831   5.022  66.921  1.00  0.00    -0.271 F  
HETATM   42  F   UNL     1     -11.511   6.230  68.607  1.00  0.00    -0.413 F  
HETATM   43  F   UNL     1     -10.929   7.184  66.742  1.00  0.00    -0.415 F  
ENDBRANCH  36  37
ENDBRANCH  35  36
ENDBRANCH  34  35
ENDBRANCH  32  34
ENDBRANCH  31  32
ENDBRANCH  30  31
ENDBRANCH  29  30
ENDBRANCH  28  29
ENDBRANCH  27  28
ENDBRANCH  26  27
ENDBRANCH  25  26
ENDBRANCH  24  25
ENDBRANCH  23  24
ENDBRANCH  21  23
TORSDOF 14
ENDMDL
MODEL      127
REMARK 921   NORMALIZED FREE ENERGY PREDICTED BY IDOCK:   -5.01 KCAL/MOL
REMARK 922        TOTAL FREE ENERGY PREDICTED BY IDOCK:  -12.40 KCAL/MOL
REMARK 923 INTER-LIGAND FREE ENERGY PREDICTED BY IDOCK:   -8.63 KCAL/MOL
REMARK 924 INTRA-LIGAND FREE ENERGY PREDICTED BY IDOCK:   -3.77 KCAL/MOL
REMARK 927      BINDING AFFINITY PREDICTED BY RF-SCORE:    0.00 PKD
ROOT
HETATM    1  C   UNL     1     -12.306  13.106  65.931  1.00  0.00    -0.462 C  
HETATM    2  C   UNL     1     -12.880  13.879  66.979  1.00  0.00     0.679 C  
HETATM    3  C   UNL     1     -11.417  14.194  66.829  1.00  0.00    -0.383 C  
HETATM    4  C   UNL     1     -10.733  13.425  65.078  1.00  0.00    -0.343 C  
HETATM    5  O   UNL     1      -9.606  13.569  64.207  1.00  0.00    -0.417 OA 
HETATM    6  C   UNL     1     -11.467  14.586  65.072  1.00  0.00    -0.382 C  
HETATM    7  C   UNL     1      -9.870  15.292  65.657  1.00  0.00    -0.383 C  
HETATM    8  C   UNL     1     -12.196  15.272  63.973  1.00  0.00    -0.018 C  
HETATM    9  H   UNL     1      -9.286  13.210  63.388  1.00  0.00     0.000 HD 
HETATM   10  C   UNL     1      -8.848  14.074  66.470  1.00  0.00    -0.048 C  
HETATM   11  C   UNL     1      -9.461  12.629  67.150  1.00  0.00    -0.214 C  
HETATM   12  C   UNL     1      -8.482  11.516  67.545  1.00  0.00    -0.143 A  
HETATM   13  C   UNL     1      -7.124  11.814  67.770  1.00  0.00    -0.096 A  
HETATM   14  C   UNL     1      -6.253  10.872  68.328  1.00  0.00    -0.049 A  
HETATM   15  C   UNL     1      -6.730   9.614  68.658  1.00  0.00    -0.052 A  
HETATM   16  C   UNL     1      -8.065   9.293  68.457  1.00  0.00    -0.106 A  
HETATM   17  O   UNL     1      -5.923   8.662  69.208  1.00  0.00    -0.040 OA 
HETATM   18  C   UNL     1      -8.964  10.242  67.936  1.00  0.00    -0.131 A  
HETATM   19  H   UNL     1      -6.249   7.800  69.435  1.00  0.00     0.000 HD 
HETATM   20  C   UNL     1     -10.420   9.824  67.823  1.00  0.00    -0.297 C  
HETATM   21  C   UNL     1     -11.454  10.976  67.805  1.00  0.00    -0.339 C  
HETATM   22  C   UNL     1     -11.003  11.927  66.672  1.00  0.00    -0.336 C  
ENDROOT
BRANCH  21  23
HETATM   23  C   UNL     1     -11.551  11.662  69.183  1.00  0.00    -0.378 C  
BRANCH  23  24
HETATM   24  C   UNL     1     -11.351  10.773  70.397  1.00  0.00    -0.342 C  
BRANCH  24  25
HETATM   25  C   UNL     1     -12.578  10.836  71.318  1.00  0.00    -0.532 C  
BRANCH  25  26
HETATM   26  C   UNL     1     -13.343   9.508  71.458  1.00  0.00    -0.470 C  
BRANCH  26  27
HETATM   27  C   UNL     1     -12.521   8.379  72.080  1.00  0.00    -0.422 C  
BRANCH  27  28
HETATM   28  C   UNL     1     -12.356   7.201  71.119  1.00  0.00    -0.404 C  
BRANCH  28  29
HETATM   29  C   UNL     1     -10.937   7.069  70.562  1.00  0.00    -0.297 C  
BRANCH  29  30
HETATM   30  C   UNL     1     -10.762   5.994  69.478  1.00  0.00    -0.405 C  
BRANCH  30  31
HETATM   31  C   UNL     1     -10.938   6.477  68.045  1.00  0.00    -0.282 C  
BRANCH  31  32
HETATM   32  S   UNL     1      -9.876   5.569  66.875  1.00  0.00    -0.181 S  
HETATM   33  O   UNL     1     -10.777   4.734  66.013  1.00  0.00    -0.319 OA 
BRANCH  32  34
HETATM   34  C   UNL     1      -9.346   6.995  65.873  1.00  0.00     0.121 C  
BRANCH  34  35
HETATM   35  C   UNL     1      -7.834   7.023  65.676  1.00  0.00    -0.112 C  
BRANCH  35  36
HETATM   36  C   UNL     1      -7.459   7.507  64.276  1.00  0.00    -0.098 C  
BRANCH  36  37
HETATM   37  C   UNL     1      -7.063   8.981  64.231  1.00  0.00    -0.090 C  
HETATM   38  F   UNL     1      -6.712   9.371  65.490  1.00  0.00    -0.070 F  
HETATM   39  C   UNL     1      -8.142   9.908  63.653  1.00  0.00    -0.153 C  
HETATM   40  F   UNL     1      -5.918   9.068  63.490  1.00  0.00    -0.082 F  
HETATM   41  F   UNL     1      -9.198   9.230  63.155  1.00  0.00    -0.236 F  
HETATM   42  F   UNL     1      -8.610  10.759  64.596  1.00  0.00    -0.177 F  
HETATM   43  F   UNL     1      -7.660  10.675  62.643  1.00  0.00    -0.143 F  
ENDBRANCH  36  37
ENDBRANCH  35  36
ENDBRANCH  34  35
ENDBRANCH  32  34
ENDBRANCH  31  32
ENDBRANCH  30  31
ENDBRANCH  29  30
ENDBRANCH  28  29
ENDBRANCH  27  28
ENDBRANCH  26  27
ENDBRANCH  25  26
ENDBRANCH  24  25
ENDBRANCH  23  24
ENDBRANCH  21  23
TORSDOF 14
ENDMDL
MODEL      128
REMARK 921   NORMALIZED FREE ENERGY PREDICTED BY IDOCK:   -5.00 KCAL/MOL
REMARK 922        TOTAL FREE ENERGY PREDICTED BY IDOCK:  -12.38 KCAL/MOL
REMARK 923 INTER-LIGAND FREE ENERGY PREDICTED BY IDOCK:   -8.94 KCAL/MOL
REMARK 924 INTRA-LIGAND FREE ENERGY PREDICTED BY IDOCK:   -3.45 KCAL/MOL
REMARK 927      BINDING AFFINITY PREDICTED BY RF-SCORE:    0.00 PKD
ROOT
HETATM    1  C   UNL     1     -10.248   9.452  71.218  1.00  0.00    -0.340 C  
HETATM    2  C   UNL     1     -10.241   9.485  69.795  1.00  0.00    -0.249 C  
HETATM    3  C   UNL     1     -11.159   8.403  70.296  1.00  0.00    -0.216 C  
HETATM    4  C   UNL     1     -11.489   8.659  72.284  1.00  0.00    -0.353 C  
HETATM    5  O   UNL     1     -12.410   8.217  73.287  1.00  0.00    -0.511 OA 
HETATM    6  C   UNL     1     -12.148   9.452  71.376  1.00  0.00    -0.442 C  
HETATM    7  C   UNL     1     -13.156   7.924  71.166  1.00  0.00    -0.120 C  
HETATM    8  C   UNL     1     -12.843  10.754  71.545  1.00  0.00    -0.567 C  
HETATM    9  H   UNL     1     -12.564   8.337  74.216  1.00  0.00     0.000 HD 
HETATM   10  C   UNL     1     -12.253   6.450  71.612  1.00  0.00    -0.271 C  
HETATM   11  C   UNL     1     -10.545   6.365  71.656  1.00  0.00    -0.261 C  
HETATM   12  C   UNL     1      -9.875   5.167  72.340  1.00  0.00    -0.208 A  
HETATM   13  C   UNL     1     -10.589   3.969  72.529  1.00  0.00    -0.141 A  
HETATM   14  C   UNL     1      -9.952   2.800  72.958  1.00  0.00    -0.194 A  
HETATM   15  C   UNL     1      -8.590   2.819  73.213  1.00  0.00    -0.079 A  
HETATM   16  C   UNL     1      -7.857   3.982  73.027  1.00  0.00    -0.084 A  
HETATM   17  O   UNL     1      -7.921   1.705  73.629  1.00  0.00    -0.040 OA 
HETATM   18  C   UNL     1      -8.474   5.157  72.556  1.00  0.00    -0.121 A  
HETATM   19  H   UNL     1      -6.988   1.718  73.804  1.00  0.00     0.000 HD 
HETATM   20  C   UNL     1      -7.577   6.357  72.310  1.00  0.00    -0.097 C  
HETATM   21  C   UNL     1      -8.110   7.404  71.302  1.00  0.00    -0.100 C  
HETATM   22  C   UNL     1      -9.521   7.790  71.804  1.00  0.00    -0.191 C  
ENDROOT
BRANCH  21  23
HETATM   23  C   UNL     1      -8.098   6.850  69.863  1.00  0.00    -0.125 C  
BRANCH  23  24
HETATM   24  C   UNL     1      -6.947   5.929  69.502  1.00  0.00    -0.063 C  
BRANCH  24  25
HETATM   25  C   UNL     1      -7.474   4.548  69.083  1.00  0.00    -0.056 C  
BRANCH  25  26
HETATM   26  C   UNL     1      -8.993   4.486  68.847  1.00  0.00    -0.151 C  
BRANCH  26  27
HETATM   27  C   UNL     1      -9.387   3.909  67.488  1.00  0.00    -0.229 C  
BRANCH  27  28
HETATM   28  C   UNL     1      -9.216   4.933  66.365  1.00  0.00    -0.138 C  
BRANCH  28  29
HETATM   29  C   UNL     1      -9.721   6.329  66.736  1.00  0.00    -0.193 C  
BRANCH  29  30
HETATM   30  C   UNL     1      -9.215   7.465  65.832  1.00  0.00    -0.022 C  
BRANCH  30  31
HETATM   31  C   UNL     1      -9.763   8.847  66.154  1.00  0.00    -0.268 C  
BRANCH  31  32
HETATM   32  S   UNL     1      -8.463   9.990  66.725  1.00  0.00    -0.125 S  
HETATM   33  O   UNL     1      -7.338   9.913  65.734  1.00  0.00    -0.100 OA 
BRANCH  32  34
HETATM   34  C   UNL     1      -9.352  11.547  66.406  1.00  0.00    -0.209 C  
BRANCH  34  35
HETATM   35  C   UNL     1      -9.323  12.478  67.613  1.00  0.00    -0.189 C  
BRANCH  35  36
HETATM   36  C   UNL     1     -10.245  13.681  67.417  1.00  0.00    -0.241 C  
BRANCH  36  37
HETATM   37  C   UNL     1     -11.580  13.546  68.146  1.00  0.00    -0.333 C  
HETATM   38  F   UNL     1     -12.570  13.986  67.317  1.00  0.00    -0.356 F  
HETATM   39  C   UNL     1     -11.638  14.271  69.499  1.00  0.00    -0.301 C  
HETATM   40  F   UNL     1     -11.814  12.210  68.316  1.00  0.00    -0.336 F  
HETATM   41  F   UNL     1     -10.443  14.782  69.866  1.00  0.00    -0.227 F  
HETATM   42  F   UNL     1     -12.527  15.291  69.467  1.00  0.00    -0.304 F  
HETATM   43  F   UNL     1     -12.032  13.443  70.499  1.00  0.00    -0.383 F  
ENDBRANCH  36  37
ENDBRANCH  35  36
ENDBRANCH  34  35
ENDBRANCH  32  34
ENDBRANCH  31  32
ENDBRANCH  30  31
ENDBRANCH  29  30
ENDBRANCH  28  29
ENDBRANCH  27  28
ENDBRANCH  26  27
ENDBRANCH  25  26
ENDBRANCH  24  25
ENDBRANCH  23  24
ENDBRANCH  21  23
TORSDOF 14
ENDMDL
MODEL      129
REMARK 921   NORMALIZED FREE ENERGY PREDICTED BY IDOCK:   -5.00 KCAL/MOL
REMARK 922        TOTAL FREE ENERGY PREDICTED BY IDOCK:  -12.38 KCAL/MOL
REMARK 923 INTER-LIGAND FREE ENERGY PREDICTED BY IDOCK:   -9.31 KCAL/MOL
REMARK 924 INTRA-LIGAND FREE ENERGY PREDICTED BY IDOCK:   -3.07 KCAL/MOL
REMARK 927      BINDING AFFINITY PREDICTED BY RF-SCORE:    0.00 PKD
ROOT
HETATM    1  C   UNL     1      -9.084   8.758  70.429  1.00  0.00    -0.198 C  
HETATM    2  C   UNL     1     -10.112   9.657  70.028  1.00  0.00    -0.293 C  
HETATM    3  C   UNL     1     -10.602   8.236  69.979  1.00  0.00    -0.235 C  
HETATM    4  C   UNL     1      -9.292   7.031  70.958  1.00  0.00    -0.159 C  
HETATM    5  O   UNL     1      -9.254   5.714  71.518  1.00  0.00    -0.142 OA 
HETATM    6  C   UNL     1     -10.170   7.808  71.674  1.00  0.00    -0.225 C  
HETATM    7  C   UNL     1     -11.351   6.494  71.152  1.00  0.00    -0.367 C  
HETATM    8  C   UNL     1     -10.154   8.236  73.097  1.00  0.00    -0.072 C  
HETATM    9  H   UNL     1      -8.642   5.151  71.976  1.00  0.00     0.000 HD 
HETATM   10  C   UNL     1     -10.831   5.669  69.656  1.00  0.00    -0.365 C  
HETATM   11  C   UNL     1      -9.739   6.355  68.531  1.00  0.00    -0.134 C  
HETATM   12  C   UNL     1      -9.121   5.458  67.451  1.00  0.00    -0.111 A  
HETATM   13  C   UNL     1      -9.740   4.245  67.098  1.00  0.00    -0.232 A  
HETATM   14  C   UNL     1      -9.322   3.509  65.983  1.00  0.00    -0.163 A  
HETATM   15  C   UNL     1      -8.269   3.977  65.214  1.00  0.00    -0.101 A  
HETATM   16  C   UNL     1      -7.644   5.174  65.531  1.00  0.00    -0.086 A  
HETATM   17  O   UNL     1      -7.826   3.300  64.116  1.00  0.00    -0.079 OA 
HETATM   18  C   UNL     1      -8.079   5.948  66.624  1.00  0.00    -0.102 A  
HETATM   19  H   UNL     1      -7.104   3.620  63.588  1.00  0.00     0.000 HD 
HETATM   20  C   UNL     1      -7.385   7.280  66.847  1.00  0.00    -0.092 C  
HETATM   21  C   UNL     1      -8.192   8.339  67.636  1.00  0.00    -0.127 C  
HETATM   22  C   UNL     1      -8.620   7.647  68.951  1.00  0.00    -0.129 C  
ENDROOT
BRANCH  21  23
HETATM   23  C   UNL     1      -9.378   8.871  66.805  1.00  0.00    -0.224 C  
BRANCH  23  24
HETATM   24  C   UNL     1      -9.371  10.355  66.489  1.00  0.00    -0.193 C  
BRANCH  24  25
HETATM   25  C   UNL     1      -7.978  10.798  66.017  1.00  0.00    -0.154 C  
BRANCH  25  26
HETATM   26  C   UNL     1      -7.285  11.819  66.935  1.00  0.00    -0.103 C  
BRANCH  26  27
HETATM   27  C   UNL     1      -8.107  12.210  68.163  1.00  0.00    -0.161 C  
BRANCH  27  28
HETATM   28  C   UNL     1      -7.555  13.467  68.838  1.00  0.00     0.018 C  
BRANCH  28  29
HETATM   29  C   UNL     1      -6.585  14.253  67.954  1.00  0.00    -0.175 C  
BRANCH  29  30
HETATM   30  C   UNL     1      -6.714  15.782  68.048  1.00  0.00    -0.144 C  
BRANCH  30  31
HETATM   31  C   UNL     1      -8.110  16.300  68.362  1.00  0.00    -0.183 C  
BRANCH  31  32
HETATM   32  S   UNL     1      -8.701  17.490  67.114  1.00  0.00    -0.243 S  
HETATM   33  O   UNL     1      -7.893  17.267  65.869  1.00  0.00    -0.505 OA 
BRANCH  32  34
HETATM   34  C   UNL     1     -10.339  16.747  66.829  1.00  0.00    -0.293 C  
BRANCH  34  35
HETATM   35  C   UNL     1     -10.269  15.226  66.747  1.00  0.00    -0.273 C  
BRANCH  35  36
HETATM   36  C   UNL     1     -10.062  14.749  65.310  1.00  0.00    -0.388 C  
BRANCH  36  37
HETATM   37  C   UNL     1     -10.846  13.483  64.973  1.00  0.00    -0.340 C  
HETATM   38  F   UNL     1     -10.111  12.743  64.093  1.00  0.00    -0.361 F  
HETATM   39  C   UNL     1     -12.257  13.740  64.425  1.00  0.00    -0.399 C  
HETATM   40  F   UNL     1     -10.910  12.733  66.114  1.00  0.00    -0.279 F  
HETATM   41  F   UNL     1     -12.604  15.044  64.474  1.00  0.00    -0.425 F  
HETATM   42  F   UNL     1     -12.361  13.336  63.137  1.00  0.00    -0.607 F  
HETATM   43  F   UNL     1     -13.201  13.059  65.123  1.00  0.00    -0.469 F  
ENDBRANCH  36  37
ENDBRANCH  35  36
ENDBRANCH  34  35
ENDBRANCH  32  34
ENDBRANCH  31  32
ENDBRANCH  30  31
ENDBRANCH  29  30
ENDBRANCH  28  29
ENDBRANCH  27  28
ENDBRANCH  26  27
ENDBRANCH  25  26
ENDBRANCH  24  25
ENDBRANCH  23  24
ENDBRANCH  21  23
TORSDOF 14
ENDMDL
MODEL      130
REMARK 921   NORMALIZED FREE ENERGY PREDICTED BY IDOCK:   -4.96 KCAL/MOL
REMARK 922        TOTAL FREE ENERGY PREDICTED BY IDOCK:  -12.31 KCAL/MOL
REMARK 923 INTER-LIGAND FREE ENERGY PREDICTED BY IDOCK:   -9.13 KCAL/MOL
REMARK 924 INTRA-LIGAND FREE ENERGY PREDICTED BY IDOCK:   -3.18 KCAL/MOL
REMARK 927      BINDING AFFINITY PREDICTED BY RF-SCORE:    0.00 PKD
ROOT
HETATM    1  C   UNL     1      -8.941   6.901  71.381  1.00  0.00    -0.141 C  
HETATM    2  C   UNL     1      -8.431   7.796  72.363  1.00  0.00    -0.168 C  
HETATM    3  C   UNL     1      -9.570   8.429  71.611  1.00  0.00    -0.288 C  
HETATM    4  C   UNL     1     -10.551   7.006  70.543  1.00  0.00    -0.224 C  
HETATM    5  O   UNL     1     -11.806   6.837  69.874  1.00  0.00    -0.622 OA 
HETATM    6  C   UNL     1     -10.765   7.111  71.896  1.00  0.00    -0.243 C  
HETATM    7  C   UNL     1     -11.782   8.550  71.360  1.00  0.00    -0.346 C  
HETATM    8  C   UNL     1     -11.341   6.146  72.869  1.00  0.00    -0.204 C  
HETATM    9  H   UNL     1     -12.264   6.173  69.375  1.00  0.00     0.000 HD 
HETATM   10  C   UNL     1     -11.248   9.211  69.790  1.00  0.00    -0.073 C  
HETATM   11  C   UNL     1      -9.682   8.966  69.146  1.00  0.00    -0.168 C  
HETATM   12  C   UNL     1      -9.420   9.305  67.673  1.00  0.00    -0.156 A  
HETATM   13  C   UNL     1     -10.271  10.192  66.988  1.00  0.00    -0.290 A  
HETATM   14  C   UNL     1      -9.947  10.681  65.718  1.00  0.00    -0.315 A  
HETATM   15  C   UNL     1      -8.767  10.278  65.113  1.00  0.00    -0.175 A  
HETATM   16  C   UNL     1      -7.903   9.411  65.766  1.00  0.00    -0.099 A  
HETATM   17  O   UNL     1      -8.403  10.728  63.878  1.00  0.00    -0.345 OA 
HETATM   18  C   UNL     1      -8.194   8.943  67.062  1.00  0.00    -0.106 A  
HETATM   19  H   UNL     1      -7.595  10.452  63.463  1.00  0.00     0.000 HD 
HETATM   20  C   UNL     1      -7.151   8.060  67.727  1.00  0.00    -0.086 C  
HETATM   21  C   UNL     1      -7.187   8.021  69.273  1.00  0.00    -0.076 C  
HETATM   22  C   UNL     1      -8.638   7.640  69.651  1.00  0.00    -0.136 C  
ENDROOT
BRANCH  21  23
HETATM   23  C   UNL     1      -6.725   9.362  69.878  1.00  0.00    -0.058 C  
BRANCH  23  24
HETATM   24  C   UNL     1      -5.522  10.019  69.226  1.00  0.00    -0.034 C  
BRANCH  24  25
HETATM   25  C   UNL     1      -5.694  11.546  69.194  1.00  0.00    -0.049 C  
BRANCH  25  26
HETATM   26  C   UNL     1      -7.087  12.024  68.748  1.00  0.00    -0.111 C  
BRANCH  26  27
HETATM   27  C   UNL     1      -7.101  12.707  67.381  1.00  0.00    -0.138 C  
BRANCH  27  28
HETATM   28  C   UNL     1      -8.224  13.740  67.274  1.00  0.00    -0.173 C  
BRANCH  28  29
HETATM   29  C   UNL     1      -9.470  13.366  68.079  1.00  0.00    -0.218 C  
BRANCH  29  30
HETATM   30  C   UNL     1     -10.717  14.212  67.778  1.00  0.00    -0.251 C  
BRANCH  30  31
HETATM   31  C   UNL     1     -11.071  14.350  66.305  1.00  0.00    -0.331 C  
BRANCH  31  32
HETATM   32  S   UNL     1     -10.250  15.780  65.528  1.00  0.00    -0.357 S  
HETATM   33  O   UNL     1     -11.161  16.282  64.446  1.00  0.00    -0.716 OA 
BRANCH  32  34
HETATM   34  C   UNL     1     -10.397  16.934  66.929  1.00  0.00    -0.304 C  
BRANCH  34  35
HETATM   35  C   UNL     1      -9.033  17.350  67.470  1.00  0.00    -0.231 C  
BRANCH  35  36
HETATM   36  C   UNL     1      -8.430  18.493  66.654  1.00  0.00    -0.288 C  
BRANCH  36  37
HETATM   37  C   UNL     1      -6.946  18.300  66.347  1.00  0.00    -0.235 C  
HETATM   38  F   UNL     1      -6.258  18.307  67.525  1.00  0.00    -0.170 F  
HETATM   39  C   UNL     1      -6.364  19.332  65.370  1.00  0.00    -0.268 C  
HETATM   40  F   UNL     1      -6.799  17.038  65.846  1.00  0.00    -0.228 F  
HETATM   41  F   UNL     1      -7.309  20.142  64.845  1.00  0.00    -0.257 F  
HETATM   42  F   UNL     1      -5.444  20.117  65.979  1.00  0.00    -0.175 F  
HETATM   43  F   UNL     1      -5.736  18.737  64.324  1.00  0.00    -0.278 F  
ENDBRANCH  36  37
ENDBRANCH  35  36
ENDBRANCH  34  35
ENDBRANCH  32  34
ENDBRANCH  31  32
ENDBRANCH  30  31
ENDBRANCH  29  30
ENDBRANCH  28  29
ENDBRANCH  27  28
ENDBRANCH  26  27
ENDBRANCH  25  26
ENDBRANCH  24  25
ENDBRANCH  23  24
ENDBRANCH  21  23
TORSDOF 14
ENDMDL
MODEL      131
REMARK 921   NORMALIZED FREE ENERGY PREDICTED BY IDOCK:   -4.93 KCAL/MOL
REMARK 922        TOTAL FREE ENERGY PREDICTED BY IDOCK:  -12.25 KCAL/MOL
REMARK 923 INTER-LIGAND FREE ENERGY PREDICTED BY IDOCK:  -10.08 KCAL/MOL
REMARK 924 INTRA-LIGAND FREE ENERGY PREDICTED BY IDOCK:   -2.18 KCAL/MOL
REMARK 927      BINDING AFFINITY PREDICTED BY RF-SCORE:    0.00 PKD
ROOT
HETATM    1  C   UNL     1     -11.200  16.295  68.395  1.00  0.00    -0.349 C  
HETATM    2  C   UNL     1     -11.168  16.170  69.812  1.00  0.00    -0.343 C  
HETATM    3  C   UNL     1      -9.839  15.793  69.217  1.00  0.00    -0.265 C  
HETATM    4  C   UNL     1      -9.770  16.392  67.277  1.00  0.00    -0.239 C  
HETATM    5  O   UNL     1      -8.793  16.609  66.252  1.00  0.00    -0.279 OA 
HETATM    6  C   UNL     1      -9.591  17.312  68.281  1.00  0.00    -0.288 C  
HETATM    7  C   UNL     1      -7.924  16.531  68.345  1.00  0.00    -0.194 C  
HETATM    8  C   UNL     1      -9.691  18.795  68.272  1.00  0.00    -0.406 C  
HETATM    9  H   UNL     1      -8.760  16.889  65.346  1.00  0.00     0.000 HD 
HETATM   10  C   UNL     1      -7.933  14.859  67.719  1.00  0.00    -0.161 C  
HETATM   11  C   UNL     1      -9.342  13.893  67.627  1.00  0.00    -0.205 C  
HETATM   12  C   UNL     1      -9.309  12.602  66.801  1.00  0.00    -0.232 A  
HETATM   13  C   UNL     1      -8.080  11.987  66.498  1.00  0.00     0.054 A  
HETATM   14  C   UNL     1      -8.024  10.710  65.929  1.00  0.00    -0.157 A  
HETATM   15  C   UNL     1      -9.202  10.036  65.646  1.00  0.00    -0.186 A  
HETATM   16  C   UNL     1     -10.429  10.612  65.942  1.00  0.00    -0.243 A  
HETATM   17  O   UNL     1      -9.201   8.789  65.096  1.00  0.00    -0.419 OA 
HETATM   18  C   UNL     1     -10.502  11.879  66.553  1.00  0.00    -0.256 A  
HETATM   19  H   UNL     1     -10.007   8.327  64.902  1.00  0.00     0.000 HD 
HETATM   20  C   UNL     1     -11.886  12.394  66.909  1.00  0.00    -0.377 C  
HETATM   21  C   UNL     1     -11.945  13.451  68.037  1.00  0.00    -0.357 C  
HETATM   22  C   UNL     1     -10.967  14.572  67.613  1.00  0.00    -0.293 C  
ENDROOT
BRANCH  21  23
HETATM   23  C   UNL     1     -11.608  12.826  69.407  1.00  0.00    -0.361 C  
BRANCH  23  24
HETATM   24  C   UNL     1     -11.769  11.321  69.521  1.00  0.00    -0.415 C  
BRANCH  24  25
HETATM   25  C   UNL     1     -13.098  10.972  70.206  1.00  0.00     0.087 C  
BRANCH  25  26
HETATM   26  C   UNL     1     -13.004  10.786  71.730  1.00  0.00    -0.568 C  
BRANCH  26  27
HETATM   27  C   UNL     1     -13.084   9.328  72.185  1.00  0.00    -0.520 C  
BRANCH  27  28
HETATM   28  C   UNL     1     -11.696   8.698  72.316  1.00  0.00    -0.428 C  
BRANCH  28  29
HETATM   29  C   UNL     1     -11.260   7.930  71.067  1.00  0.00    -0.288 C  
BRANCH  29  30
HETATM   30  C   UNL     1     -11.490   6.411  71.125  1.00  0.00    -0.381 C  
BRANCH  30  31
HETATM   31  C   UNL     1     -11.303   5.775  72.495  1.00  0.00    -0.307 C  
BRANCH  31  32
HETATM   32  S   UNL     1      -9.729   4.865  72.625  1.00  0.00    -0.154 S  
HETATM   33  O   UNL     1     -10.045   3.406  72.468  1.00  0.00    -0.152 OA 
BRANCH  32  34
HETATM   34  C   UNL     1      -8.994   5.427  71.056  1.00  0.00    -0.139 C  
BRANCH  34  35
HETATM   35  C   UNL     1      -8.625   4.258  70.149  1.00  0.00    -0.102 C  
BRANCH  35  36
HETATM   36  C   UNL     1      -9.628   4.093  69.009  1.00  0.00    -0.232 C  
BRANCH  36  37
HETATM   37  C   UNL     1      -9.064   4.489  67.645  1.00  0.00    -0.122 C  
HETATM   38  F   UNL     1      -7.714   4.293  67.664  1.00  0.00    -0.079 F  
HETATM   39  C   UNL     1      -9.401   5.924  67.215  1.00  0.00    -0.113 C  
HETATM   40  F   UNL     1      -9.549   3.595  66.733  1.00  0.00    -0.198 F  
HETATM   41  F   UNL     1     -10.260   6.533  68.061  1.00  0.00    -0.132 F  
HETATM   42  F   UNL     1      -8.285   6.687  67.145  1.00  0.00    -0.109 F  
HETATM   43  F   UNL     1      -9.974   5.960  65.986  1.00  0.00    -0.167 F  
ENDBRANCH  36  37
ENDBRANCH  35  36
ENDBRANCH  34  35
ENDBRANCH  32  34
ENDBRANCH  31  32
ENDBRANCH  30  31
ENDBRANCH  29  30
ENDBRANCH  28  29
ENDBRANCH  27  28
ENDBRANCH  26  27
ENDBRANCH  25  26
ENDBRANCH  24  25
ENDBRANCH  23  24
ENDBRANCH  21  23
TORSDOF 14
ENDMDL
MODEL      132
REMARK 921   NORMALIZED FREE ENERGY PREDICTED BY IDOCK:   -4.91 KCAL/MOL
REMARK 922        TOTAL FREE ENERGY PREDICTED BY IDOCK:  -12.22 KCAL/MOL
REMARK 923 INTER-LIGAND FREE ENERGY PREDICTED BY IDOCK:   -9.27 KCAL/MOL
REMARK 924 INTRA-LIGAND FREE ENERGY PREDICTED BY IDOCK:   -2.95 KCAL/MOL
REMARK 927      BINDING AFFINITY PREDICTED BY RF-SCORE:    0.00 PKD
ROOT
HETATM    1  C   UNL     1      -8.599   6.847  65.794  1.00  0.00    -0.139 C  
HETATM    2  C   UNL     1      -7.209   6.874  66.097  1.00  0.00    -0.074 C  
HETATM    3  C   UNL     1      -7.912   5.835  66.927  1.00  0.00    -0.102 C  
HETATM    4  C   UNL     1      -9.772   5.512  66.177  1.00  0.00    -0.123 C  
HETATM    5  O   UNL     1     -10.814   4.535  66.270  1.00  0.00    -0.462 OA 
HETATM    6  C   UNL     1      -8.680   4.957  65.555  1.00  0.00    -0.139 C  
HETATM    7  C   UNL     1      -8.793   3.787  66.972  1.00  0.00    -0.137 C  
HETATM    8  C   UNL     1      -8.515   4.410  64.182  1.00  0.00    -0.116 C  
HETATM    9  H   UNL     1     -11.684   4.383  65.920  1.00  0.00     0.000 HD 
HETATM   10  C   UNL     1      -9.603   4.512  68.388  1.00  0.00    -0.207 C  
HETATM   11  C   UNL     1      -9.730   6.199  68.642  1.00  0.00    -0.145 C  
HETATM   12  C   UNL     1     -10.699   6.722  69.709  1.00  0.00    -0.288 A  
HETATM   13  C   UNL     1     -11.134   5.876  70.746  1.00  0.00    -0.324 A  
HETATM   14  C   UNL     1     -11.847   6.372  71.843  1.00  0.00    -0.380 A  
HETATM   15  C   UNL     1     -12.142   7.725  71.909  1.00  0.00    -0.304 A  
HETATM   16  C   UNL     1     -11.720   8.586  70.907  1.00  0.00    -0.274 A  
HETATM   17  O   UNL     1     -12.830   8.258  72.959  1.00  0.00    -0.654 OA 
HETATM   18  C   UNL     1     -10.965   8.110  69.818  1.00  0.00    -0.133 A  
HETATM   19  H   UNL     1     -13.033   9.185  73.004  1.00  0.00     0.000 HD 
HETATM   20  C   UNL     1     -10.482   9.139  68.811  1.00  0.00    -0.236 C  
HETATM   21  C   UNL     1      -9.238   8.740  67.980  1.00  0.00    -0.147 C  
HETATM   22  C   UNL     1      -9.582   7.375  67.339  1.00  0.00    -0.184 C  
ENDROOT
BRANCH  21  23
HETATM   23  C   UNL     1      -7.968   8.707  68.855  1.00  0.00    -0.113 C  
BRANCH  23  24
HETATM   24  C   UNL     1      -7.732   9.910  69.749  1.00  0.00    -0.159 C  
BRANCH  24  25
HETATM   25  C   UNL     1      -6.987  11.013  68.982  1.00  0.00    -0.097 C  
BRANCH  25  26
HETATM   26  C   UNL     1      -7.878  11.873  68.069  1.00  0.00    -0.140 C  
BRANCH  26  27
HETATM   27  C   UNL     1      -7.687  11.601  66.577  1.00  0.00    -0.003 C  
BRANCH  27  28
HETATM   28  C   UNL     1      -9.025  11.477  65.847  1.00  0.00    -0.152 C  
BRANCH  28  29
HETATM   29  C   UNL     1      -8.875  11.163  64.357  1.00  0.00     0.095 C  
BRANCH  29  30
HETATM   30  C   UNL     1      -9.900  11.851  63.442  1.00  0.00    -0.374 C  
BRANCH  30  31
HETATM   31  C   UNL     1     -11.305  11.974  64.014  1.00  0.00    -0.403 C  
BRANCH  31  32
HETATM   32  S   UNL     1     -11.642  13.644  64.664  1.00  0.00    -0.389 S  
HETATM   33  O   UNL     1     -12.755  14.224  63.842  1.00  0.00    -0.749 OA 
BRANCH  32  34
HETATM   34  C   UNL     1     -12.359  13.142  66.260  1.00  0.00    -0.276 C  
BRANCH  34  35
HETATM   35  C   UNL     1     -11.516  13.616  67.439  1.00  0.00    -0.365 C  
BRANCH  35  36
HETATM   36  C   UNL     1     -10.754  14.898  67.104  1.00  0.00    -0.296 C  
BRANCH  36  37
HETATM   37  C   UNL     1      -9.732  15.290  68.169  1.00  0.00    -0.212 C  
HETATM   38  F   UNL     1     -10.217  16.362  68.858  1.00  0.00    -0.208 F  
HETATM   39  C   UNL     1      -8.328  15.585  67.619  1.00  0.00    -0.155 C  
HETATM   40  F   UNL     1      -9.680  14.268  69.074  1.00  0.00    -0.206 F  
HETATM   41  F   UNL     1      -8.215  15.304  66.303  1.00  0.00    -0.237 F  
HETATM   42  F   UNL     1      -8.001  16.887  67.790  1.00  0.00    -0.169 F  
HETATM   43  F   UNL     1      -7.375  14.858  68.255  1.00  0.00    -0.095 F  
ENDBRANCH  36  37
ENDBRANCH  35  36
ENDBRANCH  34  35
ENDBRANCH  32  34
ENDBRANCH  31  32
ENDBRANCH  30  31
ENDBRANCH  29  30
ENDBRANCH  28  29
ENDBRANCH  27  28
ENDBRANCH  26  27
ENDBRANCH  25  26
ENDBRANCH  24  25
ENDBRANCH  23  24
ENDBRANCH  21  23
TORSDOF 14
ENDMDL
MODEL      133
REMARK 921   NORMALIZED FREE ENERGY PREDICTED BY IDOCK:   -4.90 KCAL/MOL
REMARK 922        TOTAL FREE ENERGY PREDICTED BY IDOCK:  -12.21 KCAL/MOL
REMARK 923 INTER-LIGAND FREE ENERGY PREDICTED BY IDOCK:   -8.87 KCAL/MOL
REMARK 924 INTRA-LIGAND FREE ENERGY PREDICTED BY IDOCK:   -3.34 KCAL/MOL
REMARK 927      BINDING AFFINITY PREDICTED BY RF-SCORE:    0.00 PKD
ROOT
HETATM    1  C   UNL     1      -7.953   8.902  65.807  1.00  0.00    -0.101 C  
HETATM    2  C   UNL     1      -9.024   7.978  65.968  1.00  0.00    -0.205 C  
HETATM    3  C   UNL     1      -9.377   9.025  64.947  1.00  0.00     0.047 C  
HETATM    4  C   UNL     1      -7.703  10.050  64.420  1.00  0.00    -0.145 C  
HETATM    5  O   UNL     1      -7.262  10.923  63.375  1.00  0.00    -0.334 OA 
HETATM    6  C   UNL     1      -7.926   8.796  63.904  1.00  0.00    -0.157 C  
HETATM    7  C   UNL     1      -9.114   9.727  62.847  1.00  0.00    -0.275 C  
HETATM    8  C   UNL     1      -6.998   7.829  63.262  1.00  0.00    -0.073 C  
HETATM    9  H   UNL     1      -6.480  11.402  63.128  1.00  0.00     0.000 HD 
HETATM   10  C   UNL     1      -9.669  11.238  63.619  1.00  0.00    -0.351 C  
HETATM   11  C   UNL     1      -9.605  11.515  65.306  1.00  0.00    -0.244 C  
HETATM   12  C   UNL     1      -9.812  12.939  65.837  1.00  0.00    -0.239 A  
HETATM   13  C   UNL     1     -10.468  13.901  65.046  1.00  0.00    -0.428 A  
HETATM   14  C   UNL     1     -10.855  15.138  65.573  1.00  0.00    -0.373 A  
HETATM   15  C   UNL     1     -10.579  15.431  66.899  1.00  0.00    -0.309 A  
HETATM   16  C   UNL     1      -9.942  14.500  67.706  1.00  0.00    -0.225 A  
HETATM   17  O   UNL     1     -10.939  16.620  67.461  1.00  0.00    -0.266 OA 
HETATM   18  C   UNL     1      -9.583  13.234  67.204  1.00  0.00    -0.240 A  
HETATM   19  H   UNL     1     -10.750  16.822  68.369  1.00  0.00     0.000 HD 
HETATM   20  C   UNL     1      -8.960  12.255  68.183  1.00  0.00    -0.192 C  
HETATM   21  C   UNL     1      -9.091  10.757  67.816  1.00  0.00    -0.151 C  
HETATM   22  C   UNL     1      -8.530  10.625  66.380  1.00  0.00    -0.152 C  
ENDROOT
BRANCH  21  23
HETATM   23  C   UNL     1     -10.549  10.273  67.953  1.00  0.00    -0.282 C  
BRANCH  23  24
HETATM   24  C   UNL     1     -11.337  10.827  69.126  1.00  0.00    -0.348 C  
BRANCH  24  25
HETATM   25  C   UNL     1     -10.926  10.125  70.430  1.00  0.00    -0.386 C  
BRANCH  25  26
HETATM   26  C   UNL     1     -11.988   9.173  71.007  1.00  0.00    -0.344 C  
BRANCH  26  27
HETATM   27  C   UNL     1     -11.750   7.700  70.675  1.00  0.00    -0.214 C  
BRANCH  27  28
HETATM   28  C   UNL     1     -12.058   6.793  71.867  1.00  0.00    -0.375 C  
BRANCH  28  29
HETATM   29  C   UNL     1     -11.283   7.170  73.131  1.00  0.00    -0.228 C  
BRANCH  29  30
HETATM   30  C   UNL     1     -10.268   6.120  73.609  1.00  0.00    -0.252 C  
BRANCH  30  31
HETATM   31  C   UNL     1      -8.807   6.464  73.359  1.00  0.00    -0.124 C  
BRANCH  31  32
HETATM   32  S   UNL     1      -8.559   8.244  73.052  1.00  0.00    -0.163 S  
HETATM   33  O   UNL     1      -7.401   8.684  73.899  1.00  0.00    -0.356 OA 
BRANCH  32  34
HETATM   34  C   UNL     1      -7.951   8.111  71.340  1.00  0.00    -0.106 C  
BRANCH  34  35
HETATM   35  C   UNL     1      -8.190   6.723  70.756  1.00  0.00    -0.123 C  
BRANCH  35  36
HETATM   36  C   UNL     1      -8.512   6.788  69.264  1.00  0.00    -0.129 C  
BRANCH  36  37
HETATM   37  C   UNL     1      -8.353   5.448  68.551  1.00  0.00    -0.097 C  
HETATM   38  F   UNL     1      -7.544   5.630  67.467  1.00  0.00    -0.083 F  
HETATM   39  C   UNL     1      -9.678   4.790  68.138  1.00  0.00    -0.143 C  
HETATM   40  F   UNL     1      -7.657   4.624  69.390  1.00  0.00    -0.054 F  
HETATM   41  F   UNL     1     -10.756   5.452  68.610  1.00  0.00    -0.269 F  
HETATM   42  F   UNL     1      -9.793   4.727  66.791  1.00  0.00    -0.147 F  
HETATM   43  F   UNL     1      -9.772   3.516  68.596  1.00  0.00    -0.235 F  
ENDBRANCH  36  37
ENDBRANCH  35  36
ENDBRANCH  34  35
ENDBRANCH  32  34
ENDBRANCH  31  32
ENDBRANCH  30  31
ENDBRANCH  29  30
ENDBRANCH  28  29
ENDBRANCH  27  28
ENDBRANCH  26  27
ENDBRANCH  25  26
ENDBRANCH  24  25
ENDBRANCH  23  24
ENDBRANCH  21  23
TORSDOF 14
ENDMDL
MODEL      134
REMARK 921   NORMALIZED FREE ENERGY PREDICTED BY IDOCK:   -4.90 KCAL/MOL
REMARK 922        TOTAL FREE ENERGY PREDICTED BY IDOCK:  -12.20 KCAL/MOL
REMARK 923 INTER-LIGAND FREE ENERGY PREDICTED BY IDOCK:   -8.34 KCAL/MOL
REMARK 924 INTRA-LIGAND FREE ENERGY PREDICTED BY IDOCK:   -3.87 KCAL/MOL
REMARK 927      BINDING AFFINITY PREDICTED BY RF-SCORE:    0.00 PKD
ROOT
HETATM    1  C   UNL     1     -11.727  13.508  68.198  1.00  0.00    -0.396 C  
HETATM    2  C   UNL     1     -11.318  13.598  69.559  1.00  0.00    -0.276 C  
HETATM    3  C   UNL     1     -10.134  13.727  68.639  1.00  0.00    -0.195 C  
HETATM    4  C   UNL     1     -10.781  14.034  66.738  1.00  0.00    -0.285 C  
HETATM    5  O   UNL     1     -10.261  14.496  65.487  1.00  0.00    -0.327 OA 
HETATM    6  C   UNL     1     -10.793  15.072  67.639  1.00  0.00    -0.291 C  
HETATM    7  C   UNL     1      -8.987  15.065  67.273  1.00  0.00    -0.212 C  
HETATM    8  C   UNL     1     -11.524  16.366  67.624  1.00  0.00     0.144 C  
HETATM    9  H   UNL     1     -10.564  14.640  64.598  1.00  0.00     0.000 HD 
HETATM   10  C   UNL     1      -8.415  13.470  66.709  1.00  0.00     0.013 C  
HETATM   11  C   UNL     1      -9.246  12.007  67.017  1.00  0.00    -0.195 C  
HETATM   12  C   UNL     1      -8.848  10.746  66.240  1.00  0.00    -0.182 A  
HETATM   13  C   UNL     1      -7.580  10.658  65.633  1.00  0.00    -0.100 A  
HETATM   14  C   UNL     1      -7.110   9.454  65.098  1.00  0.00    -0.100 A  
HETATM   15  C   UNL     1      -7.909   8.324  65.154  1.00  0.00    -0.120 A  
HETATM   16  C   UNL     1      -9.160   8.376  65.753  1.00  0.00    -0.195 A  
HETATM   17  O   UNL     1      -7.495   7.126  64.650  1.00  0.00    -0.083 OA 
HETATM   18  C   UNL     1      -9.631   9.569  66.334  1.00  0.00    -0.273 A  
HETATM   19  H   UNL     1      -8.042   6.351  64.688  1.00  0.00     0.000 HD 
HETATM   20  C   UNL     1     -10.978   9.509  67.034  1.00  0.00     0.014 C  
HETATM   21  C   UNL     1     -11.226  10.589  68.114  1.00  0.00    -0.357 C  
HETATM   22  C   UNL     1     -10.958  11.946  67.421  1.00  0.00    -0.315 C  
ENDROOT
BRANCH  21  23
HETATM   23  C   UNL     1     -10.346  10.349  69.358  1.00  0.00    -0.259 C  
BRANCH  23  24
HETATM   24  C   UNL     1     -11.075  10.157  70.675  1.00  0.00    -0.397 C  
BRANCH  24  25
HETATM   25  C   UNL     1     -12.505  10.712  70.584  1.00  0.00    -0.462 C  
BRANCH  25  26
HETATM   26  C   UNL     1     -13.497  10.091  71.583  1.00  0.00    -0.398 C  
BRANCH  26  27
HETATM   27  C   UNL     1     -12.951   8.873  72.327  1.00  0.00    -0.479 C  
BRANCH  27  28
HETATM   28  C   UNL     1     -13.112   7.590  71.511  1.00  0.00    -0.402 C  
BRANCH  28  29
HETATM   29  C   UNL     1     -12.134   6.486  71.918  1.00  0.00    -0.388 C  
BRANCH  29  30
HETATM   30  C   UNL     1     -10.687   6.693  71.441  1.00  0.00    -0.264 C  
BRANCH  30  31
HETATM   31  C   UNL     1      -9.994   5.449  70.904  1.00  0.00    -0.202 C  
BRANCH  31  32
HETATM   32  S   UNL     1     -10.265   5.224  69.116  1.00  0.00    -0.186 S  
HETATM   33  O   UNL     1     -11.076   6.394  68.639  1.00  0.00    -0.317 OA 
BRANCH  32  34
HETATM   34  C   UNL     1      -8.549   5.505  68.574  1.00  0.00    -0.102 C  
BRANCH  34  35
HETATM   35  C   UNL     1      -7.794   6.426  69.526  1.00  0.00    -0.101 C  
BRANCH  35  36
HETATM   36  C   UNL     1      -7.897   7.888  69.094  1.00  0.00    -0.109 C  
BRANCH  36  37
HETATM   37  C   UNL     1      -6.634   8.696  69.384  1.00  0.00    -0.045 C  
HETATM   38  F   UNL     1      -5.558   7.863  69.285  1.00  0.00    -0.024 F  
HETATM   39  C   UNL     1      -6.642   9.417  70.739  1.00  0.00    -0.096 C  
HETATM   40  F   UNL     1      -6.490   9.598  68.368  1.00  0.00    -0.051 F  
HETATM   41  F   UNL     1      -7.832   9.322  71.372  1.00  0.00    -0.150 F  
HETATM   42  F   UNL     1      -5.697   8.913  71.567  1.00  0.00    -0.035 F  
HETATM   43  F   UNL     1      -6.376  10.741  70.607  1.00  0.00    -0.135 F  
ENDBRANCH  36  37
ENDBRANCH  35  36
ENDBRANCH  34  35
ENDBRANCH  32  34
ENDBRANCH  31  32
ENDBRANCH  30  31
ENDBRANCH  29  30
ENDBRANCH  28  29
ENDBRANCH  27  28
ENDBRANCH  26  27
ENDBRANCH  25  26
ENDBRANCH  24  25
ENDBRANCH  23  24
ENDBRANCH  21  23
TORSDOF 14
ENDMDL
MODEL      135
REMARK 921   NORMALIZED FREE ENERGY PREDICTED BY IDOCK:   -4.87 KCAL/MOL
REMARK 922        TOTAL FREE ENERGY PREDICTED BY IDOCK:  -12.16 KCAL/MOL
REMARK 923 INTER-LIGAND FREE ENERGY PREDICTED BY IDOCK:  -10.38 KCAL/MOL
REMARK 924 INTRA-LIGAND FREE ENERGY PREDICTED BY IDOCK:   -1.77 KCAL/MOL
REMARK 927      BINDING AFFINITY PREDICTED BY RF-SCORE:    0.00 PKD
ROOT
HETATM    1  C   UNL     1     -10.533  10.248  67.351  1.00  0.00    -0.303 C  
HETATM    2  C   UNL     1      -9.558  10.621  68.318  1.00  0.00    -0.167 C  
HETATM    3  C   UNL     1      -8.896  10.187  67.039  1.00  0.00    -0.144 C  
HETATM    4  C   UNL     1     -10.283  10.085  65.558  1.00  0.00    -0.178 C  
HETATM    5  O   UNL     1     -10.327  10.025  64.128  1.00  0.00    -0.391 OA 
HETATM    6  C   UNL     1      -9.793  11.306  65.949  1.00  0.00    -0.272 C  
HETATM    7  C   UNL     1      -8.345  10.754  64.954  1.00  0.00    -0.018 C  
HETATM    8  C   UNL     1     -10.324  12.680  65.744  1.00  0.00    -0.298 C  
HETATM    9  H   UNL     1     -10.975   9.977  63.435  1.00  0.00     0.000 HD 
HETATM   10  C   UNL     1      -8.242   8.975  64.837  1.00  0.00    -0.154 C  
HETATM   11  C   UNL     1      -8.990   7.911  65.948  1.00  0.00    -0.166 C  
HETATM   12  C   UNL     1      -9.103   6.423  65.595  1.00  0.00     0.038 A  
HETATM   13  C   UNL     1      -8.250   5.857  64.629  1.00  0.00    -0.120 A  
HETATM   14  C   UNL     1      -8.185   4.473  64.433  1.00  0.00    -0.108 A  
HETATM   15  C   UNL     1      -8.985   3.638  65.197  1.00  0.00    -0.133 A  
HETATM   16  C   UNL     1      -9.830   4.165  66.163  1.00  0.00    -0.207 A  
HETATM   17  O   UNL     1      -8.956   2.283  65.047  1.00  0.00    -0.118 OA 
HETATM   18  C   UNL     1      -9.876   5.552  66.402  1.00  0.00    -0.192 A  
HETATM   19  H   UNL     1      -9.504   1.710  65.570  1.00  0.00     0.000 HD 
HETATM   20  C   UNL     1     -10.774   6.027  67.532  1.00  0.00    -0.383 C  
HETATM   21  C   UNL     1     -10.411   7.398  68.151  1.00  0.00    -0.241 C  
HETATM   22  C   UNL     1     -10.345   8.390  66.966  1.00  0.00    -0.385 C  
ENDROOT
BRANCH  21  23
HETATM   23  C   UNL     1      -9.101   7.317  68.960  1.00  0.00    -0.133 C  
BRANCH  23  24
HETATM   24  C   UNL     1      -9.208   7.588  70.450  1.00  0.00    -0.157 C  
BRANCH  24  25
HETATM   25  C   UNL     1     -10.134   6.561  71.118  1.00  0.00    -0.206 C  
BRANCH  25  26
HETATM   26  C   UNL     1     -11.546   7.082  71.437  1.00  0.00    -0.329 C  
BRANCH  26  27
HETATM   27  C   UNL     1     -11.567   8.474  72.069  1.00  0.00    -0.432 C  
BRANCH  27  28
HETATM   28  C   UNL     1     -11.464   9.577  71.015  1.00  0.00    -0.420 C  
BRANCH  28  29
HETATM   29  C   UNL     1     -12.334  10.797  71.327  1.00  0.00    -0.470 C  
BRANCH  29  30
HETATM   30  C   UNL     1     -12.388  11.858  70.217  1.00  0.00    -0.287 C  
BRANCH  30  31
HETATM   31  C   UNL     1     -12.117  13.287  70.666  1.00  0.00    -0.280 C  
BRANCH  31  32
HETATM   32  S   UNL     1     -11.465  14.324  69.317  1.00  0.00    -0.306 S  
HETATM   33  O   UNL     1     -12.531  14.406  68.264  1.00  0.00    -0.085 OA 
BRANCH  32  34
HETATM   34  C   UNL     1     -11.468  15.912  70.209  1.00  0.00    -0.366 C  
BRANCH  34  35
HETATM   35  C   UNL     1     -10.312  16.809  69.780  1.00  0.00    -0.064 C  
BRANCH  35  36
HETATM   36  C   UNL     1     -10.600  17.497  68.446  1.00  0.00    -0.339 C  
BRANCH  36  37
HETATM   37  C   UNL     1      -9.862  18.823  68.278  1.00  0.00    -0.373 C  
HETATM   38  F   UNL     1     -10.630  19.815  68.816  1.00  0.00    -0.476 F  
HETATM   39  C   UNL     1      -9.481  19.155  66.828  1.00  0.00    -0.330 C  
HETATM   40  F   UNL     1      -8.743  18.764  69.060  1.00  0.00    -0.329 F  
HETATM   41  F   UNL     1      -9.743  18.140  65.976  1.00  0.00    -0.296 F  
HETATM   42  F   UNL     1     -10.150  20.245  66.385  1.00  0.00    -0.511 F  
HETATM   43  F   UNL     1      -8.159  19.434  66.706  1.00  0.00    -0.254 F  
ENDBRANCH  36  37
ENDBRANCH  35  36
ENDBRANCH  34  35
ENDBRANCH  32  34
ENDBRANCH  31  32
ENDBRANCH  30  31
ENDBRANCH  29  30
ENDBRANCH  28  29
ENDBRANCH  27  28
ENDBRANCH  26  27
ENDBRANCH  25  26
ENDBRANCH  24  25
ENDBRANCH  23  24
ENDBRANCH  21  23
TORSDOF 14
ENDMDL
MODEL      136
REMARK 921   NORMALIZED FREE ENERGY PREDICTED BY IDOCK:   -4.83 KCAL/MOL
REMARK 922        TOTAL FREE ENERGY PREDICTED BY IDOCK:  -12.07 KCAL/MOL
REMARK 923 INTER-LIGAND FREE ENERGY PREDICTED BY IDOCK:   -9.33 KCAL/MOL
REMARK 924 INTRA-LIGAND FREE ENERGY PREDICTED BY IDOCK:   -2.74 KCAL/MOL
REMARK 927      BINDING AFFINITY PREDICTED BY RF-SCORE:    0.00 PKD
ROOT
HETATM    1  C   UNL     1      -8.772   8.603  65.404  1.00  0.00    -0.208 C  
HETATM    2  C   UNL     1      -7.435   9.074  65.533  1.00  0.00    -0.086 C  
HETATM    3  C   UNL     1      -7.829   8.260  66.736  1.00  0.00    -0.095 C  
HETATM    4  C   UNL     1      -9.546   7.250  66.338  1.00  0.00    -0.104 C  
HETATM    5  O   UNL     1     -10.293   6.148  66.866  1.00  0.00    -0.196 OA 
HETATM    6  C   UNL     1      -8.354   6.794  65.832  1.00  0.00    -0.137 C  
HETATM    7  C   UNL     1      -8.138   6.214  67.567  1.00  0.00    -0.109 C  
HETATM    8  C   UNL     1      -8.066   5.852  64.718  1.00  0.00    -0.132 C  
HETATM    9  H   UNL     1     -11.095   5.676  66.681  1.00  0.00     0.000 HD 
HETATM   10  C   UNL     1      -9.095   7.176  68.728  1.00  0.00    -0.134 C  
HETATM   11  C   UNL     1      -9.660   8.758  68.403  1.00  0.00    -0.157 C  
HETATM   12  C   UNL     1     -10.720   9.374  69.324  1.00  0.00    -0.228 A  
HETATM   13  C   UNL     1     -10.905   8.874  70.626  1.00  0.00    -0.286 A  
HETATM   14  C   UNL     1     -11.711   9.539  71.556  1.00  0.00    -0.472 A  
HETATM   15  C   UNL     1     -12.352  10.711  71.188  1.00  0.00    -0.400 A  
HETATM   16  C   UNL     1     -12.183  11.235  69.915  1.00  0.00    -0.358 A  
HETATM   17  O   UNL     1     -13.145  11.399  72.059  1.00  0.00    -0.487 OA 
HETATM   18  C   UNL     1     -11.342  10.601  68.980  1.00  0.00    -0.340 A  
HETATM   19  H   UNL     1     -13.584  12.202  71.807  1.00  0.00     0.000 HD 
HETATM   20  C   UNL     1     -11.159  11.289  67.639  1.00  0.00    -0.336 C  
HETATM   21  C   UNL     1      -9.864  10.935  66.869  1.00  0.00    -0.222 C  
HETATM   22  C   UNL     1      -9.842   9.391  66.770  1.00  0.00    -0.280 C  
ENDROOT
BRANCH  21  23
HETATM   23  C   UNL     1      -8.620  11.525  67.566  1.00  0.00    -0.143 C  
BRANCH  23  24
HETATM   24  C   UNL     1      -7.447  11.878  66.670  1.00  0.00     0.059 C  
BRANCH  24  25
HETATM   25  C   UNL     1      -6.361  12.612  67.470  1.00  0.00    -0.159 C  
BRANCH  25  26
HETATM   26  C   UNL     1      -6.895  13.526  68.587  1.00  0.00    -0.098 C  
BRANCH  26  27
HETATM   27  C   UNL     1      -6.751  15.019  68.291  1.00  0.00    -0.116 C  
BRANCH  27  28
HETATM   28  C   UNL     1      -7.194  15.877  69.476  1.00  0.00    -0.174 C  
BRANCH  28  29
HETATM   29  C   UNL     1      -6.247  17.044  69.766  1.00  0.00    -0.198 C  
BRANCH  29  30
HETATM   30  C   UNL     1      -6.194  18.124  68.673  1.00  0.00    -0.204 C  
BRANCH  30  31
HETATM   31  C   UNL     1      -7.143  19.297  68.869  1.00  0.00    -0.350 C  
BRANCH  31  32
HETATM   32  S   UNL     1      -8.316  19.476  67.485  1.00  0.00    -0.306 S  
HETATM   33  O   UNL     1      -7.788  18.653  66.346  1.00  0.00    -0.265 OA 
BRANCH  32  34
HETATM   34  C   UNL     1      -9.700  18.548  68.220  1.00  0.00    -0.356 C  
BRANCH  34  35
HETATM   35  C   UNL     1      -9.940  17.222  67.506  1.00  0.00    -0.296 C  
BRANCH  35  36
HETATM   36  C   UNL     1     -11.337  16.674  67.794  1.00  0.00     0.058 C  
BRANCH  36  37
HETATM   37  C   UNL     1     -11.328  15.242  68.325  1.00  0.00    -0.336 C  
HETATM   38  F   UNL     1     -12.036  14.458  67.461  1.00  0.00    -0.394 F  
HETATM   39  C   UNL     1     -11.862  15.095  69.757  1.00  0.00    -0.333 C  
HETATM   40  F   UNL     1     -10.040  14.792  68.251  1.00  0.00    -0.206 F  
HETATM   41  F   UNL     1     -12.111  16.286  70.343  1.00  0.00    -0.312 F  
HETATM   42  F   UNL     1     -13.010  14.379  69.779  1.00  0.00    -0.265 F  
HETATM   43  F   UNL     1     -10.982  14.443  70.558  1.00  0.00    -0.165 F  
ENDBRANCH  36  37
ENDBRANCH  35  36
ENDBRANCH  34  35
ENDBRANCH  32  34
ENDBRANCH  31  32
ENDBRANCH  30  31
ENDBRANCH  29  30
ENDBRANCH  28  29
ENDBRANCH  27  28
ENDBRANCH  26  27
ENDBRANCH  25  26
ENDBRANCH  24  25
ENDBRANCH  23  24
ENDBRANCH  21  23
TORSDOF 14
ENDMDL
MODEL      137
REMARK 921   NORMALIZED FREE ENERGY PREDICTED BY IDOCK:   -4.81 KCAL/MOL
REMARK 922        TOTAL FREE ENERGY PREDICTED BY IDOCK:  -12.04 KCAL/MOL
REMARK 923 INTER-LIGAND FREE ENERGY PREDICTED BY IDOCK:   -7.83 KCAL/MOL
REMARK 924 INTRA-LIGAND FREE ENERGY PREDICTED BY IDOCK:   -4.21 KCAL/MOL
REMARK 927      BINDING AFFINITY PREDICTED BY RF-SCORE:    0.00 PKD
ROOT
HETATM    1  C   UNL     1     -10.648  12.246  67.552  1.00  0.00    -0.242 C  
HETATM    2  C   UNL     1      -9.569  13.093  67.933  1.00  0.00    -0.218 C  
HETATM    3  C   UNL     1      -9.666  12.998  66.434  1.00  0.00    -0.268 C  
HETATM    4  C   UNL     1     -11.445  12.162  65.921  1.00  0.00    -0.363 C  
HETATM    5  O   UNL     1     -12.279  12.034  64.765  1.00  0.00    -0.299 OA 
HETATM    6  C   UNL     1     -11.397  13.479  66.307  1.00  0.00    -0.327 C  
HETATM    7  C   UNL     1     -10.734  13.685  64.601  1.00  0.00    -0.433 C  
HETATM    8  C   UNL     1     -12.469  14.395  66.777  1.00  0.00    -0.054 C  
HETATM    9  H   UNL     1     -13.111  11.643  64.524  1.00  0.00     0.000 HD 
HETATM   10  C   UNL     1      -9.973  12.192  63.985  1.00  0.00    -0.301 C  
HETATM   11  C   UNL     1      -9.395  10.939  64.997  1.00  0.00    -0.260 C  
HETATM   12  C   UNL     1      -9.046   9.581  64.377  1.00  0.00    -0.234 A  
HETATM   13  C   UNL     1      -8.772   9.480  63.000  1.00  0.00    -0.233 A  
HETATM   14  C   UNL     1      -8.252   8.307  62.443  1.00  0.00    -0.171 A  
HETATM   15  C   UNL     1      -8.009   7.214  63.259  1.00  0.00    -0.072 A  
HETATM   16  C   UNL     1      -8.260   7.285  64.622  1.00  0.00    -0.030 A  
HETATM   17  O   UNL     1      -7.499   6.049  62.766  1.00  0.00    -0.053 OA 
HETATM   18  C   UNL     1      -8.743   8.471  65.206  1.00  0.00    -0.175 A  
HETATM   19  H   UNL     1      -7.333   5.300  63.325  1.00  0.00     0.000 HD 
HETATM   20  C   UNL     1      -8.914   8.478  66.715  1.00  0.00    -0.173 C  
HETATM   21  C   UNL     1      -8.887   9.870  67.391  1.00  0.00    -0.137 C  
HETATM   22  C   UNL     1      -9.950  10.717  66.653  1.00  0.00    -0.251 C  
ENDROOT
BRANCH  21  23
HETATM   23  C   UNL     1      -7.472  10.484  67.349  1.00  0.00    -0.094 C  
BRANCH  23  24
HETATM   24  C   UNL     1      -6.884  10.919  68.679  1.00  0.00    -0.062 C  
BRANCH  24  25
HETATM   25  C   UNL     1      -7.753  10.415  69.842  1.00  0.00    -0.083 C  
BRANCH  25  26
HETATM   26  C   UNL     1      -7.104   9.310  70.694  1.00  0.00    -0.111 C  
BRANCH  26  27
HETATM   27  C   UNL     1      -7.413   7.892  70.214  1.00  0.00    -0.077 C  
BRANCH  27  28
HETATM   28  C   UNL     1      -6.224   7.269  69.482  1.00  0.00    -0.031 C  
BRANCH  28  29
HETATM   29  C   UNL     1      -6.554   6.831  68.053  1.00  0.00    -0.059 C  
BRANCH  29  30
HETATM   30  C   UNL     1      -6.891   5.340  67.893  1.00  0.00    -0.060 C  
BRANCH  30  31
HETATM   31  C   UNL     1      -8.364   4.985  68.036  1.00  0.00    -0.100 C  
BRANCH  31  32
HETATM   32  S   UNL     1      -8.659   3.794  69.385  1.00  0.00    -0.079 S  
HETATM   33  O   UNL     1      -7.411   3.746  70.216  1.00  0.00    -0.041 OA 
BRANCH  32  34
HETATM   34  C   UNL     1      -9.882   4.775  70.310  1.00  0.00    -0.242 C  
BRANCH  34  35
HETATM   35  C   UNL     1     -10.375   5.975  69.509  1.00  0.00    -0.295 C  
BRANCH  35  36
HETATM   36  C   UNL     1     -11.632   6.585  70.126  1.00  0.00    -0.466 C  
BRANCH  36  37
HETATM   37  C   UNL     1     -11.393   7.954  70.760  1.00  0.00    -0.274 C  
HETATM   38  F   UNL     1     -10.438   8.603  70.035  1.00  0.00    -0.201 F  
HETATM   39  C   UNL     1     -11.010   7.903  72.247  1.00  0.00    -0.300 C  
HETATM   40  F   UNL     1     -12.537   8.682  70.591  1.00  0.00    -0.121 F  
HETATM   41  F   UNL     1     -11.093   6.658  72.763  1.00  0.00    -0.243 F  
HETATM   42  F   UNL     1      -9.744   8.343  72.439  1.00  0.00    -0.276 F  
HETATM   43  F   UNL     1     -11.815   8.692  73.001  1.00  0.00    -0.323 F  
ENDBRANCH  36  37
ENDBRANCH  35  36
ENDBRANCH  34  35
ENDBRANCH  32  34
ENDBRANCH  31  32
ENDBRANCH  30  31
ENDBRANCH  29  30
ENDBRANCH  28  29
ENDBRANCH  27  28
ENDBRANCH  26  27
ENDBRANCH  25  26
ENDBRANCH  24  25
ENDBRANCH  23  24
ENDBRANCH  21  23
TORSDOF 14
ENDMDL
MODEL      138
REMARK 921   NORMALIZED FREE ENERGY PREDICTED BY IDOCK:   -4.78 KCAL/MOL
REMARK 922        TOTAL FREE ENERGY PREDICTED BY IDOCK:  -11.99 KCAL/MOL
REMARK 923 INTER-LIGAND FREE ENERGY PREDICTED BY IDOCK:   -9.17 KCAL/MOL
REMARK 924 INTRA-LIGAND FREE ENERGY PREDICTED BY IDOCK:   -2.83 KCAL/MOL
REMARK 927      BINDING AFFINITY PREDICTED BY RF-SCORE:    0.00 PKD
ROOT
HETATM    1  C   UNL     1      -7.662  16.512  69.063  1.00  0.00    -0.228 C  
HETATM    2  C   UNL     1      -6.371  16.144  68.590  1.00  0.00    -0.118 C  
HETATM    3  C   UNL     1      -7.206  16.702  67.470  1.00  0.00    -0.169 C  
HETATM    4  C   UNL     1      -8.852  17.612  68.239  1.00  0.00    -0.276 C  
HETATM    5  O   UNL     1      -9.862  18.537  67.823  1.00  0.00    -0.291 OA 
HETATM    6  C   UNL     1      -7.637  18.251  68.283  1.00  0.00    -0.289 C  
HETATM    7  C   UNL     1      -8.018  18.540  66.504  1.00  0.00    -0.295 C  
HETATM    8  C   UNL     1      -7.166  19.391  69.112  1.00  0.00    -0.377 C  
HETATM    9  H   UNL     1     -10.632  18.963  68.182  1.00  0.00     0.000 HD 
HETATM   10  C   UNL     1      -9.134  17.314  65.841  1.00  0.00     0.001 C  
HETATM   11  C   UNL     1      -9.360  15.768  66.538  1.00  0.00    -0.312 C  
HETATM   12  C   UNL     1     -10.550  14.913  66.086  1.00  0.00    -0.322 A  
HETATM   13  C   UNL     1     -11.173  15.164  64.849  1.00  0.00    -0.424 A  
HETATM   14  C   UNL     1     -12.119  14.282  64.316  1.00  0.00    -0.467 A  
HETATM   15  C   UNL     1     -12.459  13.139  65.021  1.00  0.00    -0.460 A  
HETATM   16  C   UNL     1     -11.856  12.858  66.239  1.00  0.00    -0.477 A  
HETATM   17  O   UNL     1     -13.371  12.245  64.543  1.00  0.00    -0.769 OA 
HETATM   18  C   UNL     1     -10.872  13.714  66.770  1.00  0.00    -0.291 A  
HETATM   19  H   UNL     1     -13.605  11.462  65.026  1.00  0.00     0.000 HD 
HETATM   20  C   UNL     1     -10.212  13.285  68.069  1.00  0.00    -0.240 C  
HETATM   21  C   UNL     1      -8.809  13.877  68.343  1.00  0.00    -0.177 C  
HETATM   22  C   UNL     1      -8.969  15.411  68.217  1.00  0.00    -0.185 C  
ENDROOT
BRANCH  21  23
HETATM   23  C   UNL     1      -7.756  13.287  67.382  1.00  0.00    -0.148 C  
BRANCH  23  24
HETATM   24  C   UNL     1      -8.026  11.888  66.860  1.00  0.00    -0.132 C  
BRANCH  24  25
HETATM   25  C   UNL     1      -7.139  10.864  67.582  1.00  0.00    -0.087 C  
BRANCH  25  26
HETATM   26  C   UNL     1      -7.797   9.491  67.807  1.00  0.00    -0.095 C  
BRANCH  26  27
HETATM   27  C   UNL     1      -8.431   9.325  69.188  1.00  0.00    -0.133 C  
BRANCH  27  28
HETATM   28  C   UNL     1      -9.940   9.095  69.096  1.00  0.00    -0.189 C  
BRANCH  28  29
HETATM   29  C   UNL     1     -10.369   8.405  67.799  1.00  0.00    -0.297 C  
BRANCH  29  30
HETATM   30  C   UNL     1     -10.563   6.884  67.905  1.00  0.00    -0.286 C  
BRANCH  30  31
HETATM   31  C   UNL     1      -9.280   6.067  67.972  1.00  0.00    -0.115 C  
BRANCH  31  32
HETATM   32  S   UNL     1      -9.424   4.482  67.084  1.00  0.00    -0.175 S  
HETATM   33  O   UNL     1     -10.565   4.616  66.118  1.00  0.00    -0.295 OA 
BRANCH  32  34
HETATM   34  C   UNL     1      -7.886   4.606  66.117  1.00  0.00    -0.095 C  
BRANCH  34  35
HETATM   35  C   UNL     1      -7.584   6.044  65.708  1.00  0.00    -0.084 C  
BRANCH  35  36
HETATM   36  C   UNL     1      -8.352   6.443  64.449  1.00  0.00     0.050 C  
BRANCH  36  37
HETATM   37  C   UNL     1      -7.687   7.575  63.669  1.00  0.00    -0.126 C  
HETATM   38  F   UNL     1      -6.337   7.480  63.837  1.00  0.00    -0.049 F  
HETATM   39  C   UNL     1      -8.186   8.979  64.043  1.00  0.00    -0.167 C  
HETATM   40  F   UNL     1      -7.906   7.334  62.342  1.00  0.00    -0.096 F  
HETATM   41  F   UNL     1      -9.230   8.948  64.899  1.00  0.00    -0.233 F  
HETATM   42  F   UNL     1      -7.203   9.708  64.622  1.00  0.00    -0.103 F  
HETATM   43  F   UNL     1      -8.596   9.675  62.953  1.00  0.00    -0.146 F  
ENDBRANCH  36  37
ENDBRANCH  35  36
ENDBRANCH  34  35
ENDBRANCH  32  34
ENDBRANCH  31  32
ENDBRANCH  30  31
ENDBRANCH  29  30
ENDBRANCH  28  29
ENDBRANCH  27  28
ENDBRANCH  26  27
ENDBRANCH  25  26
ENDBRANCH  24  25
ENDBRANCH  23  24
ENDBRANCH  21  23
TORSDOF 14
ENDMDL
MODEL      139
REMARK 921   NORMALIZED FREE ENERGY PREDICTED BY IDOCK:   -4.76 KCAL/MOL
REMARK 922        TOTAL FREE ENERGY PREDICTED BY IDOCK:  -11.95 KCAL/MOL
REMARK 923 INTER-LIGAND FREE ENERGY PREDICTED BY IDOCK:   -8.53 KCAL/MOL
REMARK 924 INTRA-LIGAND FREE ENERGY PREDICTED BY IDOCK:   -3.42 KCAL/MOL
REMARK 927      BINDING AFFINITY PREDICTED BY RF-SCORE:    0.00 PKD
ROOT
HETATM    1  C   UNL     1      -8.947   8.251  70.588  1.00  0.00    -0.161 C  
HETATM    2  C   UNL     1      -9.470   9.521  70.214  1.00  0.00    -0.307 C  
HETATM    3  C   UNL     1     -10.321   8.411  69.658  1.00  0.00    -0.218 C  
HETATM    4  C   UNL     1      -9.821   6.658  70.554  1.00  0.00    -0.176 C  
HETATM    5  O   UNL     1     -10.362   5.343  70.722  1.00  0.00    -0.228 OA 
HETATM    6  C   UNL     1     -10.608   7.565  71.222  1.00  0.00    -0.230 C  
HETATM    7  C   UNL     1     -11.894   6.890  70.089  1.00  0.00    -0.266 C  
HETATM    8  C   UNL     1     -10.924   7.701  72.668  1.00  0.00    -0.405 C  
HETATM    9  H   UNL     1     -10.129   4.524  71.141  1.00  0.00     0.000 HD 
HETATM   10  C   UNL     1     -11.191   6.207  68.596  1.00  0.00    -0.275 C  
HETATM   11  C   UNL     1      -9.644   6.629  68.002  1.00  0.00    -0.123 C  
HETATM   12  C   UNL     1      -9.009   5.772  66.900  1.00  0.00    -0.114 A  
HETATM   13  C   UNL     1      -9.815   4.952  66.087  1.00  0.00    -0.222 A  
HETATM   14  C   UNL     1      -9.300   4.321  64.949  1.00  0.00    -0.165 A  
HETATM   15  C   UNL     1      -7.966   4.496  64.617  1.00  0.00    -0.092 A  
HETATM   16  C   UNL     1      -7.149   5.305  65.393  1.00  0.00    -0.066 A  
HETATM   17  O   UNL     1      -7.418   3.907  63.516  1.00  0.00    -0.050 OA 
HETATM   18  C   UNL     1      -7.660   5.980  66.517  1.00  0.00    -0.094 A  
HETATM   19  H   UNL     1      -6.504   4.026  63.288  1.00  0.00     0.000 HD 
HETATM   20  C   UNL     1      -6.709   6.903  67.259  1.00  0.00    -0.063 C  
HETATM   21  C   UNL     1      -7.371   8.029  68.090  1.00  0.00    -0.096 C  
HETATM   22  C   UNL     1      -8.386   7.324  69.020  1.00  0.00    -0.126 C  
ENDROOT
BRANCH  21  23
HETATM   23  C   UNL     1      -8.010   9.096  67.176  1.00  0.00    -0.106 C  
BRANCH  23  24
HETATM   24  C   UNL     1      -7.053   9.975  66.392  1.00  0.00    -0.102 C  
BRANCH  24  25
HETATM   25  C   UNL     1      -6.989   9.525  64.925  1.00  0.00    -0.106 C  
BRANCH  25  26
HETATM   26  C   UNL     1      -8.302   8.942  64.375  1.00  0.00    -0.176 C  
BRANCH  26  27
HETATM   27  C   UNL     1      -9.034   9.867  63.403  1.00  0.00    -0.278 C  
BRANCH  27  28
HETATM   28  C   UNL     1     -10.081  10.726  64.115  1.00  0.00    -0.418 C  
BRANCH  28  29
HETATM   29  C   UNL     1     -10.655  11.836  63.233  1.00  0.00    -0.427 C  
BRANCH  29  30
HETATM   30  C   UNL     1     -11.956  12.470  63.751  1.00  0.00    -0.598 C  
BRANCH  30  31
HETATM   31  C   UNL     1     -12.122  12.474  65.264  1.00  0.00    -0.444 C  
BRANCH  31  32
HETATM   32  S   UNL     1     -11.857  14.128  65.983  1.00  0.00    -0.412 S  
HETATM   33  O   UNL     1     -12.281  14.061  67.421  1.00  0.00    -0.384 OA 
BRANCH  32  34
HETATM   34  C   UNL     1     -10.036  14.113  65.959  1.00  0.00    -0.316 C  
BRANCH  34  35
HETATM   35  C   UNL     1      -9.464  13.027  66.863  1.00  0.00    -0.242 C  
BRANCH  35  36
HETATM   36  C   UNL     1      -9.103  13.577  68.243  1.00  0.00    -0.189 C  
BRANCH  36  37
HETATM   37  C   UNL     1      -7.646  14.020  68.356  1.00  0.00    -0.129 C  
HETATM   38  F   UNL     1      -7.264  14.554  67.160  1.00  0.00    -0.208 F  
HETATM   39  C   UNL     1      -6.680  12.909  68.791  1.00  0.00    -0.093 C  
HETATM   40  F   UNL     1      -7.608  15.056  69.246  1.00  0.00    -0.136 F  
HETATM   41  F   UNL     1      -7.318  11.770  69.135  1.00  0.00    -0.108 F  
HETATM   42  F   UNL     1      -5.806  12.607  67.802  1.00  0.00    -0.072 F  
HETATM   43  F   UNL     1      -5.938  13.279  69.865  1.00  0.00    -0.102 F  
ENDBRANCH  36  37
ENDBRANCH  35  36
ENDBRANCH  34  35
ENDBRANCH  32  34
ENDBRANCH  31  32
ENDBRANCH  30  31
ENDBRANCH  29  30
ENDBRANCH  28  29
ENDBRANCH  27  28
ENDBRANCH  26  27
ENDBRANCH  25  26
ENDBRANCH  24  25
ENDBRANCH  23  24
ENDBRANCH  21  23
TORSDOF 14
ENDMDL
MODEL      140
REMARK 921   NORMALIZED FREE ENERGY PREDICTED BY IDOCK:   -4.75 KCAL/MOL
REMARK 922        TOTAL FREE ENERGY PREDICTED BY IDOCK:  -11.92 KCAL/MOL
REMARK 923 INTER-LIGAND FREE ENERGY PREDICTED BY IDOCK:   -9.44 KCAL/MOL
REMARK 924 INTRA-LIGAND FREE ENERGY PREDICTED BY IDOCK:   -2.49 KCAL/MOL
REMARK 927      BINDING AFFINITY PREDICTED BY RF-SCORE:    0.00 PKD
ROOT
HETATM    1  C   UNL     1     -11.509  14.078  68.138  1.00  0.00    -0.341 C  
HETATM    2  C   UNL     1     -11.267  14.186  69.536  1.00  0.00    -0.267 C  
HETATM    3  C   UNL     1      -9.971  14.181  68.772  1.00  0.00    -0.184 C  
HETATM    4  C   UNL     1     -10.346  14.467  66.796  1.00  0.00    -0.269 C  
HETATM    5  O   UNL     1      -9.636  14.835  65.609  1.00  0.00    -0.456 OA 
HETATM    6  C   UNL     1     -10.380  15.536  67.658  1.00  0.00    -0.269 C  
HETATM    7  C   UNL     1      -8.550  15.366  67.527  1.00  0.00    -0.187 C  
HETATM    8  C   UNL     1     -10.988  16.885  67.514  1.00  0.00    -0.120 C  
HETATM    9  H   UNL     1      -9.811  14.969  64.685  1.00  0.00     0.000 HD 
HETATM   10  C   UNL     1      -8.053  13.709  67.085  1.00  0.00    -0.094 C  
HETATM   11  C   UNL     1      -9.040  12.332  67.325  1.00  0.00    -0.184 C  
HETATM   12  C   UNL     1      -8.659  11.013  66.641  1.00  0.00    -0.157 A  
HETATM   13  C   UNL     1      -7.338  10.797  66.204  1.00  0.00    -0.127 A  
HETATM   14  C   UNL     1      -6.911   9.539  65.767  1.00  0.00    -0.087 A  
HETATM   15  C   UNL     1      -7.806   8.481  65.752  1.00  0.00    -0.100 A  
HETATM   16  C   UNL     1      -9.112   8.660  66.184  1.00  0.00    -0.250 A  
HETATM   17  O   UNL     1      -7.438   7.235  65.339  1.00  0.00    -0.078 OA 
HETATM   18  C   UNL     1      -9.548   9.910  66.667  1.00  0.00    -0.235 A  
HETATM   19  H   UNL     1      -8.051   6.510  65.329  1.00  0.00     0.000 HD 
HETATM   20  C   UNL     1     -10.971   9.989  67.191  1.00  0.00    -0.177 C  
HETATM   21  C   UNL     1     -11.257  11.127  68.200  1.00  0.00    -0.356 C  
HETATM   22  C   UNL     1     -10.788  12.429  67.509  1.00  0.00    -0.271 C  
ENDROOT
BRANCH  21  23
HETATM   23  C   UNL     1     -10.564  10.863  69.552  1.00  0.00    -0.217 C  
BRANCH  23  24
HETATM   24  C   UNL     1     -11.330  10.016  70.551  1.00  0.00    -0.409 C  
BRANCH  24  25
HETATM   25  C   UNL     1     -12.758  10.555  70.730  1.00  0.00    -0.471 C  
BRANCH  25  26
HETATM   26  C   UNL     1     -13.630   9.749  71.707  1.00  0.00    -0.397 C  
BRANCH  26  27
HETATM   27  C   UNL     1     -12.895   8.595  72.390  1.00  0.00    -0.413 C  
BRANCH  27  28
HETATM   28  C   UNL     1     -13.156   7.261  71.688  1.00  0.00    -0.417 C  
BRANCH  28  29
HETATM   29  C   UNL     1     -11.881   6.463  71.412  1.00  0.00    -0.340 C  
BRANCH  29  30
HETATM   30  C   UNL     1     -11.439   6.433  69.940  1.00  0.00    -0.483 C  
BRANCH  30  31
HETATM   31  C   UNL     1      -9.949   6.630  69.702  1.00  0.00    -0.175 C  
BRANCH  31  32
HETATM   32  S   UNL     1      -8.970   5.181  70.217  1.00  0.00    -0.127 S  
HETATM   33  O   UNL     1      -9.930   4.045  70.418  1.00  0.00    -0.182 OA 
BRANCH  32  34
HETATM   34  C   UNL     1      -8.118   4.889  68.634  1.00  0.00    -0.084 C  
BRANCH  34  35
HETATM   35  C   UNL     1      -9.064   5.017  67.446  1.00  0.00    -0.120 C  
BRANCH  35  36
HETATM   36  C   UNL     1      -9.621   3.659  67.022  1.00  0.00    -0.187 C  
BRANCH  36  37
HETATM   37  C   UNL     1      -9.159   3.222  65.634  1.00  0.00    -0.152 C  
HETATM   38  F   UNL     1      -7.867   3.626  65.463  1.00  0.00    -0.085 F  
HETATM   39  C   UNL     1     -10.044   3.726  64.485  1.00  0.00    -0.210 C  
HETATM   40  F   UNL     1      -9.116   1.856  65.634  1.00  0.00    -0.121 F  
HETATM   41  F   UNL     1     -11.159   4.350  64.923  1.00  0.00    -0.336 F  
HETATM   42  F   UNL     1      -9.371   4.596  63.696  1.00  0.00    -0.148 F  
HETATM   43  F   UNL     1     -10.455   2.712  63.683  1.00  0.00    -0.156 F  
ENDBRANCH  36  37
ENDBRANCH  35  36
ENDBRANCH  34  35
ENDBRANCH  32  34
ENDBRANCH  31  32
ENDBRANCH  30  31
ENDBRANCH  29  30
ENDBRANCH  28  29
ENDBRANCH  27  28
ENDBRANCH  26  27
ENDBRANCH  25  26
ENDBRANCH  24  25
ENDBRANCH  23  24
ENDBRANCH  21  23
TORSDOF 14
ENDMDL
MODEL      141
REMARK 921   NORMALIZED FREE ENERGY PREDICTED BY IDOCK:   -4.74 KCAL/MOL
REMARK 922        TOTAL FREE ENERGY PREDICTED BY IDOCK:  -11.91 KCAL/MOL
REMARK 923 INTER-LIGAND FREE ENERGY PREDICTED BY IDOCK:   -8.58 KCAL/MOL
REMARK 924 INTRA-LIGAND FREE ENERGY PREDICTED BY IDOCK:   -3.33 KCAL/MOL
REMARK 927      BINDING AFFINITY PREDICTED BY RF-SCORE:    0.00 PKD
ROOT
HETATM    1  C   UNL     1     -11.818  15.417  66.351  1.00  0.00     0.323 C  
HETATM    2  C   UNL     1     -10.482  15.904  66.286  1.00  0.00    -0.324 C  
HETATM    3  C   UNL     1     -10.524  14.431  65.983  1.00  0.00    -0.307 C  
HETATM    4  C   UNL     1     -12.446  13.862  65.652  1.00  0.00    -0.505 C  
HETATM    5  O   UNL     1     -13.157  12.761  65.074  1.00  0.00    -0.811 OA 
HETATM    6  C   UNL     1     -11.751  14.524  64.669  1.00  0.00    -0.438 C  
HETATM    7  C   UNL     1     -10.976  12.866  64.461  1.00  0.00    -0.377 C  
HETATM    8  C   UNL     1     -12.227  15.251  63.462  1.00  0.00     0.891 C  
HETATM    9  H   UNL     1     -14.055  12.495  64.918  1.00  0.00     0.000 HD 
HETATM   10  C   UNL     1     -11.055  11.889  65.954  1.00  0.00    -0.365 C  
HETATM   11  C   UNL     1     -11.264  12.562  67.513  1.00  0.00    -0.342 C  
HETATM   12  C   UNL     1     -11.626  11.638  68.682  1.00  0.00    -0.373 A  
HETATM   13  C   UNL     1     -11.361  10.257  68.601  1.00  0.00    -0.226 A  
HETATM   14  C   UNL     1     -11.485   9.424  69.718  1.00  0.00     0.006 A  
HETATM   15  C   UNL     1     -11.887   9.963  70.930  1.00  0.00    -0.356 A  
HETATM   16  C   UNL     1     -12.147  11.321  71.044  1.00  0.00    -0.335 A  
HETATM   17  O   UNL     1     -12.020   9.194  72.049  1.00  0.00    -0.367 OA 
HETATM   18  C   UNL     1     -11.986  12.181  69.940  1.00  0.00    -0.380 A  
HETATM   19  H   UNL     1     -12.295   9.563  72.879  1.00  0.00     0.000 HD 
HETATM   20  C   UNL     1     -12.219  13.663  70.180  1.00  0.00    -0.413 C  
HETATM   21  C   UNL     1     -11.521  14.625  69.190  1.00  0.00    -0.320 C  
HETATM   22  C   UNL     1     -11.952  14.161  67.778  1.00  0.00    -0.389 C  
ENDROOT
BRANCH  21  23
HETATM   23  C   UNL     1      -9.992  14.629  69.397  1.00  0.00    -0.038 C  
BRANCH  23  24
HETATM   24  C   UNL     1      -9.322  15.989  69.459  1.00  0.00    -0.146 C  
BRANCH  24  25
HETATM   25  C   UNL     1      -7.828  15.868  69.121  1.00  0.00    -0.227 C  
BRANCH  25  26
HETATM   26  C   UNL     1      -7.510  14.921  67.951  1.00  0.00    -0.153 C  
BRANCH  26  27
HETATM   27  C   UNL     1      -7.077  13.520  68.385  1.00  0.00    -0.107 C  
BRANCH  27  28
HETATM   28  C   UNL     1      -7.091  12.535  67.215  1.00  0.00    -0.114 C  
BRANCH  28  29
HETATM   29  C   UNL     1      -6.492  11.171  67.565  1.00  0.00    -0.069 C  
BRANCH  29  30
HETATM   30  C   UNL     1      -7.502  10.128  68.069  1.00  0.00    -0.087 C  
BRANCH  30  31
HETATM   31  C   UNL     1      -7.709  10.097  69.577  1.00  0.00    -0.155 C  
BRANCH  31  32
HETATM   32  S   UNL     1      -6.206   9.585  70.471  1.00  0.00    -0.081 S  
HETATM   33  O   UNL     1      -5.988  10.575  71.577  1.00  0.00    -0.316 OA 
BRANCH  32  34
HETATM   34  C   UNL     1      -6.879   8.072  71.230  1.00  0.00    -0.048 C  
BRANCH  34  35
HETATM   35  C   UNL     1      -8.246   7.709  70.660  1.00  0.00    -0.113 C  
BRANCH  35  36
HETATM   36  C   UNL     1      -8.214   6.362  69.940  1.00  0.00    -0.126 C  
BRANCH  36  37
HETATM   37  C   UNL     1      -9.596   5.738  69.760  1.00  0.00    -0.157 C  
HETATM   38  F   UNL     1      -9.492   4.393  69.961  1.00  0.00    -0.173 F  
HETATM   39  C   UNL     1     -10.254   6.039  68.405  1.00  0.00    -0.181 C  
HETATM   40  F   UNL     1     -10.382   6.198  70.779  1.00  0.00    -0.217 F  
HETATM   41  F   UNL     1      -9.547   6.922  67.669  1.00  0.00    -0.126 F  
HETATM   42  F   UNL     1     -10.392   4.910  67.669  1.00  0.00    -0.207 F  
HETATM   43  F   UNL     1     -11.497   6.561  68.553  1.00  0.00    -0.332 F  
ENDBRANCH  36  37
ENDBRANCH  35  36
ENDBRANCH  34  35
ENDBRANCH  32  34
ENDBRANCH  31  32
ENDBRANCH  30  31
ENDBRANCH  29  30
ENDBRANCH  28  29
ENDBRANCH  27  28
ENDBRANCH  26  27
ENDBRANCH  25  26
ENDBRANCH  24  25
ENDBRANCH  23  24
ENDBRANCH  21  23
TORSDOF 14
ENDMDL
MODEL      142
REMARK 921   NORMALIZED FREE ENERGY PREDICTED BY IDOCK:   -4.69 KCAL/MOL
REMARK 922        TOTAL FREE ENERGY PREDICTED BY IDOCK:  -11.82 KCAL/MOL
REMARK 923 INTER-LIGAND FREE ENERGY PREDICTED BY IDOCK:  -10.25 KCAL/MOL
REMARK 924 INTRA-LIGAND FREE ENERGY PREDICTED BY IDOCK:   -1.57 KCAL/MOL
REMARK 927      BINDING AFFINITY PREDICTED BY RF-SCORE:    0.00 PKD
ROOT
HETATM    1  C   UNL     1      -6.006  11.025  67.710  1.00  0.00    -0.046 C  
HETATM    2  C   UNL     1      -5.919  11.804  66.521  1.00  0.00     0.058 C  
HETATM    3  C   UNL     1      -7.356  11.587  66.910  1.00  0.00    -0.140 C  
HETATM    4  C   UNL     1      -7.445  10.869  68.808  1.00  0.00    -0.112 C  
HETATM    5  O   UNL     1      -8.409  10.714  69.855  1.00  0.00    -0.361 OA 
HETATM    6  C   UNL     1      -7.212  12.205  68.595  1.00  0.00    -0.109 C  
HETATM    7  C   UNL     1      -9.023  12.201  68.258  1.00  0.00    -0.186 C  
HETATM    8  C   UNL     1      -6.650  13.250  69.491  1.00  0.00    -0.040 C  
HETATM    9  H   UNL     1      -8.451  10.378  70.743  1.00  0.00     0.000 HD 
HETATM   10  C   UNL     1      -9.612  10.599  67.735  1.00  0.00    -0.172 C  
HETATM   11  C   UNL     1      -8.600   9.394  67.064  1.00  0.00    -0.131 C  
HETATM   12  C   UNL     1      -9.130   7.961  66.936  1.00  0.00    -0.172 A  
HETATM   13  C   UNL     1     -10.517   7.716  66.938  1.00  0.00    -0.388 A  
HETATM   14  C   UNL     1     -11.036   6.457  66.618  1.00  0.00    -0.192 A  
HETATM   15  C   UNL     1     -10.170   5.423  66.300  1.00  0.00    -0.192 A  
HETATM   16  C   UNL     1      -8.799   5.635  66.280  1.00  0.00    -0.137 A  
HETATM   17  O   UNL     1     -10.626   4.179  65.977  1.00  0.00    -0.417 OA 
HETATM   18  C   UNL     1      -8.262   6.906  66.559  1.00  0.00    -0.117 A  
HETATM   19  H   UNL     1     -10.034   3.470  65.759  1.00  0.00     0.000 HD 
HETATM   20  C   UNL     1      -6.756   7.061  66.437  1.00  0.00    -0.053 C  
HETATM   21  C   UNL     1      -6.243   8.498  66.183  1.00  0.00    -0.052 C  
HETATM   22  C   UNL     1      -6.856   9.368  67.306  1.00  0.00    -0.084 C  
ENDROOT
BRANCH  21  23
HETATM   23  C   UNL     1      -6.607   8.980  64.763  1.00  0.00    -0.066 C  
BRANCH  23  24
HETATM   24  C   UNL     1      -7.381   8.004  63.896  1.00  0.00    -0.098 C  
BRANCH  24  25
HETATM   25  C   UNL     1      -7.827   8.680  62.591  1.00  0.00    -0.140 C  
BRANCH  25  26
HETATM   26  C   UNL     1      -9.149   9.460  62.693  1.00  0.00    -0.147 C  
BRANCH  26  27
HETATM   27  C   UNL     1      -9.182  10.484  63.828  1.00  0.00    -0.292 C  
BRANCH  27  28
HETATM   28  C   UNL     1     -10.586  11.050  64.040  1.00  0.00    -0.395 C  
BRANCH  28  29
HETATM   29  C   UNL     1     -10.809  12.394  63.344  1.00  0.00    -0.417 C  
BRANCH  29  30
HETATM   30  C   UNL     1     -12.148  13.078  63.663  1.00  0.00    -0.604 C  
BRANCH  30  31
HETATM   31  C   UNL     1     -12.160  13.930  64.924  1.00  0.00    -0.414 C  
BRANCH  31  32
HETATM   32  S   UNL     1     -10.942  15.284  64.855  1.00  0.00    -0.402 S  
HETATM   33  O   UNL     1     -11.542  16.378  64.020  1.00  0.00    -1.071 OA 
BRANCH  32  34
HETATM   34  C   UNL     1     -11.065  15.809  66.595  1.00  0.00    -0.099 C  
BRANCH  34  35
HETATM   35  C   UNL     1     -10.021  16.863  66.947  1.00  0.00    -0.279 C  
BRANCH  35  36
HETATM   36  C   UNL     1     -10.327  17.531  68.286  1.00  0.00    -0.379 C  
BRANCH  36  37
HETATM   37  C   UNL     1      -9.967  19.015  68.319  1.00  0.00    -0.394 C  
HETATM   38  F   UNL     1     -10.719  19.661  67.380  1.00  0.00    -0.513 F  
HETATM   39  C   UNL     1      -8.473  19.308  68.117  1.00  0.00    -0.327 C  
HETATM   40  F   UNL     1     -10.388  19.506  69.522  1.00  0.00    -0.375 F  
HETATM   41  F   UNL     1      -7.723  18.186  68.090  1.00  0.00    -0.239 F  
HETATM   42  F   UNL     1      -8.258  19.973  66.958  1.00  0.00    -0.302 F  
HETATM   43  F   UNL     1      -7.974  20.087  69.110  1.00  0.00    -0.254 F  
ENDBRANCH  36  37
ENDBRANCH  35  36
ENDBRANCH  34  35
ENDBRANCH  32  34
ENDBRANCH  31  32
ENDBRANCH  30  31
ENDBRANCH  29  30
ENDBRANCH  28  29
ENDBRANCH  27  28
ENDBRANCH  26  27
ENDBRANCH  25  26
ENDBRANCH  24  25
ENDBRANCH  23  24
ENDBRANCH  21  23
TORSDOF 14
ENDMDL
MODEL      143
REMARK 921   NORMALIZED FREE ENERGY PREDICTED BY IDOCK:   -4.69 KCAL/MOL
REMARK 922        TOTAL FREE ENERGY PREDICTED BY IDOCK:  -11.82 KCAL/MOL
REMARK 923 INTER-LIGAND FREE ENERGY PREDICTED BY IDOCK:   -7.85 KCAL/MOL
REMARK 924 INTRA-LIGAND FREE ENERGY PREDICTED BY IDOCK:   -3.97 KCAL/MOL
REMARK 927      BINDING AFFINITY PREDICTED BY RF-SCORE:    0.00 PKD
ROOT
HETATM    1  C   UNL     1      -8.092   8.852  67.200  1.00  0.00    -0.103 C  
HETATM    2  C   UNL     1      -6.692   8.605  67.125  1.00  0.00    -0.063 C  
HETATM    3  C   UNL     1      -7.452   7.313  67.248  1.00  0.00    -0.099 C  
HETATM    4  C   UNL     1      -9.427   7.652  66.914  1.00  0.00    -0.172 C  
HETATM    5  O   UNL     1     -10.609   6.905  66.607  1.00  0.00    -0.469 OA 
HETATM    6  C   UNL     1      -8.557   7.587  65.853  1.00  0.00    -0.165 C  
HETATM    7  C   UNL     1      -8.684   5.781  66.195  1.00  0.00    -0.139 C  
HETATM    8  C   UNL     1      -8.694   8.064  64.451  1.00  0.00     0.292 C  
HETATM    9  H   UNL     1     -11.533   7.063  66.451  1.00  0.00     0.000 HD 
HETATM   10  C   UNL     1      -9.136   5.442  67.889  1.00  0.00    -0.112 C  
HETATM   11  C   UNL     1      -8.909   6.556  69.168  1.00  0.00    -0.128 C  
HETATM   12  C   UNL     1      -9.601   6.300  70.512  1.00  0.00    -0.183 A  
HETATM   13  C   UNL     1     -10.035   5.004  70.849  1.00  0.00    -0.286 A  
HETATM   14  C   UNL     1     -10.480   4.697  72.140  1.00  0.00    -0.219 A  
HETATM   15  C   UNL     1     -10.505   5.688  73.107  1.00  0.00    -0.221 A  
HETATM   16  C   UNL     1     -10.075   6.973  72.808  1.00  0.00    -0.211 A  
HETATM   17  O   UNL     1     -10.925   5.439  74.380  1.00  0.00    -0.402 OA 
HETATM   18  C   UNL     1      -9.585   7.290  71.526  1.00  0.00    -0.164 A  
HETATM   19  H   UNL     1     -10.943   6.118  75.043  1.00  0.00     0.000 HD 
HETATM   20  C   UNL     1      -9.066   8.701  71.315  1.00  0.00    -0.272 C  
HETATM   21  C   UNL     1      -8.050   8.882  70.162  1.00  0.00    -0.122 C  
HETATM   22  C   UNL     1      -8.730   8.288  68.905  1.00  0.00    -0.137 C  
ENDROOT
BRANCH  21  23
HETATM   23  C   UNL     1      -6.697   8.222  70.500  1.00  0.00    -0.037 C  
BRANCH  23  24
HETATM   24  C   UNL     1      -5.482   9.131  70.497  1.00  0.00    -0.034 C  
BRANCH  24  25
HETATM   25  C   UNL     1      -5.910  10.601  70.620  1.00  0.00    -0.112 C  
BRANCH  25  26
HETATM   26  C   UNL     1      -5.173  11.564  69.674  1.00  0.00    -0.058 C  
BRANCH  26  27
HETATM   27  C   UNL     1      -5.968  11.937  68.423  1.00  0.00    -0.049 C  
BRANCH  27  28
HETATM   28  C   UNL     1      -7.456  12.115  68.728  1.00  0.00    -0.075 C  
BRANCH  28  29
HETATM   29  C   UNL     1      -8.238  12.752  67.579  1.00  0.00    -0.179 C  
BRANCH  29  30
HETATM   30  C   UNL     1      -8.873  11.757  66.594  1.00  0.00    -0.189 C  
BRANCH  30  31
HETATM   31  C   UNL     1      -9.790  12.371  65.547  1.00  0.00    -0.200 C  
BRANCH  31  32
HETATM   32  S   UNL     1     -10.509  13.952  66.099  1.00  0.00    -0.304 S  
HETATM   33  O   UNL     1     -10.814  14.755  64.869  1.00  0.00    -0.389 OA 
BRANCH  32  34
HETATM   34  C   UNL     1     -12.091  13.296  66.718  1.00  0.00    -0.345 C  
BRANCH  34  35
HETATM   35  C   UNL     1     -12.091  13.144  68.235  1.00  0.00    -0.217 C  
BRANCH  35  36
HETATM   36  C   UNL     1     -12.103  11.674  68.652  1.00  0.00    -0.184 C  
BRANCH  36  37
HETATM   37  C   UNL     1     -11.652  11.451  70.094  1.00  0.00    -0.280 C  
HETATM   38  F   UNL     1     -10.408  10.891  70.074  1.00  0.00    -0.193 F  
HETATM   39  C   UNL     1     -12.618  10.602  70.934  1.00  0.00    -0.407 C  
HETATM   40  F   UNL     1     -11.489  12.683  70.661  1.00  0.00    -0.137 F  
HETATM   41  F   UNL     1     -13.768  10.325  70.282  1.00  0.00    -0.210 F  
HETATM   42  F   UNL     1     -12.053   9.424  71.286  1.00  0.00    -0.322 F  
HETATM   43  F   UNL     1     -12.965  11.227  72.087  1.00  0.00    -0.553 F  
ENDBRANCH  36  37
ENDBRANCH  35  36
ENDBRANCH  34  35
ENDBRANCH  32  34
ENDBRANCH  31  32
ENDBRANCH  30  31
ENDBRANCH  29  30
ENDBRANCH  28  29
ENDBRANCH  27  28
ENDBRANCH  26  27
ENDBRANCH  25  26
ENDBRANCH  24  25
ENDBRANCH  23  24
ENDBRANCH  21  23
TORSDOF 14
ENDMDL
MODEL      144
REMARK 921   NORMALIZED FREE ENERGY PREDICTED BY IDOCK:   -4.69 KCAL/MOL
REMARK 922        TOTAL FREE ENERGY PREDICTED BY IDOCK:  -11.81 KCAL/MOL
REMARK 923 INTER-LIGAND FREE ENERGY PREDICTED BY IDOCK:   -9.57 KCAL/MOL
REMARK 924 INTRA-LIGAND FREE ENERGY PREDICTED BY IDOCK:   -2.24 KCAL/MOL
REMARK 927      BINDING AFFINITY PREDICTED BY RF-SCORE:    0.00 PKD
ROOT
HETATM    1  C   UNL     1     -12.352  13.262  69.242  1.00  0.00    -0.054 C  
HETATM    2  C   UNL     1     -11.227  12.449  69.557  1.00  0.00    -0.171 C  
HETATM    3  C   UNL     1     -11.100  13.802  70.201  1.00  0.00     0.231 C  
HETATM    4  C   UNL     1     -12.884  14.769  70.108  1.00  0.00    -0.148 C  
HETATM    5  O   UNL     1     -13.534  15.887  70.722  1.00  0.00    -0.700 OA 
HETATM    6  C   UNL     1     -12.691  13.782  71.044  1.00  0.00    -0.416 C  
HETATM    7  C   UNL     1     -11.742  15.122  71.880  1.00  0.00    -0.490 C  
HETATM    8  C   UNL     1     -13.666  12.990  71.838  1.00  0.00    -0.309 C  
HETATM    9  H   UNL     1     -14.368  16.339  70.679  1.00  0.00     0.000 HD 
HETATM   10  C   UNL     1     -11.138  16.345  70.728  1.00  0.00    -0.128 C  
HETATM   11  C   UNL     1     -10.933  16.047  69.055  1.00  0.00    -0.296 C  
HETATM   12  C   UNL     1     -10.708  17.232  68.109  1.00  0.00    -0.363 A  
HETATM   13  C   UNL     1     -10.239  18.461  68.611  1.00  0.00    -0.370 A  
HETATM   14  C   UNL     1      -9.829  19.490  67.757  1.00  0.00    -0.474 A  
HETATM   15  C   UNL     1      -9.894  19.304  66.385  1.00  0.00    -0.388 A  
HETATM   16  C   UNL     1     -10.343  18.101  65.859  1.00  0.00    -0.284 A  
HETATM   17  O   UNL     1      -9.502  20.274  65.510  1.00  0.00    -0.457 OA 
HETATM   18  C   UNL     1     -10.719  17.040  66.705  1.00  0.00    -0.092 A  
HETATM   19  H   UNL     1      -9.546  20.147  64.570  1.00  0.00     0.000 HD 
HETATM   20  C   UNL     1     -11.124  15.737  66.038  1.00  0.00    -0.085 C  
HETATM   21  C   UNL     1     -10.985  14.463  66.906  1.00  0.00    -0.308 C  
HETATM   22  C   UNL     1     -11.771  14.752  68.206  1.00  0.00    -0.340 C  
ENDROOT
BRANCH  21  23
HETATM   23  C   UNL     1      -9.503  14.110  67.147  1.00  0.00    -0.237 C  
BRANCH  23  24
HETATM   24  C   UNL     1      -9.035  12.762  66.629  1.00  0.00    -0.152 C  
BRANCH  24  25
HETATM   25  C   UNL     1     -10.161  12.067  65.847  1.00  0.00    -0.264 C  
BRANCH  25  26
HETATM   26  C   UNL     1     -10.261  10.550  66.082  1.00  0.00    -0.299 C  
BRANCH  26  27
HETATM   27  C   UNL     1      -9.470   9.711  65.078  1.00  0.00    -0.312 C  
BRANCH  27  28
HETATM   28  C   UNL     1      -9.125   8.331  65.639  1.00  0.00    -0.122 C  
BRANCH  28  29
HETATM   29  C   UNL     1      -7.947   7.664  64.927  1.00  0.00    -0.135 C  
BRANCH  29  30
HETATM   30  C   UNL     1      -6.577   8.309  65.194  1.00  0.00    -0.055 C  
BRANCH  30  31
HETATM   31  C   UNL     1      -5.731   7.625  66.259  1.00  0.00    -0.036 C  
BRANCH  31  32
HETATM   32  S   UNL     1      -6.541   6.139  66.935  1.00  0.00    -0.061 S  
HETATM   33  O   UNL     1      -5.455   5.193  67.354  1.00  0.00    -0.011 OA 
BRANCH  32  34
HETATM   34  C   UNL     1      -7.207   6.896  68.452  1.00  0.00    -0.088 C  
BRANCH  34  35
HETATM   35  C   UNL     1      -8.214   5.987  69.149  1.00  0.00    -0.111 C  
BRANCH  35  36
HETATM   36  C   UNL     1      -9.503   5.854  68.340  1.00  0.00    -0.130 C  
BRANCH  36  37
HETATM   37  C   UNL     1     -10.590   6.837  68.767  1.00  0.00    -0.226 C  
HETATM   38  F   UNL     1     -10.080   8.101  68.697  1.00  0.00    -0.175 F  
HETATM   39  C   UNL     1     -11.179   6.564  70.159  1.00  0.00    -0.377 C  
HETATM   40  F   UNL     1     -11.573   6.789  67.820  1.00  0.00    -0.229 F  
HETATM   41  F   UNL     1     -10.726   5.411  70.697  1.00  0.00    -0.317 F  
HETATM   42  F   UNL     1     -10.879   7.564  71.021  1.00  0.00    -0.227 F  
HETATM   43  F   UNL     1     -12.532   6.472  70.125  1.00  0.00    -0.362 F  
ENDBRANCH  36  37
ENDBRANCH  35  36
ENDBRANCH  34  35
ENDBRANCH  32  34
ENDBRANCH  31  32
ENDBRANCH  30  31
ENDBRANCH  29  30
ENDBRANCH  28  29
ENDBRANCH  27  28
ENDBRANCH  26  27
ENDBRANCH  25  26
ENDBRANCH  24  25
ENDBRANCH  23  24
ENDBRANCH  21  23
TORSDOF 14
ENDMDL
MODEL      145
REMARK 921   NORMALIZED FREE ENERGY PREDICTED BY IDOCK:   -4.68 KCAL/MOL
REMARK 922        TOTAL FREE ENERGY PREDICTED BY IDOCK:  -11.79 KCAL/MOL
REMARK 923 INTER-LIGAND FREE ENERGY PREDICTED BY IDOCK:  -11.48 KCAL/MOL
REMARK 924 INTRA-LIGAND FREE ENERGY PREDICTED BY IDOCK:   -0.32 KCAL/MOL
REMARK 927      BINDING AFFINITY PREDICTED BY RF-SCORE:    0.00 PKD
ROOT
HETATM    1  C   UNL     1      -7.278  18.004  67.055  1.00  0.00    -0.219 C  
HETATM    2  C   UNL     1      -7.504  17.896  65.654  1.00  0.00     0.066 C  
HETATM    3  C   UNL     1      -8.747  18.371  66.356  1.00  0.00    -0.263 C  
HETATM    4  C   UNL     1      -8.282  18.931  68.253  1.00  0.00    -0.329 C  
HETATM    5  O   UNL     1      -8.857  19.692  69.320  1.00  0.00    -0.189 OA 
HETATM    6  C   UNL     1      -7.987  19.766  67.203  1.00  0.00    -0.323 C  
HETATM    7  C   UNL     1      -9.796  20.098  67.297  1.00  0.00    -0.580 C  
HETATM    8  C   UNL     1      -7.049  20.916  67.108  1.00  0.00    -0.413 C  
HETATM    9  H   UNL     1      -8.641  19.954  70.207  1.00  0.00     0.000 HD 
HETATM   10  C   UNL     1     -10.697  18.742  68.030  1.00  0.00    -0.273 C  
HETATM   11  C   UNL     1     -10.103  17.139  68.095  1.00  0.00    -0.311 C  
HETATM   12  C   UNL     1     -10.800  16.122  69.006  1.00  0.00    -0.299 A  
HETATM   13  C   UNL     1     -12.126  16.339  69.426  1.00  0.00     0.211 A  
HETATM   14  C   UNL     1     -12.857  15.342  70.081  1.00  0.00    -0.213 A  
HETATM   15  C   UNL     1     -12.264  14.115  70.331  1.00  0.00    -0.356 A  
HETATM   16  C   UNL     1     -10.962  13.866  69.921  1.00  0.00     0.111 A  
HETATM   17  O   UNL     1     -12.935  13.109  70.962  1.00  0.00    -0.242 OA 
HETATM   18  C   UNL     1     -10.227  14.844  69.224  1.00  0.00    -0.219 A  
HETATM   19  H   UNL     1     -12.529  12.268  71.134  1.00  0.00     0.000 HD 
HETATM   20  C   UNL     1      -8.838  14.454  68.749  1.00  0.00    -0.131 C  
HETATM   21  C   UNL     1      -8.282  15.262  67.551  1.00  0.00    -0.191 C  
HETATM   22  C   UNL     1      -8.391  16.749  67.961  1.00  0.00    -0.200 C  
ENDROOT
BRANCH  21  23
HETATM   23  C   UNL     1      -9.040  14.925  66.250  1.00  0.00    -0.262 C  
BRANCH  23  24
HETATM   24  C   UNL     1     -10.443  15.486  66.120  1.00  0.00    -0.323 C  
BRANCH  24  25
HETATM   25  C   UNL     1     -11.463  14.351  65.947  1.00  0.00    -0.341 C  
BRANCH  25  26
HETATM   26  C   UNL     1     -11.615  13.840  64.504  1.00  0.00    -0.413 C  
BRANCH  26  27
HETATM   27  C   UNL     1     -12.143  12.409  64.403  1.00  0.00    -0.505 C  
BRANCH  27  28
HETATM   28  C   UNL     1     -11.044  11.426  63.996  1.00  0.00    -0.400 C  
BRANCH  28  29
HETATM   29  C   UNL     1      -9.881  11.372  64.989  1.00  0.00    -0.304 C  
BRANCH  29  30
HETATM   30  C   UNL     1      -9.614   9.987  65.601  1.00  0.00    -0.313 C  
BRANCH  30  31
HETATM   31  C   UNL     1     -10.500   9.614  66.781  1.00  0.00    -0.186 C  
BRANCH  31  32
HETATM   32  S   UNL     1     -10.664  10.978  67.979  1.00  0.00    -0.237 S  
HETATM   33  O   UNL     1     -12.125  11.119  68.293  1.00  0.00    -0.620 OA 
BRANCH  32  34
HETATM   34  C   UNL     1      -9.890  10.145  69.402  1.00  0.00    -0.229 C  
BRANCH  34  35
HETATM   35  C   UNL     1     -10.431   8.733  69.599  1.00  0.00    -0.220 C  
BRANCH  35  36
HETATM   36  C   UNL     1     -10.326   8.290  71.058  1.00  0.00    -0.230 C  
BRANCH  36  37
HETATM   37  C   UNL     1     -11.663   8.316  71.795  1.00  0.00    -0.302 C  
HETATM   38  F   UNL     1     -11.420   8.202  73.133  1.00  0.00    -0.440 F  
HETATM   39  C   UNL     1     -12.663   7.248  71.329  1.00  0.00    -0.359 C  
HETATM   40  F   UNL     1     -12.192   9.565  71.628  1.00  0.00    -0.372 F  
HETATM   41  F   UNL     1     -12.229   6.566  70.248  1.00  0.00    -0.458 F  
HETATM   42  F   UNL     1     -12.908   6.348  72.311  1.00  0.00    -0.298 F  
HETATM   43  F   UNL     1     -13.860   7.791  70.993  1.00  0.00    -0.303 F  
ENDBRANCH  36  37
ENDBRANCH  35  36
ENDBRANCH  34  35
ENDBRANCH  32  34
ENDBRANCH  31  32
ENDBRANCH  30  31
ENDBRANCH  29  30
ENDBRANCH  28  29
ENDBRANCH  27  28
ENDBRANCH  26  27
ENDBRANCH  25  26
ENDBRANCH  24  25
ENDBRANCH  23  24
ENDBRANCH  21  23
TORSDOF 14
ENDMDL
MODEL      146
REMARK 921   NORMALIZED FREE ENERGY PREDICTED BY IDOCK:   -4.68 KCAL/MOL
REMARK 922        TOTAL FREE ENERGY PREDICTED BY IDOCK:  -11.79 KCAL/MOL
REMARK 923 INTER-LIGAND FREE ENERGY PREDICTED BY IDOCK:   -9.74 KCAL/MOL
REMARK 924 INTRA-LIGAND FREE ENERGY PREDICTED BY IDOCK:   -2.06 KCAL/MOL
REMARK 927      BINDING AFFINITY PREDICTED BY RF-SCORE:    0.00 PKD
ROOT
HETATM    1  C   UNL     1      -8.516  19.416  67.360  1.00  0.00    -0.330 C  
HETATM    2  C   UNL     1      -9.015  19.756  68.649  1.00  0.00    -0.255 C  
HETATM    3  C   UNL     1      -7.932  18.716  68.756  1.00  0.00    -0.317 C  
HETATM    4  C   UNL     1      -6.950  18.575  66.983  1.00  0.00    -0.196 C  
HETATM    5  O   UNL     1      -5.720  18.046  66.475  1.00  0.00    -0.139 OA 
HETATM    6  C   UNL     1      -6.681  19.622  67.831  1.00  0.00    -0.275 C  
HETATM    7  C   UNL     1      -5.739  18.316  68.725  1.00  0.00    -0.192 C  
HETATM    8  C   UNL     1      -6.029  20.934  67.580  1.00  0.00    -0.355 C  
HETATM    9  H   UNL     1      -5.260  17.980  65.646  1.00  0.00     0.000 HD 
HETATM   10  C   UNL     1      -6.365  16.678  68.389  1.00  0.00    -0.133 C  
HETATM   11  C   UNL     1      -7.948  16.371  67.817  1.00  0.00    -0.160 C  
HETATM   12  C   UNL     1      -8.286  14.979  67.271  1.00  0.00    -0.228 A  
HETATM   13  C   UNL     1      -7.498  13.868  67.624  1.00  0.00    -0.187 A  
HETATM   14  C   UNL     1      -7.895  12.562  67.315  1.00  0.00    -0.160 A  
HETATM   15  C   UNL     1      -9.085  12.354  66.636  1.00  0.00    -0.204 A  
HETATM   16  C   UNL     1      -9.888  13.428  66.281  1.00  0.00    -0.295 A  
HETATM   17  O   UNL     1      -9.518  11.102  66.314  1.00  0.00    -0.185 OA 
HETATM   18  C   UNL     1      -9.525  14.745  66.622  1.00  0.00    -0.293 A  
HETATM   19  H   UNL     1     -10.333  10.959  65.849  1.00  0.00     0.000 HD 
HETATM   20  C   UNL     1     -10.505  15.847  66.259  1.00  0.00    -0.324 C  
HETATM   21  C   UNL     1     -10.400  17.146  67.095  1.00  0.00    -0.307 C  
HETATM   22  C   UNL     1      -8.921  17.589  66.999  1.00  0.00    -0.250 C  
ENDROOT
BRANCH  21  23
HETATM   23  C   UNL     1     -10.882  16.920  68.542  1.00  0.00    -0.335 C  
BRANCH  23  24
HETATM   24  C   UNL     1     -12.006  15.919  68.732  1.00  0.00    -0.167 C  
BRANCH  24  25
HETATM   25  C   UNL     1     -12.147  15.542  70.214  1.00  0.00    -0.415 C  
BRANCH  25  26
HETATM   26  C   UNL     1     -12.691  14.125  70.467  1.00  0.00    -0.374 C  
BRANCH  26  27
HETATM   27  C   UNL     1     -11.676  13.013  70.200  1.00  0.00    -0.244 C  
BRANCH  27  28
HETATM   28  C   UNL     1     -12.359  11.662  69.983  1.00  0.00    -0.261 C  
BRANCH  28  29
HETATM   29  C   UNL     1     -11.486  10.656  69.230  1.00  0.00    -0.351 C  
BRANCH  29  30
HETATM   30  C   UNL     1     -10.040  10.542  69.738  1.00  0.00    -0.126 C  
BRANCH  30  31
HETATM   31  C   UNL     1      -9.472   9.131  69.777  1.00  0.00    -0.182 C  
BRANCH  31  32
HETATM   32  S   UNL     1      -9.798   8.211  68.237  1.00  0.00    -0.177 S  
HETATM   33  O   UNL     1      -8.493   7.626  67.784  1.00  0.00    -0.121 OA 
BRANCH  32  34
HETATM   34  C   UNL     1     -10.769   6.854  68.967  1.00  0.00    -0.230 C  
BRANCH  34  35
HETATM   35  C   UNL     1     -10.572   6.760  70.476  1.00  0.00    -0.260 C  
BRANCH  35  36
HETATM   36  C   UNL     1     -10.896   5.362  70.999  1.00  0.00    -0.189 C  
BRANCH  36  37
HETATM   37  C   UNL     1     -10.231   5.046  72.337  1.00  0.00    -0.201 C  
HETATM   38  F   UNL     1      -9.462   3.929  72.183  1.00  0.00    -0.145 F  
HETATM   39  C   UNL     1     -11.211   4.877  73.507  1.00  0.00    -0.298 C  
HETATM   40  F   UNL     1      -9.352   6.059  72.599  1.00  0.00    -0.146 F  
HETATM   41  F   UNL     1     -12.482   5.180  73.168  1.00  0.00    -0.249 F  
HETATM   42  F   UNL     1     -11.203   3.605  73.970  1.00  0.00    -0.266 F  
HETATM   43  F   UNL     1     -10.887   5.675  74.555  1.00  0.00    -0.214 F  
ENDBRANCH  36  37
ENDBRANCH  35  36
ENDBRANCH  34  35
ENDBRANCH  32  34
ENDBRANCH  31  32
ENDBRANCH  30  31
ENDBRANCH  29  30
ENDBRANCH  28  29
ENDBRANCH  27  28
ENDBRANCH  26  27
ENDBRANCH  25  26
ENDBRANCH  24  25
ENDBRANCH  23  24
ENDBRANCH  21  23
TORSDOF 14
ENDMDL
MODEL      147
REMARK 921   NORMALIZED FREE ENERGY PREDICTED BY IDOCK:   -4.67 KCAL/MOL
REMARK 922        TOTAL FREE ENERGY PREDICTED BY IDOCK:  -11.78 KCAL/MOL
REMARK 923 INTER-LIGAND FREE ENERGY PREDICTED BY IDOCK:   -8.18 KCAL/MOL
REMARK 924 INTRA-LIGAND FREE ENERGY PREDICTED BY IDOCK:   -3.60 KCAL/MOL
REMARK 927      BINDING AFFINITY PREDICTED BY RF-SCORE:    0.00 PKD
ROOT
HETATM    1  C   UNL     1      -7.989   4.475  70.356  1.00  0.00    -0.059 C  
HETATM    2  C   UNL     1      -6.612   4.787  70.534  1.00  0.00    -0.035 C  
HETATM    3  C   UNL     1      -7.473   5.691  71.373  1.00  0.00    -0.095 C  
HETATM    4  C   UNL     1      -9.365   4.955  71.443  1.00  0.00    -0.150 C  
HETATM    5  O   UNL     1     -10.554   5.117  72.224  1.00  0.00    -0.213 OA 
HETATM    6  C   UNL     1      -8.383   4.387  72.219  1.00  0.00    -0.108 C  
HETATM    7  C   UNL     1      -8.680   5.893  73.237  1.00  0.00    -0.117 C  
HETATM    8  C   UNL     1      -8.318   3.064  72.894  1.00  0.00    -0.076 C  
HETATM    9  H   UNL     1     -11.438   4.773  72.257  1.00  0.00     0.000 HD 
HETATM   10  C   UNL     1      -9.352   7.240  72.277  1.00  0.00    -0.162 C  
HETATM   11  C   UNL     1      -9.197   7.356  70.577  1.00  0.00    -0.157 C  
HETATM   12  C   UNL     1     -10.060   8.371  69.817  1.00  0.00    -0.197 A  
HETATM   13  C   UNL     1     -10.623   9.469  70.494  1.00  0.00    -0.358 A  
HETATM   14  C   UNL     1     -11.238  10.517  69.800  1.00  0.00    -0.361 A  
HETATM   15  C   UNL     1     -11.305  10.472  68.417  1.00  0.00    -0.262 A  
HETATM   16  C   UNL     1     -10.752   9.408  67.720  1.00  0.00    -0.290 A  
HETATM   17  O   UNL     1     -11.890  11.470  67.694  1.00  0.00    -0.595 OA 
HETATM   18  C   UNL     1     -10.092   8.366  68.400  1.00  0.00    -0.224 A  
HETATM   19  H   UNL     1     -11.937  11.440  66.746  1.00  0.00     0.000 HD 
HETATM   20  C   UNL     1      -9.450   7.284  67.549  1.00  0.00    -0.151 C  
HETATM   21  C   UNL     1      -8.295   6.498  68.214  1.00  0.00    -0.117 C  
HETATM   22  C   UNL     1      -8.863   5.965  69.550  1.00  0.00    -0.123 C  
ENDROOT
BRANCH  21  23
HETATM   23  C   UNL     1      -7.043   7.383  68.386  1.00  0.00    -0.085 C  
BRANCH  23  24
HETATM   24  C   UNL     1      -6.596   8.166  67.165  1.00  0.00    -0.058 C  
BRANCH  24  25
HETATM   25  C   UNL     1      -5.866   9.450  67.588  1.00  0.00    -0.045 C  
BRANCH  25  26
HETATM   26  C   UNL     1      -6.391  10.088  68.886  1.00  0.00    -0.044 C  
BRANCH  26  27
HETATM   27  C   UNL     1      -7.686  10.880  68.710  1.00  0.00    -0.129 C  
BRANCH  27  28
HETATM   28  C   UNL     1      -7.492  12.363  69.029  1.00  0.00     0.075 C  
BRANCH  28  29
HETATM   29  C   UNL     1      -7.689  13.274  67.815  1.00  0.00    -0.159 C  
BRANCH  29  30
HETATM   30  C   UNL     1      -9.112  13.830  67.644  1.00  0.00    -0.196 C  
BRANCH  30  31
HETATM   31  C   UNL     1      -9.297  14.805  66.491  1.00  0.00    -0.290 C  
BRANCH  31  32
HETATM   32  S   UNL     1     -11.016  14.843  65.886  1.00  0.00    -0.345 S  
HETATM   33  O   UNL     1     -11.013  15.592  64.586  1.00  0.00    -0.409 OA 
BRANCH  32  34
HETATM   34  C   UNL     1     -11.170  13.073  65.485  1.00  0.00    -0.288 C  
BRANCH  34  35
HETATM   35  C   UNL     1     -10.432  12.714  64.200  1.00  0.00    -0.438 C  
BRANCH  35  36
HETATM   36  C   UNL     1     -10.642  11.248  63.823  1.00  0.00    -0.455 C  
BRANCH  36  37
HETATM   37  C   UNL     1      -9.372  10.565  63.319  1.00  0.00    -0.314 C  
HETATM   38  F   UNL     1      -9.728   9.596  62.428  1.00  0.00    -0.236 F  
HETATM   39  C   UNL     1      -8.483   9.985  64.430  1.00  0.00    -0.173 C  
HETATM   40  F   UNL     1      -8.677  11.491  62.593  1.00  0.00    -0.286 F  
HETATM   41  F   UNL     1      -8.918  10.310  65.666  1.00  0.00    -0.159 F  
HETATM   42  F   UNL     1      -8.430   8.634  64.356  1.00  0.00    -0.156 F  
HETATM   43  F   UNL     1      -7.205  10.430  64.336  1.00  0.00    -0.143 F  
ENDBRANCH  36  37
ENDBRANCH  35  36
ENDBRANCH  34  35
ENDBRANCH  32  34
ENDBRANCH  31  32
ENDBRANCH  30  31
ENDBRANCH  29  30
ENDBRANCH  28  29
ENDBRANCH  27  28
ENDBRANCH  26  27
ENDBRANCH  25  26
ENDBRANCH  24  25
ENDBRANCH  23  24
ENDBRANCH  21  23
TORSDOF 14
ENDMDL
MODEL      148
REMARK 921   NORMALIZED FREE ENERGY PREDICTED BY IDOCK:   -4.66 KCAL/MOL
REMARK 922        TOTAL FREE ENERGY PREDICTED BY IDOCK:  -11.77 KCAL/MOL
REMARK 923 INTER-LIGAND FREE ENERGY PREDICTED BY IDOCK:   -9.43 KCAL/MOL
REMARK 924 INTRA-LIGAND FREE ENERGY PREDICTED BY IDOCK:   -2.34 KCAL/MOL
REMARK 927      BINDING AFFINITY PREDICTED BY RF-SCORE:    0.00 PKD
ROOT
HETATM    1  C   UNL     1     -12.603  12.997  69.654  1.00  0.00     0.240 C  
HETATM    2  C   UNL     1     -11.573  12.112  70.078  1.00  0.00    -0.251 C  
HETATM    3  C   UNL     1     -11.356  13.489  70.645  1.00  0.00     0.584 C  
HETATM    4  C   UNL     1     -13.039  14.598  70.396  1.00  0.00    -0.115 C  
HETATM    5  O   UNL     1     -13.616  15.806  70.905  1.00  0.00    -0.738 OA 
HETATM    6  C   UNL     1     -12.982  13.662  71.400  1.00  0.00    -0.427 C  
HETATM    7  C   UNL     1     -11.958  14.966  72.203  1.00  0.00    -0.412 C  
HETATM    8  C   UNL     1     -14.061  13.010  72.186  1.00  0.00    -0.198 C  
HETATM    9  H   UNL     1     -14.403  16.325  70.789  1.00  0.00     0.000 HD 
HETATM   10  C   UNL     1     -11.191  16.054  71.013  1.00  0.00    -0.347 C  
HETATM   11  C   UNL     1     -10.933  15.631  69.376  1.00  0.00    -0.283 C  
HETATM   12  C   UNL     1     -10.556  16.728  68.373  1.00  0.00    -0.354 A  
HETATM   13  C   UNL     1     -10.004  17.942  68.824  1.00  0.00    -0.377 A  
HETATM   14  C   UNL     1      -9.462  18.874  67.932  1.00  0.00    -0.346 A  
HETATM   15  C   UNL     1      -9.476  18.605  66.573  1.00  0.00    -0.322 A  
HETATM   16  C   UNL     1     -10.005  17.414  66.097  1.00  0.00    -0.281 A  
HETATM   17  O   UNL     1      -8.957  19.479  65.663  1.00  0.00    -0.322 OA 
HETATM   18  C   UNL     1     -10.516  16.447  66.984  1.00  0.00    -0.291 A  
HETATM   19  H   UNL     1      -8.967  19.295  64.732  1.00  0.00     0.000 HD 
HETATM   20  C   UNL     1     -11.003  15.142  66.377  1.00  0.00    -0.329 C  
HETATM   21  C   UNL     1     -11.021  13.920  67.327  1.00  0.00    -0.299 C  
HETATM   22  C   UNL     1     -11.841  14.361  68.562  1.00  0.00    -0.369 C  
ENDROOT
BRANCH  21  23
HETATM   23  C   UNL     1      -9.590  13.458  67.670  1.00  0.00    -0.219 C  
BRANCH  23  24
HETATM   24  C   UNL     1      -8.820  12.764  66.561  1.00  0.00    -0.046 C  
BRANCH  24  25
HETATM   25  C   UNL     1      -8.174  11.471  67.083  1.00  0.00    -0.161 C  
BRANCH  25  26
HETATM   26  C   UNL     1      -8.428  11.184  68.573  1.00  0.00    -0.156 C  
BRANCH  26  27
HETATM   27  C   UNL     1      -8.783   9.728  68.873  1.00  0.00    -0.136 C  
BRANCH  27  28
HETATM   28  C   UNL     1      -9.240   8.984  67.617  1.00  0.00    -0.150 C  
BRANCH  28  29
HETATM   29  C   UNL     1     -10.600   8.302  67.778  1.00  0.00    -0.236 C  
BRANCH  29  30
HETATM   30  C   UNL     1     -10.785   7.019  66.952  1.00  0.00    -0.376 C  
BRANCH  30  31
HETATM   31  C   UNL     1     -10.741   5.721  67.746  1.00  0.00    -0.223 C  
BRANCH  31  32
HETATM   32  S   UNL     1      -9.099   4.931  67.686  1.00  0.00    -0.120 S  
HETATM   33  O   UNL     1      -8.078   6.013  67.876  1.00  0.00    -0.104 OA 
BRANCH  32  34
HETATM   34  C   UNL     1      -9.213   4.020  69.259  1.00  0.00    -0.152 C  
BRANCH  34  35
HETATM   35  C   UNL     1      -9.054   4.941  70.464  1.00  0.00    -0.176 C  
BRANCH  35  36
HETATM   36  C   UNL     1     -10.327   4.988  71.307  1.00  0.00    -0.255 C  
BRANCH  36  37
HETATM   37  C   UNL     1     -10.736   6.404  71.707  1.00  0.00    -0.233 C  
HETATM   38  F   UNL     1     -10.474   7.240  70.661  1.00  0.00    -0.207 F  
HETATM   39  C   UNL     1     -10.070   6.915  72.994  1.00  0.00    -0.201 C  
HETATM   40  F   UNL     1     -12.095   6.407  71.844  1.00  0.00    -0.347 F  
HETATM   41  F   UNL     1      -9.348   5.961  73.619  1.00  0.00    -0.133 F  
HETATM   42  F   UNL     1      -9.241   7.953  72.735  1.00  0.00    -0.192 F  
HETATM   43  F   UNL     1     -10.985   7.362  73.891  1.00  0.00    -0.361 F  
ENDBRANCH  36  37
ENDBRANCH  35  36
ENDBRANCH  34  35
ENDBRANCH  32  34
ENDBRANCH  31  32
ENDBRANCH  30  31
ENDBRANCH  29  30
ENDBRANCH  28  29
ENDBRANCH  27  28
ENDBRANCH  26  27
ENDBRANCH  25  26
ENDBRANCH  24  25
ENDBRANCH  23  24
ENDBRANCH  21  23
TORSDOF 14
ENDMDL
MODEL      149
REMARK 921   NORMALIZED FREE ENERGY PREDICTED BY IDOCK:   -4.63 KCAL/MOL
REMARK 922        TOTAL FREE ENERGY PREDICTED BY IDOCK:  -11.72 KCAL/MOL
REMARK 923 INTER-LIGAND FREE ENERGY PREDICTED BY IDOCK:  -10.21 KCAL/MOL
REMARK 924 INTRA-LIGAND FREE ENERGY PREDICTED BY IDOCK:   -1.50 KCAL/MOL
REMARK 927      BINDING AFFINITY PREDICTED BY RF-SCORE:    0.00 PKD
ROOT
HETATM    1  C   UNL     1      -9.620   5.853  70.273  1.00  0.00    -0.199 C  
HETATM    2  C   UNL     1     -11.010   6.030  70.025  1.00  0.00    -0.450 C  
HETATM    3  C   UNL     1     -10.244   5.979  68.731  1.00  0.00    -0.236 C  
HETATM    4  C   UNL     1      -8.363   5.296  69.084  1.00  0.00    -0.091 C  
HETATM    5  O   UNL     1      -7.259   4.758  68.349  1.00  0.00    -0.060 OA 
HETATM    6  C   UNL     1      -9.413   4.411  69.043  1.00  0.00    -0.237 C  
HETATM    7  C   UNL     1      -9.229   4.679  67.230  1.00  0.00    -0.143 C  
HETATM    8  C   UNL     1      -9.536   3.021  69.556  1.00  0.00    -0.083 C  
HETATM    9  H   UNL     1      -6.380   4.438  68.513  1.00  0.00     0.000 HD 
HETATM   10  C   UNL     1      -8.474   6.251  66.850  1.00  0.00    -0.109 C  
HETATM   11  C   UNL     1      -8.460   7.578  67.931  1.00  0.00    -0.122 C  
HETATM   12  C   UNL     1      -7.532   8.764  67.643  1.00  0.00    -0.093 A  
HETATM   13  C   UNL     1      -7.046   8.983  66.340  1.00  0.00    -0.080 A  
HETATM   14  C   UNL     1      -6.372  10.162  66.002  1.00  0.00    -0.094 A  
HETATM   15  C   UNL     1      -6.167  11.133  66.969  1.00  0.00    -0.093 A  
HETATM   16  C   UNL     1      -6.641  10.950  68.260  1.00  0.00    -0.058 A  
HETATM   17  O   UNL     1      -5.519  12.300  66.688  1.00  0.00    -0.435 OA 
HETATM   18  C   UNL     1      -7.359   9.789  68.607  1.00  0.00    -0.074 A  
HETATM   19  H   UNL     1      -5.379  12.965  67.351  1.00  0.00     0.000 HD 
HETATM   20  C   UNL     1      -7.905   9.713  70.022  1.00  0.00    -0.173 C  
HETATM   21  C   UNL     1      -9.116   8.771  70.228  1.00  0.00    -0.185 C  
HETATM   22  C   UNL     1      -8.680   7.397  69.668  1.00  0.00    -0.137 C  
ENDROOT
BRANCH  21  23
HETATM   23  C   UNL     1     -10.385   9.336  69.556  1.00  0.00    -0.223 C  
BRANCH  23  24
HETATM   24  C   UNL     1     -10.768  10.757  69.923  1.00  0.00    -0.202 C  
BRANCH  24  25
HETATM   25  C   UNL     1     -12.004  10.762  70.837  1.00  0.00    -0.438 C  
BRANCH  25  26
HETATM   26  C   UNL     1     -12.767  12.098  70.875  1.00  0.00    -0.280 C  
BRANCH  26  27
HETATM   27  C   UNL     1     -13.489  12.364  72.196  1.00  0.00    -0.481 C  
BRANCH  27  28
HETATM   28  C   UNL     1     -13.348  13.821  72.636  1.00  0.00    -0.618 C  
BRANCH  28  29
HETATM   29  C   UNL     1     -13.810  14.822  71.575  1.00  0.00    -0.529 C  
BRANCH  29  30
HETATM   30  C   UNL     1     -12.728  15.798  71.087  1.00  0.00    -0.488 C  
BRANCH  30  31
HETATM   31  C   UNL     1     -12.363  15.684  69.614  1.00  0.00    -0.151 C  
BRANCH  31  32
HETATM   32  S   UNL     1     -10.755  14.863  69.362  1.00  0.00    -0.246 S  
HETATM   33  O   UNL     1     -10.734  14.349  67.953  1.00  0.00    -0.241 OA 
BRANCH  32  34
HETATM   34  C   UNL     1      -9.712  16.356  69.403  1.00  0.00    -0.157 C  
BRANCH  34  35
HETATM   35  C   UNL     1      -9.034  16.614  68.062  1.00  0.00    -0.211 C  
BRANCH  35  36
HETATM   36  C   UNL     1      -8.675  18.089  67.889  1.00  0.00    -0.258 C  
BRANCH  36  37
HETATM   37  C   UNL     1      -9.437  18.768  66.753  1.00  0.00    -0.319 C  
HETATM   38  F   UNL     1      -8.534  19.195  65.824  1.00  0.00    -0.253 F  
HETATM   39  C   UNL     1     -10.345  19.923  67.202  1.00  0.00    -0.446 C  
HETATM   40  F   UNL     1     -10.173  17.803  66.128  1.00  0.00    -0.322 F  
HETATM   41  F   UNL     1     -10.414  20.037  68.546  1.00  0.00    -0.542 F  
HETATM   42  F   UNL     1      -9.907  21.107  66.712  1.00  0.00    -0.409 F  
HETATM   43  F   UNL     1     -11.617  19.765  66.758  1.00  0.00    -0.245 F  
ENDBRANCH  36  37
ENDBRANCH  35  36
ENDBRANCH  34  35
ENDBRANCH  32  34
ENDBRANCH  31  32
ENDBRANCH  30  31
ENDBRANCH  29  30
ENDBRANCH  28  29
ENDBRANCH  27  28
ENDBRANCH  26  27
ENDBRANCH  25  26
ENDBRANCH  24  25
ENDBRANCH  23  24
ENDBRANCH  21  23
TORSDOF 14
ENDMDL
MODEL      150
REMARK 921   NORMALIZED FREE ENERGY PREDICTED BY IDOCK:   -4.57 KCAL/MOL
REMARK 922        TOTAL FREE ENERGY PREDICTED BY IDOCK:  -11.60 KCAL/MOL
REMARK 923 INTER-LIGAND FREE ENERGY PREDICTED BY IDOCK:   -9.10 KCAL/MOL
REMARK 924 INTRA-LIGAND FREE ENERGY PREDICTED BY IDOCK:   -2.49 KCAL/MOL
REMARK 927      BINDING AFFINITY PREDICTED BY RF-SCORE:    0.00 PKD
ROOT
HETATM    1  C   UNL     1      -7.249   6.498  69.342  1.00  0.00    -0.086 C  
HETATM    2  C   UNL     1      -6.377   7.327  70.104  1.00  0.00    -0.031 C  
HETATM    3  C   UNL     1      -7.769   7.899  70.082  1.00  0.00    -0.088 C  
HETATM    4  C   UNL     1      -9.066   6.503  69.379  1.00  0.00    -0.141 C  
HETATM    5  O   UNL     1     -10.477   6.262  69.353  1.00  0.00    -0.198 OA 
HETATM    6  C   UNL     1      -8.611   6.421  70.672  1.00  0.00    -0.139 C  
HETATM    7  C   UNL     1      -9.835   7.778  70.912  1.00  0.00    -0.182 C  
HETATM    8  C   UNL     1      -8.601   5.285  71.631  1.00  0.00    -0.135 C  
HETATM    9  H   UNL     1     -11.084   5.610  69.025  1.00  0.00     0.000 HD 
HETATM   10  C   UNL     1     -10.151   8.680  69.405  1.00  0.00    -0.204 C  
HETATM   11  C   UNL     1      -9.074   8.705  68.076  1.00  0.00    -0.144 C  
HETATM   12  C   UNL     1      -9.566   9.246  66.727  1.00  0.00    -0.240 A  
HETATM   13  C   UNL     1     -10.686  10.096  66.671  1.00  0.00    -0.156 A  
HETATM   14  C   UNL     1     -11.034  10.767  65.494  1.00  0.00     0.043 A  
HETATM   15  C   UNL     1     -10.269  10.586  64.353  1.00  0.00    -0.267 A  
HETATM   16  C   UNL     1      -9.154   9.761  64.379  1.00  0.00    -0.296 A  
HETATM   17  O   UNL     1     -10.564  11.220  63.182  1.00  0.00    -0.635 OA 
HETATM   18  C   UNL     1      -8.765   9.111  65.566  1.00  0.00    -0.210 A  
HETATM   19  H   UNL     1     -10.040  11.096  62.400  1.00  0.00     0.000 HD 
HETATM   20  C   UNL     1      -7.488   8.291  65.517  1.00  0.00    -0.077 C  
HETATM   21  C   UNL     1      -6.777   8.065  66.873  1.00  0.00    -0.064 C  
HETATM   22  C   UNL     1      -7.849   7.468  67.815  1.00  0.00    -0.117 C  
ENDROOT
BRANCH  21  23
HETATM   23  C   UNL     1      -6.152   9.372  67.401  1.00  0.00    -0.050 C  
BRANCH  23  24
HETATM   24  C   UNL     1      -5.886  10.458  66.374  1.00  0.00    -0.072 C  
BRANCH  24  25
HETATM   25  C   UNL     1      -5.365  11.730  67.059  1.00  0.00    -0.122 C  
BRANCH  25  26
HETATM   26  C   UNL     1      -6.431  12.524  67.833  1.00  0.00    -0.105 C  
BRANCH  26  27
HETATM   27  C   UNL     1      -7.835  12.425  67.237  1.00  0.00    -0.166 C  
BRANCH  27  28
HETATM   28  C   UNL     1      -8.662  13.679  67.522  1.00  0.00    -0.198 C  
BRANCH  28  29
HETATM   29  C   UNL     1      -9.651  14.019  66.405  1.00  0.00    -0.299 C  
BRANCH  29  30
HETATM   30  C   UNL     1      -9.510  15.433  65.820  1.00  0.00    -0.325 C  
BRANCH  30  31
HETATM   31  C   UNL     1     -10.490  16.464  66.362  1.00  0.00    -0.286 C  
BRANCH  31  32
HETATM   32  S   UNL     1      -9.795  17.413  67.754  1.00  0.00    -0.295 S  
HETATM   33  O   UNL     1     -10.632  18.649  67.912  1.00  0.00    -0.394 OA 
BRANCH  32  34
HETATM   34  C   UNL     1     -10.272  16.269  69.088  1.00  0.00    -0.266 C  
BRANCH  34  35
HETATM   35  C   UNL     1     -11.760  15.936  69.049  1.00  0.00    -0.377 C  
BRANCH  35  36
HETATM   36  C   UNL     1     -12.009  14.447  69.281  1.00  0.00    -0.362 C  
BRANCH  36  37
HETATM   37  C   UNL     1     -12.052  14.064  70.759  1.00  0.00    -0.345 C  
HETATM   38  F   UNL     1     -11.888  12.713  70.859  1.00  0.00    -0.340 F  
HETATM   39  C   UNL     1     -13.325  14.514  71.492  1.00  0.00    -0.362 C  
HETATM   40  F   UNL     1     -10.948  14.609  71.350  1.00  0.00    -0.174 F  
HETATM   41  F   UNL     1     -14.116  15.296  70.727  1.00  0.00    -0.388 F  
HETATM   42  F   UNL     1     -14.061  13.450  71.889  1.00  0.00    -0.449 F  
HETATM   43  F   UNL     1     -13.037  15.226  72.610  1.00  0.00    -0.363 F  
ENDBRANCH  36  37
ENDBRANCH  35  36
ENDBRANCH  34  35
ENDBRANCH  32  34
ENDBRANCH  31  32
ENDBRANCH  30  31
ENDBRANCH  29  30
ENDBRANCH  28  29
ENDBRANCH  27  28
ENDBRANCH  26  27
ENDBRANCH  25  26
ENDBRANCH  24  25
ENDBRANCH  23  24
ENDBRANCH  21  23
TORSDOF 14
ENDMDL
MODEL      151
REMARK 921   NORMALIZED FREE ENERGY PREDICTED BY IDOCK:   -4.56 KCAL/MOL
REMARK 922        TOTAL FREE ENERGY PREDICTED BY IDOCK:  -11.59 KCAL/MOL
REMARK 923 INTER-LIGAND FREE ENERGY PREDICTED BY IDOCK:   -7.54 KCAL/MOL
REMARK 924 INTRA-LIGAND FREE ENERGY PREDICTED BY IDOCK:   -4.05 KCAL/MOL
REMARK 927      BINDING AFFINITY PREDICTED BY RF-SCORE:    0.00 PKD
ROOT
HETATM    1  C   UNL     1     -10.683  12.112  67.486  1.00  0.00    -0.265 C  
HETATM    2  C   UNL     1      -9.618  12.919  67.976  1.00  0.00    -0.221 C  
HETATM    3  C   UNL     1      -9.576  12.842  66.474  1.00  0.00    -0.259 C  
HETATM    4  C   UNL     1     -11.324  12.069  65.786  1.00  0.00    -0.331 C  
HETATM    5  O   UNL     1     -12.049  11.980  64.555  1.00  0.00    -0.328 OA 
HETATM    6  C   UNL     1     -11.271  13.381  66.191  1.00  0.00    -0.311 C  
HETATM    7  C   UNL     1     -10.443  13.580  64.557  1.00  0.00    -0.426 C  
HETATM    8  C   UNL     1     -12.353  14.328  66.569  1.00  0.00    -0.345 C  
HETATM    9  H   UNL     1     -12.867  11.619  64.232  1.00  0.00     0.000 HD 
HETATM   10  C   UNL     1      -9.676  12.069  63.997  1.00  0.00    -0.150 C  
HETATM   11  C   UNL     1      -9.237  10.788  65.043  1.00  0.00    -0.241 C  
HETATM   12  C   UNL     1      -8.874   9.425  64.442  1.00  0.00    -0.225 A  
HETATM   13  C   UNL     1      -8.475   9.328  63.096  1.00  0.00    -0.212 A  
HETATM   14  C   UNL     1      -7.943   8.144  62.576  1.00  0.00    -0.158 A  
HETATM   15  C   UNL     1      -7.813   7.036  63.398  1.00  0.00    -0.107 A  
HETATM   16  C   UNL     1      -8.189   7.102  64.731  1.00  0.00    -0.052 A  
HETATM   17  O   UNL     1      -7.296   5.859  62.940  1.00  0.00    -0.049 OA 
HETATM   18  C   UNL     1      -8.687   8.299  65.282  1.00  0.00    -0.121 A  
HETATM   19  H   UNL     1      -7.207   5.100  63.503  1.00  0.00     0.000 HD 
HETATM   20  C   UNL     1      -8.999   8.297  66.768  1.00  0.00    -0.174 C  
HETATM   21  C   UNL     1      -8.991   9.681  67.461  1.00  0.00    -0.136 C  
HETATM   22  C   UNL     1      -9.952  10.569  66.637  1.00  0.00    -0.260 C  
ENDROOT
BRANCH  21  23
HETATM   23  C   UNL     1      -7.560  10.248  67.560  1.00  0.00    -0.094 C  
BRANCH  23  24
HETATM   24  C   UNL     1      -6.427   9.273  67.302  1.00  0.00    -0.060 C  
BRANCH  24  25
HETATM   25  C   UNL     1      -5.623   9.029  68.589  1.00  0.00    -0.041 C  
BRANCH  25  26
HETATM   26  C   UNL     1      -5.923   7.692  69.288  1.00  0.00    -0.034 C  
BRANCH  26  27
HETATM   27  C   UNL     1      -6.268   7.828  70.770  1.00  0.00    -0.034 C  
BRANCH  27  28
HETATM   28  C   UNL     1      -7.777   7.757  71.011  1.00  0.00    -0.084 C  
BRANCH  28  29
HETATM   29  C   UNL     1      -8.446   9.131  71.075  1.00  0.00    -0.221 C  
BRANCH  29  30
HETATM   30  C   UNL     1      -9.972   9.120  70.895  1.00  0.00    -0.357 C  
BRANCH  30  31
HETATM   31  C   UNL     1     -10.754   8.422  71.999  1.00  0.00    -0.317 C  
BRANCH  31  32
HETATM   32  S   UNL     1     -11.734   7.019  71.371  1.00  0.00    -0.327 S  
HETATM   33  O   UNL     1     -13.181   7.389  71.514  1.00  0.00    -0.363 OA 
BRANCH  32  34
HETATM   34  C   UNL     1     -11.308   7.196  69.609  1.00  0.00    -0.072 C  
BRANCH  34  35
HETATM   35  C   UNL     1     -10.902   5.866  68.985  1.00  0.00    -0.383 C  
BRANCH  35  36
HETATM   36  C   UNL     1      -9.810   5.173  69.799  1.00  0.00    -0.283 C  
BRANCH  36  37
HETATM   37  C   UNL     1      -8.684   4.602  68.939  1.00  0.00    -0.089 C  
HETATM   38  F   UNL     1      -9.215   3.670  68.096  1.00  0.00    -0.143 F  
HETATM   39  C   UNL     1      -7.515   4.010  69.740  1.00  0.00    -0.052 C  
HETATM   40  F   UNL     1      -8.242   5.612  68.132  1.00  0.00    -0.096 F  
HETATM   41  F   UNL     1      -7.630   4.231  71.067  1.00  0.00    -0.053 F  
HETATM   42  F   UNL     1      -7.424   2.673  69.553  1.00  0.00    -0.043 F  
HETATM   43  F   UNL     1      -6.325   4.538  69.359  1.00  0.00    -0.024 F  
ENDBRANCH  36  37
ENDBRANCH  35  36
ENDBRANCH  34  35
ENDBRANCH  32  34
ENDBRANCH  31  32
ENDBRANCH  30  31
ENDBRANCH  29  30
ENDBRANCH  28  29
ENDBRANCH  27  28
ENDBRANCH  26  27
ENDBRANCH  25  26
ENDBRANCH  24  25
ENDBRANCH  23  24
ENDBRANCH  21  23
TORSDOF 14
ENDMDL
MODEL      152
REMARK 921   NORMALIZED FREE ENERGY PREDICTED BY IDOCK:   -4.55 KCAL/MOL
REMARK 922        TOTAL FREE ENERGY PREDICTED BY IDOCK:  -11.57 KCAL/MOL
REMARK 923 INTER-LIGAND FREE ENERGY PREDICTED BY IDOCK:   -9.04 KCAL/MOL
REMARK 924 INTRA-LIGAND FREE ENERGY PREDICTED BY IDOCK:   -2.53 KCAL/MOL
REMARK 927      BINDING AFFINITY PREDICTED BY RF-SCORE:    0.00 PKD
ROOT
HETATM    1  C   UNL     1     -10.218  13.858  68.800  1.00  0.00    -0.188 C  
HETATM    2  C   UNL     1      -9.008  14.580  68.998  1.00  0.00    -0.044 C  
HETATM    3  C   UNL     1      -9.500  14.748  67.586  1.00  0.00    -0.204 C  
HETATM    4  C   UNL     1     -11.417  14.088  67.453  1.00  0.00    -0.348 C  
HETATM    5  O   UNL     1     -12.532  14.196  66.561  1.00  0.00    -0.512 OA 
HETATM    6  C   UNL     1     -11.156  15.317  68.009  1.00  0.00    -0.312 C  
HETATM    7  C   UNL     1     -10.945  15.783  66.239  1.00  0.00    -0.163 C  
HETATM    8  C   UNL     1     -11.984  16.184  68.887  1.00  0.00    -0.029 C  
HETATM    9  H   UNL     1     -13.428  13.888  66.499  1.00  0.00     0.000 HD 
HETATM   10  C   UNL     1     -10.504  14.387  65.218  1.00  0.00    -0.410 C  
HETATM   11  C   UNL     1      -9.794  12.955  65.831  1.00  0.00    -0.239 C  
HETATM   12  C   UNL     1      -9.738  11.710  64.938  1.00  0.00    -0.232 A  
HETATM   13  C   UNL     1      -9.842  11.835  63.540  1.00  0.00    -0.386 A  
HETATM   14  C   UNL     1      -9.590  10.753  62.690  1.00  0.00    -0.296 A  
HETATM   15  C   UNL     1      -9.239   9.527  63.232  1.00  0.00     0.014 A  
HETATM   16  C   UNL     1      -9.119   9.374  64.606  1.00  0.00    -0.228 A  
HETATM   17  O   UNL     1      -8.979   8.443  62.446  1.00  0.00    -0.434 OA 
HETATM   18  C   UNL     1      -9.328  10.463  65.473  1.00  0.00    -0.244 A  
HETATM   19  H   UNL     1      -8.738   7.603  62.817  1.00  0.00     0.000 HD 
HETATM   20  C   UNL     1      -9.098  10.219  66.955  1.00  0.00    -0.159 C  
HETATM   21  C   UNL     1      -8.774  11.471  67.804  1.00  0.00    -0.142 C  
HETATM   22  C   UNL     1      -9.915  12.477  67.521  1.00  0.00    -0.201 C  
ENDROOT
BRANCH  21  23
HETATM   23  C   UNL     1      -7.372  12.023  67.474  1.00  0.00    -0.137 C  
BRANCH  23  24
HETATM   24  C   UNL     1      -6.540  11.214  66.495  1.00  0.00    -0.124 C  
BRANCH  24  25
HETATM   25  C   UNL     1      -5.537  10.325  67.247  1.00  0.00    -0.041 C  
BRANCH  25  26
HETATM   26  C   UNL     1      -5.647  10.391  68.780  1.00  0.00    -0.041 C  
BRANCH  26  27
HETATM   27  C   UNL     1      -5.149   9.134  69.493  1.00  0.00    -0.035 C  
BRANCH  27  28
HETATM   28  C   UNL     1      -6.249   8.485  70.334  1.00  0.00    -0.035 C  
BRANCH  28  29
HETATM   29  C   UNL     1      -7.455   8.031  69.508  1.00  0.00    -0.092 C  
BRANCH  29  30
HETATM   30  C   UNL     1      -7.179   6.866  68.544  1.00  0.00    -0.084 C  
BRANCH  30  31
HETATM   31  C   UNL     1      -7.768   7.020  67.149  1.00  0.00    -0.108 C  
BRANCH  31  32
HETATM   32  S   UNL     1      -9.091   5.811  66.819  1.00  0.00    -0.130 S  
HETATM   33  O   UNL     1      -8.857   4.638  67.725  1.00  0.00    -0.103 OA 
BRANCH  32  34
HETATM   34  C   UNL     1     -10.472   6.766  67.525  1.00  0.00    -0.239 C  
BRANCH  34  35
HETATM   35  C   UNL     1     -10.969   6.165  68.836  1.00  0.00    -0.424 C  
BRANCH  35  36
HETATM   36  C   UNL     1     -10.539   7.006  70.037  1.00  0.00    -0.251 C  
BRANCH  36  37
HETATM   37  C   UNL     1     -11.580   7.042  71.154  1.00  0.00    -0.312 C  
HETATM   38  F   UNL     1     -12.818   7.116  70.586  1.00  0.00    -0.310 F  
HETATM   39  C   UNL     1     -11.377   8.175  72.170  1.00  0.00    -0.336 C  
HETATM   40  F   UNL     1     -11.539   5.829  71.783  1.00  0.00    -0.323 F  
HETATM   41  F   UNL     1     -10.226   8.852  71.971  1.00  0.00    -0.353 F  
HETATM   42  F   UNL     1     -12.393   9.068  72.114  1.00  0.00    -0.387 F  
HETATM   43  F   UNL     1     -11.340   7.709  73.444  1.00  0.00    -0.413 F  
ENDBRANCH  36  37
ENDBRANCH  35  36
ENDBRANCH  34  35
ENDBRANCH  32  34
ENDBRANCH  31  32
ENDBRANCH  30  31
ENDBRANCH  29  30
ENDBRANCH  28  29
ENDBRANCH  27  28
ENDBRANCH  26  27
ENDBRANCH  25  26
ENDBRANCH  24  25
ENDBRANCH  23  24
ENDBRANCH  21  23
TORSDOF 14
ENDMDL
MODEL      153
REMARK 921   NORMALIZED FREE ENERGY PREDICTED BY IDOCK:   -4.54 KCAL/MOL
REMARK 922        TOTAL FREE ENERGY PREDICTED BY IDOCK:  -11.56 KCAL/MOL
REMARK 923 INTER-LIGAND FREE ENERGY PREDICTED BY IDOCK:   -9.82 KCAL/MOL
REMARK 924 INTRA-LIGAND FREE ENERGY PREDICTED BY IDOCK:   -1.73 KCAL/MOL
REMARK 927      BINDING AFFINITY PREDICTED BY RF-SCORE:    0.00 PKD
ROOT
HETATM    1  C   UNL     1      -8.830   8.184  71.191  1.00  0.00    -0.171 C  
HETATM    2  C   UNL     1      -9.306   9.503  70.949  1.00  0.00    -0.157 C  
HETATM    3  C   UNL     1     -10.296   8.484  70.455  1.00  0.00    -0.226 C  
HETATM    4  C   UNL     1      -9.813   6.655  71.195  1.00  0.00    -0.181 C  
HETATM    5  O   UNL     1     -10.421   5.370  71.368  1.00  0.00    -0.223 OA 
HETATM    6  C   UNL     1     -10.444   7.571  72.000  1.00  0.00    -0.245 C  
HETATM    7  C   UNL     1     -11.906   7.045  71.012  1.00  0.00    -0.395 C  
HETATM    8  C   UNL     1     -10.566   7.645  73.480  1.00  0.00    -0.250 C  
HETATM    9  H   UNL     1     -10.195   4.515  71.713  1.00  0.00     0.000 HD 
HETATM   10  C   UNL     1     -11.447   6.404  69.410  1.00  0.00    -0.374 C  
HETATM   11  C   UNL     1      -9.960   6.758  68.642  1.00  0.00    -0.147 C  
HETATM   12  C   UNL     1      -9.530   5.926  67.428  1.00  0.00    -0.112 A  
HETATM   13  C   UNL     1     -10.488   5.207  66.687  1.00  0.00    -0.328 A  
HETATM   14  C   UNL     1     -10.166   4.610  65.463  1.00  0.00    -0.219 A  
HETATM   15  C   UNL     1      -8.876   4.717  64.971  1.00  0.00    -0.152 A  
HETATM   16  C   UNL     1      -7.912   5.426  65.673  1.00  0.00    -0.107 A  
HETATM   17  O   UNL     1      -8.513   4.157  63.781  1.00  0.00    -0.093 OA 
HETATM   18  C   UNL     1      -8.229   6.069  66.885  1.00  0.00    -0.105 A  
HETATM   19  H   UNL     1      -7.629   4.230  63.443  1.00  0.00     0.000 HD 
HETATM   20  C   UNL     1      -7.129   6.885  67.541  1.00  0.00    -0.085 C  
HETATM   21  C   UNL     1      -7.600   8.003  68.503  1.00  0.00    -0.104 C  
HETATM   22  C   UNL     1      -8.539   7.313  69.521  1.00  0.00    -0.134 C  
ENDROOT
BRANCH  21  23
HETATM   23  C   UNL     1      -8.271   9.158  67.732  1.00  0.00    -0.109 C  
BRANCH  23  24
HETATM   24  C   UNL     1      -7.364  10.000  66.853  1.00  0.00    -0.092 C  
BRANCH  24  25
HETATM   25  C   UNL     1      -7.894  10.036  65.412  1.00  0.00    -0.136 C  
BRANCH  25  26
HETATM   26  C   UNL     1      -9.427   9.972  65.290  1.00  0.00    -0.323 C  
BRANCH  26  27
HETATM   27  C   UNL     1     -10.070  11.283  64.840  1.00  0.00    -0.333 C  
BRANCH  27  28
HETATM   28  C   UNL     1     -10.735  12.018  66.005  1.00  0.00    -0.317 C  
BRANCH  28  29
HETATM   29  C   UNL     1     -12.027  12.736  65.610  1.00  0.00    -0.503 C  
BRANCH  29  30
HETATM   30  C   UNL     1     -12.325  14.019  66.401  1.00  0.00    -0.468 C  
BRANCH  30  31
HETATM   31  C   UNL     1     -11.104  14.764  66.919  1.00  0.00    -0.339 C  
BRANCH  31  32
HETATM   32  S   UNL     1     -10.222  15.652  65.593  1.00  0.00    -0.390 S  
HETATM   33  O   UNL     1     -10.717  17.068  65.602  1.00  0.00    -0.379 OA 
BRANCH  32  34
HETATM   34  C   UNL     1      -8.571  15.656  66.362  1.00  0.00    -0.284 C  
BRANCH  34  35
HETATM   35  C   UNL     1      -8.329  16.916  67.186  1.00  0.00    -0.217 C  
BRANCH  35  36
HETATM   36  C   UNL     1      -7.494  17.939  66.417  1.00  0.00    -0.308 C  
BRANCH  36  37
HETATM   37  C   UNL     1      -6.765  18.929  67.323  1.00  0.00    -0.205 C  
HETATM   38  F   UNL     1      -6.359  18.267  68.445  1.00  0.00    -0.182 F  
HETATM   39  C   UNL     1      -7.587  20.173  67.690  1.00  0.00    -0.304 C  
HETATM   40  F   UNL     1      -5.616  19.293  66.680  1.00  0.00    -0.159 F  
HETATM   41  F   UNL     1      -8.761  20.235  67.026  1.00  0.00    -0.358 F  
HETATM   42  F   UNL     1      -7.863  20.201  69.015  1.00  0.00    -0.210 F  
HETATM   43  F   UNL     1      -6.919  21.320  67.408  1.00  0.00    -0.399 F  
ENDBRANCH  36  37
ENDBRANCH  35  36
ENDBRANCH  34  35
ENDBRANCH  32  34
ENDBRANCH  31  32
ENDBRANCH  30  31
ENDBRANCH  29  30
ENDBRANCH  28  29
ENDBRANCH  27  28
ENDBRANCH  26  27
ENDBRANCH  25  26
ENDBRANCH  24  25
ENDBRANCH  23  24
ENDBRANCH  21  23
TORSDOF 14
ENDMDL
MODEL      154
REMARK 921   NORMALIZED FREE ENERGY PREDICTED BY IDOCK:   -4.54 KCAL/MOL
REMARK 922        TOTAL FREE ENERGY PREDICTED BY IDOCK:  -11.55 KCAL/MOL
REMARK 923 INTER-LIGAND FREE ENERGY PREDICTED BY IDOCK:   -6.94 KCAL/MOL
REMARK 924 INTRA-LIGAND FREE ENERGY PREDICTED BY IDOCK:   -4.61 KCAL/MOL
REMARK 927      BINDING AFFINITY PREDICTED BY RF-SCORE:    0.00 PKD
ROOT
HETATM    1  C   UNL     1      -7.034  10.481  66.281  1.00  0.00    -0.128 C  
HETATM    2  C   UNL     1      -5.751   9.944  66.585  1.00  0.00    -0.050 C  
HETATM    3  C   UNL     1      -6.714   8.845  66.226  1.00  0.00    -0.074 C  
HETATM    4  C   UNL     1      -8.379   9.650  65.383  1.00  0.00    -0.141 C  
HETATM    5  O   UNL     1      -9.499   9.226  64.599  1.00  0.00    -0.439 OA 
HETATM    6  C   UNL     1      -7.229   9.529  64.641  1.00  0.00    -0.113 C  
HETATM    7  C   UNL     1      -7.764   7.767  64.580  1.00  0.00    -0.121 C  
HETATM    8  C   UNL     1      -6.809  10.196  63.381  1.00  0.00    -0.124 C  
HETATM    9  H   UNL     1     -10.277   9.602  64.205  1.00  0.00     0.000 HD 
HETATM   10  C   UNL     1      -8.804   7.326  65.963  1.00  0.00    -0.161 C  
HETATM   11  C   UNL     1      -8.832   8.193  67.438  1.00  0.00    -0.131 C  
HETATM   12  C   UNL     1      -9.966   7.929  68.436  1.00  0.00    -0.198 A  
HETATM   13  C   UNL     1     -10.698   6.729  68.375  1.00  0.00    -0.284 A  
HETATM   14  C   UNL     1     -11.592   6.367  69.389  1.00  0.00    -0.238 A  
HETATM   15  C   UNL     1     -11.771   7.211  70.474  1.00  0.00    -0.272 A  
HETATM   16  C   UNL     1     -11.057   8.397  70.567  1.00  0.00    -0.267 A  
HETATM   17  O   UNL     1     -12.627   6.902  71.489  1.00  0.00    -0.365 OA 
HETATM   18  C   UNL     1     -10.123   8.756  69.577  1.00  0.00    -0.202 A  
HETATM   19  H   UNL     1     -12.751   7.480  72.233  1.00  0.00     0.000 HD 
HETATM   20  C   UNL     1      -9.334  10.033  69.804  1.00  0.00    -0.233 C  
HETATM   21  C   UNL     1      -7.976  10.129  69.067  1.00  0.00    -0.115 C  
HETATM   22  C   UNL     1      -8.289   9.862  67.575  1.00  0.00    -0.114 C  
ENDROOT
BRANCH  21  23
HETATM   23  C   UNL     1      -6.945   9.150  69.665  1.00  0.00    -0.055 C  
BRANCH  23  24
HETATM   24  C   UNL     1      -6.630   9.318  71.139  1.00  0.00    -0.080 C  
BRANCH  24  25
HETATM   25  C   UNL     1      -6.759   7.975  71.873  1.00  0.00    -0.067 C  
BRANCH  25  26
HETATM   26  C   UNL     1      -6.662   8.070  73.406  1.00  0.00    -0.115 C  
BRANCH  26  27
HETATM   27  C   UNL     1      -8.005   7.932  74.123  1.00  0.00    -0.276 C  
BRANCH  27  28
HETATM   28  C   UNL     1      -9.088   7.373  73.199  1.00  0.00    -0.207 C  
BRANCH  28  29
HETATM   29  C   UNL     1     -10.316   6.854  73.949  1.00  0.00    -0.398 C  
BRANCH  29  30
HETATM   30  C   UNL     1     -10.231   5.387  74.398  1.00  0.00    -0.299 C  
BRANCH  30  31
HETATM   31  C   UNL     1     -11.118   4.418  73.629  1.00  0.00    -0.278 C  
BRANCH  31  32
HETATM   32  S   UNL     1     -10.462   2.717  73.649  1.00  0.00    -0.165 S  
HETATM   33  O   UNL     1     -11.639   1.787  73.685  1.00  0.00    -0.192 OA 
BRANCH  32  34
HETATM   34  C   UNL     1      -9.810   2.690  71.949  1.00  0.00    -0.157 C  
BRANCH  34  35
HETATM   35  C   UNL     1      -8.557   3.548  71.805  1.00  0.00    -0.113 C  
BRANCH  35  36
HETATM   36  C   UNL     1      -8.734   4.625  70.736  1.00  0.00    -0.133 C  
BRANCH  36  37
HETATM   37  C   UNL     1      -7.762   4.483  69.567  1.00  0.00    -0.055 C  
HETATM   38  F   UNL     1      -7.342   5.728  69.202  1.00  0.00    -0.072 F  
HETATM   39  C   UNL     1      -8.333   3.724  68.359  1.00  0.00    -0.086 C  
HETATM   40  F   UNL     1      -6.650   3.848  70.042  1.00  0.00    -0.030 F  
HETATM   41  F   UNL     1      -9.549   3.193  68.606  1.00  0.00    -0.230 F  
HETATM   42  F   UNL     1      -8.451   4.538  67.284  1.00  0.00    -0.104 F  
HETATM   43  F   UNL     1      -7.529   2.698  67.983  1.00  0.00    -0.054 F  
ENDBRANCH  36  37
ENDBRANCH  35  36
ENDBRANCH  34  35
ENDBRANCH  32  34
ENDBRANCH  31  32
ENDBRANCH  30  31
ENDBRANCH  29  30
ENDBRANCH  28  29
ENDBRANCH  27  28
ENDBRANCH  26  27
ENDBRANCH  25  26
ENDBRANCH  24  25
ENDBRANCH  23  24
ENDBRANCH  21  23
TORSDOF 14
ENDMDL
MODEL      155
REMARK 921   NORMALIZED FREE ENERGY PREDICTED BY IDOCK:   -4.54 KCAL/MOL
REMARK 922        TOTAL FREE ENERGY PREDICTED BY IDOCK:  -11.54 KCAL/MOL
REMARK 923 INTER-LIGAND FREE ENERGY PREDICTED BY IDOCK:   -8.11 KCAL/MOL
REMARK 924 INTRA-LIGAND FREE ENERGY PREDICTED BY IDOCK:   -3.43 KCAL/MOL
REMARK 927      BINDING AFFINITY PREDICTED BY RF-SCORE:    0.00 PKD
ROOT
HETATM    1  C   UNL     1      -9.082  17.449  66.227  1.00  0.00    -0.232 C  
HETATM    2  C   UNL     1     -10.335  17.730  66.842  1.00  0.00    -0.344 C  
HETATM    3  C   UNL     1      -9.207  17.947  67.813  1.00  0.00    -0.258 C  
HETATM    4  C   UNL     1      -7.441  17.971  66.809  1.00  0.00    -0.214 C  
HETATM    5  O   UNL     1      -6.087  18.384  67.024  1.00  0.00    -0.161 OA 
HETATM    6  C   UNL     1      -8.257  19.076  66.780  1.00  0.00    -0.288 C  
HETATM    7  C   UNL     1      -7.567  19.307  68.472  1.00  0.00    -0.369 C  
HETATM    8  C   UNL     1      -8.290  20.237  65.853  1.00  0.00    -0.026 C  
HETATM    9  H   UNL     1      -5.262  18.395  66.554  1.00  0.00     0.000 HD 
HETATM   10  C   UNL     1      -7.015  17.770  69.195  1.00  0.00    -0.209 C  
HETATM   11  C   UNL     1      -7.568  16.234  68.684  1.00  0.00    -0.188 C  
HETATM   12  C   UNL     1      -6.817  14.980  69.146  1.00  0.00    -0.132 A  
HETATM   13  C   UNL     1      -5.995  15.026  70.288  1.00  0.00    -0.150 A  
HETATM   14  C   UNL     1      -5.464  13.862  70.853  1.00  0.00    -0.170 A  
HETATM   15  C   UNL     1      -5.742  12.634  70.274  1.00  0.00    -0.164 A  
HETATM   16  C   UNL     1      -6.555  12.554  69.153  1.00  0.00    -0.100 A  
HETATM   17  O   UNL     1      -5.252  11.470  70.788  1.00  0.00    -0.107 OA 
HETATM   18  C   UNL     1      -7.132  13.712  68.596  1.00  0.00    -0.105 A  
HETATM   19  H   UNL     1      -5.442  10.629  70.392  1.00  0.00     0.000 HD 
HETATM   20  C   UNL     1      -8.070  13.517  67.418  1.00  0.00    -0.184 C  
HETATM   21  C   UNL     1      -9.103  14.646  67.182  1.00  0.00    -0.236 C  
HETATM   22  C   UNL     1      -8.283  15.955  67.099  1.00  0.00    -0.233 C  
ENDROOT
BRANCH  21  23
HETATM   23  C   UNL     1     -10.177  14.661  68.290  1.00  0.00    -0.227 C  
BRANCH  23  24
HETATM   24  C   UNL     1     -11.614  14.475  67.840  1.00  0.00    -0.371 C  
BRANCH  24  25
HETATM   25  C   UNL     1     -11.669  14.121  66.346  1.00  0.00    -0.404 C  
BRANCH  25  26
HETATM   26  C   UNL     1     -12.038  12.658  66.047  1.00  0.00    -0.429 C  
BRANCH  26  27
HETATM   27  C   UNL     1     -10.966  11.893  65.269  1.00  0.00    -0.354 C  
BRANCH  27  28
HETATM   28  C   UNL     1     -10.735  10.496  65.847  1.00  0.00    -0.061 C  
BRANCH  28  29
HETATM   29  C   UNL     1      -9.650  10.459  66.926  1.00  0.00    -0.207 C  
BRANCH  29  30
HETATM   30  C   UNL     1     -10.140  10.765  68.350  1.00  0.00    -0.183 C  
BRANCH  30  31
HETATM   31  C   UNL     1     -11.136   9.768  68.926  1.00  0.00    -0.099 C  
BRANCH  31  32
HETATM   32  S   UNL     1     -11.285   9.908  70.737  1.00  0.00    -0.369 S  
HETATM   33  O   UNL     1     -12.560   9.221  71.132  1.00  0.00    -0.308 OA 
BRANCH  32  34
HETATM   34  C   UNL     1      -9.916   8.792  71.179  1.00  0.00    -0.248 C  
BRANCH  34  35
HETATM   35  C   UNL     1      -9.775   7.642  70.187  1.00  0.00    -0.179 C  
BRANCH  35  36
HETATM   36  C   UNL     1      -8.378   7.599  69.570  1.00  0.00    -0.130 C  
BRANCH  36  37
HETATM   37  C   UNL     1      -8.345   6.944  68.191  1.00  0.00    -0.118 C  
HETATM   38  F   UNL     1      -9.508   7.244  67.544  1.00  0.00    -0.127 F  
HETATM   39  C   UNL     1      -8.111   5.426  68.218  1.00  0.00    -0.095 C  
HETATM   40  F   UNL     1      -7.359   7.562  67.475  1.00  0.00    -0.089 F  
HETATM   41  F   UNL     1      -7.834   4.965  69.457  1.00  0.00    -0.064 F  
HETATM   42  F   UNL     1      -9.198   4.757  67.766  1.00  0.00    -0.114 F  
HETATM   43  F   UNL     1      -7.073   5.062  67.425  1.00  0.00    -0.060 F  
ENDBRANCH  36  37
ENDBRANCH  35  36
ENDBRANCH  34  35
ENDBRANCH  32  34
ENDBRANCH  31  32
ENDBRANCH  30  31
ENDBRANCH  29  30
ENDBRANCH  28  29
ENDBRANCH  27  28
ENDBRANCH  26  27
ENDBRANCH  25  26
ENDBRANCH  24  25
ENDBRANCH  23  24
ENDBRANCH  21  23
TORSDOF 14
ENDMDL
MODEL      156
REMARK 921   NORMALIZED FREE ENERGY PREDICTED BY IDOCK:   -4.54 KCAL/MOL
REMARK 922        TOTAL FREE ENERGY PREDICTED BY IDOCK:  -11.54 KCAL/MOL
REMARK 923 INTER-LIGAND FREE ENERGY PREDICTED BY IDOCK:   -8.70 KCAL/MOL
REMARK 924 INTRA-LIGAND FREE ENERGY PREDICTED BY IDOCK:   -2.84 KCAL/MOL
REMARK 927      BINDING AFFINITY PREDICTED BY RF-SCORE:    0.00 PKD
ROOT
HETATM    1  C   UNL     1     -10.690   8.990  72.070  1.00  0.00    -0.333 C  
HETATM    2  C   UNL     1     -10.278   9.580  70.842  1.00  0.00    -0.356 C  
HETATM    3  C   UNL     1     -10.610   8.126  70.646  1.00  0.00    -0.229 C  
HETATM    4  C   UNL     1     -11.598   7.430  72.279  1.00  0.00    -0.292 C  
HETATM    5  O   UNL     1     -12.411   6.310  72.649  1.00  0.00    -0.522 OA 
HETATM    6  C   UNL     1     -12.265   8.193  71.353  1.00  0.00    -0.324 C  
HETATM    7  C   UNL     1     -12.230   6.612  70.409  1.00  0.00    -0.133 C  
HETATM    8  C   UNL     1     -13.545   8.944  71.450  1.00  0.00    -0.311 C  
HETATM    9  H   UNL     1     -12.872   5.985  73.412  1.00  0.00     0.000 HD 
HETATM   10  C   UNL     1     -10.879   5.556  70.906  1.00  0.00    -0.246 C  
HETATM   11  C   UNL     1      -9.473   6.129  71.695  1.00  0.00    -0.160 C  
HETATM   12  C   UNL     1      -8.522   5.120  72.350  1.00  0.00    -0.121 A  
HETATM   13  C   UNL     1      -8.538   3.770  71.952  1.00  0.00    -0.109 A  
HETATM   14  C   UNL     1      -7.552   2.873  72.376  1.00  0.00    -0.053 A  
HETATM   15  C   UNL     1      -6.541   3.316  73.214  1.00  0.00    -0.029 A  
HETATM   16  C   UNL     1      -6.493   4.642  73.617  1.00  0.00    -0.056 A  
HETATM   17  O   UNL     1      -5.555   2.482  73.652  1.00  0.00     0.000 OA 
HETATM   18  C   UNL     1      -7.454   5.568  73.166  1.00  0.00    -0.096 A  
HETATM   19  H   UNL     1      -4.862   2.785  74.227  1.00  0.00     0.000 HD 
HETATM   20  C   UNL     1      -7.275   7.013  73.598  1.00  0.00    -0.079 C  
HETATM   21  C   UNL     1      -7.942   8.076  72.693  1.00  0.00    -0.181 C  
HETATM   22  C   UNL     1      -9.425   7.655  72.572  1.00  0.00    -0.222 C  
ENDROOT
BRANCH  21  23
HETATM   23  C   UNL     1      -7.220   8.185  71.334  1.00  0.00    -0.074 C  
BRANCH  23  24
HETATM   24  C   UNL     1      -5.724   7.928  71.340  1.00  0.00    -0.034 C  
BRANCH  24  25
HETATM   25  C   UNL     1      -5.362   6.834  70.324  1.00  0.00    -0.019 C  
BRANCH  25  26
HETATM   26  C   UNL     1      -6.567   6.206  69.603  1.00  0.00    -0.047 C  
BRANCH  26  27
HETATM   27  C   UNL     1      -6.579   6.439  68.092  1.00  0.00    -0.066 C  
BRANCH  27  28
HETATM   28  C   UNL     1      -7.012   7.864  67.742  1.00  0.00    -0.074 C  
BRANCH  28  29
HETATM   29  C   UNL     1      -8.531   8.042  67.696  1.00  0.00    -0.131 C  
BRANCH  29  30
HETATM   30  C   UNL     1      -9.030   9.121  66.723  1.00  0.00    -0.152 C  
BRANCH  30  31
HETATM   31  C   UNL     1     -10.534   9.349  66.717  1.00  0.00    -0.195 C  
BRANCH  31  32
HETATM   32  S   UNL     1     -10.989  10.971  67.414  1.00  0.00    -0.297 S  
HETATM   33  O   UNL     1      -9.771  11.517  68.101  1.00  0.00    -0.179 OA 
BRANCH  32  34
HETATM   34  C   UNL     1     -11.165  11.870  65.840  1.00  0.00    -0.322 C  
BRANCH  34  35
HETATM   35  C   UNL     1     -12.201  12.985  65.933  1.00  0.00    -0.493 C  
BRANCH  35  36
HETATM   36  C   UNL     1     -11.594  14.269  66.497  1.00  0.00    -0.390 C  
BRANCH  36  37
HETATM   37  C   UNL     1     -11.073  15.216  65.418  1.00  0.00    -0.367 C  
HETATM   38  F   UNL     1     -10.310  14.497  64.545  1.00  0.00    -0.420 F  
HETATM   39  C   UNL     1     -10.292  16.423  65.959  1.00  0.00    -0.352 C  
HETATM   40  F   UNL     1     -12.153  15.638  64.695  1.00  0.00    -0.258 F  
HETATM   41  F   UNL     1     -10.329  16.504  67.307  1.00  0.00    -0.272 F  
HETATM   42  F   UNL     1      -8.991  16.369  65.588  1.00  0.00    -0.306 F  
HETATM   43  F   UNL     1     -10.783  17.595  65.485  1.00  0.00    -0.401 F  
ENDBRANCH  36  37
ENDBRANCH  35  36
ENDBRANCH  34  35
ENDBRANCH  32  34
ENDBRANCH  31  32
ENDBRANCH  30  31
ENDBRANCH  29  30
ENDBRANCH  28  29
ENDBRANCH  27  28
ENDBRANCH  26  27
ENDBRANCH  25  26
ENDBRANCH  24  25
ENDBRANCH  23  24
ENDBRANCH  21  23
TORSDOF 14
ENDMDL
MODEL      157
REMARK 921   NORMALIZED FREE ENERGY PREDICTED BY IDOCK:   -4.52 KCAL/MOL
REMARK 922        TOTAL FREE ENERGY PREDICTED BY IDOCK:  -11.51 KCAL/MOL
REMARK 923 INTER-LIGAND FREE ENERGY PREDICTED BY IDOCK:   -9.70 KCAL/MOL
REMARK 924 INTRA-LIGAND FREE ENERGY PREDICTED BY IDOCK:   -1.81 KCAL/MOL
REMARK 927      BINDING AFFINITY PREDICTED BY RF-SCORE:    0.00 PKD
ROOT
HETATM    1  C   UNL     1     -11.240  12.989  64.590  1.00  0.00    -0.355 C  
HETATM    2  C   UNL     1     -12.501  12.621  65.139  1.00  0.00    -0.531 C  
HETATM    3  C   UNL     1     -11.651  13.306  66.174  1.00  0.00    -0.385 C  
HETATM    4  C   UNL     1     -10.066  14.198  65.269  1.00  0.00    -0.335 C  
HETATM    5  O   UNL     1      -9.078  15.191  65.565  1.00  0.00    -0.338 OA 
HETATM    6  C   UNL     1     -11.305  14.789  65.213  1.00  0.00    -0.363 C  
HETATM    7  C   UNL     1     -10.876  15.251  66.944  1.00  0.00    -0.317 C  
HETATM    8  C   UNL     1     -11.845  15.833  64.303  1.00  0.00    -0.120 C  
HETATM    9  H   UNL     1      -8.337  15.609  65.142  1.00  0.00     0.000 HD 
HETATM   10  C   UNL     1      -9.695  14.128  67.672  1.00  0.00    -0.228 C  
HETATM   11  C   UNL     1      -9.434  12.534  67.108  1.00  0.00    -0.208 C  
HETATM   12  C   UNL     1      -8.199  11.764  67.591  1.00  0.00    -0.145 A  
HETATM   13  C   UNL     1      -7.545  12.147  68.777  1.00  0.00    -0.056 A  
HETATM   14  C   UNL     1      -6.551  11.349  69.353  1.00  0.00    -0.119 A  
HETATM   15  C   UNL     1      -6.191  10.159  68.740  1.00  0.00    -0.047 A  
HETATM   16  C   UNL     1      -6.824   9.750  67.575  1.00  0.00    -0.082 A  
HETATM   17  O   UNL     1      -5.231   9.344  69.263  1.00  0.00    -0.036 OA 
HETATM   18  C   UNL     1      -7.856  10.520  67.005  1.00  0.00    -0.114 A  
HETATM   19  H   UNL     1      -4.985   8.528  68.843  1.00  0.00     0.000 HD 
HETATM   20  C   UNL     1      -8.541   9.953  65.774  1.00  0.00    -0.151 C  
HETATM   21  C   UNL     1      -9.973  10.471  65.499  1.00  0.00    -0.342 C  
HETATM   22  C   UNL     1      -9.867  12.014  65.482  1.00  0.00    -0.251 C  
ENDROOT
BRANCH  21  23
HETATM   23  C   UNL     1     -10.971   9.934  66.546  1.00  0.00     0.148 C  
BRANCH  23  24
HETATM   24  C   UNL     1     -11.120  10.748  67.818  1.00  0.00    -0.381 C  
BRANCH  24  25
HETATM   25  C   UNL     1     -10.978   9.846  69.053  1.00  0.00    -0.223 C  
BRANCH  25  26
HETATM   26  C   UNL     1     -11.199  10.561  70.398  1.00  0.00    -0.378 C  
BRANCH  26  27
HETATM   27  C   UNL     1     -12.638  10.493  70.909  1.00  0.00    -0.493 C  
BRANCH  27  28
HETATM   28  C   UNL     1     -12.960   9.126  71.514  1.00  0.00    -0.409 C  
BRANCH  28  29
HETATM   29  C   UNL     1     -11.796   8.521  72.301  1.00  0.00    -0.453 C  
BRANCH  29  30
HETATM   30  C   UNL     1     -11.284   7.173  71.770  1.00  0.00    -0.278 C  
BRANCH  30  31
HETATM   31  C   UNL     1     -10.371   6.404  72.714  1.00  0.00    -0.201 C  
BRANCH  31  32
HETATM   32  S   UNL     1      -8.785   5.960  71.933  1.00  0.00    -0.138 S  
HETATM   33  O   UNL     1      -8.960   4.607  71.308  1.00  0.00    -0.122 OA 
BRANCH  32  34
HETATM   34  C   UNL     1      -8.829   7.183  70.584  1.00  0.00    -0.149 C  
BRANCH  34  35
HETATM   35  C   UNL     1      -8.462   6.563  69.240  1.00  0.00    -0.127 C  
BRANCH  35  36
HETATM   36  C   UNL     1      -9.411   7.020  68.133  1.00  0.00    -0.125 C  
BRANCH  36  37
HETATM   37  C   UNL     1     -10.491   5.993  67.800  1.00  0.00    -0.239 C  
HETATM   38  F   UNL     1     -10.979   5.486  68.969  1.00  0.00    -0.324 F  
HETATM   39  C   UNL     1     -10.024   4.864  66.869  1.00  0.00    -0.217 C  
HETATM   40  F   UNL     1     -11.533   6.672  67.234  1.00  0.00    -0.418 F  
HETATM   41  F   UNL     1      -8.775   5.063  66.397  1.00  0.00    -0.114 F  
HETATM   42  F   UNL     1     -10.036   3.670  67.507  1.00  0.00    -0.217 F  
HETATM   43  F   UNL     1     -10.833   4.735  65.788  1.00  0.00    -0.324 F  
ENDBRANCH  36  37
ENDBRANCH  35  36
ENDBRANCH  34  35
ENDBRANCH  32  34
ENDBRANCH  31  32
ENDBRANCH  30  31
ENDBRANCH  29  30
ENDBRANCH  28  29
ENDBRANCH  27  28
ENDBRANCH  26  27
ENDBRANCH  25  26
ENDBRANCH  24  25
ENDBRANCH  23  24
ENDBRANCH  21  23
TORSDOF 14
ENDMDL
MODEL      158
REMARK 921   NORMALIZED FREE ENERGY PREDICTED BY IDOCK:   -4.52 KCAL/MOL
REMARK 922        TOTAL FREE ENERGY PREDICTED BY IDOCK:  -11.51 KCAL/MOL
REMARK 923 INTER-LIGAND FREE ENERGY PREDICTED BY IDOCK:   -9.70 KCAL/MOL
REMARK 924 INTRA-LIGAND FREE ENERGY PREDICTED BY IDOCK:   -1.81 KCAL/MOL
REMARK 927      BINDING AFFINITY PREDICTED BY RF-SCORE:    0.00 PKD
ROOT
HETATM    1  C   UNL     1      -9.226   8.347  71.023  1.00  0.00    -0.206 C  
HETATM    2  C   UNL     1      -9.694   9.531  70.389  1.00  0.00    -0.328 C  
HETATM    3  C   UNL     1     -10.429   8.326  69.868  1.00  0.00    -0.223 C  
HETATM    4  C   UNL     1     -10.065   6.735  71.078  1.00  0.00    -0.189 C  
HETATM    5  O   UNL     1     -10.612   5.439  71.344  1.00  0.00    -0.236 OA 
HETATM    6  C   UNL     1     -10.962   7.699  71.470  1.00  0.00    -0.263 C  
HETATM    7  C   UNL     1     -12.034   6.827  70.252  1.00  0.00    -0.294 C  
HETATM    8  C   UNL     1     -11.516   8.026  72.810  1.00  0.00    -0.420 C  
HETATM    9  H   UNL     1     -10.443   4.695  71.909  1.00  0.00     0.000 HD 
HETATM   10  C   UNL     1     -11.086   5.965  69.009  1.00  0.00    -0.295 C  
HETATM   11  C   UNL     1      -9.465   6.353  68.620  1.00  0.00    -0.122 C  
HETATM   12  C   UNL     1      -8.647   5.371  67.772  1.00  0.00    -0.104 A  
HETATM   13  C   UNL     1      -9.297   4.418  66.966  1.00  0.00    -0.170 A  
HETATM   14  C   UNL     1      -8.593   3.652  66.030  1.00  0.00    -0.115 A  
HETATM   15  C   UNL     1      -7.225   3.824  65.898  1.00  0.00    -0.071 A  
HETATM   16  C   UNL     1      -6.557   4.762  66.672  1.00  0.00    -0.050 A  
HETATM   17  O   UNL     1      -6.495   3.105  64.998  1.00  0.00    -0.033 OA 
HETATM   18  C   UNL     1      -7.256   5.571  67.588  1.00  0.00    -0.075 A  
HETATM   19  H   UNL     1      -5.557   3.223  64.907  1.00  0.00     0.000 HD 
HETATM   20  C   UNL     1      -6.451   6.622  68.334  1.00  0.00    -0.049 C  
HETATM   21  C   UNL     1      -7.254   7.830  68.874  1.00  0.00    -0.081 C  
HETATM   22  C   UNL     1      -8.403   7.228  69.718  1.00  0.00    -0.135 C  
ENDROOT
BRANCH  21  23
HETATM   23  C   UNL     1      -7.744   8.734  67.724  1.00  0.00    -0.102 C  
BRANCH  23  24
HETATM   24  C   UNL     1      -6.673   9.321  66.823  1.00  0.00    -0.076 C  
BRANCH  24  25
HETATM   25  C   UNL     1      -6.719   8.664  65.434  1.00  0.00    -0.067 C  
BRANCH  25  26
HETATM   26  C   UNL     1      -8.133   8.315  64.937  1.00  0.00    -0.150 C  
BRANCH  26  27
HETATM   27  C   UNL     1      -8.641   9.225  63.819  1.00  0.00    -0.206 C  
BRANCH  27  28
HETATM   28  C   UNL     1      -9.470  10.388  64.366  1.00  0.00    -0.343 C  
BRANCH  28  29
HETATM   29  C   UNL     1      -9.857  11.412  63.297  1.00  0.00    -0.428 C  
BRANCH  29  30
HETATM   30  C   UNL     1     -11.009  12.353  63.685  1.00  0.00    -0.525 C  
BRANCH  30  31
HETATM   31  C   UNL     1     -11.113  12.679  65.168  1.00  0.00    -0.294 C  
BRANCH  31  32
HETATM   32  S   UNL     1     -10.284  14.247  65.590  1.00  0.00    -0.357 S  
HETATM   33  O   UNL     1     -11.239  15.357  65.261  1.00  0.00    -0.349 OA 
BRANCH  32  34
HETATM   34  C   UNL     1     -10.297  14.047  67.400  1.00  0.00    -0.259 C  
BRANCH  34  35
HETATM   35  C   UNL     1     -11.710  14.112  67.971  1.00  0.00    -0.394 C  
BRANCH  35  36
HETATM   36  C   UNL     1     -12.008  15.481  68.578  1.00  0.00    -0.179 C  
BRANCH  36  37
HETATM   37  C   UNL     1     -11.311  15.715  69.917  1.00  0.00    -0.337 C  
HETATM   38  F   UNL     1     -10.197  14.929  69.965  1.00  0.00    -0.193 F  
HETATM   39  C   UNL     1     -12.202  15.473  71.144  1.00  0.00    -0.396 C  
HETATM   40  F   UNL     1     -10.850  17.001  69.913  1.00  0.00    -0.322 F  
HETATM   41  F   UNL     1     -13.489  15.234  70.813  1.00  0.00    -0.443 F  
HETATM   42  F   UNL     1     -11.762  14.416  71.866  1.00  0.00    -0.350 F  
HETATM   43  F   UNL     1     -12.207  16.540  71.982  1.00  0.00    -0.475 F  
ENDBRANCH  36  37
ENDBRANCH  35  36
ENDBRANCH  34  35
ENDBRANCH  32  34
ENDBRANCH  31  32
ENDBRANCH  30  31
ENDBRANCH  29  30
ENDBRANCH  28  29
ENDBRANCH  27  28
ENDBRANCH  26  27
ENDBRANCH  25  26
ENDBRANCH  24  25
ENDBRANCH  23  24
ENDBRANCH  21  23
TORSDOF 14
ENDMDL
MODEL      159
REMARK 921   NORMALIZED FREE ENERGY PREDICTED BY IDOCK:   -4.49 KCAL/MOL
REMARK 922        TOTAL FREE ENERGY PREDICTED BY IDOCK:  -11.46 KCAL/MOL
REMARK 923 INTER-LIGAND FREE ENERGY PREDICTED BY IDOCK:   -8.55 KCAL/MOL
REMARK 924 INTRA-LIGAND FREE ENERGY PREDICTED BY IDOCK:   -2.91 KCAL/MOL
REMARK 927      BINDING AFFINITY PREDICTED BY RF-SCORE:    0.00 PKD
ROOT
HETATM    1  C   UNL     1      -8.004   9.404  66.465  1.00  0.00    -0.108 C  
HETATM    2  C   UNL     1      -6.592   9.454  66.640  1.00  0.00    -0.068 C  
HETATM    3  C   UNL     1      -7.108   8.063  66.888  1.00  0.00    -0.081 C  
HETATM    4  C   UNL     1      -9.019   7.918  66.214  1.00  0.00    -0.171 C  
HETATM    5  O   UNL     1      -9.968   6.898  65.882  1.00  0.00    -0.322 OA 
HETATM    6  C   UNL     1      -7.977   7.880  65.321  1.00  0.00    -0.126 C  
HETATM    7  C   UNL     1      -7.826   6.162  65.968  1.00  0.00    -0.106 C  
HETATM    8  C   UNL     1      -7.946   8.100  63.851  1.00  0.00    -0.138 C  
HETATM    9  H   UNL     1     -10.862   6.830  65.567  1.00  0.00     0.000 HD 
HETATM   10  C   UNL     1      -8.503   5.995  67.612  1.00  0.00    -0.107 C  
HETATM   11  C   UNL     1      -8.720   7.312  68.682  1.00  0.00    -0.127 C  
HETATM   12  C   UNL     1      -9.583   7.120  69.935  1.00  0.00    -0.163 A  
HETATM   13  C   UNL     1      -9.822   5.828  70.440  1.00  0.00    -0.241 A  
HETATM   14  C   UNL     1     -10.426   5.631  71.686  1.00  0.00    -0.286 A  
HETATM   15  C   UNL     1     -10.808   6.729  72.440  1.00  0.00    -0.238 A  
HETATM   16  C   UNL     1     -10.578   8.016  71.974  1.00  0.00    -0.310 A  
HETATM   17  O   UNL     1     -11.396   6.591  73.662  1.00  0.00    -0.365 OA 
HETATM   18  C   UNL     1      -9.933   8.232  70.741  1.00  0.00    -0.217 A  
HETATM   19  H   UNL     1     -11.658   7.343  74.179  1.00  0.00     0.000 HD 
HETATM   20  C   UNL     1      -9.655   9.673  70.351  1.00  0.00    -0.292 C  
HETATM   21  C   UNL     1      -8.500   9.890  69.345  1.00  0.00    -0.169 C  
HETATM   22  C   UNL     1      -8.822   8.982  68.134  1.00  0.00    -0.133 C  
ENDROOT
BRANCH  21  23
HETATM   23  C   UNL     1      -7.131   9.593  69.991  1.00  0.00    -0.104 C  
BRANCH  23  24
HETATM   24  C   UNL     1      -6.158  10.754  70.078  1.00  0.00    -0.107 C  
BRANCH  24  25
HETATM   25  C   UNL     1      -6.769  12.016  69.450  1.00  0.00    -0.070 C  
BRANCH  25  26
HETATM   26  C   UNL     1      -5.849  13.249  69.466  1.00  0.00    -0.100 C  
BRANCH  26  27
HETATM   27  C   UNL     1      -6.596  14.582  69.492  1.00  0.00    -0.143 C  
BRANCH  27  28
HETATM   28  C   UNL     1      -6.511  15.306  68.147  1.00  0.00    -0.133 C  
BRANCH  28  29
HETATM   29  C   UNL     1      -6.088  16.771  68.274  1.00  0.00    -0.132 C  
BRANCH  29  30
HETATM   30  C   UNL     1      -7.065  17.785  67.657  1.00  0.00    -0.194 C  
BRANCH  30  31
HETATM   31  C   UNL     1      -7.622  18.823  68.621  1.00  0.00    -0.326 C  
BRANCH  31  32
HETATM   32  S   UNL     1      -9.322  19.321  68.192  1.00  0.00    -0.359 S  
HETATM   33  O   UNL     1      -9.386  19.444  66.698  1.00  0.00    -0.315 OA 
BRANCH  32  34
HETATM   34  C   UNL     1     -10.151  17.762  68.637  1.00  0.00    -0.384 C  
BRANCH  34  35
HETATM   35  C   UNL     1     -10.737  17.060  67.417  1.00  0.00    -0.240 C  
BRANCH  35  36
HETATM   36  C   UNL     1     -10.082  15.699  67.184  1.00  0.00    -0.256 C  
BRANCH  36  37
HETATM   37  C   UNL     1     -10.688  14.582  68.032  1.00  0.00    -0.242 C  
HETATM   38  F   UNL     1      -9.950  14.458  69.172  1.00  0.00    -0.222 F  
HETATM   39  C   UNL     1     -10.806  13.233  67.308  1.00  0.00    -0.264 C  
HETATM   40  F   UNL     1     -11.920  15.009  68.440  1.00  0.00    -0.331 F  
HETATM   41  F   UNL     1     -10.481  13.314  66.000  1.00  0.00    -0.267 F  
HETATM   42  F   UNL     1      -9.999  12.304  67.874  1.00  0.00    -0.182 F  
HETATM   43  F   UNL     1     -12.068  12.738  67.367  1.00  0.00    -0.412 F  
ENDBRANCH  36  37
ENDBRANCH  35  36
ENDBRANCH  34  35
ENDBRANCH  32  34
ENDBRANCH  31  32
ENDBRANCH  30  31
ENDBRANCH  29  30
ENDBRANCH  28  29
ENDBRANCH  27  28
ENDBRANCH  26  27
ENDBRANCH  25  26
ENDBRANCH  24  25
ENDBRANCH  23  24
ENDBRANCH  21  23
TORSDOF 14
ENDMDL
MODEL      160
REMARK 921   NORMALIZED FREE ENERGY PREDICTED BY IDOCK:   -4.49 KCAL/MOL
REMARK 922        TOTAL FREE ENERGY PREDICTED BY IDOCK:  -11.45 KCAL/MOL
REMARK 923 INTER-LIGAND FREE ENERGY PREDICTED BY IDOCK:   -7.96 KCAL/MOL
REMARK 924 INTRA-LIGAND FREE ENERGY PREDICTED BY IDOCK:   -3.49 KCAL/MOL
REMARK 927      BINDING AFFINITY PREDICTED BY RF-SCORE:    0.00 PKD
ROOT
HETATM    1  C   UNL     1      -9.727   7.109  66.303  1.00  0.00    -0.059 C  
HETATM    2  C   UNL     1     -10.156   8.412  66.681  1.00  0.00    -0.358 C  
HETATM    3  C   UNL     1      -8.745   8.165  67.141  1.00  0.00    -0.130 C  
HETATM    4  C   UNL     1      -8.014   6.505  66.225  1.00  0.00    -0.111 C  
HETATM    5  O   UNL     1      -6.749   5.883  65.977  1.00  0.00    -0.055 OA 
HETATM    6  C   UNL     1      -8.083   7.691  65.534  1.00  0.00    -0.130 C  
HETATM    7  C   UNL     1      -6.596   8.070  66.553  1.00  0.00    -0.055 C  
HETATM    8  C   UNL     1      -8.045   7.971  64.075  1.00  0.00    -0.102 C  
HETATM    9  H   UNL     1      -6.407   5.107  65.549  1.00  0.00     0.000 HD 
HETATM   10  C   UNL     1      -6.553   7.125  68.068  1.00  0.00    -0.049 C  
HETATM   11  C   UNL     1      -7.939   6.421  68.781  1.00  0.00    -0.110 C  
HETATM   12  C   UNL     1      -7.759   5.384  69.896  1.00  0.00    -0.080 A  
HETATM   13  C   UNL     1      -6.556   5.328  70.624  1.00  0.00    -0.038 A  
HETATM   14  C   UNL     1      -6.434   4.540  71.774  1.00  0.00    -0.022 A  
HETATM   15  C   UNL     1      -7.516   3.789  72.203  1.00  0.00    -0.057 A  
HETATM   16  C   UNL     1      -8.719   3.829  71.512  1.00  0.00    -0.128 A  
HETATM   17  O   UNL     1      -7.450   3.008  73.320  1.00  0.00    -0.048 OA 
HETATM   18  C   UNL     1      -8.871   4.649  70.378  1.00  0.00    -0.137 A  
HETATM   19  H   UNL     1      -8.191   2.493  73.614  1.00  0.00     0.000 HD 
HETATM   20  C   UNL     1     -10.246   4.687  69.733  1.00  0.00    -0.139 C  
HETATM   21  C   UNL     1     -10.566   5.949  68.896  1.00  0.00    -0.357 C  
HETATM   22  C   UNL     1      -9.410   6.079  67.876  1.00  0.00    -0.110 C  
ENDROOT
BRANCH  21  23
HETATM   23  C   UNL     1     -10.735   7.189  69.797  1.00  0.00    -0.257 C  
BRANCH  23  24
HETATM   24  C   UNL     1     -11.172   6.931  71.227  1.00  0.00    -0.306 C  
BRANCH  24  25
HETATM   25  C   UNL     1     -11.137   8.232  72.043  1.00  0.00    -0.379 C  
BRANCH  25  26
HETATM   26  C   UNL     1      -9.958   8.341  73.025  1.00  0.00    -0.220 C  
BRANCH  26  27
HETATM   27  C   UNL     1      -8.681   7.653  72.543  1.00  0.00    -0.176 C  
BRANCH  27  28
HETATM   28  C   UNL     1      -7.641   8.663  72.055  1.00  0.00    -0.084 C  
BRANCH  28  29
HETATM   29  C   UNL     1      -7.920   9.187  70.645  1.00  0.00    -0.177 C  
BRANCH  29  30
HETATM   30  C   UNL     1      -7.033  10.361  70.201  1.00  0.00    -0.146 C  
BRANCH  30  31
HETATM   31  C   UNL     1      -7.256  10.844  68.775  1.00  0.00    -0.091 C  
BRANCH  31  32
HETATM   32  S   UNL     1      -6.849  12.609  68.572  1.00  0.00    -0.097 S  
HETATM   33  O   UNL     1      -6.040  12.736  67.315  1.00  0.00    -0.241 OA 
BRANCH  32  34
HETATM   34  C   UNL     1      -8.528  13.203  68.192  1.00  0.00    -0.173 C  
BRANCH  34  35
HETATM   35  C   UNL     1      -9.056  12.621  66.885  1.00  0.00    -0.218 C  
BRANCH  35  36
HETATM   36  C   UNL     1      -9.974  13.605  66.162  1.00  0.00    -0.314 C  
BRANCH  36  37
HETATM   37  C   UNL     1     -11.454  13.250  66.280  1.00  0.00    -0.325 C  
HETATM   38  F   UNL     1     -11.557  11.919  66.563  1.00  0.00    -0.374 F  
HETATM   39  C   UNL     1     -12.292  13.611  65.044  1.00  0.00    -0.427 C  
HETATM   40  F   UNL     1     -11.937  13.894  67.383  1.00  0.00    -0.367 F  
HETATM   41  F   UNL     1     -11.590  14.311  64.127  1.00  0.00    -0.374 F  
HETATM   42  F   UNL     1     -12.767  12.499  64.435  1.00  0.00    -0.505 F  
HETATM   43  F   UNL     1     -13.370  14.367  65.369  1.00  0.00    -0.436 F  
ENDBRANCH  36  37
ENDBRANCH  35  36
ENDBRANCH  34  35
ENDBRANCH  32  34
ENDBRANCH  31  32
ENDBRANCH  30  31
ENDBRANCH  29  30
ENDBRANCH  28  29
ENDBRANCH  27  28
ENDBRANCH  26  27
ENDBRANCH  25  26
ENDBRANCH  24  25
ENDBRANCH  23  24
ENDBRANCH  21  23
TORSDOF 14
ENDMDL
MODEL      161
REMARK 921   NORMALIZED FREE ENERGY PREDICTED BY IDOCK:   -4.47 KCAL/MOL
REMARK 922        TOTAL FREE ENERGY PREDICTED BY IDOCK:  -11.43 KCAL/MOL
REMARK 923 INTER-LIGAND FREE ENERGY PREDICTED BY IDOCK:   -9.32 KCAL/MOL
REMARK 924 INTRA-LIGAND FREE ENERGY PREDICTED BY IDOCK:   -2.11 KCAL/MOL
REMARK 927      BINDING AFFINITY PREDICTED BY RF-SCORE:    0.00 PKD
ROOT
HETATM    1  C   UNL     1      -9.051   8.247  70.768  1.00  0.00    -0.168 C  
HETATM    2  C   UNL     1      -9.557   9.520  70.383  1.00  0.00    -0.326 C  
HETATM    3  C   UNL     1     -10.426   8.419  69.839  1.00  0.00    -0.222 C  
HETATM    4  C   UNL     1      -9.950   6.667  70.751  1.00  0.00    -0.184 C  
HETATM    5  O   UNL     1     -10.511   5.362  70.932  1.00  0.00    -0.239 OA 
HETATM    6  C   UNL     1     -10.722   7.592  71.411  1.00  0.00    -0.243 C  
HETATM    7  C   UNL     1     -12.020   6.926  70.287  1.00  0.00    -0.257 C  
HETATM    8  C   UNL     1     -11.033   7.746  72.857  1.00  0.00    -0.467 C  
HETATM    9  H   UNL     1     -10.289   4.543  71.358  1.00  0.00     0.000 HD 
HETATM   10  C   UNL     1     -11.331   6.218  68.800  1.00  0.00    -0.224 C  
HETATM   11  C   UNL     1      -9.779   6.611  68.198  1.00  0.00    -0.130 C  
HETATM   12  C   UNL     1      -9.159   5.734  67.103  1.00  0.00    -0.112 A  
HETATM   13  C   UNL     1      -9.979   4.919  66.300  1.00  0.00    -0.256 A  
HETATM   14  C   UNL     1      -9.477   4.270  65.167  1.00  0.00    -0.172 A  
HETATM   15  C   UNL     1      -8.141   4.422  64.830  1.00  0.00    -0.099 A  
HETATM   16  C   UNL     1      -7.310   5.225  65.597  1.00  0.00    -0.076 A  
HETATM   17  O   UNL     1      -7.604   3.814  63.733  1.00  0.00    -0.068 OA 
HETATM   18  C   UNL     1      -7.809   5.919  66.716  1.00  0.00    -0.101 A  
HETATM   19  H   UNL     1      -6.689   3.917  63.502  1.00  0.00     0.000 HD 
HETATM   20  C   UNL     1      -6.842   6.834  67.447  1.00  0.00    -0.073 C  
HETATM   21  C   UNL     1      -7.485   7.978  68.269  1.00  0.00    -0.100 C  
HETATM   22  C   UNL     1      -8.509   7.297  69.207  1.00  0.00    -0.133 C  
ENDROOT
BRANCH  21  23
HETATM   23  C   UNL     1      -8.109   9.045  67.347  1.00  0.00    -0.108 C  
BRANCH  23  24
HETATM   24  C   UNL     1      -7.165  10.096  66.793  1.00  0.00    -0.093 C  
BRANCH  24  25
HETATM   25  C   UNL     1      -6.882   9.836  65.306  1.00  0.00    -0.103 C  
BRANCH  25  26
HETATM   26  C   UNL     1      -8.051   9.203  64.532  1.00  0.00    -0.139 C  
BRANCH  26  27
HETATM   27  C   UNL     1      -8.830  10.191  63.664  1.00  0.00    -0.240 C  
BRANCH  27  28
HETATM   28  C   UNL     1     -10.056  10.743  64.393  1.00  0.00    -0.419 C  
BRANCH  28  29
HETATM   29  C   UNL     1     -10.763  11.864  63.627  1.00  0.00    -0.502 C  
BRANCH  29  30
HETATM   30  C   UNL     1     -12.017  12.429  64.313  1.00  0.00    -0.489 C  
BRANCH  30  31
HETATM   31  C   UNL     1     -11.998  12.399  65.834  1.00  0.00    -0.367 C  
BRANCH  31  32
HETATM   32  S   UNL     1     -12.265  14.049  66.561  1.00  0.00    -0.398 S  
HETATM   33  O   UNL     1     -11.931  13.951  68.021  1.00  0.00    -0.361 OA 
BRANCH  32  34
HETATM   34  C   UNL     1     -10.875  14.899  65.749  1.00  0.00    -0.339 C  
BRANCH  34  35
HETATM   35  C   UNL     1      -9.532  14.284  66.126  1.00  0.00    -0.250 C  
BRANCH  35  36
HETATM   36  C   UNL     1      -8.889  15.016  67.304  1.00  0.00    -0.216 C  
BRANCH  36  37
HETATM   37  C   UNL     1      -8.075  16.238  66.885  1.00  0.00    -0.235 C  
HETATM   38  F   UNL     1      -6.757  15.885  66.848  1.00  0.00    -0.222 F  
HETATM   39  C   UNL     1      -8.284  17.472  67.775  1.00  0.00    -0.219 C  
HETATM   40  F   UNL     1      -8.412  16.524  65.593  1.00  0.00    -0.268 F  
HETATM   41  F   UNL     1      -9.265  17.295  68.687  1.00  0.00    -0.247 F  
HETATM   42  F   UNL     1      -7.152  17.787  68.447  1.00  0.00    -0.203 F  
HETATM   43  F   UNL     1      -8.622  18.566  67.047  1.00  0.00    -0.251 F  
ENDBRANCH  36  37
ENDBRANCH  35  36
ENDBRANCH  34  35
ENDBRANCH  32  34
ENDBRANCH  31  32
ENDBRANCH  30  31
ENDBRANCH  29  30
ENDBRANCH  28  29
ENDBRANCH  27  28
ENDBRANCH  26  27
ENDBRANCH  25  26
ENDBRANCH  24  25
ENDBRANCH  23  24
ENDBRANCH  21  23
TORSDOF 14
ENDMDL
MODEL      162
REMARK 921   NORMALIZED FREE ENERGY PREDICTED BY IDOCK:   -4.46 KCAL/MOL
REMARK 922        TOTAL FREE ENERGY PREDICTED BY IDOCK:  -11.41 KCAL/MOL
REMARK 923 INTER-LIGAND FREE ENERGY PREDICTED BY IDOCK:   -9.17 KCAL/MOL
REMARK 924 INTRA-LIGAND FREE ENERGY PREDICTED BY IDOCK:   -2.24 KCAL/MOL
REMARK 927      BINDING AFFINITY PREDICTED BY RF-SCORE:    0.00 PKD
ROOT
HETATM    1  C   UNL     1     -10.400   4.704  70.958  1.00  0.00    -0.143 C  
HETATM    2  C   UNL     1      -9.091   4.146  70.994  1.00  0.00    -0.178 C  
HETATM    3  C   UNL     1      -9.061   5.596  71.395  1.00  0.00    -0.152 C  
HETATM    4  C   UNL     1     -10.953   6.238  71.759  1.00  0.00    -0.258 C  
HETATM    5  O   UNL     1     -11.612   7.332  72.408  1.00  0.00    -0.279 OA 
HETATM    6  C   UNL     1     -10.299   5.477  72.697  1.00  0.00    -0.238 C  
HETATM    7  C   UNL     1      -9.443   7.076  73.018  1.00  0.00    -0.177 C  
HETATM    8  C   UNL     1     -10.818   4.695  73.850  1.00  0.00    -0.359 C  
HETATM    9  H   UNL     1     -12.496   7.632  72.579  1.00  0.00     0.000 HD 
HETATM   10  C   UNL     1      -9.463   8.154  71.595  1.00  0.00    -0.233 C  
HETATM   11  C   UNL     1      -9.697   7.599  69.994  1.00  0.00    -0.172 C  
HETATM   12  C   UNL     1     -10.004   8.617  68.889  1.00  0.00    -0.197 A  
HETATM   13  C   UNL     1      -9.671   9.973  69.063  1.00  0.00    -0.204 A  
HETATM   14  C   UNL     1      -9.746  10.885  68.004  1.00  0.00    -0.176 A  
HETATM   15  C   UNL     1     -10.167  10.450  66.758  1.00  0.00    -0.226 A  
HETATM   16  C   UNL     1     -10.494   9.118  66.552  1.00  0.00    -0.197 A  
HETATM   17  O   UNL     1     -10.254  11.298  65.694  1.00  0.00    -0.235 OA 
HETATM   18  C   UNL     1     -10.384   8.178  67.596  1.00  0.00    -0.313 A  
HETATM   19  H   UNL     1     -10.543  11.000  64.839  1.00  0.00     0.000 HD 
HETATM   20  C   UNL     1     -10.689   6.730  67.255  1.00  0.00    -0.423 C  
HETATM   21  C   UNL     1     -10.046   5.669  68.180  1.00  0.00    -0.212 C  
HETATM   22  C   UNL     1     -10.462   6.058  69.619  1.00  0.00    -0.325 C  
ENDROOT
BRANCH  21  23
HETATM   23  C   UNL     1      -8.518   5.602  67.978  1.00  0.00    -0.102 C  
BRANCH  23  24
HETATM   24  C   UNL     1      -7.997   6.039  66.622  1.00  0.00    -0.102 C  
BRANCH  24  25
HETATM   25  C   UNL     1      -6.791   6.977  66.786  1.00  0.00    -0.068 C  
BRANCH  25  26
HETATM   26  C   UNL     1      -6.947   8.347  66.104  1.00  0.00    -0.072 C  
BRANCH  26  27
HETATM   27  C   UNL     1      -6.553   9.530  66.988  1.00  0.00    -0.068 C  
BRANCH  27  28
HETATM   28  C   UNL     1      -6.565  10.847  66.210  1.00  0.00    -0.126 C  
BRANCH  28  29
HETATM   29  C   UNL     1      -5.655  11.917  66.817  1.00  0.00    -0.059 C  
BRANCH  29  30
HETATM   30  C   UNL     1      -6.303  12.775  67.915  1.00  0.00    -0.118 C  
BRANCH  30  31
HETATM   31  C   UNL     1      -5.627  14.113  68.181  1.00  0.00    -0.123 C  
BRANCH  31  32
HETATM   32  S   UNL     1      -6.831  15.464  68.399  1.00  0.00    -0.122 S  
HETATM   33  O   UNL     1      -6.424  16.229  69.624  1.00  0.00    -0.196 OA 
BRANCH  32  34
HETATM   34  C   UNL     1      -6.339  16.461  66.957  1.00  0.00    -0.141 C  
BRANCH  34  35
HETATM   35  C   UNL     1      -7.456  17.392  66.500  1.00  0.00    -0.315 C  
BRANCH  35  36
HETATM   36  C   UNL     1      -8.636  17.374  67.471  1.00  0.00    -0.221 C  
BRANCH  36  37
HETATM   37  C   UNL     1      -8.896  18.725  68.133  1.00  0.00    -0.306 C  
HETATM   38  F   UNL     1      -9.900  18.573  69.044  1.00  0.00    -0.364 F  
HETATM   39  C   UNL     1      -9.221  19.859  67.148  1.00  0.00    -0.357 C  
HETATM   40  F   UNL     1      -7.785  19.038  68.864  1.00  0.00    -0.341 F  
HETATM   41  F   UNL     1      -9.077  19.485  65.859  1.00  0.00    -0.351 F  
HETATM   42  F   UNL     1     -10.493  20.295  67.309  1.00  0.00    -0.525 F  
HETATM   43  F   UNL     1      -8.415  20.934  67.334  1.00  0.00    -0.399 F  
ENDBRANCH  36  37
ENDBRANCH  35  36
ENDBRANCH  34  35
ENDBRANCH  32  34
ENDBRANCH  31  32
ENDBRANCH  30  31
ENDBRANCH  29  30
ENDBRANCH  28  29
ENDBRANCH  27  28
ENDBRANCH  26  27
ENDBRANCH  25  26
ENDBRANCH  24  25
ENDBRANCH  23  24
ENDBRANCH  21  23
TORSDOF 14
ENDMDL
MODEL      163
REMARK 921   NORMALIZED FREE ENERGY PREDICTED BY IDOCK:   -4.43 KCAL/MOL
REMARK 922        TOTAL FREE ENERGY PREDICTED BY IDOCK:  -11.34 KCAL/MOL
REMARK 923 INTER-LIGAND FREE ENERGY PREDICTED BY IDOCK:  -10.89 KCAL/MOL
REMARK 924 INTRA-LIGAND FREE ENERGY PREDICTED BY IDOCK:   -0.45 KCAL/MOL
REMARK 927      BINDING AFFINITY PREDICTED BY RF-SCORE:    0.00 PKD
ROOT
HETATM    1  C   UNL     1      -9.245  14.333  67.390  1.00  0.00    -0.200 C  
HETATM    2  C   UNL     1      -9.950  14.375  66.154  1.00  0.00    -0.328 C  
HETATM    3  C   UNL     1     -10.901  14.514  67.312  1.00  0.00    -0.297 C  
HETATM    4  C   UNL     1      -9.853  14.890  69.010  1.00  0.00    -0.220 C  
HETATM    5  O   UNL     1     -10.090  15.381  70.334  1.00  0.00    -0.439 OA 
HETATM    6  C   UNL     1     -10.066  15.899  68.103  1.00  0.00    -0.229 C  
HETATM    7  C   UNL     1     -11.743  15.875  68.864  1.00  0.00    -0.376 C  
HETATM    8  C   UNL     1      -9.379  17.204  67.919  1.00  0.00    -0.249 C  
HETATM    9  H   UNL     1      -9.600  15.557  71.128  1.00  0.00     0.000 HD 
HETATM   10  C   UNL     1     -12.139  14.290  69.584  1.00  0.00    -0.396 C  
HETATM   11  C   UNL     1     -11.366  12.830  69.137  1.00  0.00    -0.337 C  
HETATM   12  C   UNL     1     -11.552  11.588  70.017  1.00  0.00    -0.364 A  
HETATM   13  C   UNL     1     -12.650  11.499  70.893  1.00  0.00    -0.438 A  
HETATM   14  C   UNL     1     -12.962  10.305  71.552  1.00  0.00    -0.556 A  
HETATM   15  C   UNL     1     -12.170   9.186  71.348  1.00  0.00    -0.335 A  
HETATM   16  C   UNL     1     -11.087   9.240  70.484  1.00  0.00    -0.317 A  
HETATM   17  O   UNL     1     -12.435   7.998  71.964  1.00  0.00    -0.308 OA 
HETATM   18  C   UNL     1     -10.783  10.421  69.780  1.00  0.00    -0.325 A  
HETATM   19  H   UNL     1     -11.893   7.231  71.825  1.00  0.00     0.000 HD 
HETATM   20  C   UNL     1      -9.626  10.362  68.798  1.00  0.00    -0.178 C  
HETATM   21  C   UNL     1      -9.650  11.412  67.662  1.00  0.00    -0.176 C  
HETATM   22  C   UNL     1      -9.786  12.785  68.361  1.00  0.00    -0.196 C  
ENDROOT
BRANCH  21  23
HETATM   23  C   UNL     1     -10.780  11.119  66.654  1.00  0.00    -0.322 C  
BRANCH  23  24
HETATM   24  C   UNL     1     -11.564  12.317  66.150  1.00  0.00    -0.450 C  
BRANCH  24  25
HETATM   25  C   UNL     1     -12.193  12.012  64.782  1.00  0.00    -0.236 C  
BRANCH  25  26
HETATM   26  C   UNL     1     -11.476  12.666  63.588  1.00  0.00    -0.563 C  
BRANCH  26  27
HETATM   27  C   UNL     1     -10.050  12.162  63.366  1.00  0.00    -0.383 C  
BRANCH  27  28
HETATM   28  C   UNL     1     -10.018  10.661  63.073  1.00  0.00    -0.239 C  
BRANCH  28  29
HETATM   29  C   UNL     1      -8.632  10.153  62.670  1.00  0.00    -0.200 C  
BRANCH  29  30
HETATM   30  C   UNL     1      -7.609  10.078  63.814  1.00  0.00    -0.141 C  
BRANCH  30  31
HETATM   31  C   UNL     1      -7.881   9.011  64.864  1.00  0.00    -0.119 C  
BRANCH  31  32
HETATM   32  S   UNL     1      -6.350   8.398  65.640  1.00  0.00    -0.052 S  
HETATM   33  O   UNL     1      -5.352   9.519  65.599  1.00  0.00    -0.042 OA 
BRANCH  32  34
HETATM   34  C   UNL     1      -6.969   8.293  67.349  1.00  0.00    -0.075 C  
BRANCH  34  35
HETATM   35  C   UNL     1      -7.664   6.964  67.623  1.00  0.00    -0.111 C  
BRANCH  35  36
HETATM   36  C   UNL     1      -8.380   6.972  68.973  1.00  0.00    -0.126 C  
BRANCH  36  37
HETATM   37  C   UNL     1      -9.497   5.935  69.071  1.00  0.00    -0.127 C  
HETATM   38  F   UNL     1      -8.982   4.715  68.746  1.00  0.00    -0.105 F  
HETATM   39  C   UNL     1     -10.732   6.253  68.214  1.00  0.00    -0.288 C  
HETATM   40  F   UNL     1      -9.846   5.843  70.389  1.00  0.00    -0.185 F  
HETATM   41  F   UNL     1     -10.663   7.471  67.636  1.00  0.00    -0.285 F  
HETATM   42  F   UNL     1     -10.889   5.338  67.229  1.00  0.00    -0.265 F  
HETATM   43  F   UNL     1     -11.873   6.233  68.948  1.00  0.00    -0.310 F  
ENDBRANCH  36  37
ENDBRANCH  35  36
ENDBRANCH  34  35
ENDBRANCH  32  34
ENDBRANCH  31  32
ENDBRANCH  30  31
ENDBRANCH  29  30
ENDBRANCH  28  29
ENDBRANCH  27  28
ENDBRANCH  26  27
ENDBRANCH  25  26
ENDBRANCH  24  25
ENDBRANCH  23  24
ENDBRANCH  21  23
TORSDOF 14
ENDMDL
MODEL      164
REMARK 921   NORMALIZED FREE ENERGY PREDICTED BY IDOCK:   -4.41 KCAL/MOL
REMARK 922        TOTAL FREE ENERGY PREDICTED BY IDOCK:  -11.31 KCAL/MOL
REMARK 923 INTER-LIGAND FREE ENERGY PREDICTED BY IDOCK:   -9.02 KCAL/MOL
REMARK 924 INTRA-LIGAND FREE ENERGY PREDICTED BY IDOCK:   -2.29 KCAL/MOL
REMARK 927      BINDING AFFINITY PREDICTED BY RF-SCORE:    0.00 PKD
ROOT
HETATM    1  C   UNL     1      -9.034   9.289  68.426  1.00  0.00    -0.129 C  
HETATM    2  C   UNL     1      -7.665   9.384  68.047  1.00  0.00    -0.084 C  
HETATM    3  C   UNL     1      -8.212   8.021  67.720  1.00  0.00    -0.129 C  
HETATM    4  C   UNL     1     -10.238   8.052  67.859  1.00  0.00    -0.212 C  
HETATM    5  O   UNL     1     -11.357   7.261  67.443  1.00  0.00    -0.537 OA 
HETATM    6  C   UNL     1      -9.622   8.588  66.754  1.00  0.00    -0.273 C  
HETATM    7  C   UNL     1      -9.444   6.809  66.312  1.00  0.00    -0.116 C  
HETATM    8  C   UNL     1     -10.121   9.538  65.725  1.00  0.00    -0.223 C  
HETATM    9  H   UNL     1     -12.304   7.275  67.507  1.00  0.00     0.000 HD 
HETATM   10  C   UNL     1      -9.467   5.747  67.748  1.00  0.00    -0.116 C  
HETATM   11  C   UNL     1      -9.106   6.291  69.329  1.00  0.00    -0.134 C  
HETATM   12  C   UNL     1      -9.449   5.392  70.523  1.00  0.00    -0.215 A  
HETATM   13  C   UNL     1      -9.633   4.009  70.339  1.00  0.00    -0.265 A  
HETATM   14  C   UNL     1      -9.741   3.136  71.427  1.00  0.00    -0.219 A  
HETATM   15  C   UNL     1      -9.677   3.640  72.716  1.00  0.00    -0.140 A  
HETATM   16  C   UNL     1      -9.487   4.998  72.930  1.00  0.00    -0.153 A  
HETATM   17  O   UNL     1      -9.773   2.831  73.809  1.00  0.00    -0.093 OA 
HETATM   18  C   UNL     1      -9.334   5.884  71.847  1.00  0.00    -0.163 A  
HETATM   19  H   UNL     1      -9.729   3.176  74.692  1.00  0.00     0.000 HD 
HETATM   20  C   UNL     1      -9.054   7.339  72.182  1.00  0.00    -0.149 C  
HETATM   21  C   UNL     1      -8.346   8.162  71.078  1.00  0.00    -0.129 C  
HETATM   22  C   UNL     1      -9.206   7.983  69.804  1.00  0.00    -0.149 C  
ENDROOT
BRANCH  21  23
HETATM   23  C   UNL     1      -6.881   7.714  70.899  1.00  0.00    -0.042 C  
BRANCH  23  24
HETATM   24  C   UNL     1      -5.821   8.789  71.059  1.00  0.00    -0.039 C  
BRANCH  24  25
HETATM   25  C   UNL     1      -6.440  10.184  70.883  1.00  0.00     0.033 C  
BRANCH  25  26
HETATM   26  C   UNL     1      -5.423  11.338  70.865  1.00  0.00    -0.103 C  
BRANCH  26  27
HETATM   27  C   UNL     1      -5.942  12.615  70.205  1.00  0.00    -0.138 C  
BRANCH  27  28
HETATM   28  C   UNL     1      -5.867  12.536  68.679  1.00  0.00    -0.059 C  
BRANCH  28  29
HETATM   29  C   UNL     1      -6.861  13.463  67.975  1.00  0.00    -0.132 C  
BRANCH  29  30
HETATM   30  C   UNL     1      -8.340  13.187  68.289  1.00  0.00    -0.152 C  
BRANCH  30  31
HETATM   31  C   UNL     1      -9.156  12.618  67.137  1.00  0.00    -0.210 C  
BRANCH  31  32
HETATM   32  S   UNL     1     -10.950  12.789  67.411  1.00  0.00    -0.263 S  
HETATM   33  O   UNL     1     -11.342  11.767  68.436  1.00  0.00    -0.224 OA 
BRANCH  32  34
HETATM   34  C   UNL     1     -10.913  14.405  68.251  1.00  0.00    -0.247 C  
BRANCH  34  35
HETATM   35  C   UNL     1     -12.087  14.575  69.209  1.00  0.00    -0.325 C  
BRANCH  35  36
HETATM   36  C   UNL     1     -11.619  14.653  70.662  1.00  0.00    -0.305 C  
BRANCH  36  37
HETATM   37  C   UNL     1     -12.749  14.462  71.672  1.00  0.00    -0.344 C  
HETATM   38  F   UNL     1     -13.939  14.583  71.016  1.00  0.00    -0.409 F  
HETATM   39  C   UNL     1     -12.689  15.415  72.875  1.00  0.00    -0.427 C  
HETATM   40  F   UNL     1     -12.697  13.163  72.094  1.00  0.00    -0.335 F  
HETATM   41  F   UNL     1     -11.562  16.158  72.893  1.00  0.00    -0.519 F  
HETATM   42  F   UNL     1     -13.742  16.266  72.875  1.00  0.00    -0.576 F  
HETATM   43  F   UNL     1     -12.732  14.743  74.053  1.00  0.00    -0.585 F  
ENDBRANCH  36  37
ENDBRANCH  35  36
ENDBRANCH  34  35
ENDBRANCH  32  34
ENDBRANCH  31  32
ENDBRANCH  30  31
ENDBRANCH  29  30
ENDBRANCH  28  29
ENDBRANCH  27  28
ENDBRANCH  26  27
ENDBRANCH  25  26
ENDBRANCH  24  25
ENDBRANCH  23  24
ENDBRANCH  21  23
TORSDOF 14
ENDMDL
MODEL      165
REMARK 921   NORMALIZED FREE ENERGY PREDICTED BY IDOCK:   -4.40 KCAL/MOL
REMARK 922        TOTAL FREE ENERGY PREDICTED BY IDOCK:  -11.29 KCAL/MOL
REMARK 923 INTER-LIGAND FREE ENERGY PREDICTED BY IDOCK:   -8.63 KCAL/MOL
REMARK 924 INTRA-LIGAND FREE ENERGY PREDICTED BY IDOCK:   -2.66 KCAL/MOL
REMARK 927      BINDING AFFINITY PREDICTED BY RF-SCORE:    0.00 PKD
ROOT
HETATM    1  C   UNL     1     -10.204   5.346  71.578  1.00  0.00    -0.280 C  
HETATM    2  C   UNL     1      -8.879   4.850  71.737  1.00  0.00    -0.141 C  
HETATM    3  C   UNL     1      -8.898   6.351  71.831  1.00  0.00    -0.138 C  
HETATM    4  C   UNL     1     -10.813   6.994  72.041  1.00  0.00    -0.223 C  
HETATM    5  O   UNL     1     -11.513   8.176  72.446  1.00  0.00    -0.345 OA 
HETATM    6  C   UNL     1     -10.150   6.464  73.121  1.00  0.00    -0.203 C  
HETATM    7  C   UNL     1      -9.346   8.121  73.111  1.00  0.00    -0.328 C  
HETATM    8  C   UNL     1     -10.660   5.921  74.407  1.00  0.00    -0.039 C  
HETATM    9  H   UNL     1     -12.408   8.477  72.545  1.00  0.00     0.000 HD 
HETATM   10  C   UNL     1      -9.379   8.881  71.495  1.00  0.00    -0.335 C  
HETATM   11  C   UNL     1      -9.574   8.001  70.041  1.00  0.00    -0.171 C  
HETATM   12  C   UNL     1      -9.897   8.759  68.748  1.00  0.00    -0.180 A  
HETATM   13  C   UNL     1      -9.606  10.132  68.641  1.00  0.00    -0.165 A  
HETATM   14  C   UNL     1      -9.695  10.803  67.416  1.00  0.00    -0.194 A  
HETATM   15  C   UNL     1     -10.086  10.107  66.284  1.00  0.00    -0.238 A  
HETATM   16  C   UNL     1     -10.370   8.751  66.355  1.00  0.00    -0.169 A  
HETATM   17  O   UNL     1     -10.183  10.714  65.066  1.00  0.00    -0.305 OA 
HETATM   18  C   UNL     1     -10.246   8.051  67.571  1.00  0.00    -0.311 A  
HETATM   19  H   UNL     1     -10.451  10.238  64.290  1.00  0.00     0.000 HD 
HETATM   20  C   UNL     1     -10.503   6.555  67.535  1.00  0.00    -0.297 C  
HETATM   21  C   UNL     1      -9.842   5.728  68.664  1.00  0.00    -0.178 C  
HETATM   22  C   UNL     1     -10.288   6.392  69.987  1.00  0.00    -0.245 C  
ENDROOT
BRANCH  21  23
HETATM   23  C   UNL     1      -8.310   5.670  68.490  1.00  0.00    -0.106 C  
BRANCH  23  24
HETATM   24  C   UNL     1      -7.752   6.260  67.208  1.00  0.00    -0.100 C  
BRANCH  24  25
HETATM   25  C   UNL     1      -6.507   7.110  67.504  1.00  0.00    -0.054 C  
BRANCH  25  26
HETATM   26  C   UNL     1      -6.481   8.476  66.796  1.00  0.00    -0.057 C  
BRANCH  26  27
HETATM   27  C   UNL     1      -6.264   9.661  67.737  1.00  0.00    -0.053 C  
BRANCH  27  28
HETATM   28  C   UNL     1      -6.196  10.985  66.975  1.00  0.00    -0.084 C  
BRANCH  28  29
HETATM   29  C   UNL     1      -5.772  12.166  67.850  1.00  0.00    -0.069 C  
BRANCH  29  30
HETATM   30  C   UNL     1      -6.888  12.758  68.727  1.00  0.00    -0.096 C  
BRANCH  30  31
HETATM   31  C   UNL     1      -7.220  14.219  68.461  1.00  0.00    -0.118 C  
BRANCH  31  32
HETATM   32  S   UNL     1      -9.004  14.485  68.198  1.00  0.00    -0.188 S  
HETATM   33  O   UNL     1      -9.294  15.919  68.532  1.00  0.00    -0.195 OA 
BRANCH  32  34
HETATM   34  C   UNL     1      -9.003  14.348  66.381  1.00  0.00    -0.088 C  
BRANCH  34  35
HETATM   35  C   UNL     1     -10.340  14.765  65.778  1.00  0.00    -0.358 C  
BRANCH  35  36
HETATM   36  C   UNL     1     -11.385  13.658  65.909  1.00  0.00    -0.317 C  
BRANCH  36  37
HETATM   37  C   UNL     1     -12.481  13.732  64.847  1.00  0.00    -0.386 C  
HETATM   38  F   UNL     1     -13.620  13.189  65.366  1.00  0.00    -0.002 F  
HETATM   39  C   UNL     1     -12.116  13.064  63.514  1.00  0.00    -0.542 C  
HETATM   40  F   UNL     1     -12.765  15.054  64.652  1.00  0.00    -0.359 F  
HETATM   41  F   UNL     1     -10.830  12.653  63.473  1.00  0.00    -0.416 F  
HETATM   42  F   UNL     1     -12.898  11.984  63.279  1.00  0.00    -0.657 F  
HETATM   43  F   UNL     1     -12.289  13.905  62.464  1.00  0.00     0.098 F  
ENDBRANCH  36  37
ENDBRANCH  35  36
ENDBRANCH  34  35
ENDBRANCH  32  34
ENDBRANCH  31  32
ENDBRANCH  30  31
ENDBRANCH  29  30
ENDBRANCH  28  29
ENDBRANCH  27  28
ENDBRANCH  26  27
ENDBRANCH  25  26
ENDBRANCH  24  25
ENDBRANCH  23  24
ENDBRANCH  21  23
TORSDOF 14
ENDMDL
MODEL      166
REMARK 921   NORMALIZED FREE ENERGY PREDICTED BY IDOCK:   -4.37 KCAL/MOL
REMARK 922        TOTAL FREE ENERGY PREDICTED BY IDOCK:  -11.24 KCAL/MOL
REMARK 923 INTER-LIGAND FREE ENERGY PREDICTED BY IDOCK:   -8.69 KCAL/MOL
REMARK 924 INTRA-LIGAND FREE ENERGY PREDICTED BY IDOCK:   -2.55 KCAL/MOL
REMARK 927      BINDING AFFINITY PREDICTED BY RF-SCORE:    0.00 PKD
ROOT
HETATM    1  C   UNL     1      -8.970  16.835  66.140  1.00  0.00    -0.295 C  
HETATM    2  C   UNL     1     -10.262  17.079  66.685  1.00  0.00    -0.310 C  
HETATM    3  C   UNL     1      -9.197  17.292  67.727  1.00  0.00    -0.239 C  
HETATM    4  C   UNL     1      -7.376  17.369  66.830  1.00  0.00    -0.215 C  
HETATM    5  O   UNL     1      -6.045  17.799  67.134  1.00  0.00    -0.137 OA 
HETATM    6  C   UNL     1      -8.208  18.461  66.778  1.00  0.00    -0.267 C  
HETATM    7  C   UNL     1      -7.624  18.662  68.513  1.00  0.00    -0.336 C  
HETATM    8  C   UNL     1      -8.208  19.643  65.878  1.00  0.00    -0.213 C  
HETATM    9  H   UNL     1      -5.193  17.835  66.715  1.00  0.00     0.000 HD 
HETATM   10  C   UNL     1      -7.088  17.118  69.232  1.00  0.00    -0.162 C  
HETATM   11  C   UNL     1      -7.582  15.586  68.653  1.00  0.00    -0.141 C  
HETATM   12  C   UNL     1      -6.837  14.333  69.130  1.00  0.00    -0.120 A  
HETATM   13  C   UNL     1      -6.085  14.366  70.320  1.00  0.00    -0.172 A  
HETATM   14  C   UNL     1      -5.567  13.197  70.888  1.00  0.00    -0.188 A  
HETATM   15  C   UNL     1      -5.788  11.979  70.265  1.00  0.00    -0.164 A  
HETATM   16  C   UNL     1      -6.533  11.913  69.096  1.00  0.00    -0.098 A  
HETATM   17  O   UNL     1      -5.308  10.811  70.780  1.00  0.00    -0.086 OA 
HETATM   18  C   UNL     1      -7.097  13.074  68.533  1.00  0.00    -0.105 A  
HETATM   19  H   UNL     1      -5.460   9.977  70.354  1.00  0.00     0.000 HD 
HETATM   20  C   UNL     1      -7.960  12.892  67.297  1.00  0.00    -0.151 C  
HETATM   21  C   UNL     1      -8.997  14.009  67.027  1.00  0.00    -0.248 C  
HETATM   22  C   UNL     1      -8.197  15.333  67.023  1.00  0.00    -0.267 C  
ENDROOT
BRANCH  21  23
HETATM   23  C   UNL     1     -10.134  13.979  68.068  1.00  0.00    -0.239 C  
BRANCH  23  24
HETATM   24  C   UNL     1     -11.513  13.610  67.553  1.00  0.00    -0.360 C  
BRANCH  24  25
HETATM   25  C   UNL     1     -11.452  13.251  66.061  1.00  0.00    -0.360 C  
BRANCH  25  26
HETATM   26  C   UNL     1     -11.488  11.742  65.763  1.00  0.00    -0.258 C  
BRANCH  26  27
HETATM   27  C   UNL     1     -10.185  11.191  65.184  1.00  0.00    -0.347 C  
BRANCH  27  28
HETATM   28  C   UNL     1      -9.954   9.735  65.590  1.00  0.00    -0.352 C  
BRANCH  28  29
HETATM   29  C   UNL     1      -8.981   9.580  66.761  1.00  0.00    -0.157 C  
BRANCH  29  30
HETATM   30  C   UNL     1      -9.634   9.228  68.107  1.00  0.00    -0.159 C  
BRANCH  30  31
HETATM   31  C   UNL     1     -10.215   7.825  68.203  1.00  0.00    -0.202 C  
BRANCH  31  32
HETATM   32  S   UNL     1     -10.503   7.313  69.928  1.00  0.00    -0.230 S  
HETATM   33  O   UNL     1     -11.799   6.556  69.957  1.00  0.00    -0.404 OA 
BRANCH  32  34
HETATM   34  C   UNL     1      -9.162   6.086  70.043  1.00  0.00    -0.149 C  
BRANCH  34  35
HETATM   35  C   UNL     1      -8.732   5.582  68.670  1.00  0.00    -0.108 C  
BRANCH  35  36
HETATM   36  C   UNL     1      -9.525   4.344  68.252  1.00  0.00    -0.210 C  
BRANCH  36  37
HETATM   37  C   UNL     1      -9.168   3.840  66.855  1.00  0.00    -0.179 C  
HETATM   38  F   UNL     1      -7.838   4.059  66.645  1.00  0.00    -0.089 F  
HETATM   39  C   UNL     1     -10.008   4.457  65.726  1.00  0.00    -0.239 C  
HETATM   40  F   UNL     1      -9.316   2.482  66.867  1.00  0.00    -0.169 F  
HETATM   41  F   UNL     1     -11.011   5.232  66.190  1.00  0.00    -0.329 F  
HETATM   42  F   UNL     1      -9.243   5.220  64.911  1.00  0.00    -0.146 F  
HETATM   43  F   UNL     1     -10.579   3.506  64.945  1.00  0.00    -0.090 F  
ENDBRANCH  36  37
ENDBRANCH  35  36
ENDBRANCH  34  35
ENDBRANCH  32  34
ENDBRANCH  31  32
ENDBRANCH  30  31
ENDBRANCH  29  30
ENDBRANCH  28  29
ENDBRANCH  27  28
ENDBRANCH  26  27
ENDBRANCH  25  26
ENDBRANCH  24  25
ENDBRANCH  23  24
ENDBRANCH  21  23
TORSDOF 14
ENDMDL
MODEL      167
REMARK 921   NORMALIZED FREE ENERGY PREDICTED BY IDOCK:   -4.37 KCAL/MOL
REMARK 922        TOTAL FREE ENERGY PREDICTED BY IDOCK:  -11.24 KCAL/MOL
REMARK 923 INTER-LIGAND FREE ENERGY PREDICTED BY IDOCK:   -8.37 KCAL/MOL
REMARK 924 INTRA-LIGAND FREE ENERGY PREDICTED BY IDOCK:   -2.87 KCAL/MOL
REMARK 927      BINDING AFFINITY PREDICTED BY RF-SCORE:    0.00 PKD
ROOT
HETATM    1  C   UNL     1     -10.306   8.957  72.054  1.00  0.00    -0.378 C  
HETATM    2  C   UNL     1      -9.649   9.428  70.882  1.00  0.00    -0.301 C  
HETATM    3  C   UNL     1     -10.231   8.060  70.651  1.00  0.00    -0.205 C  
HETATM    4  C   UNL     1     -11.516   7.606  72.157  1.00  0.00    -0.298 C  
HETATM    5  O   UNL     1     -12.567   6.672  72.429  1.00  0.00    -0.530 OA 
HETATM    6  C   UNL     1     -11.912   8.460  71.157  1.00  0.00    -0.301 C  
HETATM    7  C   UNL     1     -12.074   6.879  70.226  1.00  0.00    -0.182 C  
HETATM    8  C   UNL     1     -13.025   9.444  71.101  1.00  0.00    -0.307 C  
HETATM    9  H   UNL     1     -13.168   6.459  73.133  1.00  0.00     0.000 HD 
HETATM   10  C   UNL     1     -11.019   5.596  70.880  1.00  0.00    -0.257 C  
HETATM   11  C   UNL     1      -9.630   5.908  71.829  1.00  0.00    -0.171 C  
HETATM   12  C   UNL     1      -8.973   4.752  72.593  1.00  0.00    -0.132 A  
HETATM   13  C   UNL     1      -9.203   3.420  72.197  1.00  0.00    -0.166 A  
HETATM   14  C   UNL     1      -8.464   2.361  72.736  1.00  0.00    -0.063 A  
HETATM   15  C   UNL     1      -7.491   2.623  73.687  1.00  0.00    -0.046 A  
HETATM   16  C   UNL     1      -7.235   3.925  74.091  1.00  0.00    -0.061 A  
HETATM   17  O   UNL     1      -6.742   1.626  74.239  1.00  0.00    -0.019 OA 
HETATM   18  C   UNL     1      -7.940   5.006  73.529  1.00  0.00    -0.107 A  
HETATM   19  H   UNL     1      -6.075   1.805  74.891  1.00  0.00     0.000 HD 
HETATM   20  C   UNL     1      -7.537   6.400  73.977  1.00  0.00    -0.084 C  
HETATM   21  C   UNL     1      -7.876   7.550  72.997  1.00  0.00    -0.124 C  
HETATM   22  C   UNL     1      -9.389   7.417  72.703  1.00  0.00    -0.192 C  
ENDROOT
BRANCH  21  23
HETATM   23  C   UNL     1      -6.995   7.485  71.733  1.00  0.00    -0.062 C  
BRANCH  23  24
HETATM   24  C   UNL     1      -5.570   7.002  71.926  1.00  0.00    -0.037 C  
BRANCH  24  25
HETATM   25  C   UNL     1      -5.132   6.129  70.740  1.00  0.00    -0.013 C  
BRANCH  25  26
HETATM   26  C   UNL     1      -5.891   6.401  69.430  1.00  0.00    -0.021 C  
BRANCH  26  27
HETATM   27  C   UNL     1      -5.299   7.534  68.591  1.00  0.00    -0.022 C  
BRANCH  27  28
HETATM   28  C   UNL     1      -6.054   8.848  68.799  1.00  0.00    -0.045 C  
BRANCH  28  29
HETATM   29  C   UNL     1      -7.368   8.922  68.019  1.00  0.00    -0.084 C  
BRANCH  29  30
HETATM   30  C   UNL     1      -7.815  10.340  67.632  1.00  0.00    -0.098 C  
BRANCH  30  31
HETATM   31  C   UNL     1      -8.732  10.427  66.421  1.00  0.00    -0.141 C  
BRANCH  31  32
HETATM   32  S   UNL     1     -10.424  10.936  66.871  1.00  0.00    -0.259 S  
HETATM   33  O   UNL     1     -11.089   9.752  67.510  1.00  0.00    -0.234 OA 
BRANCH  32  34
HETATM   34  C   UNL     1      -9.982  12.090  68.209  1.00  0.00    -0.203 C  
BRANCH  34  35
HETATM   35  C   UNL     1     -11.171  12.396  69.113  1.00  0.00    -0.295 C  
BRANCH  35  36
HETATM   36  C   UNL     1     -11.922  13.644  68.651  1.00  0.00    -0.395 C  
BRANCH  36  37
HETATM   37  C   UNL     1     -11.710  14.850  69.562  1.00  0.00    -0.320 C  
HETATM   38  F   UNL     1     -10.369  15.029  69.737  1.00  0.00    -0.231 F  
HETATM   39  C   UNL     1     -12.429  14.753  70.916  1.00  0.00    -0.328 C  
HETATM   40  F   UNL     1     -12.138  15.953  68.878  1.00  0.00    -0.382 F  
HETATM   41  F   UNL     1     -13.238  13.675  70.999  1.00  0.00    -0.365 F  
HETATM   42  F   UNL     1     -11.541  14.678  71.935  1.00  0.00    -0.395 F  
HETATM   43  F   UNL     1     -13.203  15.841  71.155  1.00  0.00    -0.510 F  
ENDBRANCH  36  37
ENDBRANCH  35  36
ENDBRANCH  34  35
ENDBRANCH  32  34
ENDBRANCH  31  32
ENDBRANCH  30  31
ENDBRANCH  29  30
ENDBRANCH  28  29
ENDBRANCH  27  28
ENDBRANCH  26  27
ENDBRANCH  25  26
ENDBRANCH  24  25
ENDBRANCH  23  24
ENDBRANCH  21  23
TORSDOF 14
ENDMDL
MODEL      168
REMARK 921   NORMALIZED FREE ENERGY PREDICTED BY IDOCK:   -4.37 KCAL/MOL
REMARK 922        TOTAL FREE ENERGY PREDICTED BY IDOCK:  -11.24 KCAL/MOL
REMARK 923 INTER-LIGAND FREE ENERGY PREDICTED BY IDOCK:   -9.05 KCAL/MOL
REMARK 924 INTRA-LIGAND FREE ENERGY PREDICTED BY IDOCK:   -2.19 KCAL/MOL
REMARK 927      BINDING AFFINITY PREDICTED BY RF-SCORE:    0.00 PKD
ROOT
HETATM    1  C   UNL     1      -8.894  14.564  66.869  1.00  0.00    -0.257 C  
HETATM    2  C   UNL     1      -9.737  15.072  65.841  1.00  0.00    -0.376 C  
HETATM    3  C   UNL     1     -10.322  15.358  67.197  1.00  0.00    -0.271 C  
HETATM    4  C   UNL     1      -8.918  15.025  68.626  1.00  0.00    -0.186 C  
HETATM    5  O   UNL     1      -8.690  15.339  70.005  1.00  0.00    -0.338 OA 
HETATM    6  C   UNL     1      -8.872  16.178  67.881  1.00  0.00    -0.182 C  
HETATM    7  C   UNL     1     -10.247  16.654  69.011  1.00  0.00    -0.301 C  
HETATM    8  C   UNL     1      -7.766  17.144  67.649  1.00  0.00    -0.184 C  
HETATM    9  H   UNL     1      -8.034  15.184  70.673  1.00  0.00     0.000 HD 
HETATM   10  C   UNL     1     -11.105  15.233  69.670  1.00  0.00    -0.284 C  
HETATM   11  C   UNL     1     -11.078  13.689  68.935  1.00  0.00    -0.292 C  
HETATM   12  C   UNL     1     -11.580  12.476  69.728  1.00  0.00    -0.291 A  
HETATM   13  C   UNL     1     -12.440  12.656  70.828  1.00  0.00    -0.357 A  
HETATM   14  C   UNL     1     -13.077  11.572  71.442  1.00  0.00    -0.359 A  
HETATM   15  C   UNL     1     -12.852  10.290  70.966  1.00  0.00    -0.397 A  
HETATM   16  C   UNL     1     -12.017  10.081  69.878  1.00  0.00    -0.084 A  
HETATM   17  O   UNL     1     -13.452   9.201  71.526  1.00  0.00    -0.360 OA 
HETATM   18  C   UNL     1     -11.401  11.164  69.222  1.00  0.00    -0.349 A  
HETATM   19  H   UNL     1     -13.298   8.322  71.200  1.00  0.00     0.000 HD 
HETATM   20  C   UNL     1     -10.567  10.844  67.994  1.00  0.00    -0.239 C  
HETATM   21  C   UNL     1     -10.377  12.002  66.986  1.00  0.00    -0.235 C  
HETATM   22  C   UNL     1      -9.820  13.189  67.808  1.00  0.00    -0.228 C  
ENDROOT
BRANCH  21  23
HETATM   23  C   UNL     1     -11.694  12.326  66.251  1.00  0.00    -0.431 C  
BRANCH  23  24
HETATM   24  C   UNL     1     -11.590  12.584  64.759  1.00  0.00    -0.387 C  
BRANCH  24  25
HETATM   25  C   UNL     1     -10.164  12.303  64.263  1.00  0.00    -0.356 C  
BRANCH  25  26
HETATM   26  C   UNL     1      -9.968  10.914  63.630  1.00  0.00    -0.415 C  
BRANCH  26  27
HETATM   27  C   UNL     1      -8.678  10.213  64.056  1.00  0.00    -0.224 C  
BRANCH  27  28
HETATM   28  C   UNL     1      -8.922   8.747  64.417  1.00  0.00     0.129 C  
BRANCH  28  29
HETATM   29  C   UNL     1      -7.670   8.034  64.933  1.00  0.00    -0.118 C  
BRANCH  29  30
HETATM   30  C   UNL     1      -6.994   7.096  63.921  1.00  0.00    -0.057 C  
BRANCH  30  31
HETATM   31  C   UNL     1      -6.422   5.811  64.504  1.00  0.00    -0.037 C  
BRANCH  31  32
HETATM   32  S   UNL     1      -7.427   5.170  65.882  1.00  0.00    -0.083 S  
HETATM   33  O   UNL     1      -7.665   3.712  65.618  1.00  0.00    -0.084 OA 
BRANCH  32  34
HETATM   34  C   UNL     1      -6.155   5.278  67.180  1.00  0.00    -0.030 C  
BRANCH  34  35
HETATM   35  C   UNL     1      -6.477   6.360  68.206  1.00  0.00    -0.049 C  
BRANCH  35  36
HETATM   36  C   UNL     1      -7.943   6.786  68.131  1.00  0.00    -0.114 C  
BRANCH  36  37
HETATM   37  C   UNL     1      -8.805   6.183  69.238  1.00  0.00    -0.124 C  
HETATM   38  F   UNL     1      -8.110   5.164  69.819  1.00  0.00    -0.077 F  
HETATM   39  C   UNL     1     -10.188   5.705  68.772  1.00  0.00    -0.204 C  
HETATM   40  F   UNL     1      -8.937   7.135  70.210  1.00  0.00    -0.146 F  
HETATM   41  F   UNL     1     -10.447   6.035  67.488  1.00  0.00    -0.157 F  
HETATM   42  F   UNL     1     -10.301   4.360  68.880  1.00  0.00    -0.161 F  
HETATM   43  F   UNL     1     -11.185   6.239  69.520  1.00  0.00    -0.355 F  
ENDBRANCH  36  37
ENDBRANCH  35  36
ENDBRANCH  34  35
ENDBRANCH  32  34
ENDBRANCH  31  32
ENDBRANCH  30  31
ENDBRANCH  29  30
ENDBRANCH  28  29
ENDBRANCH  27  28
ENDBRANCH  26  27
ENDBRANCH  25  26
ENDBRANCH  24  25
ENDBRANCH  23  24
ENDBRANCH  21  23
TORSDOF 14
ENDMDL
MODEL      169
REMARK 921   NORMALIZED FREE ENERGY PREDICTED BY IDOCK:   -4.36 KCAL/MOL
REMARK 922        TOTAL FREE ENERGY PREDICTED BY IDOCK:  -11.22 KCAL/MOL
REMARK 923 INTER-LIGAND FREE ENERGY PREDICTED BY IDOCK:   -9.60 KCAL/MOL
REMARK 924 INTRA-LIGAND FREE ENERGY PREDICTED BY IDOCK:   -1.61 KCAL/MOL
REMARK 927      BINDING AFFINITY PREDICTED BY RF-SCORE:    0.00 PKD
ROOT
HETATM    1  C   UNL     1     -10.212  15.290  67.344  1.00  0.00    -0.243 C  
HETATM    2  C   UNL     1     -11.332  15.556  66.506  1.00  0.00    -0.017 C  
HETATM    3  C   UNL     1     -11.785  15.145  67.881  1.00  0.00    -0.275 C  
HETATM    4  C   UNL     1     -10.207  15.199  69.160  1.00  0.00    -0.249 C  
HETATM    5  O   UNL     1      -9.967  15.213  70.571  1.00  0.00    -0.439 OA 
HETATM    6  C   UNL     1     -10.827  16.369  68.791  1.00  0.00    -0.338 C  
HETATM    7  C   UNL     1     -12.086  15.778  69.998  1.00  0.00    -0.344 C  
HETATM    8  C   UNL     1     -10.366  17.780  68.866  1.00  0.00    -0.300 C  
HETATM    9  H   UNL     1      -9.230  15.238  71.169  1.00  0.00     0.000 HD 
HETATM   10  C   UNL     1     -12.053  14.004  70.198  1.00  0.00    -0.419 C  
HETATM   11  C   UNL     1     -11.392  12.934  69.038  1.00  0.00    -0.341 C  
HETATM   12  C   UNL     1     -11.132  11.475  69.431  1.00  0.00    -0.287 A  
HETATM   13  C   UNL     1     -11.808  10.906  70.527  1.00  0.00    -0.457 A  
HETATM   14  C   UNL     1     -11.752   9.532  70.785  1.00  0.00    -0.370 A  
HETATM   15  C   UNL     1     -11.009   8.711  69.952  1.00  0.00    -0.168 A  
HETATM   16  C   UNL     1     -10.339   9.241  68.859  1.00  0.00    -0.231 A  
HETATM   17  O   UNL     1     -10.926   7.366  70.159  1.00  0.00    -0.253 OA 
HETATM   18  C   UNL     1     -10.418  10.614  68.560  1.00  0.00    -0.212 A  
HETATM   19  H   UNL     1     -10.417   6.803  69.588  1.00  0.00     0.000 HD 
HETATM   20  C   UNL     1      -9.715  11.088  67.300  1.00  0.00    -0.188 C  
HETATM   21  C   UNL     1     -10.249  12.403  66.683  1.00  0.00    -0.241 C  
HETATM   22  C   UNL     1     -10.222  13.446  67.825  1.00  0.00    -0.235 C  
ENDROOT
BRANCH  21  23
HETATM   23  C   UNL     1     -11.649  12.203  66.065  1.00  0.00    -0.420 C  
BRANCH  23  24
HETATM   24  C   UNL     1     -12.075  13.212  65.016  1.00  0.00    -0.458 C  
BRANCH  24  25
HETATM   25  C   UNL     1     -11.409  12.901  63.667  1.00  0.00    -0.455 C  
BRANCH  25  26
HETATM   26  C   UNL     1     -10.929  11.448  63.510  1.00  0.00    -0.406 C  
BRANCH  26  27
HETATM   27  C   UNL     1      -9.507  11.318  62.965  1.00  0.00    -0.385 C  
BRANCH  27  28
HETATM   28  C   UNL     1      -8.776  10.118  63.567  1.00  0.00    -0.221 C  
BRANCH  28  29
HETATM   29  C   UNL     1      -7.619  10.513  64.488  1.00  0.00     0.052 C  
BRANCH  29  30
HETATM   30  C   UNL     1      -6.256   9.908  64.114  1.00  0.00    -0.124 C  
BRANCH  30  31
HETATM   31  C   UNL     1      -5.690   8.910  65.114  1.00  0.00    -0.051 C  
BRANCH  31  32
HETATM   32  S   UNL     1      -6.185   7.197  64.735  1.00  0.00    -0.037 S  
HETATM   33  O   UNL     1      -5.139   6.293  65.320  1.00  0.00    -0.013 OA 
BRANCH  32  34
HETATM   34  C   UNL     1      -7.636   7.117  65.832  1.00  0.00    -0.093 C  
BRANCH  34  35
HETATM   35  C   UNL     1      -8.406   5.811  65.665  1.00  0.00    -0.138 C  
BRANCH  35  36
HETATM   36  C   UNL     1      -8.126   4.843  66.813  1.00  0.00    -0.107 C  
BRANCH  36  37
HETATM   37  C   UNL     1      -9.393   4.326  67.491  1.00  0.00    -0.162 C  
HETATM   38  F   UNL     1     -10.134   5.398  67.895  1.00  0.00    -0.158 F  
HETATM   39  C   UNL     1      -9.136   3.367  68.663  1.00  0.00    -0.150 C  
HETATM   40  F   UNL     1     -10.141   3.708  66.529  1.00  0.00    -0.159 F  
HETATM   41  F   UNL     1      -7.832   3.041  68.792  1.00  0.00    -0.056 F  
HETATM   42  F   UNL     1      -9.541   3.910  69.835  1.00  0.00    -0.221 F  
HETATM   43  F   UNL     1      -9.816   2.202  68.519  1.00  0.00    -0.238 F  
ENDBRANCH  36  37
ENDBRANCH  35  36
ENDBRANCH  34  35
ENDBRANCH  32  34
ENDBRANCH  31  32
ENDBRANCH  30  31
ENDBRANCH  29  30
ENDBRANCH  28  29
ENDBRANCH  27  28
ENDBRANCH  26  27
ENDBRANCH  25  26
ENDBRANCH  24  25
ENDBRANCH  23  24
ENDBRANCH  21  23
TORSDOF 14
ENDMDL
MODEL      170
REMARK 921   NORMALIZED FREE ENERGY PREDICTED BY IDOCK:   -4.34 KCAL/MOL
REMARK 922        TOTAL FREE ENERGY PREDICTED BY IDOCK:  -11.19 KCAL/MOL
REMARK 923 INTER-LIGAND FREE ENERGY PREDICTED BY IDOCK:   -8.96 KCAL/MOL
REMARK 924 INTRA-LIGAND FREE ENERGY PREDICTED BY IDOCK:   -2.23 KCAL/MOL
REMARK 927      BINDING AFFINITY PREDICTED BY RF-SCORE:    0.00 PKD
ROOT
HETATM    1  C   UNL     1     -10.390   9.495  70.710  1.00  0.00    -0.377 C  
HETATM    2  C   UNL     1     -10.817   9.631  69.359  1.00  0.00    -0.239 C  
HETATM    3  C   UNL     1     -11.503   8.465  70.016  1.00  0.00     0.090 C  
HETATM    4  C   UNL     1     -11.221   8.556  72.026  1.00  0.00    -0.348 C  
HETATM    5  O   UNL     1     -11.778   7.991  73.217  1.00  0.00    -0.569 OA 
HETATM    6  C   UNL     1     -12.150   9.373  71.430  1.00  0.00    -0.442 C  
HETATM    7  C   UNL     1     -13.123   7.810  71.401  1.00  0.00    -0.310 C  
HETATM    8  C   UNL     1     -12.805  10.618  71.913  1.00  0.00    -0.487 C  
HETATM    9  H   UNL     1     -11.646   8.033  74.157  1.00  0.00     0.000 HD 
HETATM   10  C   UNL     1     -12.079   6.361  71.426  1.00  0.00    -0.257 C  
HETATM   11  C   UNL     1     -10.437   6.372  70.947  1.00  0.00    -0.275 C  
HETATM   12  C   UNL     1      -9.551   5.169  71.292  1.00  0.00    -0.218 A  
HETATM   13  C   UNL     1     -10.134   3.921  71.583  1.00  0.00    -0.167 A  
HETATM   14  C   UNL     1      -9.358   2.762  71.697  1.00  0.00    -0.194 A  
HETATM   15  C   UNL     1      -7.984   2.842  71.532  1.00  0.00    -0.056 A  
HETATM   16  C   UNL     1      -7.381   4.056  71.237  1.00  0.00    -0.040 A  
HETATM   17  O   UNL     1      -7.185   1.742  71.630  1.00  0.00    -0.030 OA 
HETATM   18  C   UNL     1      -8.152   5.224  71.076  1.00  0.00    -0.112 A  
HETATM   19  H   UNL     1      -6.243   1.796  71.517  1.00  0.00     0.000 HD 
HETATM   20  C   UNL     1      -7.412   6.489  70.677  1.00  0.00    -0.080 C  
HETATM   21  C   UNL     1      -8.261   7.573  69.970  1.00  0.00    -0.130 C  
HETATM   22  C   UNL     1      -9.465   7.840  70.904  1.00  0.00    -0.165 C  
ENDROOT
BRANCH  21  23
HETATM   23  C   UNL     1      -8.669   7.127  68.551  1.00  0.00    -0.126 C  
BRANCH  23  24
HETATM   24  C   UNL     1      -7.909   7.759  67.399  1.00  0.00    -0.118 C  
BRANCH  24  25
HETATM   25  C   UNL     1      -7.333   9.120  67.817  1.00  0.00    -0.084 C  
BRANCH  25  26
HETATM   26  C   UNL     1      -7.544  10.247  66.792  1.00  0.00    -0.107 C  
BRANCH  26  27
HETATM   27  C   UNL     1      -9.010  10.507  66.445  1.00  0.00    -0.174 C  
BRANCH  27  28
HETATM   28  C   UNL     1      -9.390  11.974  66.651  1.00  0.00    -0.221 C  
BRANCH  28  29
HETATM   29  C   UNL     1      -8.686  12.620  67.846  1.00  0.00    -0.181 C  
BRANCH  29  30
HETATM   30  C   UNL     1      -9.303  13.944  68.325  1.00  0.00    -0.209 C  
BRANCH  30  31
HETATM   31  C   UNL     1     -10.822  14.016  68.263  1.00  0.00    -0.255 C  
BRANCH  31  32
HETATM   32  S   UNL     1     -11.471  15.550  69.002  1.00  0.00    -0.373 S  
HETATM   33  O   UNL     1     -11.901  15.221  70.402  1.00  0.00    -0.274 OA 
BRANCH  32  34
HETATM   34  C   UNL     1      -9.891  16.448  69.124  1.00  0.00    -0.272 C  
BRANCH  34  35
HETATM   35  C   UNL     1      -9.801  17.584  68.111  1.00  0.00    -0.306 C  
BRANCH  35  36
HETATM   36  C   UNL     1      -8.779  17.281  67.017  1.00  0.00    -0.248 C  
BRANCH  36  37
HETATM   37  C   UNL     1      -7.896  18.477  66.666  1.00  0.00    -0.252 C  
HETATM   38  F   UNL     1      -8.613  19.322  65.869  1.00  0.00    -0.315 F  
HETATM   39  C   UNL     1      -6.561  18.105  66.004  1.00  0.00    -0.263 C  
HETATM   40  F   UNL     1      -7.675  19.169  67.823  1.00  0.00    -0.263 F  
HETATM   41  F   UNL     1      -6.346  16.772  65.983  1.00  0.00    -0.096 F  
HETATM   42  F   UNL     1      -6.509  18.549  64.727  1.00  0.00    -0.275 F  
HETATM   43  F   UNL     1      -5.506  18.659  66.652  1.00  0.00    -0.144 F  
ENDBRANCH  36  37
ENDBRANCH  35  36
ENDBRANCH  34  35
ENDBRANCH  32  34
ENDBRANCH  31  32
ENDBRANCH  30  31
ENDBRANCH  29  30
ENDBRANCH  28  29
ENDBRANCH  27  28
ENDBRANCH  26  27
ENDBRANCH  25  26
ENDBRANCH  24  25
ENDBRANCH  23  24
ENDBRANCH  21  23
TORSDOF 14
ENDMDL
MODEL      171
REMARK 921   NORMALIZED FREE ENERGY PREDICTED BY IDOCK:   -4.32 KCAL/MOL
REMARK 922        TOTAL FREE ENERGY PREDICTED BY IDOCK:  -11.15 KCAL/MOL
REMARK 923 INTER-LIGAND FREE ENERGY PREDICTED BY IDOCK:   -8.91 KCAL/MOL
REMARK 924 INTRA-LIGAND FREE ENERGY PREDICTED BY IDOCK:   -2.23 KCAL/MOL
REMARK 927      BINDING AFFINITY PREDICTED BY RF-SCORE:    0.00 PKD
ROOT
HETATM    1  C   UNL     1      -7.909  16.101  69.169  1.00  0.00    -0.232 C  
HETATM    2  C   UNL     1      -6.608  15.652  68.807  1.00  0.00    -0.110 C  
HETATM    3  C   UNL     1      -7.315  16.243  67.618  1.00  0.00    -0.161 C  
HETATM    4  C   UNL     1      -8.960  17.258  68.242  1.00  0.00    -0.262 C  
HETATM    5  O   UNL     1      -9.876  18.236  67.737  1.00  0.00    -0.296 OA 
HETATM    6  C   UNL     1      -7.716  17.825  68.379  1.00  0.00    -0.278 C  
HETATM    7  C   UNL     1      -7.935  18.112  66.573  1.00  0.00    -0.290 C  
HETATM    8  C   UNL     1      -7.246  18.946  69.234  1.00  0.00    -0.216 C  
HETATM    9  H   UNL     1     -10.645  18.711  68.028  1.00  0.00     0.000 HD 
HETATM   10  C   UNL     1      -9.065  16.945  65.832  1.00  0.00    -0.091 C  
HETATM   11  C   UNL     1      -9.439  15.425  66.522  1.00  0.00    -0.298 C  
HETATM   12  C   UNL     1     -10.637  14.636  65.981  1.00  0.00    -0.314 A  
HETATM   13  C   UNL     1     -11.142  14.907  64.696  1.00  0.00    -0.335 A  
HETATM   14  C   UNL     1     -12.093  14.074  64.095  1.00  0.00    -0.456 A  
HETATM   15  C   UNL     1     -12.557  12.963  64.780  1.00  0.00    -0.425 A  
HETATM   16  C   UNL     1     -12.072  12.664  66.045  1.00  0.00    -0.429 A  
HETATM   17  O   UNL     1     -13.479  12.118  64.236  1.00  0.00    -0.708 OA 
HETATM   18  C   UNL     1     -11.085  13.467  66.647  1.00  0.00    -0.309 A  
HETATM   19  H   UNL     1     -13.798  11.357  64.706  1.00  0.00     0.000 HD 
HETATM   20  C   UNL     1     -10.559  13.017  67.999  1.00  0.00    -0.246 C  
HETATM   21  C   UNL     1      -9.150  13.530  68.381  1.00  0.00    -0.155 C  
HETATM   22  C   UNL     1      -9.207  15.068  68.230  1.00  0.00    -0.184 C  
ENDROOT
BRANCH  21  23
HETATM   23  C   UNL     1      -8.060  12.865  67.515  1.00  0.00    -0.181 C  
BRANCH  23  24
HETATM   24  C   UNL     1      -8.199  11.373  67.281  1.00  0.00    -0.150 C  
BRANCH  24  25
HETATM   25  C   UNL     1      -7.760  10.589  68.527  1.00  0.00    -0.104 C  
BRANCH  25  26
HETATM   26  C   UNL     1      -8.586   9.323  68.812  1.00  0.00    -0.131 C  
BRANCH  26  27
HETATM   27  C   UNL     1      -9.320   9.348  70.153  1.00  0.00    -0.276 C  
BRANCH  27  28
HETATM   28  C   UNL     1     -10.663   8.622  70.078  1.00  0.00    -0.233 C  
BRANCH  28  29
HETATM   29  C   UNL     1     -10.655   7.430  69.119  1.00  0.00    -0.213 C  
BRANCH  29  30
HETATM   30  C   UNL     1     -11.329   6.158  69.657  1.00  0.00    -0.442 C  
BRANCH  30  31
HETATM   31  C   UNL     1     -10.403   5.177  70.360  1.00  0.00    -0.256 C  
BRANCH  31  32
HETATM   32  S   UNL     1      -9.551   4.070  69.188  1.00  0.00    -0.114 S  
HETATM   33  O   UNL     1      -9.410   4.817  67.894  1.00  0.00    -0.121 OA 
BRANCH  32  34
HETATM   34  C   UNL     1      -7.917   4.078  69.993  1.00  0.00    -0.051 C  
BRANCH  34  35
HETATM   35  C   UNL     1      -7.898   4.962  71.235  1.00  0.00    -0.092 C  
BRANCH  35  36
HETATM   36  C   UNL     1      -7.430   6.379  70.908  1.00  0.00    -0.088 C  
BRANCH  36  37
HETATM   37  C   UNL     1      -6.919   7.144  72.128  1.00  0.00    -0.067 C  
HETATM   38  F   UNL     1      -5.937   6.405  72.719  1.00  0.00    -0.039 F  
HETATM   39  C   UNL     1      -8.010   7.515  73.144  1.00  0.00    -0.111 C  
HETATM   40  F   UNL     1      -6.300   8.271  71.666  1.00  0.00    -0.038 F  
HETATM   41  F   UNL     1      -9.252   7.220  72.704  1.00  0.00    -0.147 F  
HETATM   42  F   UNL     1      -7.825   6.864  74.316  1.00  0.00    -0.105 F  
HETATM   43  F   UNL     1      -8.003   8.841  73.429  1.00  0.00    -0.158 F  
ENDBRANCH  36  37
ENDBRANCH  35  36
ENDBRANCH  34  35
ENDBRANCH  32  34
ENDBRANCH  31  32
ENDBRANCH  30  31
ENDBRANCH  29  30
ENDBRANCH  28  29
ENDBRANCH  27  28
ENDBRANCH  26  27
ENDBRANCH  25  26
ENDBRANCH  24  25
ENDBRANCH  23  24
ENDBRANCH  21  23
TORSDOF 14
ENDMDL
MODEL      172
REMARK 921   NORMALIZED FREE ENERGY PREDICTED BY IDOCK:   -4.28 KCAL/MOL
REMARK 922        TOTAL FREE ENERGY PREDICTED BY IDOCK:  -11.08 KCAL/MOL
REMARK 923 INTER-LIGAND FREE ENERGY PREDICTED BY IDOCK:   -8.85 KCAL/MOL
REMARK 924 INTRA-LIGAND FREE ENERGY PREDICTED BY IDOCK:   -2.22 KCAL/MOL
REMARK 927      BINDING AFFINITY PREDICTED BY RF-SCORE:    0.00 PKD
ROOT
HETATM    1  C   UNL     1      -9.834  10.148  67.836  1.00  0.00    -0.176 C  
HETATM    2  C   UNL     1      -9.359  10.345  69.164  1.00  0.00    -0.211 C  
HETATM    3  C   UNL     1      -8.294   9.715  68.307  1.00  0.00    -0.117 C  
HETATM    4  C   UNL     1      -8.829   9.849  66.352  1.00  0.00    -0.142 C  
HETATM    5  O   UNL     1      -8.221   9.733  65.060  1.00  0.00    -0.129 OA 
HETATM    6  C   UNL     1      -8.322  10.951  66.997  1.00  0.00    -0.132 C  
HETATM    7  C   UNL     1      -6.737  10.047  66.745  1.00  0.00    -0.076 C  
HETATM    8  C   UNL     1      -8.388  12.396  66.654  1.00  0.00     0.012 C  
HETATM    9  H   UNL     1      -8.471   9.796  64.146  1.00  0.00     0.000 HD 
HETATM   10  C   UNL     1      -6.979   8.286  66.583  1.00  0.00    -0.069 C  
HETATM   11  C   UNL     1      -8.365   7.466  67.160  1.00  0.00    -0.118 C  
HETATM   12  C   UNL     1      -8.622   6.024  66.706  1.00  0.00    -0.110 A  
HETATM   13  C   UNL     1      -7.565   5.239  66.207  1.00  0.00    -0.088 A  
HETATM   14  C   UNL     1      -7.719   3.867  65.980  1.00  0.00    -0.089 A  
HETATM   15  C   UNL     1      -8.940   3.265  66.240  1.00  0.00    -0.149 A  
HETATM   16  C   UNL     1      -9.998   4.010  66.740  1.00  0.00    -0.071 A  
HETATM   17  O   UNL     1      -9.139   1.931  66.039  1.00  0.00    -0.209 OA 
HETATM   18  C   UNL     1      -9.848   5.383  67.015  1.00  0.00    -0.181 A  
HETATM   19  H   UNL     1      -9.976   1.518  66.217  1.00  0.00     0.000 HD 
HETATM   20  C   UNL     1     -11.038   6.097  67.633  1.00  0.00    -0.311 C  
HETATM   21  C   UNL     1     -10.714   7.383  68.431  1.00  0.00    -0.142 C  
HETATM   22  C   UNL     1      -9.896   8.279  67.470  1.00  0.00    -0.231 C  
ENDROOT
BRANCH  21  23
HETATM   23  C   UNL     1      -9.975   7.055  69.745  1.00  0.00    -0.179 C  
BRANCH  23  24
HETATM   24  C   UNL     1     -10.750   7.281  71.030  1.00  0.00    -0.247 C  
BRANCH  24  25
HETATM   25  C   UNL     1     -12.182   6.740  70.898  1.00  0.00    -0.386 C  
BRANCH  25  26
HETATM   26  C   UNL     1     -13.284   7.753  71.251  1.00  0.00    -0.240 C  
BRANCH  26  27
HETATM   27  C   UNL     1     -12.954   8.637  72.453  1.00  0.00    -0.403 C  
BRANCH  27  28
HETATM   28  C   UNL     1     -12.306   9.955  72.027  1.00  0.00    -0.286 C  
BRANCH  28  29
HETATM   29  C   UNL     1     -13.313  11.090  71.828  1.00  0.00    -0.400 C  
BRANCH  29  30
HETATM   30  C   UNL     1     -12.758  12.502  72.070  1.00  0.00    -0.118 C  
BRANCH  30  31
HETATM   31  C   UNL     1     -13.796  13.562  72.408  1.00  0.00    -0.586 C  
BRANCH  31  32
HETATM   32  S   UNL     1     -13.285  15.226  71.868  1.00  0.00    -0.456 S  
HETATM   33  O   UNL     1     -11.876  15.434  72.341  1.00  0.00    -0.389 OA 
BRANCH  32  34
HETATM   34  C   UNL     1     -13.205  14.887  70.080  1.00  0.00     0.168 C  
BRANCH  34  35
HETATM   35  C   UNL     1     -11.871  15.315  69.478  1.00  0.00    -0.368 C  
BRANCH  35  36
HETATM   36  C   UNL     1     -11.280  14.223  68.588  1.00  0.00    -0.287 C  
BRANCH  36  37
HETATM   37  C   UNL     1     -11.315  14.570  67.101  1.00  0.00    -0.350 C  
HETATM   38  F   UNL     1     -11.751  15.856  66.968  1.00  0.00    -0.013 F  
HETATM   39  C   UNL     1     -12.164  13.615  66.248  1.00  0.00    -0.436 C  
HETATM   40  F   UNL     1     -10.022  14.577  66.658  1.00  0.00    -0.244 F  
HETATM   41  F   UNL     1     -12.613  12.552  66.950  1.00  0.00    -0.062 F  
HETATM   42  F   UNL     1     -13.241  14.250  65.731  1.00  0.00    -0.526 F  
HETATM   43  F   UNL     1     -11.463  13.120  65.198  1.00  0.00    -0.306 F  
ENDBRANCH  36  37
ENDBRANCH  35  36
ENDBRANCH  34  35
ENDBRANCH  32  34
ENDBRANCH  31  32
ENDBRANCH  30  31
ENDBRANCH  29  30
ENDBRANCH  28  29
ENDBRANCH  27  28
ENDBRANCH  26  27
ENDBRANCH  25  26
ENDBRANCH  24  25
ENDBRANCH  23  24
ENDBRANCH  21  23
TORSDOF 14
ENDMDL
MODEL      173
REMARK 921   NORMALIZED FREE ENERGY PREDICTED BY IDOCK:   -4.28 KCAL/MOL
REMARK 922        TOTAL FREE ENERGY PREDICTED BY IDOCK:  -11.07 KCAL/MOL
REMARK 923 INTER-LIGAND FREE ENERGY PREDICTED BY IDOCK:   -8.29 KCAL/MOL
REMARK 924 INTRA-LIGAND FREE ENERGY PREDICTED BY IDOCK:   -2.78 KCAL/MOL
REMARK 927      BINDING AFFINITY PREDICTED BY RF-SCORE:    0.00 PKD
ROOT
HETATM    1  C   UNL     1     -12.483  14.872  68.262  1.00  0.00     0.336 C  
HETATM    2  C   UNL     1     -12.259  13.489  68.014  1.00  0.00    -0.158 C  
HETATM    3  C   UNL     1     -11.201  14.041  68.930  1.00  0.00    -0.303 C  
HETATM    4  C   UNL     1     -11.778  15.866  69.611  1.00  0.00    -0.317 C  
HETATM    5  O   UNL     1     -11.437  16.780  70.659  1.00  0.00    -0.471 OA 
HETATM    6  C   UNL     1     -12.326  14.730  70.156  1.00  0.00    -0.381 C  
HETATM    7  C   UNL     1     -10.695  14.666  71.010  1.00  0.00     0.580 C  
HETATM    8  C   UNL     1     -13.564  14.533  70.955  1.00  0.00    -0.294 C  
HETATM    9  H   UNL     1     -11.706  17.633  70.978  1.00  0.00     0.000 HD 
HETATM   10  C   UNL     1      -9.420  15.524  70.102  1.00  0.00     0.275 C  
HETATM   11  C   UNL     1      -9.511  15.849  68.424  1.00  0.00    -0.201 C  
HETATM   12  C   UNL     1      -8.528  16.848  67.804  1.00  0.00    -0.198 A  
HETATM   13  C   UNL     1      -7.319  17.152  68.458  1.00  0.00    -0.231 A  
HETATM   14  C   UNL     1      -6.314  17.894  67.828  1.00  0.00    -0.180 A  
HETATM   15  C   UNL     1      -6.512  18.349  66.534  1.00  0.00    -0.191 A  
HETATM   16  C   UNL     1      -7.688  18.057  65.859  1.00  0.00    -0.130 A  
HETATM   17  O   UNL     1      -5.562  19.071  65.874  1.00  0.00    -0.147 OA 
HETATM   18  C   UNL     1      -8.693  17.277  66.463  1.00  0.00    -0.293 A  
HETATM   19  H   UNL     1      -5.697  19.383  64.988  1.00  0.00     0.000 HD 
HETATM   20  C   UNL     1      -9.911  16.946  65.618  1.00  0.00    -0.067 C  
HETATM   21  C   UNL     1     -10.701  15.684  66.039  1.00  0.00    -0.322 C  
HETATM   22  C   UNL     1     -11.032  15.875  67.538  1.00  0.00    -0.280 C  
ENDROOT
BRANCH  21  23
HETATM   23  C   UNL     1      -9.901  14.399  65.744  1.00  0.00    -0.330 C  
BRANCH  23  24
HETATM   24  C   UNL     1     -10.479  13.468  64.694  1.00  0.00    -0.439 C  
BRANCH  24  25
HETATM   25  C   UNL     1     -10.276  12.001  65.104  1.00  0.00    -0.308 C  
BRANCH  25  26
HETATM   26  C   UNL     1      -9.401  11.801  66.353  1.00  0.00    -0.229 C  
BRANCH  26  27
HETATM   27  C   UNL     1      -9.920  10.727  67.310  1.00  0.00    -0.219 C  
BRANCH  27  28
HETATM   28  C   UNL     1      -9.379  10.922  68.728  1.00  0.00    -0.190 C  
BRANCH  28  29
HETATM   29  C   UNL     1      -7.852  10.998  68.788  1.00  0.00    -0.138 C  
BRANCH  29  30
HETATM   30  C   UNL     1      -7.194  10.059  69.812  1.00  0.00    -0.127 C  
BRANCH  30  31
HETATM   31  C   UNL     1      -8.150   9.378  70.780  1.00  0.00    -0.116 C  
BRANCH  31  32
HETATM   32  S   UNL     1      -7.297   8.204  71.882  1.00  0.00    -0.096 S  
HETATM   33  O   UNL     1      -7.679   8.557  73.290  1.00  0.00    -0.339 OA 
BRANCH  32  34
HETATM   34  C   UNL     1      -8.242   6.715  71.428  1.00  0.00    -0.116 C  
BRANCH  34  35
HETATM   35  C   UNL     1      -9.649   7.057  70.948  1.00  0.00    -0.167 C  
BRANCH  35  36
HETATM   36  C   UNL     1     -10.683   6.860  72.056  1.00  0.00    -0.244 C  
BRANCH  36  37
HETATM   37  C   UNL     1     -12.113   7.156  71.608  1.00  0.00    -0.336 C  
HETATM   38  F   UNL     1     -12.236   6.802  70.297  1.00  0.00    -0.406 F  
HETATM   39  C   UNL     1     -12.554   8.611  71.824  1.00  0.00    -0.349 C  
HETATM   40  F   UNL     1     -12.934   6.306  72.294  1.00  0.00    -0.296 F  
HETATM   41  F   UNL     1     -11.640   9.336  72.505  1.00  0.00    -0.289 F  
HETATM   42  F   UNL     1     -12.773   9.235  70.642  1.00  0.00    -0.211 F  
HETATM   43  F   UNL     1     -13.713   8.688  72.525  1.00  0.00    -0.377 F  
ENDBRANCH  36  37
ENDBRANCH  35  36
ENDBRANCH  34  35
ENDBRANCH  32  34
ENDBRANCH  31  32
ENDBRANCH  30  31
ENDBRANCH  29  30
ENDBRANCH  28  29
ENDBRANCH  27  28
ENDBRANCH  26  27
ENDBRANCH  25  26
ENDBRANCH  24  25
ENDBRANCH  23  24
ENDBRANCH  21  23
TORSDOF 14
ENDMDL
MODEL      174
REMARK 921   NORMALIZED FREE ENERGY PREDICTED BY IDOCK:   -4.26 KCAL/MOL
REMARK 922        TOTAL FREE ENERGY PREDICTED BY IDOCK:  -11.04 KCAL/MOL
REMARK 923 INTER-LIGAND FREE ENERGY PREDICTED BY IDOCK:   -7.28 KCAL/MOL
REMARK 924 INTRA-LIGAND FREE ENERGY PREDICTED BY IDOCK:   -3.76 KCAL/MOL
REMARK 927      BINDING AFFINITY PREDICTED BY RF-SCORE:    0.00 PKD
ROOT
HETATM    1  C   UNL     1     -11.029   6.700  70.175  1.00  0.00    -0.358 C  
HETATM    2  C   UNL     1      -9.740   6.604  70.771  1.00  0.00    -0.190 C  
HETATM    3  C   UNL     1     -10.480   7.803  71.299  1.00  0.00    -0.230 C  
HETATM    4  C   UNL     1     -12.440   7.673  70.780  1.00  0.00     0.008 C  
HETATM    5  O   UNL     1     -13.692   8.259  71.152  1.00  0.00    -0.556 OA 
HETATM    6  C   UNL     1     -11.960   6.920  71.824  1.00  0.00    -0.372 C  
HETATM    7  C   UNL     1     -12.055   8.541  72.694  1.00  0.00    -0.305 C  
HETATM    8  C   UNL     1     -12.515   5.713  72.490  1.00  0.00     0.273 C  
HETATM    9  H   UNL     1     -14.608   8.198  70.909  1.00  0.00     0.000 HD 
HETATM   10  C   UNL     1     -11.956   9.923  71.568  1.00  0.00    -0.473 C  
HETATM   11  C   UNL     1     -11.280   9.816  70.000  1.00  0.00    -0.297 C  
HETATM   12  C   UNL     1     -11.518  10.960  69.006  1.00  0.00    -0.371 A  
HETATM   13  C   UNL     1     -11.881  12.238  69.470  1.00  0.00    -0.380 A  
HETATM   14  C   UNL     1     -11.903  13.345  68.616  1.00  0.00    -0.397 A  
HETATM   15  C   UNL     1     -11.571  13.184  67.280  1.00  0.00    -0.355 A  
HETATM   16  C   UNL     1     -11.200  11.938  66.794  1.00  0.00    -0.384 A  
HETATM   17  O   UNL     1     -11.574  14.232  66.408  1.00  0.00    -0.346 OA 
HETATM   18  C   UNL     1     -11.132  10.822  67.649  1.00  0.00    -0.384 A  
HETATM   19  H   UNL     1     -11.346  14.122  65.493  1.00  0.00     0.000 HD 
HETATM   20  C   UNL     1     -10.641   9.518  67.043  1.00  0.00    -0.271 C  
HETATM   21  C   UNL     1     -10.040   8.495  68.037  1.00  0.00    -0.245 C  
HETATM   22  C   UNL     1     -11.114   8.293  69.133  1.00  0.00     0.188 C  
ENDROOT
BRANCH  21  23
HETATM   23  C   UNL     1      -8.683   8.981  68.587  1.00  0.00    -0.133 C  
BRANCH  23  24
HETATM   24  C   UNL     1      -7.586   9.217  67.566  1.00  0.00    -0.088 C  
BRANCH  24  25
HETATM   25  C   UNL     1      -6.281   8.539  68.011  1.00  0.00    -0.052 C  
BRANCH  25  26
HETATM   26  C   UNL     1      -6.456   7.466  69.100  1.00  0.00    -0.040 C  
BRANCH  26  27
HETATM   27  C   UNL     1      -5.245   6.549  69.270  1.00  0.00    -0.013 C  
BRANCH  27  28
HETATM   28  C   UNL     1      -5.663   5.101  69.530  1.00  0.00    -0.016 C  
BRANCH  28  29
HETATM   29  C   UNL     1      -5.400   4.643  70.967  1.00  0.00    -0.004 C  
BRANCH  29  30
HETATM   30  C   UNL     1      -6.513   3.786  71.590  1.00  0.00    -0.015 C  
BRANCH  30  31
HETATM   31  C   UNL     1      -7.788   3.675  70.767  1.00  0.00    -0.050 C  
BRANCH  31  32
HETATM   32  S   UNL     1      -8.219   1.945  70.390  1.00  0.00    -0.041 S  
HETATM   33  O   UNL     1      -9.673   1.920  70.018  1.00  0.00    -0.038 OA 
BRANCH  32  34
HETATM   34  C   UNL     1      -7.268   1.791  68.844  1.00  0.00    -0.039 C  
BRANCH  34  35
HETATM   35  C   UNL     1      -8.113   2.124  67.619  1.00  0.00    -0.068 C  
BRANCH  35  36
HETATM   36  C   UNL     1      -7.819   3.531  67.100  1.00  0.00    -0.079 C  
BRANCH  36  37
HETATM   37  C   UNL     1      -9.003   4.485  67.236  1.00  0.00    -0.117 C  
HETATM   38  F   UNL     1      -9.986   3.856  67.943  1.00  0.00    -0.197 F  
HETATM   39  C   UNL     1      -9.546   5.014  65.900  1.00  0.00    -0.164 C  
HETATM   40  F   UNL     1      -8.595   5.524  68.024  1.00  0.00    -0.102 F  
HETATM   41  F   UNL     1      -8.783   4.647  64.847  1.00  0.00    -0.122 F  
HETATM   42  F   UNL     1     -10.802   4.564  65.671  1.00  0.00    -0.317 F  
HETATM   43  F   UNL     1      -9.609   6.369  65.882  1.00  0.00    -0.143 F  
ENDBRANCH  36  37
ENDBRANCH  35  36
ENDBRANCH  34  35
ENDBRANCH  32  34
ENDBRANCH  31  32
ENDBRANCH  30  31
ENDBRANCH  29  30
ENDBRANCH  28  29
ENDBRANCH  27  28
ENDBRANCH  26  27
ENDBRANCH  25  26
ENDBRANCH  24  25
ENDBRANCH  23  24
ENDBRANCH  21  23
TORSDOF 14
ENDMDL
MODEL      175
REMARK 921   NORMALIZED FREE ENERGY PREDICTED BY IDOCK:   -4.21 KCAL/MOL
REMARK 922        TOTAL FREE ENERGY PREDICTED BY IDOCK:  -10.95 KCAL/MOL
REMARK 923 INTER-LIGAND FREE ENERGY PREDICTED BY IDOCK:   -9.39 KCAL/MOL
REMARK 924 INTRA-LIGAND FREE ENERGY PREDICTED BY IDOCK:   -1.56 KCAL/MOL
REMARK 927      BINDING AFFINITY PREDICTED BY RF-SCORE:    0.00 PKD
ROOT
HETATM    1  C   UNL     1      -7.220  10.718  68.248  1.00  0.00    -0.084 C  
HETATM    2  C   UNL     1      -7.908  10.344  69.437  1.00  0.00    -0.163 C  
HETATM    3  C   UNL     1      -8.556   9.721  68.231  1.00  0.00    -0.119 C  
HETATM    4  C   UNL     1      -7.322   9.902  66.627  1.00  0.00    -0.099 C  
HETATM    5  O   UNL     1      -7.165   9.336  65.322  1.00  0.00    -0.087 OA 
HETATM    6  C   UNL     1      -7.071   8.941  67.576  1.00  0.00    -0.076 C  
HETATM    7  C   UNL     1      -8.458   8.094  66.709  1.00  0.00    -0.123 C  
HETATM    8  C   UNL     1      -5.836   8.171  67.878  1.00  0.00    -0.042 C  
HETATM    9  H   UNL     1      -6.588   9.420  64.572  1.00  0.00     0.000 HD 
HETATM   10  C   UNL     1      -9.539   9.244  65.874  1.00  0.00    -0.345 C  
HETATM   11  C   UNL     1      -9.653  10.901  66.285  1.00  0.00    -0.234 C  
HETATM   12  C   UNL     1     -10.367  11.860  65.325  1.00  0.00    -0.316 A  
HETATM   13  C   UNL     1     -11.280  11.363  64.376  1.00  0.00    -0.277 A  
HETATM   14  C   UNL     1     -12.096  12.220  63.630  1.00  0.00    -0.648 A  
HETATM   15  C   UNL     1     -12.001  13.589  63.819  1.00  0.00    -0.422 A  
HETATM   16  C   UNL     1     -11.117  14.110  64.754  1.00  0.00    -0.393 A  
HETATM   17  O   UNL     1     -12.777  14.466  63.121  1.00  0.00    -0.765 OA 
HETATM   18  C   UNL     1     -10.318  13.260  65.542  1.00  0.00    -0.298 A  
HETATM   19  H   UNL     1     -12.712  15.404  63.250  1.00  0.00     0.000 HD 
HETATM   20  C   UNL     1      -9.438  13.917  66.591  1.00  0.00    -0.296 C  
HETATM   21  C   UNL     1      -9.023  13.021  67.783  1.00  0.00    -0.191 C  
HETATM   22  C   UNL     1      -8.386  11.758  67.157  1.00  0.00    -0.168 C  
ENDROOT
BRANCH  21  23
HETATM   23  C   UNL     1     -10.227  12.714  68.698  1.00  0.00    -0.165 C  
BRANCH  23  24
HETATM   24  C   UNL     1     -11.545  12.423  68.005  1.00  0.00    -0.403 C  
BRANCH  24  25
HETATM   25  C   UNL     1     -12.132  11.093  68.504  1.00  0.00    -0.129 C  
BRANCH  25  26
HETATM   26  C   UNL     1     -12.270  10.986  70.032  1.00  0.00    -0.418 C  
BRANCH  26  27
HETATM   27  C   UNL     1     -11.233  10.075  70.688  1.00  0.00    -0.425 C  
BRANCH  27  28
HETATM   28  C   UNL     1     -11.844   9.239  71.814  1.00  0.00    -0.454 C  
BRANCH  28  29
HETATM   29  C   UNL     1     -13.119   8.503  71.399  1.00  0.00    -0.255 C  
BRANCH  29  30
HETATM   30  C   UNL     1     -12.997   6.972  71.343  1.00  0.00    -0.395 C  
BRANCH  30  31
HETATM   31  C   UNL     1     -11.617   6.416  71.660  1.00  0.00    -0.310 C  
BRANCH  31  32
HETATM   32  S   UNL     1     -10.735   5.863  70.164  1.00  0.00    -0.330 S  
HETATM   33  O   UNL     1     -11.439   6.467  68.984  1.00  0.00    -0.283 OA 
BRANCH  32  34
HETATM   34  C   UNL     1      -9.204   6.816  70.419  1.00  0.00    -0.156 C  
BRANCH  34  35
HETATM   35  C   UNL     1      -8.073   5.945  70.955  1.00  0.00    -0.121 C  
BRANCH  35  36
HETATM   36  C   UNL     1      -8.177   4.510  70.440  1.00  0.00    -0.072 C  
BRANCH  36  37
HETATM   37  C   UNL     1      -7.304   4.241  69.216  1.00  0.00    -0.054 C  
HETATM   38  F   UNL     1      -7.646   5.130  68.239  1.00  0.00    -0.075 F  
HETATM   39  C   UNL     1      -7.377   2.800  68.692  1.00  0.00    -0.048 C  
HETATM   40  F   UNL     1      -6.020   4.556  69.560  1.00  0.00    -0.015 F  
HETATM   41  F   UNL     1      -8.094   1.989  69.499  1.00  0.00    -0.048 F  
HETATM   42  F   UNL     1      -7.939   2.756  67.462  1.00  0.00    -0.067 F  
HETATM   43  F   UNL     1      -6.145   2.243  68.577  1.00  0.00    -0.022 F  
ENDBRANCH  36  37
ENDBRANCH  35  36
ENDBRANCH  34  35
ENDBRANCH  32  34
ENDBRANCH  31  32
ENDBRANCH  30  31
ENDBRANCH  29  30
ENDBRANCH  28  29
ENDBRANCH  27  28
ENDBRANCH  26  27
ENDBRANCH  25  26
ENDBRANCH  24  25
ENDBRANCH  23  24
ENDBRANCH  21  23
TORSDOF 14
ENDMDL
MODEL      176
REMARK 921   NORMALIZED FREE ENERGY PREDICTED BY IDOCK:   -4.20 KCAL/MOL
REMARK 922        TOTAL FREE ENERGY PREDICTED BY IDOCK:  -10.93 KCAL/MOL
REMARK 923 INTER-LIGAND FREE ENERGY PREDICTED BY IDOCK:   -9.17 KCAL/MOL
REMARK 924 INTRA-LIGAND FREE ENERGY PREDICTED BY IDOCK:   -1.76 KCAL/MOL
REMARK 927      BINDING AFFINITY PREDICTED BY RF-SCORE:    0.00 PKD
ROOT
HETATM    1  C   UNL     1     -11.281  16.240  68.510  1.00  0.00    -0.359 C  
HETATM    2  C   UNL     1     -11.417  16.034  69.911  1.00  0.00    -0.327 C  
HETATM    3  C   UNL     1     -10.039  15.647  69.450  1.00  0.00    -0.269 C  
HETATM    4  C   UNL     1      -9.730  16.351  67.570  1.00  0.00    -0.231 C  
HETATM    5  O   UNL     1      -8.636  16.593  66.678  1.00  0.00    -0.210 OA 
HETATM    6  C   UNL     1      -9.644  17.206  68.641  1.00  0.00    -0.281 C  
HETATM    7  C   UNL     1      -8.017  16.368  68.847  1.00  0.00    -0.236 C  
HETATM    8  C   UNL     1      -9.701  18.690  68.709  1.00  0.00    -0.407 C  
HETATM    9  H   UNL     1      -8.491  16.922  65.799  1.00  0.00     0.000 HD 
HETATM   10  C   UNL     1      -7.999  14.734  68.126  1.00  0.00    -0.129 C  
HETATM   11  C   UNL     1      -9.414  13.824  67.816  1.00  0.00    -0.216 C  
HETATM   12  C   UNL     1      -9.320  12.581  66.923  1.00  0.00    -0.219 A  
HETATM   13  C   UNL     1      -8.082  11.942  66.725  1.00  0.00    -0.108 A  
HETATM   14  C   UNL     1      -7.995  10.698  66.091  1.00  0.00    -0.151 A  
HETATM   15  C   UNL     1      -9.150  10.082  65.637  1.00  0.00    -0.183 A  
HETATM   16  C   UNL     1     -10.387  10.682  65.824  1.00  0.00    -0.287 A  
HETATM   17  O   UNL     1      -9.120   8.868  65.016  1.00  0.00    -0.382 OA 
HETATM   18  C   UNL     1     -10.497  11.914  66.498  1.00  0.00    -0.256 A  
HETATM   19  H   UNL     1      -9.911   8.446  64.705  1.00  0.00     0.000 HD 
HETATM   20  C   UNL     1     -11.898  12.454  66.724  1.00  0.00    -0.385 C  
HETATM   21  C   UNL     1     -12.057  13.448  67.900  1.00  0.00    -0.289 C  
HETATM   22  C   UNL     1     -11.007  14.557  67.658  1.00  0.00    -0.293 C  
ENDROOT
BRANCH  21  23
HETATM   23  C   UNL     1     -11.899  12.735  69.259  1.00  0.00    -0.358 C  
BRANCH  23  24
HETATM   24  C   UNL     1     -12.122  11.234  69.266  1.00  0.00    -0.372 C  
BRANCH  24  25
HETATM   25  C   UNL     1     -13.024  10.830  70.442  1.00  0.00    -0.196 C  
BRANCH  25  26
HETATM   26  C   UNL     1     -12.269  10.323  71.683  1.00  0.00    -0.384 C  
BRANCH  26  27
HETATM   27  C   UNL     1     -12.270   8.802  71.834  1.00  0.00    -0.429 C  
BRANCH  27  28
HETATM   28  C   UNL     1     -10.906   8.197  71.500  1.00  0.00    -0.290 C  
BRANCH  28  29
HETATM   29  C   UNL     1     -10.738   7.861  70.016  1.00  0.00    -0.244 C  
BRANCH  29  30
HETATM   30  C   UNL     1     -11.190   6.449  69.615  1.00  0.00    -0.483 C  
BRANCH  30  31
HETATM   31  C   UNL     1     -10.351   5.311  70.179  1.00  0.00    -0.284 C  
BRANCH  31  32
HETATM   32  S   UNL     1      -9.283   4.548  68.914  1.00  0.00    -0.146 S  
HETATM   33  O   UNL     1      -9.680   3.105  68.807  1.00  0.00    -0.094 OA 
BRANCH  32  34
HETATM   34  C   UNL     1      -9.976   5.404  67.463  1.00  0.00    -0.166 C  
BRANCH  34  35
HETATM   35  C   UNL     1      -8.904   6.144  66.672  1.00  0.00    -0.127 C  
BRANCH  35  36
HETATM   36  C   UNL     1      -7.589   5.366  66.645  1.00  0.00    -0.088 C  
BRANCH  36  37
HETATM   37  C   UNL     1      -6.354   6.264  66.704  1.00  0.00    -0.041 C  
HETATM   38  F   UNL     1      -5.248   5.469  66.786  1.00  0.00    -0.004 F  
HETATM   39  C   UNL     1      -6.374   7.291  67.846  1.00  0.00    -0.048 C  
HETATM   40  F   UNL     1      -6.258   6.898  65.498  1.00  0.00    -0.035 F  
HETATM   41  F   UNL     1      -7.550   7.310  68.508  1.00  0.00    -0.103 F  
HETATM   42  F   UNL     1      -5.399   7.034  68.750  1.00  0.00    -0.014 F  
HETATM   43  F   UNL     1      -6.161   8.552  67.393  1.00  0.00    -0.047 F  
ENDBRANCH  36  37
ENDBRANCH  35  36
ENDBRANCH  34  35
ENDBRANCH  32  34
ENDBRANCH  31  32
ENDBRANCH  30  31
ENDBRANCH  29  30
ENDBRANCH  28  29
ENDBRANCH  27  28
ENDBRANCH  26  27
ENDBRANCH  25  26
ENDBRANCH  24  25
ENDBRANCH  23  24
ENDBRANCH  21  23
TORSDOF 14
ENDMDL
MODEL      177
REMARK 921   NORMALIZED FREE ENERGY PREDICTED BY IDOCK:   -4.19 KCAL/MOL
REMARK 922        TOTAL FREE ENERGY PREDICTED BY IDOCK:  -10.91 KCAL/MOL
REMARK 923 INTER-LIGAND FREE ENERGY PREDICTED BY IDOCK:   -7.27 KCAL/MOL
REMARK 924 INTRA-LIGAND FREE ENERGY PREDICTED BY IDOCK:   -3.64 KCAL/MOL
REMARK 927      BINDING AFFINITY PREDICTED BY RF-SCORE:    0.00 PKD
ROOT
HETATM    1  C   UNL     1      -7.929   4.570  64.177  1.00  0.00    -0.093 C  
HETATM    2  C   UNL     1      -6.717   4.369  64.896  1.00  0.00    -0.045 C  
HETATM    3  C   UNL     1      -7.786   4.917  65.802  1.00  0.00    -0.095 C  
HETATM    4  C   UNL     1      -9.592   4.782  64.880  1.00  0.00    -0.009 C  
HETATM    5  O   UNL     1     -10.981   4.838  65.222  1.00  0.00    -0.651 OA 
HETATM    6  C   UNL     1      -9.028   3.663  65.442  1.00  0.00    -0.136 C  
HETATM    7  C   UNL     1      -9.616   4.464  66.993  1.00  0.00    -0.221 C  
HETATM    8  C   UNL     1      -9.308   2.219  65.228  1.00  0.00    -0.027 C  
HETATM    9  H   UNL     1     -11.825   4.775  64.792  1.00  0.00     0.000 HD 
HETATM   10  C   UNL     1      -9.779   6.234  66.823  1.00  0.00    -0.193 C  
HETATM   11  C   UNL     1      -8.962   7.146  65.628  1.00  0.00     0.019 C  
HETATM   12  C   UNL     1      -9.398   8.593  65.367  1.00  0.00    -0.022 A  
HETATM   13  C   UNL     1     -10.119   9.303  66.345  1.00  0.00    -0.337 A  
HETATM   14  C   UNL     1     -10.352  10.677  66.226  1.00  0.00    -0.296 A  
HETATM   15  C   UNL     1      -9.872  11.357  65.118  1.00  0.00    -0.260 A  
HETATM   16  C   UNL     1      -9.150  10.687  64.141  1.00  0.00    -0.245 A  
HETATM   17  O   UNL     1     -10.068  12.697  64.958  1.00  0.00    -0.347 OA 
HETATM   18  C   UNL     1      -8.870   9.313  64.266  1.00  0.00    -0.185 A  
HETATM   19  H   UNL     1      -9.739  13.163  64.199  1.00  0.00     0.000 HD 
HETATM   20  C   UNL     1      -8.008   8.683  63.186  1.00  0.00    -0.162 C  
HETATM   21  C   UNL     1      -7.253   7.394  63.590  1.00  0.00    -0.072 C  
HETATM   22  C   UNL     1      -8.330   6.433  64.147  1.00  0.00     0.102 C  
ENDROOT
BRANCH  21  23
HETATM   23  C   UNL     1      -6.122   7.700  64.594  1.00  0.00    -0.038 C  
BRANCH  23  24
HETATM   24  C   UNL     1      -5.640   9.137  64.651  1.00  0.00    -0.062 C  
BRANCH  24  25
HETATM   25  C   UNL     1      -5.344   9.548  66.102  1.00  0.00    -0.040 C  
BRANCH  25  26
HETATM   26  C   UNL     1      -6.337  10.562  66.695  1.00  0.00    -0.084 C  
BRANCH  26  27
HETATM   27  C   UNL     1      -6.403  10.547  68.222  1.00  0.00    -0.054 C  
BRANCH  27  28
HETATM   28  C   UNL     1      -7.697   9.907  68.728  1.00  0.00    -0.086 C  
BRANCH  28  29
HETATM   29  C   UNL     1      -7.560   8.412  69.019  1.00  0.00    -0.092 C  
BRANCH  29  30
HETATM   30  C   UNL     1      -6.582   8.057  70.150  1.00  0.00    -0.037 C  
BRANCH  30  31
HETATM   31  C   UNL     1      -6.727   8.882  71.421  1.00  0.00    -0.085 C  
BRANCH  31  32
HETATM   32  S   UNL     1      -7.110   7.851  72.874  1.00  0.00    -0.094 S  
HETATM   33  O   UNL     1      -7.427   8.782  74.008  1.00  0.00    -0.404 OA 
BRANCH  32  34
HETATM   34  C   UNL     1      -8.693   7.173  72.280  1.00  0.00    -0.120 C  
BRANCH  34  35
HETATM   35  C   UNL     1      -9.829   7.434  73.262  1.00  0.00    -0.322 C  
BRANCH  35  36
HETATM   36  C   UNL     1     -11.130   7.777  72.538  1.00  0.00    -0.403 C  
BRANCH  36  37
HETATM   37  C   UNL     1     -11.694   6.616  71.723  1.00  0.00    -0.318 C  
HETATM   38  F   UNL     1     -11.431   5.454  72.389  1.00  0.00    -0.309 F  
HETATM   39  C   UNL     1     -11.176   6.546  70.279  1.00  0.00    -0.374 C  
HETATM   40  F   UNL     1     -13.055   6.740  71.731  1.00  0.00    -0.387 F  
HETATM   41  F   UNL     1     -10.419   7.614  69.946  1.00  0.00    -0.208 F  
HETATM   42  F   UNL     1     -10.426   5.436  70.083  1.00  0.00    -0.292 F  
HETATM   43  F   UNL     1     -12.191   6.493  69.381  1.00  0.00    -0.185 F  
ENDBRANCH  36  37
ENDBRANCH  35  36
ENDBRANCH  34  35
ENDBRANCH  32  34
ENDBRANCH  31  32
ENDBRANCH  30  31
ENDBRANCH  29  30
ENDBRANCH  28  29
ENDBRANCH  27  28
ENDBRANCH  26  27
ENDBRANCH  25  26
ENDBRANCH  24  25
ENDBRANCH  23  24
ENDBRANCH  21  23
TORSDOF 14
ENDMDL
MODEL      178
REMARK 921   NORMALIZED FREE ENERGY PREDICTED BY IDOCK:   -4.19 KCAL/MOL
REMARK 922        TOTAL FREE ENERGY PREDICTED BY IDOCK:  -10.91 KCAL/MOL
REMARK 923 INTER-LIGAND FREE ENERGY PREDICTED BY IDOCK:   -8.97 KCAL/MOL
REMARK 924 INTRA-LIGAND FREE ENERGY PREDICTED BY IDOCK:   -1.94 KCAL/MOL
REMARK 927      BINDING AFFINITY PREDICTED BY RF-SCORE:    0.00 PKD
ROOT
HETATM    1  C   UNL     1      -9.796   9.884  68.285  1.00  0.00    -0.165 C  
HETATM    2  C   UNL     1      -9.375  10.203  69.606  1.00  0.00    -0.215 C  
HETATM    3  C   UNL     1      -8.264   9.535  68.843  1.00  0.00    -0.116 C  
HETATM    4  C   UNL     1      -8.730   9.491  66.866  1.00  0.00    -0.128 C  
HETATM    5  O   UNL     1      -8.073   9.286  65.610  1.00  0.00    -0.107 OA 
HETATM    6  C   UNL     1      -8.276  10.657  67.434  1.00  0.00    -0.115 C  
HETATM    7  C   UNL     1      -6.660   9.780  67.313  1.00  0.00    -0.070 C  
HETATM    8  C   UNL     1      -8.366  12.066  66.969  1.00  0.00    -0.178 C  
HETATM    9  H   UNL     1      -8.290   9.266  64.686  1.00  0.00     0.000 HD 
HETATM   10  C   UNL     1      -6.852   8.005  67.290  1.00  0.00    -0.074 C  
HETATM   11  C   UNL     1      -8.237   7.197  67.886  1.00  0.00    -0.119 C  
HETATM   12  C   UNL     1      -8.440   5.716  67.546  1.00  0.00    -0.102 A  
HETATM   13  C   UNL     1      -7.346   4.923  67.151  1.00  0.00    -0.082 A  
HETATM   14  C   UNL     1      -7.457   3.533  67.034  1.00  0.00    -0.075 A  
HETATM   15  C   UNL     1      -8.671   2.920  67.302  1.00  0.00    -0.123 A  
HETATM   16  C   UNL     1      -9.765   3.674  67.701  1.00  0.00    -0.108 A  
HETATM   17  O   UNL     1      -8.829   1.569  67.206  1.00  0.00    -0.101 OA 
HETATM   18  C   UNL     1      -9.660   5.068  67.865  1.00  0.00    -0.176 A  
HETATM   19  H   UNL     1      -9.660   1.149  67.390  1.00  0.00     0.000 HD 
HETATM   20  C   UNL     1     -10.889   5.797  68.380  1.00  0.00    -0.251 C  
HETATM   21  C   UNL     1     -10.627   7.153  69.078  1.00  0.00    -0.225 C  
HETATM   22  C   UNL     1      -9.798   7.989  68.074  1.00  0.00    -0.198 C  
ENDROOT
BRANCH  21  23
HETATM   23  C   UNL     1      -9.929   6.956  70.439  1.00  0.00    -0.190 C  
BRANCH  23  24
HETATM   24  C   UNL     1     -10.707   7.392  71.667  1.00  0.00    -0.239 C  
BRANCH  24  25
HETATM   25  C   UNL     1     -12.083   6.709  71.703  1.00  0.00    -0.404 C  
BRANCH  25  26
HETATM   26  C   UNL     1     -13.273   7.652  71.458  1.00  0.00    -0.380 C  
BRANCH  26  27
HETATM   27  C   UNL     1     -13.166   8.991  72.186  1.00  0.00    -0.504 C  
BRANCH  27  28
HETATM   28  C   UNL     1     -12.296   9.987  71.417  1.00  0.00    -0.512 C  
BRANCH  28  29
HETATM   29  C   UNL     1     -13.084  11.175  70.859  1.00  0.00    -0.148 C  
BRANCH  29  30
HETATM   30  C   UNL     1     -12.248  12.434  70.579  1.00  0.00    -0.382 C  
BRANCH  30  31
HETATM   31  C   UNL     1     -12.970  13.756  70.793  1.00  0.00    -0.168 C  
BRANCH  31  32
HETATM   32  S   UNL     1     -12.069  15.162  70.062  1.00  0.00    -0.351 S  
HETATM   33  O   UNL     1     -10.746  15.254  70.764  1.00  0.00    -0.276 OA 
BRANCH  32  34
HETATM   34  C   UNL     1     -11.758  14.425  68.426  1.00  0.00    -0.332 C  
BRANCH  34  35
HETATM   35  C   UNL     1     -10.301  14.574  68.002  1.00  0.00    -0.229 C  
BRANCH  35  36
HETATM   36  C   UNL     1     -10.132  15.670  66.950  1.00  0.00    -0.265 C  
BRANCH  36  37
HETATM   37  C   UNL     1      -8.926  16.572  67.205  1.00  0.00    -0.205 C  
HETATM   38  F   UNL     1      -8.286  16.129  68.325  1.00  0.00    -0.149 F  
HETATM   39  C   UNL     1      -9.267  18.064  67.325  1.00  0.00    -0.255 C  
HETATM   40  F   UNL     1      -8.047  16.368  66.179  1.00  0.00    -0.314 F  
HETATM   41  F   UNL     1     -10.560  18.327  67.040  1.00  0.00    -0.368 F  
HETATM   42  F   UNL     1      -9.021  18.522  68.575  1.00  0.00    -0.307 F  
HETATM   43  F   UNL     1      -8.521  18.821  66.481  1.00  0.00    -0.264 F  
ENDBRANCH  36  37
ENDBRANCH  35  36
ENDBRANCH  34  35
ENDBRANCH  32  34
ENDBRANCH  31  32
ENDBRANCH  30  31
ENDBRANCH  29  30
ENDBRANCH  28  29
ENDBRANCH  27  28
ENDBRANCH  26  27
ENDBRANCH  25  26
ENDBRANCH  24  25
ENDBRANCH  23  24
ENDBRANCH  21  23
TORSDOF 14
ENDMDL
MODEL      179
REMARK 921   NORMALIZED FREE ENERGY PREDICTED BY IDOCK:   -4.18 KCAL/MOL
REMARK 922        TOTAL FREE ENERGY PREDICTED BY IDOCK:  -10.90 KCAL/MOL
REMARK 923 INTER-LIGAND FREE ENERGY PREDICTED BY IDOCK:   -7.93 KCAL/MOL
REMARK 924 INTRA-LIGAND FREE ENERGY PREDICTED BY IDOCK:   -2.97 KCAL/MOL
REMARK 927      BINDING AFFINITY PREDICTED BY RF-SCORE:    0.00 PKD
ROOT
HETATM    1  C   UNL     1      -8.450  12.136  67.466  1.00  0.00    -0.169 C  
HETATM    2  C   UNL     1      -8.561  11.392  66.257  1.00  0.00    -0.156 C  
HETATM    3  C   UNL     1      -9.900  11.509  66.933  1.00  0.00    -0.220 C  
HETATM    4  C   UNL     1      -9.803  12.919  68.393  1.00  0.00    -0.197 C  
HETATM    5  O   UNL     1     -10.695  13.705  69.190  1.00  0.00    -0.375 OA 
HETATM    6  C   UNL     1      -9.905  13.304  67.078  1.00  0.00    -0.242 C  
HETATM    7  C   UNL     1     -11.661  12.815  67.342  1.00  0.00    -0.415 C  
HETATM    8  C   UNL     1      -9.612  14.604  66.419  1.00  0.00    -0.323 C  
HETATM    9  H   UNL     1     -10.650  14.365  69.872  1.00  0.00     0.000 HD 
HETATM   10  C   UNL     1     -11.842  11.619  68.655  1.00  0.00    -0.370 C  
HETATM   11  C   UNL     1     -10.568  10.615  69.199  1.00  0.00    -0.256 C  
HETATM   12  C   UNL     1     -10.733   9.851  70.519  1.00  0.00    -0.382 A  
HETATM   13  C   UNL     1     -12.017   9.612  71.044  1.00  0.00    -0.427 A  
HETATM   14  C   UNL     1     -12.213   8.749  72.127  1.00  0.00    -0.448 A  
HETATM   15  C   UNL     1     -11.122   8.120  72.705  1.00  0.00    -0.380 A  
HETATM   16  C   UNL     1      -9.845   8.328  72.205  1.00  0.00    -0.342 A  
HETATM   17  O   UNL     1     -11.261   7.266  73.759  1.00  0.00    -0.529 OA 
HETATM   18  C   UNL     1      -9.634   9.160  71.089  1.00  0.00    -0.347 A  
HETATM   19  H   UNL     1     -10.514   6.835  74.156  1.00  0.00     0.000 HD 
HETATM   20  C   UNL     1      -8.212   9.266  70.566  1.00  0.00    -0.219 C  
HETATM   21  C   UNL     1      -8.067   9.684  69.082  1.00  0.00    -0.104 C  
HETATM   22  C   UNL     1      -8.870  10.998  68.936  1.00  0.00    -0.120 C  
ENDROOT
BRANCH  21  23
HETATM   23  C   UNL     1      -8.544   8.562  68.137  1.00  0.00    -0.138 C  
BRANCH  23  24
HETATM   24  C   UNL     1      -8.426   7.142  68.658  1.00  0.00    -0.125 C  
BRANCH  24  25
HETATM   25  C   UNL     1      -6.959   6.688  68.656  1.00  0.00    -0.080 C  
BRANCH  25  26
HETATM   26  C   UNL     1      -6.712   5.315  69.305  1.00  0.00    -0.052 C  
BRANCH  26  27
HETATM   27  C   UNL     1      -7.760   4.921  70.345  1.00  0.00    -0.062 C  
BRANCH  27  28
HETATM   28  C   UNL     1      -8.445   3.600  69.989  1.00  0.00    -0.095 C  
BRANCH  28  29
HETATM   29  C   UNL     1      -9.628   3.769  69.033  1.00  0.00    -0.190 C  
BRANCH  29  30
HETATM   30  C   UNL     1      -9.335   3.412  67.567  1.00  0.00    -0.248 C  
BRANCH  30  31
HETATM   31  C   UNL     1      -8.392   2.235  67.359  1.00  0.00    -0.079 C  
BRANCH  31  32
HETATM   32  S   UNL     1      -6.842   2.730  66.538  1.00  0.00    -0.045 S  
HETATM   33  O   UNL     1      -5.760   1.826  67.051  1.00  0.00    -0.017 OA 
BRANCH  32  34
HETATM   34  C   UNL     1      -7.265   2.161  64.860  1.00  0.00    -0.054 C  
BRANCH  34  35
HETATM   35  C   UNL     1      -6.951   3.216  63.805  1.00  0.00    -0.048 C  
BRANCH  35  36
HETATM   36  C   UNL     1      -8.015   4.312  63.772  1.00  0.00    -0.089 C  
BRANCH  36  37
HETATM   37  C   UNL     1      -7.441   5.707  63.537  1.00  0.00    -0.066 C  
HETATM   38  F   UNL     1      -6.109   5.585  63.265  1.00  0.00    -0.020 F  
HETATM   39  C   UNL     1      -7.672   6.690  64.695  1.00  0.00    -0.112 C  
HETATM   40  F   UNL     1      -8.004   6.188  62.389  1.00  0.00    -0.070 F  
HETATM   41  F   UNL     1      -8.471   6.180  65.657  1.00  0.00    -0.129 F  
HETATM   42  F   UNL     1      -6.502   7.042  65.278  1.00  0.00    -0.040 F  
HETATM   43  F   UNL     1      -8.256   7.839  64.272  1.00  0.00    -0.146 F  
ENDBRANCH  36  37
ENDBRANCH  35  36
ENDBRANCH  34  35
ENDBRANCH  32  34
ENDBRANCH  31  32
ENDBRANCH  30  31
ENDBRANCH  29  30
ENDBRANCH  28  29
ENDBRANCH  27  28
ENDBRANCH  26  27
ENDBRANCH  25  26
ENDBRANCH  24  25
ENDBRANCH  23  24
ENDBRANCH  21  23
TORSDOF 14
ENDMDL
MODEL      180
REMARK 921   NORMALIZED FREE ENERGY PREDICTED BY IDOCK:   -4.18 KCAL/MOL
REMARK 922        TOTAL FREE ENERGY PREDICTED BY IDOCK:  -10.89 KCAL/MOL
REMARK 923 INTER-LIGAND FREE ENERGY PREDICTED BY IDOCK:   -7.73 KCAL/MOL
REMARK 924 INTRA-LIGAND FREE ENERGY PREDICTED BY IDOCK:   -3.15 KCAL/MOL
REMARK 927      BINDING AFFINITY PREDICTED BY RF-SCORE:    0.00 PKD
ROOT
HETATM    1  C   UNL     1     -11.813  12.389  67.313  1.00  0.00    -0.357 C  
HETATM    2  C   UNL     1     -10.917  13.216  68.048  1.00  0.00    -0.270 C  
HETATM    3  C   UNL     1     -10.347  12.887  66.695  1.00  0.00    -0.258 C  
HETATM    4  C   UNL     1     -11.801  12.093  65.520  1.00  0.00    -0.286 C  
HETATM    5  O   UNL     1     -12.040  11.834  64.132  1.00  0.00    -0.301 OA 
HETATM    6  C   UNL     1     -11.759  13.450  65.731  1.00  0.00    -0.380 C  
HETATM    7  C   UNL     1     -10.384  13.334  64.511  1.00  0.00    -0.394 C  
HETATM    8  C   UNL     1     -12.799  14.497  65.545  1.00  0.00    -0.134 C  
HETATM    9  H   UNL     1     -12.720  11.463  63.582  1.00  0.00     0.000 HD 
HETATM   10  C   UNL     1      -9.630  11.716  64.490  1.00  0.00    -0.135 C  
HETATM   11  C   UNL     1      -9.734  10.609  65.791  1.00  0.00    -0.272 C  
HETATM   12  C   UNL     1      -9.325   9.149  65.562  1.00  0.00    -0.287 A  
HETATM   13  C   UNL     1      -8.482   8.810  64.488  1.00  0.00    -0.158 A  
HETATM   14  C   UNL     1      -7.926   7.531  64.372  1.00  0.00    -0.117 A  
HETATM   15  C   UNL     1      -8.218   6.571  65.327  1.00  0.00    -0.135 A  
HETATM   16  C   UNL     1      -9.039   6.877  66.403  1.00  0.00    -0.185 A  
HETATM   17  O   UNL     1      -7.698   5.312  65.262  1.00  0.00    -0.080 OA 
HETATM   18  C   UNL     1      -9.572   8.171  66.558  1.00  0.00    -0.303 A  
HETATM   19  H   UNL     1      -7.898   4.654  65.916  1.00  0.00     0.000 HD 
HETATM   20  C   UNL     1     -10.397   8.433  67.806  1.00  0.00    -0.297 C  
HETATM   21  C   UNL     1     -10.492   9.911  68.255  1.00  0.00    -0.246 C  
HETATM   22  C   UNL     1     -10.994  10.694  67.018  1.00  0.00    -0.274 C  
ENDROOT
BRANCH  21  23
HETATM   23  C   UNL     1      -9.141  10.419  68.799  1.00  0.00    -0.165 C  
BRANCH  23  24
HETATM   24  C   UNL     1      -8.361   9.457  69.676  1.00  0.00    -0.147 C  
BRANCH  24  25
HETATM   25  C   UNL     1      -6.961  10.015  69.974  1.00  0.00    -0.135 C  
BRANCH  25  26
HETATM   26  C   UNL     1      -6.224   9.314  71.128  1.00  0.00    -0.075 C  
BRANCH  26  27
HETATM   27  C   UNL     1      -7.150   8.617  72.125  1.00  0.00    -0.063 C  
BRANCH  27  28
HETATM   28  C   UNL     1      -6.373   8.019  73.299  1.00  0.00    -0.082 C  
BRANCH  28  29
HETATM   29  C   UNL     1      -6.209   6.500  73.205  1.00  0.00    -0.063 C  
BRANCH  29  30
HETATM   30  C   UNL     1      -5.663   5.987  71.863  1.00  0.00    -0.031 C  
BRANCH  30  31
HETATM   31  C   UNL     1      -5.940   4.521  71.565  1.00  0.00    -0.017 C  
BRANCH  31  32
HETATM   32  S   UNL     1      -6.512   4.260  69.854  1.00  0.00    -0.033 S  
HETATM   33  O   UNL     1      -7.518   3.147  69.886  1.00  0.00    -0.044 OA 
BRANCH  32  34
HETATM   34  C   UNL     1      -7.441   5.816  69.670  1.00  0.00    -0.075 C  
BRANCH  34  35
HETATM   35  C   UNL     1      -8.933   5.621  69.912  1.00  0.00    -0.142 C  
BRANCH  35  36
HETATM   36  C   UNL     1      -9.375   6.247  71.234  1.00  0.00    -0.164 C  
BRANCH  36  37
HETATM   37  C   UNL     1      -9.989   5.241  72.206  1.00  0.00    -0.177 C  
HETATM   38  F   UNL     1     -10.469   4.186  71.486  1.00  0.00    -0.210 F  
HETATM   39  C   UNL     1     -11.081   5.825  73.113  1.00  0.00    -0.247 C  
HETATM   40  F   UNL     1      -8.969   4.733  72.959  1.00  0.00    -0.114 F  
HETATM   41  F   UNL     1     -11.202   7.164  72.986  1.00  0.00    -0.298 F  
HETATM   42  F   UNL     1     -12.288   5.277  72.839  1.00  0.00    -0.314 F  
HETATM   43  F   UNL     1     -10.832   5.579  74.424  1.00  0.00    -0.267 F  
ENDBRANCH  36  37
ENDBRANCH  35  36
ENDBRANCH  34  35
ENDBRANCH  32  34
ENDBRANCH  31  32
ENDBRANCH  30  31
ENDBRANCH  29  30
ENDBRANCH  28  29
ENDBRANCH  27  28
ENDBRANCH  26  27
ENDBRANCH  25  26
ENDBRANCH  24  25
ENDBRANCH  23  24
ENDBRANCH  21  23
TORSDOF 14
ENDMDL
MODEL      181
REMARK 921   NORMALIZED FREE ENERGY PREDICTED BY IDOCK:   -4.16 KCAL/MOL
REMARK 922        TOTAL FREE ENERGY PREDICTED BY IDOCK:  -10.87 KCAL/MOL
REMARK 923 INTER-LIGAND FREE ENERGY PREDICTED BY IDOCK:   -8.15 KCAL/MOL
REMARK 924 INTRA-LIGAND FREE ENERGY PREDICTED BY IDOCK:   -2.72 KCAL/MOL
REMARK 927      BINDING AFFINITY PREDICTED BY RF-SCORE:    0.00 PKD
ROOT
HETATM    1  C   UNL     1      -8.596  11.993  67.234  1.00  0.00    -0.177 C  
HETATM    2  C   UNL     1      -8.586  11.169  66.074  1.00  0.00    -0.154 C  
HETATM    3  C   UNL     1      -9.965  11.224  66.673  1.00  0.00    -0.242 C  
HETATM    4  C   UNL     1     -10.052  12.725  68.039  1.00  0.00    -0.230 C  
HETATM    5  O   UNL     1     -11.042  13.488  68.737  1.00  0.00    -0.246 OA 
HETATM    6  C   UNL     1     -10.110  13.018  66.698  1.00  0.00    -0.251 C  
HETATM    7  C   UNL     1     -11.837  12.412  66.907  1.00  0.00    -0.377 C  
HETATM    8  C   UNL     1      -9.880  14.294  65.970  1.00  0.00    -0.336 C  
HETATM    9  H   UNL     1     -11.083  14.190  69.376  1.00  0.00     0.000 HD 
HETATM   10  C   UNL     1     -12.000  11.289  68.286  1.00  0.00    -0.215 C  
HETATM   11  C   UNL     1     -10.686  10.423  68.958  1.00  0.00    -0.260 C  
HETATM   12  C   UNL     1     -10.865   9.732  70.315  1.00  0.00    -0.356 A  
HETATM   13  C   UNL     1     -12.155   9.428  70.791  1.00  0.00    -0.270 A  
HETATM   14  C   UNL     1     -12.345   8.620  71.918  1.00  0.00    -0.414 A  
HETATM   15  C   UNL     1     -11.243   8.115  72.589  1.00  0.00    -0.378 A  
HETATM   16  C   UNL     1      -9.960   8.390  72.140  1.00  0.00    -0.376 A  
HETATM   17  O   UNL     1     -11.375   7.321  73.689  1.00  0.00    -0.542 OA 
HETATM   18  C   UNL     1      -9.751   9.166  70.983  1.00  0.00    -0.359 A  
HETATM   19  H   UNL     1     -10.621   6.975  74.150  1.00  0.00     0.000 HD 
HETATM   20  C   UNL     1      -8.314   9.349  70.525  1.00  0.00    -0.233 C  
HETATM   21  C   UNL     1      -8.121   9.683  69.027  1.00  0.00    -0.103 C  
HETATM   22  C   UNL     1      -9.010  10.920  68.754  1.00  0.00    -0.166 C  
ENDROOT
BRANCH  21  23
HETATM   23  C   UNL     1      -8.461   8.472  68.135  1.00  0.00    -0.134 C  
BRANCH  23  24
HETATM   24  C   UNL     1      -8.193   7.100  68.727  1.00  0.00    -0.122 C  
BRANCH  24  25
HETATM   25  C   UNL     1      -6.685   6.805  68.740  1.00  0.00    -0.056 C  
BRANCH  25  26
HETATM   26  C   UNL     1      -6.173   6.147  70.033  1.00  0.00    -0.031 C  
BRANCH  26  27
HETATM   27  C   UNL     1      -6.981   6.510  71.278  1.00  0.00    -0.075 C  
BRANCH  27  28
HETATM   28  C   UNL     1      -7.495   5.266  72.004  1.00  0.00    -0.097 C  
BRANCH  28  29
HETATM   29  C   UNL     1      -8.866   4.800  71.510  1.00  0.00    -0.151 C  
BRANCH  29  30
HETATM   30  C   UNL     1      -8.830   3.710  70.426  1.00  0.00    -0.144 C  
BRANCH  30  31
HETATM   31  C   UNL     1      -7.845   2.577  70.673  1.00  0.00    -0.042 C  
BRANCH  31  32
HETATM   32  S   UNL     1      -6.470   2.584  69.477  1.00  0.00    -0.029 S  
HETATM   33  O   UNL     1      -5.460   1.582  69.954  1.00  0.00    -0.011 OA 
BRANCH  32  34
HETATM   34  C   UNL     1      -7.361   1.823  68.081  1.00  0.00    -0.043 C  
BRANCH  34  35
HETATM   35  C   UNL     1      -7.193   2.624  66.794  1.00  0.00    -0.053 C  
BRANCH  35  36
HETATM   36  C   UNL     1      -7.930   3.960  66.863  1.00  0.00    -0.096 C  
BRANCH  36  37
HETATM   37  C   UNL     1      -9.450   3.815  66.818  1.00  0.00    -0.194 C  
HETATM   38  F   UNL     1      -9.751   2.523  66.499  1.00  0.00    -0.010 F  
HETATM   39  C   UNL     1     -10.150   4.791  65.860  1.00  0.00    -0.242 C  
HETATM   40  F   UNL     1      -9.910   3.992  68.092  1.00  0.00    -0.213 F  
HETATM   41  F   UNL     1      -9.302   5.701  65.334  1.00  0.00    -0.144 F  
HETATM   42  F   UNL     1     -10.732   4.131  64.831  1.00  0.00    -0.263 F  
HETATM   43  F   UNL     1     -11.134   5.488  66.481  1.00  0.00    -0.312 F  
ENDBRANCH  36  37
ENDBRANCH  35  36
ENDBRANCH  34  35
ENDBRANCH  32  34
ENDBRANCH  31  32
ENDBRANCH  30  31
ENDBRANCH  29  30
ENDBRANCH  28  29
ENDBRANCH  27  28
ENDBRANCH  26  27
ENDBRANCH  25  26
ENDBRANCH  24  25
ENDBRANCH  23  24
ENDBRANCH  21  23
TORSDOF 14
ENDMDL
MODEL      182
REMARK 921   NORMALIZED FREE ENERGY PREDICTED BY IDOCK:   -4.16 KCAL/MOL
REMARK 922        TOTAL FREE ENERGY PREDICTED BY IDOCK:  -10.86 KCAL/MOL
REMARK 923 INTER-LIGAND FREE ENERGY PREDICTED BY IDOCK:   -8.78 KCAL/MOL
REMARK 924 INTRA-LIGAND FREE ENERGY PREDICTED BY IDOCK:   -2.08 KCAL/MOL
REMARK 927      BINDING AFFINITY PREDICTED BY RF-SCORE:    0.00 PKD
ROOT
HETATM    1  C   UNL     1      -7.672   7.148  67.590  1.00  0.00    -0.112 C  
HETATM    2  C   UNL     1      -6.665   6.416  68.281  1.00  0.00    -0.068 C  
HETATM    3  C   UNL     1      -8.000   5.733  68.409  1.00  0.00    -0.104 C  
HETATM    4  C   UNL     1      -9.305   6.537  67.076  1.00  0.00    -0.139 C  
HETATM    5  O   UNL     1     -10.567   6.217  66.481  1.00  0.00    -0.436 OA 
HETATM    6  C   UNL     1      -8.357   5.640  66.646  1.00  0.00    -0.112 C  
HETATM    7  C   UNL     1      -9.521   4.438  67.418  1.00  0.00    -0.201 C  
HETATM    8  C   UNL     1      -7.830   5.358  65.285  1.00  0.00    -0.097 C  
HETATM    9  H   UNL     1     -11.177   6.593  65.857  1.00  0.00     0.000 HD 
HETATM   10  C   UNL     1     -10.523   5.186  68.692  1.00  0.00    -0.095 C  
HETATM   11  C   UNL     1     -10.091   6.626  69.510  1.00  0.00    -0.197 C  
HETATM   12  C   UNL     1     -11.146   7.349  70.355  1.00  0.00    -0.284 A  
HETATM   13  C   UNL     1     -12.280   6.655  70.818  1.00  0.00    -0.302 A  
HETATM   14  C   UNL     1     -13.150   7.222  71.755  1.00  0.00    -0.365 A  
HETATM   15  C   UNL     1     -12.901   8.499  72.233  1.00  0.00    -0.355 A  
HETATM   16  C   UNL     1     -11.787   9.205  71.802  1.00  0.00    -0.453 A  
HETATM   17  O   UNL     1     -13.716   9.094  73.149  1.00  0.00    -0.980 OA 
HETATM   18  C   UNL     1     -10.878   8.633  70.892  1.00  0.00    -0.288 A  
HETATM   19  H   UNL     1     -13.545   9.969  73.477  1.00  0.00     0.000 HD 
HETATM   20  C   UNL     1      -9.648   9.451  70.539  1.00  0.00    -0.330 C  
HETATM   21  C   UNL     1      -8.426   8.649  70.030  1.00  0.00    -0.130 C  
HETATM   22  C   UNL     1      -8.947   7.792  68.852  1.00  0.00    -0.141 C  
ENDROOT
BRANCH  21  23
HETATM   23  C   UNL     1      -7.791   7.817  71.163  1.00  0.00    -0.089 C  
BRANCH  23  24
HETATM   24  C   UNL     1      -6.283   7.907  71.305  1.00  0.00    -0.034 C  
BRANCH  24  25
HETATM   25  C   UNL     1      -5.872   9.298  71.809  1.00  0.00    -0.060 C  
BRANCH  25  26
HETATM   26  C   UNL     1      -5.132  10.162  70.773  1.00  0.00    -0.050 C  
BRANCH  26  27
HETATM   27  C   UNL     1      -5.908  10.376  69.473  1.00  0.00    -0.039 C  
BRANCH  27  28
HETATM   28  C   UNL     1      -5.843  11.832  69.007  1.00  0.00    -0.054 C  
BRANCH  28  29
HETATM   29  C   UNL     1      -5.128  12.754  69.997  1.00  0.00    -0.086 C  
BRANCH  29  30
HETATM   30  C   UNL     1      -5.663  14.193  70.047  1.00  0.00    -0.123 C  
BRANCH  30  31
HETATM   31  C   UNL     1      -6.514  14.614  68.858  1.00  0.00    -0.090 C  
BRANCH  31  32
HETATM   32  S   UNL     1      -8.292  14.655  69.260  1.00  0.00     0.093 S  
HETATM   33  O   UNL     1      -8.835  15.953  68.740  1.00  0.00    -0.187 OA 
BRANCH  32  34
HETATM   34  C   UNL     1      -8.830  13.350  68.110  1.00  0.00    -0.180 C  
BRANCH  34  35
HETATM   35  C   UNL     1     -10.344  13.336  67.931  1.00  0.00    -0.239 C  
BRANCH  35  36
HETATM   36  C   UNL     1     -10.739  13.512  66.466  1.00  0.00    -0.287 C  
BRANCH  36  37
HETATM   37  C   UNL     1     -11.367  12.262  65.854  1.00  0.00    -0.360 C  
HETATM   38  F   UNL     1     -10.815  11.166  66.450  1.00  0.00    -0.301 F  
HETATM   39  C   UNL     1     -11.240  12.174  64.326  1.00  0.00    -0.347 C  
HETATM   40  F   UNL     1     -12.683  12.252  66.220  1.00  0.00     0.067 F  
HETATM   41  F   UNL     1     -10.717  13.294  63.782  1.00  0.00    -0.363 F  
HETATM   42  F   UNL     1     -10.452  11.135  63.961  1.00  0.00    -0.341 F  
HETATM   43  F   UNL     1     -12.443  11.977  63.730  1.00  0.00    -0.525 F  
ENDBRANCH  36  37
ENDBRANCH  35  36
ENDBRANCH  34  35
ENDBRANCH  32  34
ENDBRANCH  31  32
ENDBRANCH  30  31
ENDBRANCH  29  30
ENDBRANCH  28  29
ENDBRANCH  27  28
ENDBRANCH  26  27
ENDBRANCH  25  26
ENDBRANCH  24  25
ENDBRANCH  23  24
ENDBRANCH  21  23
TORSDOF 14
ENDMDL
MODEL      183
REMARK 921   NORMALIZED FREE ENERGY PREDICTED BY IDOCK:   -4.11 KCAL/MOL
REMARK 922        TOTAL FREE ENERGY PREDICTED BY IDOCK:  -10.76 KCAL/MOL
REMARK 923 INTER-LIGAND FREE ENERGY PREDICTED BY IDOCK:   -9.23 KCAL/MOL
REMARK 924 INTRA-LIGAND FREE ENERGY PREDICTED BY IDOCK:   -1.53 KCAL/MOL
REMARK 927      BINDING AFFINITY PREDICTED BY RF-SCORE:    0.00 PKD
ROOT
HETATM    1  C   UNL     1     -10.915   7.555  71.440  1.00  0.00    -0.254 C  
HETATM    2  C   UNL     1     -12.239   7.603  70.920  1.00  0.00    -0.194 C  
HETATM    3  C   UNL     1     -11.348   6.782  70.028  1.00  0.00    -0.396 C  
HETATM    4  C   UNL     1      -9.612   6.368  70.997  1.00  0.00    -0.175 C  
HETATM    5  O   UNL     1      -8.506   5.466  70.885  1.00  0.00    -0.115 OA 
HETATM    6  C   UNL     1     -10.749   5.662  71.304  1.00  0.00    -0.312 C  
HETATM    7  C   UNL     1     -10.339   4.818  69.718  1.00  0.00    -0.096 C  
HETATM    8  C   UNL     1     -11.091   4.834  72.490  1.00  0.00    -0.124 C  
HETATM    9  H   UNL     1      -7.694   5.272  71.338  1.00  0.00     0.000 HD 
HETATM   10  C   UNL     1      -9.366   5.850  68.633  1.00  0.00    -0.126 C  
HETATM   11  C   UNL     1      -9.311   7.556  68.750  1.00  0.00    -0.147 C  
HETATM   12  C   UNL     1      -8.223   8.321  67.987  1.00  0.00    -0.128 A  
HETATM   13  C   UNL     1      -7.576   7.725  66.888  1.00  0.00    -0.099 A  
HETATM   14  C   UNL     1      -6.734   8.462  66.049  1.00  0.00    -0.061 A  
HETATM   15  C   UNL     1      -6.521   9.807  66.308  1.00  0.00    -0.072 A  
HETATM   16  C   UNL     1      -7.151  10.425  67.378  1.00  0.00    -0.087 A  
HETATM   17  O   UNL     1      -5.713  10.570  65.518  1.00  0.00    -0.104 OA 
HETATM   18  C   UNL     1      -8.034   9.708  68.207  1.00  0.00    -0.096 A  
HETATM   19  H   UNL     1      -5.567  11.492  65.694  1.00  0.00     0.000 HD 
HETATM   20  C   UNL     1      -8.736  10.488  69.306  1.00  0.00    -0.135 C  
HETATM   21  C   UNL     1     -10.066   9.884  69.819  1.00  0.00    -0.274 C  
HETATM   22  C   UNL     1      -9.738   8.426  70.220  1.00  0.00    -0.178 C  
ENDROOT
BRANCH  21  23
HETATM   23  C   UNL     1     -11.178   9.996  68.756  1.00  0.00    -0.173 C  
BRANCH  23  24
HETATM   24  C   UNL     1     -10.762  10.526  67.396  1.00  0.00    -0.334 C  
BRANCH  24  25
HETATM   25  C   UNL     1     -11.748  11.600  66.913  1.00  0.00    -0.133 C  
BRANCH  25  26
HETATM   26  C   UNL     1     -11.427  12.188  65.528  1.00  0.00    -0.394 C  
BRANCH  26  27
HETATM   27  C   UNL     1     -11.290  13.711  65.515  1.00  0.00    -0.308 C  
BRANCH  27  28
HETATM   28  C   UNL     1     -11.858  14.342  66.786  1.00  0.00    -0.431 C  
BRANCH  28  29
HETATM   29  C   UNL     1     -10.788  14.968  67.682  1.00  0.00    -0.291 C  
BRANCH  29  30
HETATM   30  C   UNL     1      -9.622  14.037  68.049  1.00  0.00    -0.217 C  
BRANCH  30  31
HETATM   31  C   UNL     1      -8.371  14.189  67.195  1.00  0.00    -0.169 C  
BRANCH  31  32
HETATM   32  S   UNL     1      -6.954  14.822  68.151  1.00  0.00    -0.141 S  
HETATM   33  O   UNL     1      -5.932  15.305  67.164  1.00  0.00    -0.290 OA 
BRANCH  32  34
HETATM   34  C   UNL     1      -7.769  16.296  68.844  1.00  0.00    -0.219 C  
BRANCH  34  35
HETATM   35  C   UNL     1      -7.178  17.587  68.289  1.00  0.00    -0.217 C  
BRANCH  35  36
HETATM   36  C   UNL     1      -7.916  18.048  67.032  1.00  0.00    -0.237 C  
BRANCH  36  37
HETATM   37  C   UNL     1      -8.413  19.489  67.117  1.00  0.00    -0.295 C  
HETATM   38  F   UNL     1      -7.473  20.232  67.769  1.00  0.00    -0.306 F  
HETATM   39  C   UNL     1      -9.789  19.645  67.782  1.00  0.00    -0.383 C  
HETATM   40  F   UNL     1      -8.446  19.980  65.842  1.00  0.00    -0.362 F  
HETATM   41  F   UNL     1     -10.377  18.458  68.045  1.00  0.00    -0.337 F  
HETATM   42  F   UNL     1      -9.692  20.322  68.950  1.00  0.00    -0.295 F  
HETATM   43  F   UNL     1     -10.651  20.341  66.999  1.00  0.00    -0.526 F  
ENDBRANCH  36  37
ENDBRANCH  35  36
ENDBRANCH  34  35
ENDBRANCH  32  34
ENDBRANCH  31  32
ENDBRANCH  30  31
ENDBRANCH  29  30
ENDBRANCH  28  29
ENDBRANCH  27  28
ENDBRANCH  26  27
ENDBRANCH  25  26
ENDBRANCH  24  25
ENDBRANCH  23  24
ENDBRANCH  21  23
TORSDOF 14
ENDMDL
MODEL      184
REMARK 921   NORMALIZED FREE ENERGY PREDICTED BY IDOCK:   -4.09 KCAL/MOL
REMARK 922        TOTAL FREE ENERGY PREDICTED BY IDOCK:  -10.74 KCAL/MOL
REMARK 923 INTER-LIGAND FREE ENERGY PREDICTED BY IDOCK:   -8.53 KCAL/MOL
REMARK 924 INTRA-LIGAND FREE ENERGY PREDICTED BY IDOCK:   -2.21 KCAL/MOL
REMARK 927      BINDING AFFINITY PREDICTED BY RF-SCORE:    0.00 PKD
ROOT
HETATM    1  C   UNL     1      -9.514   3.616  66.588  1.00  0.00    -0.197 C  
HETATM    2  C   UNL     1     -10.163   4.413  65.603  1.00  0.00    -0.259 C  
HETATM    3  C   UNL     1      -8.834   5.011  65.977  1.00  0.00    -0.130 C  
HETATM    4  C   UNL     1      -7.752   3.654  67.033  1.00  0.00    -0.080 C  
HETATM    5  O   UNL     1      -6.395   3.440  67.436  1.00  0.00    -0.035 OA 
HETATM    6  C   UNL     1      -7.847   3.537  65.667  1.00  0.00    -0.089 C  
HETATM    7  C   UNL     1      -6.621   4.911  65.725  1.00  0.00    -0.044 C  
HETATM    8  C   UNL     1      -7.589   2.381  64.769  1.00  0.00    -0.072 C  
HETATM    9  H   UNL     1      -5.889   2.805  67.929  1.00  0.00     0.000 HD 
HETATM   10  C   UNL     1      -6.726   5.849  67.241  1.00  0.00    -0.061 C  
HETATM   11  C   UNL     1      -8.116   5.882  68.237  1.00  0.00    -0.109 C  
HETATM   12  C   UNL     1      -8.005   6.458  69.654  1.00  0.00    -0.116 A  
HETATM   13  C   UNL     1      -6.951   7.331  69.983  1.00  0.00    -0.060 A  
HETATM   14  C   UNL     1      -6.935   8.032  71.193  1.00  0.00    -0.051 A  
HETATM   15  C   UNL     1      -7.972   7.860  72.095  1.00  0.00    -0.119 A  
HETATM   16  C   UNL     1      -9.030   7.014  71.796  1.00  0.00    -0.135 A  
HETATM   17  O   UNL     1      -8.005   8.523  73.287  1.00  0.00    -0.363 OA 
HETATM   18  C   UNL     1      -9.083   6.333  70.565  1.00  0.00    -0.157 A  
HETATM   19  H   UNL     1      -8.716   8.405  73.905  1.00  0.00     0.000 HD 
HETATM   20  C   UNL     1     -10.318   5.490  70.295  1.00  0.00    -0.349 C  
HETATM   21  C   UNL     1     -10.642   5.223  68.806  1.00  0.00    -0.115 C  
HETATM   22  C   UNL     1      -9.351   4.627  68.195  1.00  0.00    -0.177 C  
ENDROOT
BRANCH  21  23
HETATM   23  C   UNL     1     -11.121   6.508  68.099  1.00  0.00    -0.332 C  
BRANCH  23  24
HETATM   24  C   UNL     1     -10.126   7.180  67.171  1.00  0.00    -0.293 C  
BRANCH  24  25
HETATM   25  C   UNL     1     -10.432   8.681  67.051  1.00  0.00    -0.354 C  
BRANCH  25  26
HETATM   26  C   UNL     1      -9.870   9.350  65.784  1.00  0.00    -0.345 C  
BRANCH  26  27
HETATM   27  C   UNL     1      -8.766  10.371  66.058  1.00  0.00    -0.163 C  
BRANCH  27  28
HETATM   28  C   UNL     1      -8.280  10.308  67.507  1.00  0.00    -0.114 C  
BRANCH  28  29
HETATM   29  C   UNL     1      -8.160  11.683  68.166  1.00  0.00    -0.148 C  
BRANCH  29  30
HETATM   30  C   UNL     1      -8.649  12.860  67.308  1.00  0.00    -0.205 C  
BRANCH  30  31
HETATM   31  C   UNL     1      -9.428  13.933  68.055  1.00  0.00    -0.208 C  
BRANCH  31  32
HETATM   32  S   UNL     1     -11.065  14.240  67.314  1.00  0.00    -0.317 S  
HETATM   33  O   UNL     1     -11.332  13.124  66.347  1.00  0.00    -0.296 OA 
BRANCH  32  34
HETATM   34  C   UNL     1     -12.068  13.911  68.799  1.00  0.00    -0.309 C  
BRANCH  34  35
HETATM   35  C   UNL     1     -11.423  12.866  69.703  1.00  0.00    -0.251 C  
BRANCH  35  36
HETATM   36  C   UNL     1     -11.880  11.453  69.342  1.00  0.00    -0.419 C  
BRANCH  36  37
HETATM   37  C   UNL     1     -12.355  10.645  70.547  1.00  0.00    -0.359 C  
HETATM   38  F   UNL     1     -12.480  11.490  71.611  1.00  0.00    -0.389 F  
HETATM   39  C   UNL     1     -11.456   9.451  70.902  1.00  0.00    -0.316 C  
HETATM   40  F   UNL     1     -13.623  10.217  70.271  1.00  0.00    -0.265 F  
HETATM   41  F   UNL     1     -10.480   9.247  69.992  1.00  0.00    -0.195 F  
HETATM   42  F   UNL     1     -10.864   9.628  72.106  1.00  0.00    -0.227 F  
HETATM   43  F   UNL     1     -12.162   8.295  70.982  1.00  0.00    -0.304 F  
ENDBRANCH  36  37
ENDBRANCH  35  36
ENDBRANCH  34  35
ENDBRANCH  32  34
ENDBRANCH  31  32
ENDBRANCH  30  31
ENDBRANCH  29  30
ENDBRANCH  28  29
ENDBRANCH  27  28
ENDBRANCH  26  27
ENDBRANCH  25  26
ENDBRANCH  24  25
ENDBRANCH  23  24
ENDBRANCH  21  23
TORSDOF 14
ENDMDL
MODEL      185
REMARK 921   NORMALIZED FREE ENERGY PREDICTED BY IDOCK:   -4.08 KCAL/MOL
REMARK 922        TOTAL FREE ENERGY PREDICTED BY IDOCK:  -10.72 KCAL/MOL
REMARK 923 INTER-LIGAND FREE ENERGY PREDICTED BY IDOCK:   -7.82 KCAL/MOL
REMARK 924 INTRA-LIGAND FREE ENERGY PREDICTED BY IDOCK:   -2.90 KCAL/MOL
REMARK 927      BINDING AFFINITY PREDICTED BY RF-SCORE:    0.00 PKD
ROOT
HETATM    1  C   UNL     1      -7.952   3.658  71.288  1.00  0.00    -0.060 C  
HETATM    2  C   UNL     1      -6.596   3.764  70.869  1.00  0.00    -0.031 C  
HETATM    3  C   UNL     1      -6.981   4.942  71.723  1.00  0.00    -0.056 C  
HETATM    4  C   UNL     1      -8.744   4.556  72.655  1.00  0.00    -0.113 C  
HETATM    5  O   UNL     1      -9.512   5.059  73.754  1.00  0.00    -0.128 OA 
HETATM    6  C   UNL     1      -7.585   3.992  73.128  1.00  0.00    -0.075 C  
HETATM    7  C   UNL     1      -7.335   5.691  73.793  1.00  0.00    -0.087 C  
HETATM    8  C   UNL     1      -7.365   2.829  74.028  1.00  0.00    -0.042 C  
HETATM    9  H   UNL     1     -10.336   4.880  74.190  1.00  0.00     0.000 HD 
HETATM   10  C   UNL     1      -8.222   6.924  72.853  1.00  0.00    -0.117 C  
HETATM   11  C   UNL     1      -8.741   6.688  71.240  1.00  0.00    -0.129 C  
HETATM   12  C   UNL     1      -9.750   7.669  70.630  1.00  0.00    -0.174 A  
HETATM   13  C   UNL     1      -9.911   8.954  71.182  1.00  0.00    -0.342 A  
HETATM   14  C   UNL     1     -10.664   9.938  70.533  1.00  0.00    -0.382 A  
HETATM   15  C   UNL     1     -11.275   9.643  69.324  1.00  0.00    -0.047 A  
HETATM   16  C   UNL     1     -11.127   8.389  68.750  1.00  0.00     0.282 A  
HETATM   17  O   UNL     1     -12.016  10.569  68.650  1.00  0.00    -0.721 OA 
HETATM   18  C   UNL     1     -10.338   7.400  69.369  1.00  0.00    -0.211 A  
HETATM   19  H   UNL     1     -12.434  10.367  67.822  1.00  0.00     0.000 HD 
HETATM   20  C   UNL     1     -10.173   6.085  68.627  1.00  0.00    -0.233 C  
HETATM   21  C   UNL     1      -8.916   5.259  68.990  1.00  0.00    -0.126 C  
HETATM   22  C   UNL     1      -8.951   5.092  70.527  1.00  0.00    -0.160 C  
ENDROOT
BRANCH  21  23
HETATM   23  C   UNL     1      -7.631   5.940  68.474  1.00  0.00    -0.090 C  
BRANCH  23  24
HETATM   24  C   UNL     1      -7.673   6.475  67.055  1.00  0.00    -0.100 C  
BRANCH  24  25
HETATM   25  C   UNL     1      -6.873   7.782  66.949  1.00  0.00    -0.072 C  
BRANCH  25  26
HETATM   26  C   UNL     1      -6.841   8.621  68.238  1.00  0.00    -0.066 C  
BRANCH  26  27
HETATM   27  C   UNL     1      -7.813   9.800  68.237  1.00  0.00    -0.089 C  
BRANCH  27  28
HETATM   28  C   UNL     1      -7.107  11.118  68.563  1.00  0.00    -0.080 C  
BRANCH  28  29
HETATM   29  C   UNL     1      -7.615  12.298  67.732  1.00  0.00    -0.131 C  
BRANCH  29  30
HETATM   30  C   UNL     1      -8.476  13.312  68.501  1.00  0.00    -0.067 C  
BRANCH  30  31
HETATM   31  C   UNL     1      -8.134  14.775  68.259  1.00  0.00    -0.139 C  
BRANCH  31  32
HETATM   32  S   UNL     1      -9.403  15.900  68.926  1.00  0.00    -0.248 S  
HETATM   33  O   UNL     1      -9.411  17.125  68.058  1.00  0.00    -0.251 OA 
BRANCH  32  34
HETATM   34  C   UNL     1     -10.864  14.913  68.473  1.00  0.00    -0.247 C  
BRANCH  34  35
HETATM   35  C   UNL     1     -11.149  14.968  66.976  1.00  0.00    -0.334 C  
BRANCH  35  36
HETATM   36  C   UNL     1     -12.271  14.010  66.582  1.00  0.00    -0.463 C  
BRANCH  36  37
HETATM   37  C   UNL     1     -11.854  12.993  65.521  1.00  0.00    -0.395 C  
HETATM   38  F   UNL     1     -10.879  12.197  66.048  1.00  0.00    -0.278 F  
HETATM   39  C   UNL     1     -11.393  13.616  64.195  1.00  0.00    -0.304 C  
HETATM   40  F   UNL     1     -12.922  12.168  65.310  1.00  0.00    -0.192 F  
HETATM   41  F   UNL     1     -11.576  14.953  64.158  1.00  0.00    -0.306 F  
HETATM   42  F   UNL     1     -10.079  13.376  63.974  1.00  0.00    -0.415 F  
HETATM   43  F   UNL     1     -12.065  13.101  63.136  1.00  0.00    -0.598 F  
ENDBRANCH  36  37
ENDBRANCH  35  36
ENDBRANCH  34  35
ENDBRANCH  32  34
ENDBRANCH  31  32
ENDBRANCH  30  31
ENDBRANCH  29  30
ENDBRANCH  28  29
ENDBRANCH  27  28
ENDBRANCH  26  27
ENDBRANCH  25  26
ENDBRANCH  24  25
ENDBRANCH  23  24
ENDBRANCH  21  23
TORSDOF 14
ENDMDL
MODEL      186
REMARK 921   NORMALIZED FREE ENERGY PREDICTED BY IDOCK:   -4.07 KCAL/MOL
REMARK 922        TOTAL FREE ENERGY PREDICTED BY IDOCK:  -10.70 KCAL/MOL
REMARK 923 INTER-LIGAND FREE ENERGY PREDICTED BY IDOCK:   -8.81 KCAL/MOL
REMARK 924 INTRA-LIGAND FREE ENERGY PREDICTED BY IDOCK:   -1.89 KCAL/MOL
REMARK 927      BINDING AFFINITY PREDICTED BY RF-SCORE:    0.00 PKD
ROOT
HETATM    1  C   UNL     1      -8.032   7.037  64.455  1.00  0.00    -0.104 C  
HETATM    2  C   UNL     1      -6.660   7.408  64.527  1.00  0.00    -0.040 C  
HETATM    3  C   UNL     1      -7.034   6.532  65.692  1.00  0.00    -0.057 C  
HETATM    4  C   UNL     1      -8.839   5.669  65.340  1.00  0.00    -0.106 C  
HETATM    5  O   UNL     1      -9.626   4.581  65.837  1.00  0.00    -0.157 OA 
HETATM    6  C   UNL     1      -7.716   5.176  64.722  1.00  0.00    -0.086 C  
HETATM    7  C   UNL     1      -7.432   4.453  66.392  1.00  0.00    -0.082 C  
HETATM    8  C   UNL     1      -7.565   4.306  63.527  1.00  0.00    -0.059 C  
HETATM    9  H   UNL     1     -10.470   4.177  65.673  1.00  0.00     0.000 HD 
HETATM   10  C   UNL     1      -8.245   5.383  67.681  1.00  0.00    -0.100 C  
HETATM   11  C   UNL     1      -8.718   7.018  67.511  1.00  0.00    -0.120 C  
HETATM   12  C   UNL     1      -9.672   7.630  68.543  1.00  0.00    -0.162 A  
HETATM   13  C   UNL     1      -9.809   7.044  69.816  1.00  0.00    -0.171 A  
HETATM   14  C   UNL     1     -10.507   7.688  70.844  1.00  0.00    -0.210 A  
HETATM   15  C   UNL     1     -11.086   8.924  70.606  1.00  0.00    -0.262 A  
HETATM   16  C   UNL     1     -10.961   9.531  69.365  1.00  0.00    -0.192 A  
HETATM   17  O   UNL     1     -11.773   9.593  71.576  1.00  0.00    -0.371 OA 
HETATM   18  C   UNL     1     -10.227   8.917  68.332  1.00  0.00    -0.231 A  
HETATM   19  H   UNL     1     -12.170  10.440  71.413  1.00  0.00     0.000 HD 
HETATM   20  C   UNL     1     -10.081   9.693  67.035  1.00  0.00    -0.275 C  
HETATM   21  C   UNL     1      -8.864   9.315  66.155  1.00  0.00    -0.183 C  
HETATM   22  C   UNL     1      -8.957   7.785  65.944  1.00  0.00    -0.155 C  
ENDROOT
BRANCH  21  23
HETATM   23  C   UNL     1      -7.542   9.768  66.807  1.00  0.00    -0.095 C  
BRANCH  23  24
HETATM   24  C   UNL     1      -6.545  10.466  65.899  1.00  0.00    -0.123 C  
BRANCH  24  25
HETATM   25  C   UNL     1      -5.612  11.370  66.719  1.00  0.00    -0.129 C  
BRANCH  25  26
HETATM   26  C   UNL     1      -6.288  12.081  67.904  1.00  0.00    -0.073 C  
BRANCH  26  27
HETATM   27  C   UNL     1      -6.424  13.593  67.727  1.00  0.00    -0.178 C  
BRANCH  27  28
HETATM   28  C   UNL     1      -7.410  14.196  68.729  1.00  0.00    -0.128 C  
BRANCH  28  29
HETATM   29  C   UNL     1      -7.189  15.690  68.972  1.00  0.00    -0.160 C  
BRANCH  29  30
HETATM   30  C   UNL     1      -7.480  16.595  67.763  1.00  0.00    -0.169 C  
BRANCH  30  31
HETATM   31  C   UNL     1      -8.733  17.450  67.875  1.00  0.00    -0.237 C  
BRANCH  31  32
HETATM   32  S   UNL     1     -10.181  16.658  67.101  1.00  0.00    -0.292 S  
HETATM   33  O   UNL     1      -9.764  15.277  66.688  1.00  0.00    -0.232 OA 
BRANCH  32  34
HETATM   34  C   UNL     1     -11.194  16.484  68.605  1.00  0.00    -0.297 C  
BRANCH  34  35
HETATM   35  C   UNL     1     -11.086  15.087  69.206  1.00  0.00    -0.280 C  
BRANCH  35  36
HETATM   36  C   UNL     1     -12.431  14.603  69.748  1.00  0.00    -0.247 C  
BRANCH  36  37
HETATM   37  C   UNL     1     -12.375  14.177  71.214  1.00  0.00    -0.369 C  
HETATM   38  F   UNL     1     -12.233  12.821  71.263  1.00  0.00    -0.395 F  
HETATM   39  C   UNL     1     -13.580  14.632  72.050  1.00  0.00    -0.400 C  
HETATM   40  F   UNL     1     -11.218  14.683  71.736  1.00  0.00    -0.292 F  
HETATM   41  F   UNL     1     -14.407  15.452  71.367  1.00  0.00    -0.536 F  
HETATM   42  F   UNL     1     -14.309  13.571  72.471  1.00  0.00    -0.604 F  
HETATM   43  F   UNL     1     -13.195  15.305  73.164  1.00  0.00    -0.454 F  
ENDBRANCH  36  37
ENDBRANCH  35  36
ENDBRANCH  34  35
ENDBRANCH  32  34
ENDBRANCH  31  32
ENDBRANCH  30  31
ENDBRANCH  29  30
ENDBRANCH  28  29
ENDBRANCH  27  28
ENDBRANCH  26  27
ENDBRANCH  25  26
ENDBRANCH  24  25
ENDBRANCH  23  24
ENDBRANCH  21  23
TORSDOF 14
ENDMDL
MODEL      187
REMARK 921   NORMALIZED FREE ENERGY PREDICTED BY IDOCK:   -4.06 KCAL/MOL
REMARK 922        TOTAL FREE ENERGY PREDICTED BY IDOCK:  -10.67 KCAL/MOL
REMARK 923 INTER-LIGAND FREE ENERGY PREDICTED BY IDOCK:   -9.34 KCAL/MOL
REMARK 924 INTRA-LIGAND FREE ENERGY PREDICTED BY IDOCK:   -1.33 KCAL/MOL
REMARK 927      BINDING AFFINITY PREDICTED BY RF-SCORE:    0.00 PKD
ROOT
HETATM    1  C   UNL     1      -5.640  10.457  67.179  1.00  0.00    -0.041 C  
HETATM    2  C   UNL     1      -5.693  11.316  66.045  1.00  0.00    -0.030 C  
HETATM    3  C   UNL     1      -7.070  11.098  66.611  1.00  0.00    -0.141 C  
HETATM    4  C   UNL     1      -6.922  10.248  68.450  1.00  0.00    -0.069 C  
HETATM    5  O   UNL     1      -7.739  10.037  69.607  1.00  0.00    -0.121 OA 
HETATM    6  C   UNL     1      -6.683  11.592  68.299  1.00  0.00    -0.064 C  
HETATM    7  C   UNL     1      -8.522  11.645  68.213  1.00  0.00    -0.160 C  
HETATM    8  C   UNL     1      -5.976  12.561  69.178  1.00  0.00    -0.085 C  
HETATM    9  H   UNL     1      -7.670   9.640  70.467  1.00  0.00     0.000 HD 
HETATM   10  C   UNL     1      -9.220  10.095  67.668  1.00  0.00    -0.151 C  
HETATM   11  C   UNL     1      -8.341   8.922  66.785  1.00  0.00    -0.111 C  
HETATM   12  C   UNL     1      -8.924   7.512  66.633  1.00  0.00    -0.177 A  
HETATM   13  C   UNL     1     -10.303   7.293  66.809  1.00  0.00    -0.311 A  
HETATM   14  C   UNL     1     -10.896   6.069  66.478  1.00  0.00    -0.193 A  
HETATM   15  C   UNL     1     -10.110   5.045  65.975  1.00  0.00    -0.209 A  
HETATM   16  C   UNL     1      -8.749   5.233  65.782  1.00  0.00    -0.143 A  
HETATM   17  O   UNL     1     -10.639   3.835  65.633  1.00  0.00    -0.376 OA 
HETATM   18  C   UNL     1      -8.144   6.471  66.070  1.00  0.00    -0.121 A  
HETATM   19  H   UNL     1     -10.101   3.133  65.289  1.00  0.00     0.000 HD 
HETATM   20  C   UNL     1      -6.664   6.607  65.754  1.00  0.00    -0.048 C  
HETATM   21  C   UNL     1      -6.151   8.049  65.530  1.00  0.00    -0.038 C  
HETATM   22  C   UNL     1      -6.582   8.848  66.783  1.00  0.00    -0.064 C  
ENDROOT
BRANCH  21  23
HETATM   23  C   UNL     1      -6.690   8.637  64.210  1.00  0.00    -0.074 C  
BRANCH  23  24
HETATM   24  C   UNL     1      -8.046   9.314  64.275  1.00  0.00    -0.144 C  
BRANCH  24  25
HETATM   25  C   UNL     1      -8.272  10.188  63.032  1.00  0.00    -0.158 C  
BRANCH  25  26
HETATM   26  C   UNL     1      -9.186  11.404  63.261  1.00  0.00    -0.200 C  
BRANCH  26  27
HETATM   27  C   UNL     1     -10.511  11.066  63.945  1.00  0.00    -0.422 C  
BRANCH  27  28
HETATM   28  C   UNL     1     -10.740  11.921  65.193  1.00  0.00    -0.339 C  
BRANCH  28  29
HETATM   29  C   UNL     1     -10.308  13.378  65.016  1.00  0.00    -0.361 C  
BRANCH  29  30
HETATM   30  C   UNL     1     -10.299  14.214  66.306  1.00  0.00    -0.294 C  
BRANCH  30  31
HETATM   31  C   UNL     1     -11.661  14.432  66.951  1.00  0.00    -0.388 C  
BRANCH  31  32
HETATM   32  S   UNL     1     -11.529  15.186  68.605  1.00  0.00    -0.339 S  
HETATM   33  O   UNL     1     -11.936  14.141  69.603  1.00  0.00    -0.295 OA 
BRANCH  32  34
HETATM   34  C   UNL     1      -9.713  15.311  68.670  1.00  0.00    -0.212 C  
BRANCH  34  35
HETATM   35  C   UNL     1      -9.240  16.760  68.633  1.00  0.00    -0.257 C  
BRANCH  35  36
HETATM   36  C   UNL     1     -10.285  17.676  68.000  1.00  0.00    -0.362 C  
BRANCH  36  37
HETATM   37  C   UNL     1      -9.929  18.111  66.580  1.00  0.00    -0.374 C  
HETATM   38  F   UNL     1      -8.696  17.612  66.273  1.00  0.00    -0.260 F  
HETATM   39  C   UNL     1      -9.975  19.629  66.353  1.00  0.00    -0.455 C  
HETATM   40  F   UNL     1     -10.797  17.479  65.735  1.00  0.00    -0.323 F  
HETATM   41  F   UNL     1     -10.464  20.299  67.418  1.00  0.00    -0.513 F  
HETATM   42  F   UNL     1      -8.741  20.120  66.090  1.00  0.00    -0.352 F  
HETATM   43  F   UNL     1     -10.757  19.956  65.294  1.00  0.00    -0.556 F  
ENDBRANCH  36  37
ENDBRANCH  35  36
ENDBRANCH  34  35
ENDBRANCH  32  34
ENDBRANCH  31  32
ENDBRANCH  30  31
ENDBRANCH  29  30
ENDBRANCH  28  29
ENDBRANCH  27  28
ENDBRANCH  26  27
ENDBRANCH  25  26
ENDBRANCH  24  25
ENDBRANCH  23  24
ENDBRANCH  21  23
TORSDOF 14
ENDMDL
MODEL      188
REMARK 921   NORMALIZED FREE ENERGY PREDICTED BY IDOCK:   -4.05 KCAL/MOL
REMARK 922        TOTAL FREE ENERGY PREDICTED BY IDOCK:  -10.66 KCAL/MOL
REMARK 923 INTER-LIGAND FREE ENERGY PREDICTED BY IDOCK:   -8.22 KCAL/MOL
REMARK 924 INTRA-LIGAND FREE ENERGY PREDICTED BY IDOCK:   -2.44 KCAL/MOL
REMARK 927      BINDING AFFINITY PREDICTED BY RF-SCORE:    0.00 PKD
ROOT
HETATM    1  C   UNL     1      -8.893   8.036  66.452  1.00  0.00    -0.183 C  
HETATM    2  C   UNL     1      -7.584   7.827  66.969  1.00  0.00    -0.100 C  
HETATM    3  C   UNL     1      -8.613   7.182  67.857  1.00  0.00    -0.123 C  
HETATM    4  C   UNL     1     -10.397   7.113  66.888  1.00  0.00    -0.279 C  
HETATM    5  O   UNL     1     -11.654   6.435  66.995  1.00  0.00    -0.696 OA 
HETATM    6  C   UNL     1      -9.414   6.207  66.573  1.00  0.00    -0.178 C  
HETATM    7  C   UNL     1      -9.976   5.442  68.152  1.00  0.00    -0.207 C  
HETATM    8  C   UNL     1      -9.236   5.340  65.378  1.00  0.00    -0.091 C  
HETATM    9  H   UNL     1     -12.488   6.403  66.542  1.00  0.00     0.000 HD 
HETATM   10  C   UNL     1     -10.736   6.630  69.247  1.00  0.00    -0.307 C  
HETATM   11  C   UNL     1     -10.467   8.316  69.145  1.00  0.00    -0.217 C  
HETATM   12  C   UNL     1     -11.390   9.267  69.917  1.00  0.00    -0.083 A  
HETATM   13  C   UNL     1     -12.137   8.795  71.012  1.00  0.00    -0.262 A  
HETATM   14  C   UNL     1     -12.824   9.671  71.859  1.00  0.00    -0.515 A  
HETATM   15  C   UNL     1     -12.778  11.034  71.613  1.00  0.00    -0.378 A  
HETATM   16  C   UNL     1     -12.043  11.531  70.546  1.00  0.00    -0.472 A  
HETATM   17  O   UNL     1     -13.427  11.930  72.411  1.00  0.00    -0.611 OA 
HETATM   18  C   UNL     1     -11.312  10.667  69.709  1.00  0.00    -0.371 A  
HETATM   19  H   UNL     1     -13.396  12.864  72.242  1.00  0.00     0.000 HD 
HETATM   20  C   UNL     1     -10.476  11.309  68.616  1.00  0.00    -0.226 C  
HETATM   21  C   UNL     1      -9.285  10.469  68.095  1.00  0.00    -0.148 C  
HETATM   22  C   UNL     1      -9.883   9.103  67.682  1.00  0.00    -0.217 C  
ENDROOT
BRANCH  21  23
HETATM   23  C   UNL     1      -8.172  10.359  69.156  1.00  0.00    -0.157 C  
BRANCH  23  24
HETATM   24  C   UNL     1      -8.496   9.541  70.393  1.00  0.00    -0.238 C  
BRANCH  24  25
HETATM   25  C   UNL     1      -7.366   8.544  70.691  1.00  0.00    -0.061 C  
BRANCH  25  26
HETATM   26  C   UNL     1      -6.424   8.965  71.832  1.00  0.00    -0.049 C  
BRANCH  26  27
HETATM   27  C   UNL     1      -6.288   7.924  72.943  1.00  0.00    -0.070 C  
BRANCH  27  28
HETATM   28  C   UNL     1      -7.047   8.338  74.205  1.00  0.00    -0.200 C  
BRANCH  28  29
HETATM   29  C   UNL     1      -8.211   7.405  74.546  1.00  0.00    -0.233 C  
BRANCH  29  30
HETATM   30  C   UNL     1      -9.440   7.541  73.634  1.00  0.00    -0.338 C  
BRANCH  30  31
HETATM   31  C   UNL     1      -9.706   6.355  72.718  1.00  0.00    -0.157 C  
BRANCH  31  32
HETATM   32  S   UNL     1     -11.075   5.312  73.318  1.00  0.00    -0.294 S  
HETATM   33  O   UNL     1     -12.263   5.592  72.444  1.00  0.00    -0.156 OA 
BRANCH  32  34
HETATM   34  C   UNL     1     -10.398   3.702  72.800  1.00  0.00    -0.161 C  
BRANCH  34  35
HETATM   35  C   UNL     1      -9.121   3.352  73.556  1.00  0.00    -0.099 C  
BRANCH  35  36
HETATM   36  C   UNL     1      -8.124   2.614  72.663  1.00  0.00    -0.055 C  
BRANCH  36  37
HETATM   37  C   UNL     1      -7.052   3.526  72.072  1.00  0.00    -0.041 C  
HETATM   38  F   UNL     1      -6.909   4.610  72.888  1.00  0.00    -0.057 F  
HETATM   39  C   UNL     1      -7.322   3.965  70.625  1.00  0.00    -0.041 C  
HETATM   40  F   UNL     1      -5.864   2.855  72.148  1.00  0.00    -0.007 F  
HETATM   41  F   UNL     1      -8.395   3.347  70.086  1.00  0.00    -0.056 F  
HETATM   42  F   UNL     1      -7.539   5.299  70.552  1.00  0.00    -0.064 F  
HETATM   43  F   UNL     1      -6.269   3.698  69.812  1.00  0.00    -0.024 F  
ENDBRANCH  36  37
ENDBRANCH  35  36
ENDBRANCH  34  35
ENDBRANCH  32  34
ENDBRANCH  31  32
ENDBRANCH  30  31
ENDBRANCH  29  30
ENDBRANCH  28  29
ENDBRANCH  27  28
ENDBRANCH  26  27
ENDBRANCH  25  26
ENDBRANCH  24  25
ENDBRANCH  23  24
ENDBRANCH  21  23
TORSDOF 14
ENDMDL
MODEL      189
REMARK 921   NORMALIZED FREE ENERGY PREDICTED BY IDOCK:   -4.04 KCAL/MOL
REMARK 922        TOTAL FREE ENERGY PREDICTED BY IDOCK:  -10.65 KCAL/MOL
REMARK 923 INTER-LIGAND FREE ENERGY PREDICTED BY IDOCK:   -8.67 KCAL/MOL
REMARK 924 INTRA-LIGAND FREE ENERGY PREDICTED BY IDOCK:   -1.98 KCAL/MOL
REMARK 927      BINDING AFFINITY PREDICTED BY RF-SCORE:    0.00 PKD
ROOT
HETATM    1  C   UNL     1     -10.214   5.923  66.249  1.00  0.00    -0.087 C  
HETATM    2  C   UNL     1      -9.302   6.994  66.036  1.00  0.00    -0.019 C  
HETATM    3  C   UNL     1      -8.634   5.869  66.778  1.00  0.00    -0.113 C  
HETATM    4  C   UNL     1      -9.799   4.208  66.684  1.00  0.00    -0.185 C  
HETATM    5  O   UNL     1      -9.679   2.797  66.898  1.00  0.00    -0.406 OA 
HETATM    6  C   UNL     1      -9.040   4.571  65.598  1.00  0.00    -0.140 C  
HETATM    7  C   UNL     1      -7.692   3.854  66.628  1.00  0.00    -0.089 C  
HETATM    8  C   UNL     1      -9.137   4.179  64.167  1.00  0.00    -0.147 C  
HETATM    9  H   UNL     1     -10.223   2.020  66.853  1.00  0.00     0.000 HD 
HETATM   10  C   UNL     1      -8.075   3.896  68.372  1.00  0.00    -0.078 C  
HETATM   11  C   UNL     1      -9.223   4.961  69.060  1.00  0.00    -0.165 C  
HETATM   12  C   UNL     1      -9.703   4.714  70.496  1.00  0.00    -0.284 A  
HETATM   13  C   UNL     1      -8.928   3.938  71.378  1.00  0.00    -0.159 A  
HETATM   14  C   UNL     1      -9.228   3.864  72.742  1.00  0.00    -0.137 A  
HETATM   15  C   UNL     1     -10.318   4.562  73.239  1.00  0.00    -0.181 A  
HETATM   16  C   UNL     1     -11.096   5.343  72.397  1.00  0.00    -0.289 A  
HETATM   17  O   UNL     1     -10.650   4.526  74.561  1.00  0.00    -0.263 OA 
HETATM   18  C   UNL     1     -10.782   5.462  71.029  1.00  0.00    -0.239 A  
HETATM   19  H   UNL     1     -11.397   5.004  74.902  1.00  0.00     0.000 HD 
HETATM   20  C   UNL     1     -11.645   6.400  70.203  1.00  0.00    -0.449 C  
HETATM   21  C   UNL     1     -10.994   6.956  68.914  1.00  0.00    -0.217 C  
HETATM   22  C   UNL     1     -10.506   5.720  68.122  1.00  0.00    -0.277 C  
ENDROOT
BRANCH  21  23
HETATM   23  C   UNL     1      -9.869   7.959  69.243  1.00  0.00    -0.177 C  
BRANCH  23  24
HETATM   24  C   UNL     1      -9.504   8.108  70.709  1.00  0.00    -0.180 C  
BRANCH  24  25
HETATM   25  C   UNL     1      -8.711   9.404  70.937  1.00  0.00    -0.145 C  
BRANCH  25  26
HETATM   26  C   UNL     1      -7.182   9.233  70.912  1.00  0.00    -0.113 C  
BRANCH  26  27
HETATM   27  C   UNL     1      -6.718   7.848  70.461  1.00  0.00    -0.038 C  
BRANCH  27  28
HETATM   28  C   UNL     1      -6.186   7.867  69.027  1.00  0.00    -0.039 C  
BRANCH  28  29
HETATM   29  C   UNL     1      -6.697   9.054  68.207  1.00  0.00    -0.061 C  
BRANCH  29  30
HETATM   30  C   UNL     1      -5.603   9.981  67.655  1.00  0.00    -0.042 C  
BRANCH  30  31
HETATM   31  C   UNL     1      -6.095  11.303  67.084  1.00  0.00    -0.091 C  
BRANCH  31  32
HETATM   32  S   UNL     1      -7.409  12.048  68.104  1.00  0.00    -0.103 S  
HETATM   33  O   UNL     1      -7.074  13.502  68.268  1.00  0.00    -0.087 OA 
BRANCH  32  34
HETATM   34  C   UNL     1      -8.753  11.944  66.879  1.00  0.00    -0.191 C  
BRANCH  34  35
HETATM   35  C   UNL     1      -9.502  13.265  66.740  1.00  0.00    -0.257 C  
BRANCH  35  36
HETATM   36  C   UNL     1     -11.012  13.048  66.650  1.00  0.00    -0.301 C  
BRANCH  36  37
HETATM   37  C   UNL     1     -11.605  13.472  65.308  1.00  0.00    -0.311 C  
HETATM   38  F   UNL     1     -12.787  14.111  65.542  1.00  0.00    -0.491 F  
HETATM   39  C   UNL     1     -11.795  12.321  64.309  1.00  0.00    -0.403 C  
HETATM   40  F   UNL     1     -10.775  14.423  64.783  1.00  0.00    -0.367 F  
HETATM   41  F   UNL     1     -11.268  11.159  64.749  1.00  0.00    -0.317 F  
HETATM   42  F   UNL     1     -13.108  12.107  64.056  1.00  0.00    -0.533 F  
HETATM   43  F   UNL     1     -11.208  12.588  63.115  1.00  0.00    -0.496 F  
ENDBRANCH  36  37
ENDBRANCH  35  36
ENDBRANCH  34  35
ENDBRANCH  32  34
ENDBRANCH  31  32
ENDBRANCH  30  31
ENDBRANCH  29  30
ENDBRANCH  28  29
ENDBRANCH  27  28
ENDBRANCH  26  27
ENDBRANCH  25  26
ENDBRANCH  24  25
ENDBRANCH  23  24
ENDBRANCH  21  23
TORSDOF 14
ENDMDL
MODEL      190
REMARK 921   NORMALIZED FREE ENERGY PREDICTED BY IDOCK:   -4.00 KCAL/MOL
REMARK 922        TOTAL FREE ENERGY PREDICTED BY IDOCK:  -10.57 KCAL/MOL
REMARK 923 INTER-LIGAND FREE ENERGY PREDICTED BY IDOCK:   -8.37 KCAL/MOL
REMARK 924 INTRA-LIGAND FREE ENERGY PREDICTED BY IDOCK:   -2.21 KCAL/MOL
REMARK 927      BINDING AFFINITY PREDICTED BY RF-SCORE:    0.00 PKD
ROOT
HETATM    1  C   UNL     1     -10.671  13.535  69.010  1.00  0.00    -0.180 C  
HETATM    2  C   UNL     1      -9.446  14.140  69.409  1.00  0.00     0.420 C  
HETATM    3  C   UNL     1      -9.755  14.467  67.973  1.00  0.00    -0.218 C  
HETATM    4  C   UNL     1     -11.684  13.975  67.566  1.00  0.00    -0.387 C  
HETATM    5  O   UNL     1     -12.676  14.247  66.570  1.00  0.00    -0.521 OA 
HETATM    6  C   UNL     1     -11.406  15.127  68.261  1.00  0.00    -0.338 C  
HETATM    7  C   UNL     1     -10.957  15.725  66.578  1.00  0.00    -0.165 C  
HETATM    8  C   UNL     1     -12.271  15.978  69.120  1.00  0.00     0.083 C  
HETATM    9  H   UNL     1     -13.577  14.017  66.379  1.00  0.00     0.000 HD 
HETATM   10  C   UNL     1     -10.495  14.391  65.485  1.00  0.00    -0.366 C  
HETATM   11  C   UNL     1      -9.962  12.861  66.034  1.00  0.00    -0.275 C  
HETATM   12  C   UNL     1      -9.887  11.697  65.040  1.00  0.00    -0.280 A  
HETATM   13  C   UNL     1      -9.817  11.949  63.657  1.00  0.00    -0.339 A  
HETATM   14  C   UNL     1      -9.541  10.928  62.741  1.00  0.00    -0.339 A  
HETATM   15  C   UNL     1      -9.341   9.636  63.201  1.00  0.00     0.042 A  
HETATM   16  C   UNL     1      -9.394   9.356  64.558  1.00  0.00    -0.072 A  
HETATM   17  O   UNL     1      -9.065   8.607  62.350  1.00  0.00    -0.475 OA 
HETATM   18  C   UNL     1      -9.629  10.380  65.497  1.00  0.00    -0.290 A  
HETATM   19  H   UNL     1      -8.928   7.721  62.664  1.00  0.00     0.000 HD 
HETATM   20  C   UNL     1      -9.593   9.991  66.965  1.00  0.00    -0.212 C  
HETATM   21  C   UNL     1      -9.286  11.137  67.959  1.00  0.00    -0.166 C  
HETATM   22  C   UNL     1     -10.314  12.250  67.648  1.00  0.00    -0.214 C  
ENDROOT
BRANCH  21  23
HETATM   23  C   UNL     1      -7.820  11.602  67.841  1.00  0.00    -0.129 C  
BRANCH  23  24
HETATM   24  C   UNL     1      -6.798  10.534  67.498  1.00  0.00    -0.075 C  
BRANCH  24  25
HETATM   25  C   UNL     1      -6.237   9.895  68.777  1.00  0.00    -0.041 C  
BRANCH  25  26
HETATM   26  C   UNL     1      -6.703  10.561  70.084  1.00  0.00    -0.149 C  
BRANCH  26  27
HETATM   27  C   UNL     1      -6.973   9.576  71.221  1.00  0.00     0.092 C  
BRANCH  27  28
HETATM   28  C   UNL     1      -8.423   9.089  71.217  1.00  0.00    -0.196 C  
BRANCH  28  29
HETATM   29  C   UNL     1      -8.550   7.565  71.252  1.00  0.00    -0.122 C  
BRANCH  29  30
HETATM   30  C   UNL     1      -7.992   6.895  72.518  1.00  0.00    -0.099 C  
BRANCH  30  31
HETATM   31  C   UNL     1      -7.359   5.527  72.307  1.00  0.00    -0.094 C  
BRANCH  31  32
HETATM   32  S   UNL     1      -8.373   4.182  73.003  1.00  0.00    -0.094 S  
HETATM   33  O   UNL     1      -8.715   4.567  74.412  1.00  0.00    -0.105 OA 
BRANCH  32  34
HETATM   34  C   UNL     1      -9.864   4.457  71.994  1.00  0.00    -0.176 C  
BRANCH  34  35
HETATM   35  C   UNL     1     -11.054   4.891  72.844  1.00  0.00    -0.329 C  
BRANCH  35  36
HETATM   36  C   UNL     1     -11.234   6.408  72.825  1.00  0.00    -0.261 C  
BRANCH  36  37
HETATM   37  C   UNL     1     -12.271   6.882  71.809  1.00  0.00    -0.356 C  
HETATM   38  F   UNL     1     -11.936   6.380  70.585  1.00  0.00    -0.418 F  
HETATM   39  C   UNL     1     -12.442   8.407  71.744  1.00  0.00    -0.335 C  
HETATM   40  F   UNL     1     -13.456   6.287  72.134  1.00  0.00    -0.273 F  
HETATM   41  F   UNL     1     -11.742   9.050  72.704  1.00  0.00    -0.342 F  
HETATM   42  F   UNL     1     -12.037   8.893  70.547  1.00  0.00    -0.223 F  
HETATM   43  F   UNL     1     -13.739   8.776  71.894  1.00  0.00    -0.349 F  
ENDBRANCH  36  37
ENDBRANCH  35  36
ENDBRANCH  34  35
ENDBRANCH  32  34
ENDBRANCH  31  32
ENDBRANCH  30  31
ENDBRANCH  29  30
ENDBRANCH  28  29
ENDBRANCH  27  28
ENDBRANCH  26  27
ENDBRANCH  25  26
ENDBRANCH  24  25
ENDBRANCH  23  24
ENDBRANCH  21  23
TORSDOF 14
ENDMDL
MODEL      191
REMARK 921   NORMALIZED FREE ENERGY PREDICTED BY IDOCK:   -3.98 KCAL/MOL
REMARK 922        TOTAL FREE ENERGY PREDICTED BY IDOCK:  -10.53 KCAL/MOL
REMARK 923 INTER-LIGAND FREE ENERGY PREDICTED BY IDOCK:   -8.56 KCAL/MOL
REMARK 924 INTRA-LIGAND FREE ENERGY PREDICTED BY IDOCK:   -1.96 KCAL/MOL
REMARK 927      BINDING AFFINITY PREDICTED BY RF-SCORE:    0.00 PKD
ROOT
HETATM    1  C   UNL     1      -8.254   7.155  64.723  1.00  0.00    -0.052 C  
HETATM    2  C   UNL     1      -7.087   7.956  64.867  1.00  0.00    -0.067 C  
HETATM    3  C   UNL     1      -6.965   6.692  65.673  1.00  0.00    -0.056 C  
HETATM    4  C   UNL     1      -8.419   5.388  65.116  1.00  0.00    -0.150 C  
HETATM    5  O   UNL     1      -8.718   3.993  65.239  1.00  0.00    -0.116 OA 
HETATM    6  C   UNL     1      -7.308   5.549  64.324  1.00  0.00    -0.058 C  
HETATM    7  C   UNL     1      -6.544   4.502  65.633  1.00  0.00    -0.041 C  
HETATM    8  C   UNL     1      -7.070   5.204  62.898  1.00  0.00    -0.042 C  
HETATM    9  H   UNL     1      -9.397   3.383  64.978  1.00  0.00     0.000 HD 
HETATM   10  C   UNL     1      -7.404   4.632  67.193  1.00  0.00    -0.077 C  
HETATM   11  C   UNL     1      -8.407   5.953  67.612  1.00  0.00    -0.104 C  
HETATM   12  C   UNL     1      -9.334   5.830  68.826  1.00  0.00    -0.135 A  
HETATM   13  C   UNL     1      -9.070   4.874  69.825  1.00  0.00    -0.157 A  
HETATM   14  C   UNL     1      -9.769   4.873  71.037  1.00  0.00    -0.252 A  
HETATM   15  C   UNL     1     -10.751   5.825  71.259  1.00  0.00    -0.258 A  
HETATM   16  C   UNL     1     -11.029   6.785  70.298  1.00  0.00    -0.339 A  
HETATM   17  O   UNL     1     -11.458   5.868  72.425  1.00  0.00    -0.292 OA 
HETATM   18  C   UNL     1     -10.306   6.827  69.090  1.00  0.00    -0.213 A  
HETATM   19  H   UNL     1     -12.131   6.521  72.577  1.00  0.00     0.000 HD 
HETATM   20  C   UNL     1     -10.628   7.961  68.132  1.00  0.00    -0.179 C  
HETATM   21  C   UNL     1      -9.509   8.338  67.132  1.00  0.00    -0.206 C  
HETATM   22  C   UNL     1      -9.127   7.023  66.413  1.00  0.00    -0.189 C  
ENDROOT
BRANCH  21  23
HETATM   23  C   UNL     1      -8.323   9.015  67.848  1.00  0.00    -0.117 C  
BRANCH  23  24
HETATM   24  C   UNL     1      -8.647  10.239  68.685  1.00  0.00    -0.128 C  
BRANCH  24  25
HETATM   25  C   UNL     1      -8.807  11.477  67.789  1.00  0.00    -0.153 C  
BRANCH  25  26
HETATM   26  C   UNL     1     -10.260  11.814  67.415  1.00  0.00    -0.220 C  
BRANCH  26  27
HETATM   27  C   UNL     1     -10.736  11.163  66.116  1.00  0.00    -0.285 C  
BRANCH  27  28
HETATM   28  C   UNL     1     -11.972  11.863  65.550  1.00  0.00    -0.030 C  
BRANCH  28  29
HETATM   29  C   UNL     1     -12.009  11.884  64.020  1.00  0.00    -0.455 C  
BRANCH  29  30
HETATM   30  C   UNL     1     -12.159  13.279  63.393  1.00  0.00    -0.508 C  
BRANCH  30  31
HETATM   31  C   UNL     1     -12.480  14.402  64.369  1.00  0.00    -0.312 C  
BRANCH  31  32
HETATM   32  S   UNL     1     -11.033  15.456  64.711  1.00  0.00    -0.329 S  
HETATM   33  O   UNL     1     -11.383  16.848  64.272  1.00  0.00    -1.202 OA 
BRANCH  32  34
HETATM   34  C   UNL     1     -11.135  15.425  66.529  1.00  0.00    -0.227 C  
BRANCH  34  35
HETATM   35  C   UNL     1     -10.329  16.553  67.164  1.00  0.00    -0.298 C  
BRANCH  35  36
HETATM   36  C   UNL     1      -9.148  16.015  67.970  1.00  0.00    -0.189 C  
BRANCH  36  37
HETATM   37  C   UNL     1      -7.918  15.715  67.115  1.00  0.00    -0.219 C  
HETATM   38  F   UNL     1      -8.187  14.622  66.343  1.00  0.00    -0.095 F  
HETATM   39  C   UNL     1      -6.625  15.511  67.917  1.00  0.00    -0.158 C  
HETATM   40  F   UNL     1      -7.773  16.753  66.238  1.00  0.00    -0.274 F  
HETATM   41  F   UNL     1      -6.781  15.776  69.232  1.00  0.00    -0.131 F  
HETATM   42  F   UNL     1      -6.177  14.238  67.806  1.00  0.00    -0.127 F  
HETATM   43  F   UNL     1      -5.625  16.314  67.473  1.00  0.00    -0.125 F  
ENDBRANCH  36  37
ENDBRANCH  35  36
ENDBRANCH  34  35
ENDBRANCH  32  34
ENDBRANCH  31  32
ENDBRANCH  30  31
ENDBRANCH  29  30
ENDBRANCH  28  29
ENDBRANCH  27  28
ENDBRANCH  26  27
ENDBRANCH  25  26
ENDBRANCH  24  25
ENDBRANCH  23  24
ENDBRANCH  21  23
TORSDOF 14
ENDMDL
MODEL      192
REMARK 921   NORMALIZED FREE ENERGY PREDICTED BY IDOCK:   -3.92 KCAL/MOL
REMARK 922        TOTAL FREE ENERGY PREDICTED BY IDOCK:  -10.41 KCAL/MOL
REMARK 923 INTER-LIGAND FREE ENERGY PREDICTED BY IDOCK:   -8.50 KCAL/MOL
REMARK 924 INTRA-LIGAND FREE ENERGY PREDICTED BY IDOCK:   -1.91 KCAL/MOL
REMARK 927      BINDING AFFINITY PREDICTED BY RF-SCORE:    0.00 PKD
ROOT
HETATM    1  C   UNL     1     -10.985   9.022  72.130  1.00  0.00    -0.258 C  
HETATM    2  C   UNL     1     -10.636   9.694  70.925  1.00  0.00    -0.386 C  
HETATM    3  C   UNL     1     -10.793   8.218  70.682  1.00  0.00    -0.254 C  
HETATM    4  C   UNL     1     -11.705   7.360  72.282  1.00  0.00    -0.286 C  
HETATM    5  O   UNL     1     -12.382   6.141  72.608  1.00  0.00    -0.535 OA 
HETATM    6  C   UNL     1     -12.450   8.068  71.371  1.00  0.00    -0.320 C  
HETATM    7  C   UNL     1     -12.221   6.532  70.381  1.00  0.00    -0.031 C  
HETATM    8  C   UNL     1     -13.810   8.659  71.475  1.00  0.00    -0.384 C  
HETATM    9  H   UNL     1     -12.809   5.740  73.356  1.00  0.00     0.000 HD 
HETATM   10  C   UNL     1     -10.758   5.627  70.862  1.00  0.00    -0.313 C  
HETATM   11  C   UNL     1      -9.437   6.337  71.684  1.00  0.00    -0.157 C  
HETATM   12  C   UNL     1      -8.379   5.427  72.320  1.00  0.00    -0.122 A  
HETATM   13  C   UNL     1      -8.231   4.097  71.881  1.00  0.00    -0.092 A  
HETATM   14  C   UNL     1      -7.150   3.310  72.290  1.00  0.00    -0.038 A  
HETATM   15  C   UNL     1      -6.205   3.842  73.153  1.00  0.00    -0.012 A  
HETATM   16  C   UNL     1      -6.318   5.152  73.596  1.00  0.00    -0.057 A  
HETATM   17  O   UNL     1      -5.131   3.117  73.577  1.00  0.00     0.000 OA 
HETATM   18  C   UNL     1      -7.377   5.972  73.161  1.00  0.00    -0.093 A  
HETATM   19  H   UNL     1      -4.484   3.482  74.169  1.00  0.00     0.000 HD 
HETATM   20  C   UNL     1      -7.374   7.414  73.639  1.00  0.00    -0.112 C  
HETATM   21  C   UNL     1      -8.154   8.419  72.757  1.00  0.00    -0.168 C  
HETATM   22  C   UNL     1      -9.576   7.830  72.607  1.00  0.00    -0.261 C  
ENDROOT
BRANCH  21  23
HETATM   23  C   UNL     1      -7.439   8.654  71.411  1.00  0.00    -0.124 C  
BRANCH  23  24
HETATM   24  C   UNL     1      -5.961   8.314  71.362  1.00  0.00    -0.037 C  
BRANCH  24  25
HETATM   25  C   UNL     1      -5.500   8.128  69.908  1.00  0.00    -0.023 C  
BRANCH  25  26
HETATM   26  C   UNL     1      -6.253   8.991  68.881  1.00  0.00    -0.044 C  
BRANCH  26  27
HETATM   27  C   UNL     1      -5.744  10.429  68.785  1.00  0.00    -0.041 C  
BRANCH  27  28
HETATM   28  C   UNL     1      -6.811  11.438  69.213  1.00  0.00    -0.119 C  
BRANCH  28  29
HETATM   29  C   UNL     1      -8.183  11.170  68.589  1.00  0.00    -0.152 C  
BRANCH  29  30
HETATM   30  C   UNL     1      -8.456  11.921  67.276  1.00  0.00    -0.172 C  
BRANCH  30  31
HETATM   31  C   UNL     1      -9.545  11.321  66.397  1.00  0.00    -0.198 C  
BRANCH  31  32
HETATM   32  S   UNL     1     -11.150  12.155  66.621  1.00  0.00    -0.323 S  
HETATM   33  O   UNL     1     -12.014  11.241  67.441  1.00  0.00    -0.581 OA 
BRANCH  32  34
HETATM   34  C   UNL     1     -10.580  13.486  67.726  1.00  0.00    -0.246 C  
BRANCH  34  35
HETATM   35  C   UNL     1     -11.562  14.651  67.769  1.00  0.00    -0.382 C  
BRANCH  35  36
HETATM   36  C   UNL     1     -10.971  15.908  67.133  1.00  0.00    -0.214 C  
BRANCH  36  37
HETATM   37  C   UNL     1     -10.248  16.809  68.133  1.00  0.00    -0.301 C  
HETATM   38  F   UNL     1     -11.108  17.098  69.152  1.00  0.00    -0.240 F  
HETATM   39  C   UNL     1      -9.673  18.096  67.523  1.00  0.00    -0.303 C  
HETATM   40  F   UNL     1      -9.251  16.066  68.697  1.00  0.00    -0.185 F  
HETATM   41  F   UNL     1      -9.788  18.130  66.178  1.00  0.00    -0.312 F  
HETATM   42  F   UNL     1     -10.299  19.191  68.016  1.00  0.00    -0.384 F  
HETATM   43  F   UNL     1      -8.354  18.242  67.805  1.00  0.00    -0.241 F  
ENDBRANCH  36  37
ENDBRANCH  35  36
ENDBRANCH  34  35
ENDBRANCH  32  34
ENDBRANCH  31  32
ENDBRANCH  30  31
ENDBRANCH  29  30
ENDBRANCH  28  29
ENDBRANCH  27  28
ENDBRANCH  26  27
ENDBRANCH  25  26
ENDBRANCH  24  25
ENDBRANCH  23  24
ENDBRANCH  21  23
TORSDOF 14
ENDMDL
MODEL      193
REMARK 921   NORMALIZED FREE ENERGY PREDICTED BY IDOCK:   -3.88 KCAL/MOL
REMARK 922        TOTAL FREE ENERGY PREDICTED BY IDOCK:  -10.35 KCAL/MOL
REMARK 923 INTER-LIGAND FREE ENERGY PREDICTED BY IDOCK:  -10.04 KCAL/MOL
REMARK 924 INTRA-LIGAND FREE ENERGY PREDICTED BY IDOCK:   -0.31 KCAL/MOL
REMARK 927      BINDING AFFINITY PREDICTED BY RF-SCORE:    0.00 PKD
ROOT
HETATM    1  C   UNL     1     -10.873   8.834  70.255  1.00  0.00    -0.252 C  
HETATM    2  C   UNL     1      -9.709   9.292  70.934  1.00  0.00    -0.346 C  
HETATM    3  C   UNL     1     -10.625  10.442  70.618  1.00  0.00     0.134 C  
HETATM    4  C   UNL     1     -12.443   9.728  70.058  1.00  0.00     0.355 C  
HETATM    5  O   UNL     1     -13.784  10.204  69.903  1.00  0.00    -0.152 OA 
HETATM    6  C   UNL     1     -12.100   9.752  71.388  1.00  0.00    -0.486 C  
HETATM    7  C   UNL     1     -12.480  11.543  71.186  1.00  0.00    -0.442 C  
HETATM    8  C   UNL     1     -12.668   9.024  72.553  1.00  0.00    -0.373 C  
HETATM    9  H   UNL     1     -14.634   9.871  69.641  1.00  0.00     0.000 HD 
HETATM   10  C   UNL     1     -12.290  12.090  69.496  1.00  0.00    -0.056 C  
HETATM   11  C   UNL     1     -11.336  11.268  68.339  1.00  0.00    -0.348 C  
HETATM   12  C   UNL     1     -11.481  11.634  66.857  1.00  0.00    -0.320 A  
HETATM   13  C   UNL     1     -12.023  12.878  66.485  1.00  0.00    -0.447 A  
HETATM   14  C   UNL     1     -11.979  13.326  65.160  1.00  0.00    -0.413 A  
HETATM   15  C   UNL     1     -11.399  12.526  64.188  1.00  0.00    -0.380 A  
HETATM   16  C   UNL     1     -10.849  11.298  64.525  1.00  0.00    -0.354 A  
HETATM   17  O   UNL     1     -11.328  12.919  62.884  1.00  0.00    -0.623 OA 
HETATM   18  C   UNL     1     -10.847  10.851  65.860  1.00  0.00    -0.132 A  
HETATM   19  H   UNL     1     -10.931  12.371  62.218  1.00  0.00     0.000 HD 
HETATM   20  C   UNL     1     -10.153   9.530  66.144  1.00  0.00    -0.326 C  
HETATM   21  C   UNL     1      -9.661   9.324  67.597  1.00  0.00    -0.195 C  
HETATM   22  C   UNL     1     -10.895   9.570  68.497  1.00  0.00    -0.175 C  
ENDROOT
BRANCH  21  23
HETATM   23  C   UNL     1      -8.468  10.247  67.920  1.00  0.00    -0.118 C  
BRANCH  23  24
HETATM   24  C   UNL     1      -7.782  10.023  69.254  1.00  0.00    -0.117 C  
BRANCH  24  25
HETATM   25  C   UNL     1      -6.311   9.634  69.044  1.00  0.00    -0.041 C  
BRANCH  25  26
HETATM   26  C   UNL     1      -5.346  10.825  68.912  1.00  0.00    -0.041 C  
BRANCH  26  27
HETATM   27  C   UNL     1      -5.183  11.338  67.482  1.00  0.00    -0.043 C  
BRANCH  27  28
HETATM   28  C   UNL     1      -5.724  12.760  67.324  1.00  0.00    -0.005 C  
BRANCH  28  29
HETATM   29  C   UNL     1      -5.899  13.493  68.656  1.00  0.00    -0.085 C  
BRANCH  29  30
HETATM   30  C   UNL     1      -7.281  14.128  68.871  1.00  0.00    -0.118 C  
BRANCH  30  31
HETATM   31  C   UNL     1      -7.907  14.762  67.637  1.00  0.00    -0.175 C  
BRANCH  31  32
HETATM   32  S   UNL     1      -9.684  15.101  67.861  1.00  0.00    -0.208 S  
HETATM   33  O   UNL     1     -10.115  14.404  69.118  1.00  0.00    -0.197 OA 
BRANCH  32  34
HETATM   34  C   UNL     1      -9.544  16.875  68.252  1.00  0.00    -0.258 C  
BRANCH  34  35
HETATM   35  C   UNL     1     -10.774  17.656  67.803  1.00  0.00    -0.336 C  
BRANCH  35  36
HETATM   36  C   UNL     1     -10.565  18.291  66.429  1.00  0.00    -0.318 C  
BRANCH  36  37
HETATM   37  C   UNL     1      -9.941  19.684  66.495  1.00  0.00    -0.440 C  
HETATM   38  F   UNL     1     -10.324  20.381  65.387  1.00  0.00    -0.497 F  
HETATM   39  C   UNL     1      -8.412  19.684  66.638  1.00  0.00    -0.324 C  
HETATM   40  F   UNL     1     -10.515  20.334  67.551  1.00  0.00    -0.506 F  
HETATM   41  F   UNL     1      -7.906  18.446  66.824  1.00  0.00    -0.213 F  
HETATM   42  F   UNL     1      -7.819  20.208  65.539  1.00  0.00    -0.335 F  
HETATM   43  F   UNL     1      -8.005  20.434  67.693  1.00  0.00    -0.329 F  
ENDBRANCH  36  37
ENDBRANCH  35  36
ENDBRANCH  34  35
ENDBRANCH  32  34
ENDBRANCH  31  32
ENDBRANCH  30  31
ENDBRANCH  29  30
ENDBRANCH  28  29
ENDBRANCH  27  28
ENDBRANCH  26  27
ENDBRANCH  25  26
ENDBRANCH  24  25
ENDBRANCH  23  24
ENDBRANCH  21  23
TORSDOF 14
ENDMDL
MODEL      194
REMARK 921   NORMALIZED FREE ENERGY PREDICTED BY IDOCK:   -3.86 KCAL/MOL
REMARK 922        TOTAL FREE ENERGY PREDICTED BY IDOCK:  -10.32 KCAL/MOL
REMARK 923 INTER-LIGAND FREE ENERGY PREDICTED BY IDOCK:   -8.56 KCAL/MOL
REMARK 924 INTRA-LIGAND FREE ENERGY PREDICTED BY IDOCK:   -1.76 KCAL/MOL
REMARK 927      BINDING AFFINITY PREDICTED BY RF-SCORE:    0.00 PKD
ROOT
HETATM    1  C   UNL     1      -8.946  12.640  67.006  1.00  0.00    -0.216 C  
HETATM    2  C   UNL     1      -9.470  12.209  65.755  1.00  0.00    -0.156 C  
HETATM    3  C   UNL     1     -10.568  12.749  66.631  1.00  0.00    -0.272 C  
HETATM    4  C   UNL     1      -9.753  13.745  68.203  1.00  0.00    -0.227 C  
HETATM    5  O   UNL     1     -10.154  14.687  69.204  1.00  0.00    -0.272 OA 
HETATM    6  C   UNL     1      -9.801  14.343  66.967  1.00  0.00    -0.252 C  
HETATM    7  C   UNL     1     -11.568  14.572  67.435  1.00  0.00    -0.406 C  
HETATM    8  C   UNL     1      -9.047  15.500  66.415  1.00  0.00    -0.351 C  
HETATM    9  H   UNL     1      -9.774  15.153  69.938  1.00  0.00     0.000 HD 
HETATM   10  C   UNL     1     -12.117  13.359  68.624  1.00  0.00    -0.281 C  
HETATM   11  C   UNL     1     -11.343  11.852  68.861  1.00  0.00    -0.335 C  
HETATM   12  C   UNL     1     -11.695  11.020  70.101  1.00  0.00    -0.442 A  
HETATM   13  C   UNL     1     -12.907  11.242  70.782  1.00  0.00    -0.279 A  
HETATM   14  C   UNL     1     -13.351  10.371  71.783  1.00  0.00    -0.456 A  
HETATM   15  C   UNL     1     -12.580   9.270  72.121  1.00  0.00    -0.371 A  
HETATM   16  C   UNL     1     -11.386   9.020  71.462  1.00  0.00    -0.416 A  
HETATM   17  O   UNL     1     -12.971   8.390  73.086  1.00  0.00    -0.618 OA 
HETATM   18  C   UNL     1     -10.944   9.862  70.424  1.00  0.00    -0.379 A  
HETATM   19  H   UNL     1     -12.443   7.636  73.319  1.00  0.00     0.000 HD 
HETATM   20  C   UNL     1      -9.664   9.465  69.709  1.00  0.00    -0.215 C  
HETATM   21  C   UNL     1      -9.491  10.019  68.275  1.00  0.00    -0.147 C  
HETATM   22  C   UNL     1      -9.673  11.551  68.392  1.00  0.00    -0.202 C  
ENDROOT
BRANCH  21  23
HETATM   23  C   UNL     1     -10.480   9.354  67.295  1.00  0.00    -0.332 C  
BRANCH  23  24
HETATM   24  C   UNL     1     -10.014   8.071  66.632  1.00  0.00    -0.326 C  
BRANCH  24  25
HETATM   25  C   UNL     1      -8.853   8.356  65.666  1.00  0.00    -0.196 C  
BRANCH  25  26
HETATM   26  C   UNL     1      -7.596   7.503  65.906  1.00  0.00    -0.088 C  
BRANCH  26  27
HETATM   27  C   UNL     1      -6.283   8.260  65.706  1.00  0.00    -0.052 C  
BRANCH  27  28
HETATM   28  C   UNL     1      -5.144   7.647  66.520  1.00  0.00    -0.024 C  
BRANCH  28  29
HETATM   29  C   UNL     1      -5.212   7.988  68.010  1.00  0.00    -0.033 C  
BRANCH  29  30
HETATM   30  C   UNL     1      -5.657   6.832  68.921  1.00  0.00    -0.017 C  
BRANCH  30  31
HETATM   31  C   UNL     1      -5.258   5.441  68.451  1.00  0.00    -0.003 C  
BRANCH  31  32
HETATM   32  S   UNL     1      -6.701   4.355  68.205  1.00  0.00    -0.048 S  
HETATM   33  O   UNL     1      -6.306   3.312  67.200  1.00  0.00    -0.034 OA 
BRANCH  32  34
HETATM   34  C   UNL     1      -6.685   3.556  69.841  1.00  0.00    -0.034 C  
BRANCH  34  35
HETATM   35  C   UNL     1      -8.087   3.430  70.428  1.00  0.00    -0.057 C  
BRANCH  35  36
HETATM   36  C   UNL     1      -9.060   4.408  69.771  1.00  0.00    -0.174 C  
BRANCH  36  37
HETATM   37  C   UNL     1      -9.842   5.251  70.776  1.00  0.00    -0.196 C  
HETATM   38  F   UNL     1     -10.216   6.412  70.165  1.00  0.00    -0.189 F  
HETATM   39  C   UNL     1      -9.086   5.540  72.082  1.00  0.00    -0.143 C  
HETATM   40  F   UNL     1     -11.006   4.587  71.041  1.00  0.00     0.059 F  
HETATM   41  F   UNL     1      -7.915   4.873  72.163  1.00  0.00    -0.098 F  
HETATM   42  F   UNL     1      -8.815   6.861  72.206  1.00  0.00    -0.132 F  
HETATM   43  F   UNL     1      -9.812   5.188  73.172  1.00  0.00    -0.154 F  
ENDBRANCH  36  37
ENDBRANCH  35  36
ENDBRANCH  34  35
ENDBRANCH  32  34
ENDBRANCH  31  32
ENDBRANCH  30  31
ENDBRANCH  29  30
ENDBRANCH  28  29
ENDBRANCH  27  28
ENDBRANCH  26  27
ENDBRANCH  25  26
ENDBRANCH  24  25
ENDBRANCH  23  24
ENDBRANCH  21  23
TORSDOF 14
ENDMDL
MODEL      195
REMARK 921   NORMALIZED FREE ENERGY PREDICTED BY IDOCK:   -3.85 KCAL/MOL
REMARK 922        TOTAL FREE ENERGY PREDICTED BY IDOCK:  -10.30 KCAL/MOL
REMARK 923 INTER-LIGAND FREE ENERGY PREDICTED BY IDOCK:   -7.87 KCAL/MOL
REMARK 924 INTRA-LIGAND FREE ENERGY PREDICTED BY IDOCK:   -2.42 KCAL/MOL
REMARK 927      BINDING AFFINITY PREDICTED BY RF-SCORE:    0.00 PKD
ROOT
HETATM    1  C   UNL     1     -10.110   5.338  71.527  1.00  0.00    -0.254 C  
HETATM    2  C   UNL     1      -8.888   4.628  71.357  1.00  0.00    -0.151 C  
HETATM    3  C   UNL     1      -8.626   6.098  71.539  1.00  0.00    -0.131 C  
HETATM    4  C   UNL     1     -10.314   7.010  72.209  1.00  0.00    -0.193 C  
HETATM    5  O   UNL     1     -10.697   8.244  72.827  1.00  0.00    -0.343 OA 
HETATM    6  C   UNL     1      -9.540   6.283  73.080  1.00  0.00    -0.154 C  
HETATM    7  C   UNL     1      -8.482   7.788  72.987  1.00  0.00    -0.207 C  
HETATM    8  C   UNL     1      -9.855   5.707  74.414  1.00  0.00    -0.229 C  
HETATM    9  H   UNL     1     -11.486   8.670  73.140  1.00  0.00     0.000 HD 
HETATM   10  C   UNL     1      -8.722   8.693  71.467  1.00  0.00    -0.266 C  
HETATM   11  C   UNL     1      -9.368   7.995  70.044  1.00  0.00    -0.156 C  
HETATM   12  C   UNL     1      -9.819   8.913  68.902  1.00  0.00    -0.182 A  
HETATM   13  C   UNL     1      -9.324  10.228  68.812  1.00  0.00    -0.166 A  
HETATM   14  C   UNL     1      -9.551  11.017  67.679  1.00  0.00    -0.181 A  
HETATM   15  C   UNL     1     -10.285  10.501  66.624  1.00  0.00    -0.233 A  
HETATM   16  C   UNL     1     -10.779   9.205  66.678  1.00  0.00    -0.049 A  
HETATM   17  O   UNL     1     -10.530  11.228  65.497  1.00  0.00    -0.258 OA 
HETATM   18  C   UNL     1     -10.524   8.383  67.793  1.00  0.00    -0.284 A  
HETATM   19  H   UNL     1     -11.034  10.874  64.773  1.00  0.00     0.000 HD 
HETATM   20  C   UNL     1     -11.039   6.955  67.729  1.00  0.00    -0.223 C  
HETATM   21  C   UNL     1     -10.308   5.932  68.632  1.00  0.00    -0.271 C  
HETATM   22  C   UNL     1     -10.345   6.530  70.058  1.00  0.00    -0.238 C  
ENDROOT
BRANCH  21  23
HETATM   23  C   UNL     1      -8.881   5.652  68.118  1.00  0.00    -0.108 C  
BRANCH  23  24
HETATM   24  C   UNL     1      -8.553   6.157  66.725  1.00  0.00    -0.111 C  
BRANCH  24  25
HETATM   25  C   UNL     1      -7.186   6.858  66.715  1.00  0.00    -0.076 C  
BRANCH  25  26
HETATM   26  C   UNL     1      -7.178   8.237  66.034  1.00  0.00    -0.072 C  
BRANCH  26  27
HETATM   27  C   UNL     1      -6.498   9.333  66.855  1.00  0.00    -0.067 C  
BRANCH  27  28
HETATM   28  C   UNL     1      -6.529  10.683  66.137  1.00  0.00    -0.131 C  
BRANCH  28  29
HETATM   29  C   UNL     1      -5.580  11.715  66.747  1.00  0.00    -0.134 C  
BRANCH  29  30
HETATM   30  C   UNL     1      -6.071  12.358  68.054  1.00  0.00    -0.075 C  
BRANCH  30  31
HETATM   31  C   UNL     1      -6.232  13.871  68.017  1.00  0.00    -0.142 C  
BRANCH  31  32
HETATM   32  S   UNL     1      -7.826  14.414  68.714  1.00  0.00    -0.119 S  
HETATM   33  O   UNL     1      -7.631  15.809  69.233  1.00  0.00    -0.199 OA 
BRANCH  32  34
HETATM   34  C   UNL     1      -8.743  14.548  67.146  1.00  0.00    -0.219 C  
BRANCH  34  35
HETATM   35  C   UNL     1     -10.158  15.075  67.357  1.00  0.00    -0.228 C  
BRANCH  35  36
HETATM   36  C   UNL     1     -11.133  13.948  67.694  1.00  0.00    -0.295 C  
BRANCH  36  37
HETATM   37  C   UNL     1     -11.562  13.936  69.160  1.00  0.00    -0.313 C  
HETATM   38  F   UNL     1     -12.772  13.312  69.250  1.00  0.00    -0.104 F  
HETATM   39  C   UNL     1     -11.613  15.324  69.815  1.00  0.00    -0.314 C  
HETATM   40  F   UNL     1     -10.686  13.129  69.830  1.00  0.00     0.024 F  
HETATM   41  F   UNL     1     -11.130  16.296  69.011  1.00  0.00    -0.268 F  
HETATM   42  F   UNL     1     -12.882  15.659  70.147  1.00  0.00    -0.405 F  
HETATM   43  F   UNL     1     -10.887  15.368  70.960  1.00  0.00    -0.345 F  
ENDBRANCH  36  37
ENDBRANCH  35  36
ENDBRANCH  34  35
ENDBRANCH  32  34
ENDBRANCH  31  32
ENDBRANCH  30  31
ENDBRANCH  29  30
ENDBRANCH  28  29
ENDBRANCH  27  28
ENDBRANCH  26  27
ENDBRANCH  25  26
ENDBRANCH  24  25
ENDBRANCH  23  24
ENDBRANCH  21  23
TORSDOF 14
ENDMDL
MODEL      196
REMARK 921   NORMALIZED FREE ENERGY PREDICTED BY IDOCK:   -3.85 KCAL/MOL
REMARK 922        TOTAL FREE ENERGY PREDICTED BY IDOCK:  -10.29 KCAL/MOL
REMARK 923 INTER-LIGAND FREE ENERGY PREDICTED BY IDOCK:   -8.87 KCAL/MOL
REMARK 924 INTRA-LIGAND FREE ENERGY PREDICTED BY IDOCK:   -1.42 KCAL/MOL
REMARK 927      BINDING AFFINITY PREDICTED BY RF-SCORE:    0.00 PKD
ROOT
HETATM    1  C   UNL     1     -10.740  14.837  65.712  1.00  0.00    -0.333 C  
HETATM    2  C   UNL     1     -11.977  14.783  66.413  1.00  0.00    -0.179 C  
HETATM    3  C   UNL     1     -10.829  14.928  67.375  1.00  0.00    -0.304 C  
HETATM    4  C   UNL     1      -9.149  15.439  66.353  1.00  0.00    -0.314 C  
HETATM    5  O   UNL     1      -7.850  15.980  66.621  1.00  0.00    -0.244 OA 
HETATM    6  C   UNL     1     -10.104  16.391  66.615  1.00  0.00    -0.290 C  
HETATM    7  C   UNL     1      -9.345  16.317  68.292  1.00  0.00    -0.204 C  
HETATM    8  C   UNL     1     -10.349  17.719  65.995  1.00  0.00    -0.304 C  
HETATM    9  H   UNL     1      -7.065  16.219  66.143  1.00  0.00     0.000 HD 
HETATM   10  C   UNL     1      -8.550  14.750  68.608  1.00  0.00    -0.169 C  
HETATM   11  C   UNL     1      -8.926  13.312  67.760  1.00  0.00    -0.196 C  
HETATM   12  C   UNL     1      -7.987  12.106  67.885  1.00  0.00    -0.150 A  
HETATM   13  C   UNL     1      -7.109  12.002  68.980  1.00  0.00    -0.077 A  
HETATM   14  C   UNL     1      -6.393  10.827  69.233  1.00  0.00    -0.061 A  
HETATM   15  C   UNL     1      -6.542   9.742  68.384  1.00  0.00    -0.056 A  
HETATM   16  C   UNL     1      -7.407   9.810  67.301  1.00  0.00    -0.087 A  
HETATM   17  O   UNL     1      -5.871   8.573  68.589  1.00  0.00    -0.042 OA 
HETATM   18  C   UNL     1      -8.166  10.970  67.056  1.00  0.00    -0.138 A  
HETATM   19  H   UNL     1      -5.972   7.829  68.008  1.00  0.00     0.000 HD 
HETATM   20  C   UNL     1      -9.143  10.923  65.894  1.00  0.00    -0.212 C  
HETATM   21  C   UNL     1     -10.328  11.915  65.967  1.00  0.00    -0.268 C  
HETATM   22  C   UNL     1      -9.696  13.311  66.176  1.00  0.00    -0.258 C  
ENDROOT
BRANCH  21  23
HETATM   23  C   UNL     1     -11.323  11.516  67.077  1.00  0.00    -0.340 C  
BRANCH  23  24
HETATM   24  C   UNL     1     -10.758  11.402  68.481  1.00  0.00    -0.235 C  
BRANCH  24  25
HETATM   25  C   UNL     1     -11.007   9.995  69.047  1.00  0.00    -0.249 C  
BRANCH  25  26
HETATM   26  C   UNL     1     -11.095   9.929  70.582  1.00  0.00    -0.409 C  
BRANCH  26  27
HETATM   27  C   UNL     1     -12.297   9.141  71.102  1.00  0.00    -0.330 C  
BRANCH  27  28
HETATM   28  C   UNL     1     -12.011   8.502  72.463  1.00  0.00    -0.401 C  
BRANCH  28  29
HETATM   29  C   UNL     1     -10.558   8.050  72.626  1.00  0.00    -0.419 C  
BRANCH  29  30
HETATM   30  C   UNL     1     -10.377   6.677  73.293  1.00  0.00    -0.275 C  
BRANCH  30  31
HETATM   31  C   UNL     1      -8.935   6.260  73.546  1.00  0.00    -0.124 C  
BRANCH  31  32
HETATM   32  S   UNL     1      -8.536   4.653  72.784  1.00  0.00    -0.114 S  
HETATM   33  O   UNL     1      -9.803   4.120  72.182  1.00  0.00    -0.154 OA 
BRANCH  32  34
HETATM   34  C   UNL     1      -7.515   5.282  71.413  1.00  0.00    -0.095 C  
BRANCH  34  35
HETATM   35  C   UNL     1      -7.599   4.386  70.182  1.00  0.00    -0.049 C  
BRANCH  35  36
HETATM   36  C   UNL     1      -8.163   5.138  68.977  1.00  0.00    -0.088 C  
BRANCH  36  37
HETATM   37  C   UNL     1      -9.672   4.970  68.811  1.00  0.00    -0.161 C  
HETATM   38  F   UNL     1      -9.933   4.690  67.502  1.00  0.00    -0.190 F  
HETATM   39  C   UNL     1     -10.498   6.175  69.287  1.00  0.00    -0.254 C  
HETATM   40  F   UNL     1     -10.032   3.848  69.502  1.00  0.00    -0.270 F  
HETATM   41  F   UNL     1      -9.744   7.112  69.900  1.00  0.00    -0.168 F  
HETATM   42  F   UNL     1     -11.130   6.773  68.250  1.00  0.00    -0.262 F  
HETATM   43  F   UNL     1     -11.460   5.809  70.170  1.00  0.00    -0.399 F  
ENDBRANCH  36  37
ENDBRANCH  35  36
ENDBRANCH  34  35
ENDBRANCH  32  34
ENDBRANCH  31  32
ENDBRANCH  30  31
ENDBRANCH  29  30
ENDBRANCH  28  29
ENDBRANCH  27  28
ENDBRANCH  26  27
ENDBRANCH  25  26
ENDBRANCH  24  25
ENDBRANCH  23  24
ENDBRANCH  21  23
TORSDOF 14
ENDMDL
MODEL      197
REMARK 921   NORMALIZED FREE ENERGY PREDICTED BY IDOCK:   -3.84 KCAL/MOL
REMARK 922        TOTAL FREE ENERGY PREDICTED BY IDOCK:  -10.28 KCAL/MOL
REMARK 923 INTER-LIGAND FREE ENERGY PREDICTED BY IDOCK:   -8.24 KCAL/MOL
REMARK 924 INTRA-LIGAND FREE ENERGY PREDICTED BY IDOCK:   -2.04 KCAL/MOL
REMARK 927      BINDING AFFINITY PREDICTED BY RF-SCORE:    0.00 PKD
ROOT
HETATM    1  C   UNL     1     -12.883  13.070  69.933  1.00  0.00     0.492 C  
HETATM    2  C   UNL     1     -11.937  12.128  70.427  1.00  0.00    -0.360 C  
HETATM    3  C   UNL     1     -11.630  13.507  70.943  1.00  0.00     0.433 C  
HETATM    4  C   UNL     1     -13.214  14.731  70.593  1.00  0.00    -0.244 C  
HETATM    5  O   UNL     1     -13.709  16.001  71.032  1.00  0.00    -0.416 OA 
HETATM    6  C   UNL     1     -13.259  13.838  71.636  1.00  0.00    -0.450 C  
HETATM    7  C   UNL     1     -12.161  15.094  72.417  1.00  0.00    -0.478 C  
HETATM    8  C   UNL     1     -14.409  13.306  72.414  1.00  0.00    -0.191 C  
HETATM    9  H   UNL     1     -14.449  16.573  70.869  1.00  0.00     0.000 HD 
HETATM   10  C   UNL     1     -11.276  16.066  71.209  1.00  0.00    -0.281 C  
HETATM   11  C   UNL     1     -11.004  15.553  69.600  1.00  0.00    -0.288 C  
HETATM   12  C   UNL     1     -10.514  16.573  68.565  1.00  0.00    -0.302 A  
HETATM   13  C   UNL     1      -9.882  17.759  68.983  1.00  0.00    -0.225 A  
HETATM   14  C   UNL     1      -9.243  18.606  68.071  1.00  0.00    -0.329 A  
HETATM   15  C   UNL     1      -9.238  18.280  66.725  1.00  0.00    -0.288 A  
HETATM   16  C   UNL     1      -9.844  17.113  66.282  1.00  0.00    -0.306 A  
HETATM   17  O   UNL     1      -8.626  19.070  65.797  1.00  0.00    -0.410 OA 
HETATM   18  C   UNL     1     -10.455  16.228  67.191  1.00  0.00    -0.297 A  
HETATM   19  H   UNL     1      -8.622  18.847  64.874  1.00  0.00     0.000 HD 
HETATM   20  C   UNL     1     -11.024  14.939  66.623  1.00  0.00    -0.325 C  
HETATM   21  C   UNL     1     -11.166  13.766  67.622  1.00  0.00    -0.316 C  
HETATM   22  C   UNL     1     -11.984  14.322  68.811  1.00  0.00    -0.346 C  
ENDROOT
BRANCH  21  23
HETATM   23  C   UNL     1      -9.786  13.209  68.030  1.00  0.00    -0.231 C  
BRANCH  23  24
HETATM   24  C   UNL     1      -9.499  11.769  67.651  1.00  0.00    -0.180 C  
BRANCH  24  25
HETATM   25  C   UNL     1      -9.318  11.638  66.131  1.00  0.00    -0.237 C  
BRANCH  25  26
HETATM   26  C   UNL     1      -8.018  10.938  65.698  1.00  0.00    -0.037 C  
BRANCH  26  27
HETATM   27  C   UNL     1      -8.233   9.560  65.071  1.00  0.00    -0.137 C  
BRANCH  27  28
HETATM   28  C   UNL     1      -7.424   8.479  65.788  1.00  0.00    -0.081 C  
BRANCH  28  29
HETATM   29  C   UNL     1      -8.002   7.073  65.612  1.00  0.00    -0.123 C  
BRANCH  29  30
HETATM   30  C   UNL     1      -7.869   6.158  66.839  1.00  0.00    -0.104 C  
BRANCH  30  31
HETATM   31  C   UNL     1      -9.175   5.816  67.542  1.00  0.00    -0.108 C  
BRANCH  31  32
HETATM   32  S   UNL     1     -10.105   7.304  68.034  1.00  0.00    -0.181 S  
HETATM   33  O   UNL     1     -10.982   7.683  66.876  1.00  0.00    -0.253 OA 
BRANCH  32  34
HETATM   34  C   UNL     1     -11.175   6.520  69.282  1.00  0.00    -0.328 C  
BRANCH  34  35
HETATM   35  C   UNL     1     -11.110   7.243  70.623  1.00  0.00    -0.287 C  
BRANCH  35  36
HETATM   36  C   UNL     1      -9.954   8.240  70.669  1.00  0.00    -0.204 C  
BRANCH  36  37
HETATM   37  C   UNL     1      -8.932   7.932  71.761  1.00  0.00    -0.132 C  
HETATM   38  F   UNL     1      -8.952   8.951  72.669  1.00  0.00    -0.276 F  
HETATM   39  C   UNL     1      -7.506   7.690  71.244  1.00  0.00    -0.079 C  
HETATM   40  F   UNL     1      -9.383   6.834  72.438  1.00  0.00    -0.140 F  
HETATM   41  F   UNL     1      -7.442   7.653  69.896  1.00  0.00    -0.074 F  
HETATM   42  F   UNL     1      -6.662   8.660  71.667  1.00  0.00    -0.059 F  
HETATM   43  F   UNL     1      -7.001   6.513  71.691  1.00  0.00    -0.065 F  
ENDBRANCH  36  37
ENDBRANCH  35  36
ENDBRANCH  34  35
ENDBRANCH  32  34
ENDBRANCH  31  32
ENDBRANCH  30  31
ENDBRANCH  29  30
ENDBRANCH  28  29
ENDBRANCH  27  28
ENDBRANCH  26  27
ENDBRANCH  25  26
ENDBRANCH  24  25
ENDBRANCH  23  24
ENDBRANCH  21  23
TORSDOF 14
ENDMDL
MODEL      198
REMARK 921   NORMALIZED FREE ENERGY PREDICTED BY IDOCK:   -3.82 KCAL/MOL
REMARK 922        TOTAL FREE ENERGY PREDICTED BY IDOCK:  -10.24 KCAL/MOL
REMARK 923 INTER-LIGAND FREE ENERGY PREDICTED BY IDOCK:   -7.26 KCAL/MOL
REMARK 924 INTRA-LIGAND FREE ENERGY PREDICTED BY IDOCK:   -2.98 KCAL/MOL
REMARK 927      BINDING AFFINITY PREDICTED BY RF-SCORE:    0.00 PKD
ROOT
HETATM    1  C   UNL     1     -11.285  15.473  70.725  1.00  0.00    -0.384 C  
HETATM    2  C   UNL     1     -12.183  16.055  69.786  1.00  0.00    -0.027 C  
HETATM    3  C   UNL     1     -12.931  15.210  70.781  1.00  0.00    -0.468 C  
HETATM    4  C   UNL     1     -11.711  14.758  72.341  1.00  0.00    -0.095 C  
HETATM    5  O   UNL     1     -11.817  14.272  73.684  1.00  0.00     0.131 OA 
HETATM    6  C   UNL     1     -12.281  16.005  72.260  1.00  0.00    -0.604 C  
HETATM    7  C   UNL     1     -13.763  15.081  72.846  1.00  0.00    -0.461 C  
HETATM    8  C   UNL     1     -11.923  17.285  72.927  1.00  0.00     0.926 C  
HETATM    9  H   UNL     1     -11.248  14.061  74.413  1.00  0.00     0.000 HD 
HETATM   10  C   UNL     1     -13.691  13.347  72.423  1.00  0.00    -0.698 C  
HETATM   11  C   UNL     1     -12.718  12.722  71.162  1.00  0.00    -0.355 C  
HETATM   12  C   UNL     1     -12.488  11.209  71.078  1.00  0.00    -0.506 A  
HETATM   13  C   UNL     1     -13.378  10.321  71.712  1.00  0.00    -0.476 A  
HETATM   14  C   UNL     1     -13.317   8.941  71.485  1.00  0.00    -0.374 A  
HETATM   15  C   UNL     1     -12.356   8.433  70.626  1.00  0.00     0.186 A  
HETATM   16  C   UNL     1     -11.470   9.283  69.980  1.00  0.00    -0.077 A  
HETATM   17  O   UNL     1     -12.258   7.097  70.369  1.00  0.00    -0.574 OA 
HETATM   18  C   UNL     1     -11.544  10.677  70.164  1.00  0.00    -0.414 A  
HETATM   19  H   UNL     1     -11.600   6.748  69.781  1.00  0.00     0.000 HD 
HETATM   20  C   UNL     1     -10.584  11.531  69.355  1.00  0.00    -0.056 C  
HETATM   21  C   UNL     1     -11.019  12.998  69.120  1.00  0.00    -0.190 C  
HETATM   22  C   UNL     1     -11.318  13.578  70.522  1.00  0.00     0.397 C  
ENDROOT
BRANCH  21  23
HETATM   23  C   UNL     1     -12.217  13.077  68.152  1.00  0.00    -0.037 C  
BRANCH  23  24
HETATM   24  C   UNL     1     -11.972  13.776  66.828  1.00  0.00    -0.465 C  
BRANCH  24  25
HETATM   25  C   UNL     1     -12.075  12.778  65.665  1.00  0.00    -0.514 C  
BRANCH  25  26
HETATM   26  C   UNL     1     -11.390  11.424  65.920  1.00  0.00    -0.089 C  
BRANCH  26  27
HETATM   27  C   UNL     1     -10.267  11.099  64.936  1.00  0.00    -0.361 C  
BRANCH  27  28
HETATM   28  C   UNL     1      -9.368   9.974  65.453  1.00  0.00    -0.284 C  
BRANCH  28  29
HETATM   29  C   UNL     1      -7.886  10.353  65.492  1.00  0.00    -0.152 C  
BRANCH  29  30
HETATM   30  C   UNL     1      -7.504  11.368  66.581  1.00  0.00    -0.110 C  
BRANCH  30  31
HETATM   31  C   UNL     1      -6.651  10.819  67.715  1.00  0.00    -0.064 C  
BRANCH  31  32
HETATM   32  S   UNL     1      -6.037  12.134  68.817  1.00  0.00    -0.072 S  
HETATM   33  O   UNL     1      -7.217  12.977  69.204  1.00  0.00    -0.039 OA 
BRANCH  32  34
HETATM   34  C   UNL     1      -5.637  11.083  70.249  1.00  0.00    -0.102 C  
BRANCH  34  35
HETATM   35  C   UNL     1      -5.924   9.611  69.974  1.00  0.00    -0.043 C  
BRANCH  35  36
HETATM   36  C   UNL     1      -5.895   8.783  71.257  1.00  0.00    -0.045 C  
BRANCH  36  37
HETATM   37  C   UNL     1      -6.806   7.558  71.209  1.00  0.00    -0.050 C  
HETATM   38  F   UNL     1      -6.537   6.866  70.064  1.00  0.00    -0.039 F  
HETATM   39  C   UNL     1      -8.304   7.881  71.312  1.00  0.00    -0.113 C  
HETATM   40  F   UNL     1      -6.429   6.734  72.230  1.00  0.00    -0.053 F  
HETATM   41  F   UNL     1      -8.538   9.186  71.571  1.00  0.00    -0.240 F  
HETATM   42  F   UNL     1      -8.950   7.569  70.164  1.00  0.00    -0.143 F  
HETATM   43  F   UNL     1      -8.905   7.173  72.301  1.00  0.00    -0.127 F  
ENDBRANCH  36  37
ENDBRANCH  35  36
ENDBRANCH  34  35
ENDBRANCH  32  34
ENDBRANCH  31  32
ENDBRANCH  30  31
ENDBRANCH  29  30
ENDBRANCH  28  29
ENDBRANCH  27  28
ENDBRANCH  26  27
ENDBRANCH  25  26
ENDBRANCH  24  25
ENDBRANCH  23  24
ENDBRANCH  21  23
TORSDOF 14
ENDMDL
MODEL      199
REMARK 921   NORMALIZED FREE ENERGY PREDICTED BY IDOCK:   -3.77 KCAL/MOL
REMARK 922        TOTAL FREE ENERGY PREDICTED BY IDOCK:  -10.14 KCAL/MOL
REMARK 923 INTER-LIGAND FREE ENERGY PREDICTED BY IDOCK:   -9.76 KCAL/MOL
REMARK 924 INTRA-LIGAND FREE ENERGY PREDICTED BY IDOCK:   -0.38 KCAL/MOL
REMARK 927      BINDING AFFINITY PREDICTED BY RF-SCORE:    0.00 PKD
ROOT
HETATM    1  C   UNL     1      -9.511   3.799  66.342  1.00  0.00    -0.197 C  
HETATM    2  C   UNL     1     -10.026   4.588  65.275  1.00  0.00    -0.178 C  
HETATM    3  C   UNL     1      -8.710   5.137  65.753  1.00  0.00    -0.139 C  
HETATM    4  C   UNL     1      -7.798   3.771  66.949  1.00  0.00    -0.084 C  
HETATM    5  O   UNL     1      -6.497   3.509  67.485  1.00  0.00    -0.036 OA 
HETATM    6  C   UNL     1      -7.772   3.609  65.585  1.00  0.00    -0.085 C  
HETATM    7  C   UNL     1      -6.490   4.925  65.714  1.00  0.00    -0.040 C  
HETATM    8  C   UNL     1      -7.490   2.410  64.753  1.00  0.00    -0.067 C  
HETATM    9  H   UNL     1      -6.070   2.871  68.044  1.00  0.00     0.000 HD 
HETATM   10  C   UNL     1      -6.688   5.923  67.182  1.00  0.00    -0.061 C  
HETATM   11  C   UNL     1      -8.161   6.057  68.041  1.00  0.00    -0.113 C  
HETATM   12  C   UNL     1      -8.153   6.679  69.443  1.00  0.00    -0.119 A  
HETATM   13  C   UNL     1      -7.091   7.513  69.841  1.00  0.00    -0.064 A  
HETATM   14  C   UNL     1      -7.152   8.257  71.025  1.00  0.00    -0.056 A  
HETATM   15  C   UNL     1      -8.276   8.166  71.830  1.00  0.00    -0.141 A  
HETATM   16  C   UNL     1      -9.343   7.360  71.460  1.00  0.00    -0.154 A  
HETATM   17  O   UNL     1      -8.386   8.874  72.991  1.00  0.00    -0.358 OA 
HETATM   18  C   UNL     1      -9.316   6.637  70.252  1.00  0.00    -0.160 A  
HETATM   19  H   UNL     1      -9.156   8.812  73.543  1.00  0.00     0.000 HD 
HETATM   20  C   UNL     1     -10.560   5.843  69.895  1.00  0.00    -0.370 C  
HETATM   21  C   UNL     1     -10.758   5.537  68.391  1.00  0.00    -0.156 C  
HETATM   22  C   UNL     1      -9.448   4.860  67.924  1.00  0.00    -0.172 C  
ENDROOT
BRANCH  21  23
HETATM   23  C   UNL     1     -11.105   6.816  67.601  1.00  0.00    -0.309 C  
BRANCH  23  24
HETATM   24  C   UNL     1      -9.938   7.582  67.006  1.00  0.00    -0.304 C  
BRANCH  24  25
HETATM   25  C   UNL     1     -10.167   9.096  67.131  1.00  0.00    -0.329 C  
BRANCH  25  26
HETATM   26  C   UNL     1      -9.000   9.871  67.766  1.00  0.00    -0.134 C  
BRANCH  26  27
HETATM   27  C   UNL     1      -9.434  11.070  68.608  1.00  0.00    -0.197 C  
BRANCH  27  28
HETATM   28  C   UNL     1     -10.948  11.097  68.819  1.00  0.00    -0.268 C  
BRANCH  28  29
HETATM   29  C   UNL     1     -11.579  12.458  68.514  1.00  0.00    -0.358 C  
BRANCH  29  30
HETATM   30  C   UNL     1     -11.943  12.689  67.040  1.00  0.00    -0.330 C  
BRANCH  30  31
HETATM   31  C   UNL     1     -11.984  14.146  66.599  1.00  0.00    -0.444 C  
BRANCH  31  32
HETATM   32  S   UNL     1     -10.809  14.492  65.250  1.00  0.00    -0.395 S  
HETATM   33  O   UNL     1     -11.230  15.786  64.615  1.00  0.00    -0.445 OA 
BRANCH  32  34
HETATM   34  C   UNL     1      -9.353  14.852  66.283  1.00  0.00    -0.296 C  
BRANCH  34  35
HETATM   35  C   UNL     1      -8.993  16.333  66.265  1.00  0.00    -0.366 C  
BRANCH  35  36
HETATM   36  C   UNL     1      -9.029  16.937  67.668  1.00  0.00    -0.219 C  
BRANCH  36  37
HETATM   37  C   UNL     1      -8.854  18.454  67.679  1.00  0.00    -0.263 C  
HETATM   38  F   UNL     1      -8.224  18.807  68.836  1.00  0.00    -0.344 F  
HETATM   39  C   UNL     1     -10.161  19.242  67.507  1.00  0.00    -0.414 C  
HETATM   40  F   UNL     1      -7.978  18.766  66.678  1.00  0.00    -0.232 F  
HETATM   41  F   UNL     1     -11.216  18.446  67.233  1.00  0.00    -0.341 F  
HETATM   42  F   UNL     1     -10.457  19.946  68.625  1.00  0.00    -0.527 F  
HETATM   43  F   UNL     1     -10.078  20.141  66.493  1.00  0.00    -0.489 F  
ENDBRANCH  36  37
ENDBRANCH  35  36
ENDBRANCH  34  35
ENDBRANCH  32  34
ENDBRANCH  31  32
ENDBRANCH  30  31
ENDBRANCH  29  30
ENDBRANCH  28  29
ENDBRANCH  27  28
ENDBRANCH  26  27
ENDBRANCH  25  26
ENDBRANCH  24  25
ENDBRANCH  23  24
ENDBRANCH  21  23
TORSDOF 14
ENDMDL
MODEL      200
REMARK 921   NORMALIZED FREE ENERGY PREDICTED BY IDOCK:   -3.76 KCAL/MOL
REMARK 922        TOTAL FREE ENERGY PREDICTED BY IDOCK:  -10.13 KCAL/MOL
REMARK 923 INTER-LIGAND FREE ENERGY PREDICTED BY IDOCK:   -8.28 KCAL/MOL
REMARK 924 INTRA-LIGAND FREE ENERGY PREDICTED BY IDOCK:   -1.84 KCAL/MOL
REMARK 927      BINDING AFFINITY PREDICTED BY RF-SCORE:    0.00 PKD
ROOT
HETATM    1  C   UNL     1      -7.963   3.238  71.439  1.00  0.00    -0.059 C  
HETATM    2  C   UNL     1      -6.618   3.552  71.099  1.00  0.00    -0.030 C  
HETATM    3  C   UNL     1      -7.124   4.478  72.171  1.00  0.00    -0.061 C  
HETATM    4  C   UNL     1      -8.856   3.745  72.938  1.00  0.00    -0.094 C  
HETATM    5  O   UNL     1      -9.684   3.929  74.092  1.00  0.00    -0.102 OA 
HETATM    6  C   UNL     1      -7.656   3.197  73.319  1.00  0.00    -0.056 C  
HETATM    7  C   UNL     1      -7.577   4.728  74.340  1.00  0.00    -0.089 C  
HETATM    8  C   UNL     1      -7.340   1.891  73.957  1.00  0.00    -0.029 C  
HETATM    9  H   UNL     1     -10.493   3.586  74.451  1.00  0.00     0.000 HD 
HETATM   10  C   UNL     1      -8.562   6.051  73.656  1.00  0.00    -0.125 C  
HETATM   11  C   UNL     1      -9.033   6.124  72.013  1.00  0.00    -0.139 C  
HETATM   12  C   UNL     1     -10.121   7.120  71.593  1.00  0.00    -0.197 A  
HETATM   13  C   UNL     1     -10.411   8.235  72.401  1.00  0.00    -0.404 A  
HETATM   14  C   UNL     1     -11.244   9.266  71.952  1.00  0.00    -0.331 A  
HETATM   15  C   UNL     1     -11.807   9.186  70.688  1.00  0.00    -0.175 A  
HETATM   16  C   UNL     1     -11.533   8.104  69.864  1.00  0.00     0.167 A  
HETATM   17  O   UNL     1     -12.622  10.166  70.202  1.00  0.00    -0.522 OA 
HETATM   18  C   UNL     1     -10.664   7.079  70.284  1.00  0.00    -0.266 A  
HETATM   19  H   UNL     1     -13.007  10.112  69.336  1.00  0.00     0.000 HD 
HETATM   20  C   UNL     1     -10.364   5.975  69.284  1.00  0.00    -0.294 C  
HETATM   21  C   UNL     1      -9.040   5.206  69.505  1.00  0.00    -0.145 C  
HETATM   22  C   UNL     1      -9.082   4.707  70.969  1.00  0.00    -0.181 C  
ENDROOT
BRANCH  21  23
HETATM   23  C   UNL     1      -7.818   6.093  69.191  1.00  0.00    -0.104 C  
BRANCH  23  24
HETATM   24  C   UNL     1      -7.673   6.561  67.755  1.00  0.00    -0.107 C  
BRANCH  24  25
HETATM   25  C   UNL     1      -7.060   7.969  67.706  1.00  0.00    -0.086 C  
BRANCH  25  26
HETATM   26  C   UNL     1      -7.402   8.858  68.914  1.00  0.00    -0.075 C  
BRANCH  26  27
HETATM   27  C   UNL     1      -8.809   9.453  68.870  1.00  0.00    -0.136 C  
BRANCH  27  28
HETATM   28  C   UNL     1      -8.781  10.958  68.599  1.00  0.00    -0.154 C  
BRANCH  28  29
HETATM   29  C   UNL     1      -9.537  11.360  67.331  1.00  0.00    -0.185 C  
BRANCH  29  30
HETATM   30  C   UNL     1     -11.024  11.686  67.537  1.00  0.00    -0.312 C  
BRANCH  30  31
HETATM   31  C   UNL     1     -11.682  12.471  66.412  1.00  0.00    -0.397 C  
BRANCH  31  32
HETATM   32  S   UNL     1     -10.587  13.765  65.740  1.00  0.00    -0.301 S  
HETATM   33  O   UNL     1     -11.451  14.942  65.393  1.00  0.00    -0.346 OA 
BRANCH  32  34
HETATM   34  C   UNL     1      -9.721  14.176  67.289  1.00  0.00    -0.236 C  
BRANCH  34  35
HETATM   35  C   UNL     1     -10.424  15.288  68.058  1.00  0.00    -0.248 C  
BRANCH  35  36
HETATM   36  C   UNL     1     -10.285  15.102  69.568  1.00  0.00    -0.241 C  
BRANCH  36  37
HETATM   37  C   UNL     1     -11.562  15.431  70.339  1.00  0.00    -0.324 C  
HETATM   38  F   UNL     1     -11.276  16.403  71.252  1.00  0.00    -0.358 F  
HETATM   39  C   UNL     1     -12.220  14.220  71.018  1.00  0.00    -0.356 C  
HETATM   40  F   UNL     1     -12.430  16.006  69.454  1.00  0.00    -0.281 F  
HETATM   41  F   UNL     1     -11.624  13.053  70.690  1.00  0.00    -0.252 F  
HETATM   42  F   UNL     1     -12.180  14.336  72.366  1.00  0.00    -0.328 F  
HETATM   43  F   UNL     1     -13.527  14.099  70.676  1.00  0.00    -0.325 F  
ENDBRANCH  36  37
ENDBRANCH  35  36
ENDBRANCH  34  35
ENDBRANCH  32  34
ENDBRANCH  31  32
ENDBRANCH  30  31
ENDBRANCH  29  30
ENDBRANCH  28  29
ENDBRANCH  27  28
ENDBRANCH  26  27
ENDBRANCH  25  26
ENDBRANCH  24  25
ENDBRANCH  23  24
ENDBRANCH  21  23
TORSDOF 14
ENDMDL
MODEL      201
REMARK 921   NORMALIZED FREE ENERGY PREDICTED BY IDOCK:   -3.75 KCAL/MOL
REMARK 922        TOTAL FREE ENERGY PREDICTED BY IDOCK:  -10.12 KCAL/MOL
REMARK 923 INTER-LIGAND FREE ENERGY PREDICTED BY IDOCK:   -7.49 KCAL/MOL
REMARK 924 INTRA-LIGAND FREE ENERGY PREDICTED BY IDOCK:   -2.63 KCAL/MOL
REMARK 927      BINDING AFFINITY PREDICTED BY RF-SCORE:    0.00 PKD
ROOT
HETATM    1  C   UNL     1     -10.142  13.792  68.766  1.00  0.00    -0.141 C  
HETATM    2  C   UNL     1      -8.950  14.555  68.914  1.00  0.00    -0.109 C  
HETATM    3  C   UNL     1      -9.506  14.705  67.524  1.00  0.00    -0.198 C  
HETATM    4  C   UNL     1     -11.403  13.979  67.471  1.00  0.00    -0.321 C  
HETATM    5  O   UNL     1     -12.557  14.047  66.626  1.00  0.00    -0.516 OA 
HETATM    6  C   UNL     1     -11.161  15.217  68.016  1.00  0.00    -0.329 C  
HETATM    7  C   UNL     1     -11.040  15.688  66.239  1.00  0.00    -0.127 C  
HETATM    8  C   UNL     1     -11.982  16.056  68.927  1.00  0.00    -0.129 C  
HETATM    9  H   UNL     1     -13.444  13.709  66.601  1.00  0.00     0.000 HD 
HETATM   10  C   UNL     1     -10.594  14.306  65.200  1.00  0.00    -0.423 C  
HETATM   11  C   UNL     1      -9.810  12.901  65.782  1.00  0.00    -0.216 C  
HETATM   12  C   UNL     1      -9.748  11.657  64.888  1.00  0.00    -0.232 A  
HETATM   13  C   UNL     1      -9.915  11.776  63.495  1.00  0.00    -0.430 A  
HETATM   14  C   UNL     1      -9.661  10.703  62.635  1.00  0.00    -0.293 A  
HETATM   15  C   UNL     1      -9.245   9.490  63.161  1.00  0.00     0.003 A  
HETATM   16  C   UNL     1      -9.063   9.344  64.529  1.00  0.00    -0.205 A  
HETATM   17  O   UNL     1      -8.981   8.415  62.365  1.00  0.00    -0.434 OA 
HETATM   18  C   UNL     1      -9.273  10.426  65.405  1.00  0.00    -0.233 A  
HETATM   19  H   UNL     1      -8.696   7.584  62.726  1.00  0.00     0.000 HD 
HETATM   20  C   UNL     1      -8.974  10.191  66.876  1.00  0.00    -0.146 C  
HETATM   21  C   UNL     1      -8.658  11.455  67.711  1.00  0.00    -0.129 C  
HETATM   22  C   UNL     1      -9.844  12.421  67.476  1.00  0.00    -0.194 C  
ENDROOT
BRANCH  21  23
HETATM   23  C   UNL     1      -7.291  12.054  67.323  1.00  0.00    -0.151 C  
BRANCH  23  24
HETATM   24  C   UNL     1      -6.281  11.097  66.717  1.00  0.00    -0.122 C  
BRANCH  24  25
HETATM   25  C   UNL     1      -5.683  10.188  67.801  1.00  0.00    -0.042 C  
BRANCH  25  26
HETATM   26  C   UNL     1      -5.677  10.795  69.215  1.00  0.00    -0.041 C  
BRANCH  26  27
HETATM   27  C   UNL     1      -5.322   9.799  70.319  1.00  0.00    -0.041 C  
BRANCH  27  28
HETATM   28  C   UNL     1      -6.440   9.679  71.356  1.00  0.00     0.105 C  
BRANCH  28  29
HETATM   29  C   UNL     1      -7.268   8.401  71.208  1.00  0.00    -0.073 C  
BRANCH  29  30
HETATM   30  C   UNL     1      -8.786   8.619  71.105  1.00  0.00    -0.249 C  
BRANCH  30  31
HETATM   31  C   UNL     1      -9.645   7.545  71.756  1.00  0.00    -0.152 C  
BRANCH  31  32
HETATM   32  S   UNL     1     -11.297   7.424  70.994  1.00  0.00    -0.282 S  
HETATM   33  O   UNL     1     -11.601   8.759  70.380  1.00  0.00    -0.213 OA 
BRANCH  32  34
HETATM   34  C   UNL     1     -10.853   6.297  69.633  1.00  0.00    -0.339 C  
BRANCH  34  35
HETATM   35  C   UNL     1     -10.780   7.022  68.294  1.00  0.00    -0.231 C  
BRANCH  35  36
HETATM   36  C   UNL     1     -10.131   6.152  67.219  1.00  0.00    -0.202 C  
BRANCH  36  37
HETATM   37  C   UNL     1      -8.609   6.094  67.324  1.00  0.00    -0.103 C  
HETATM   38  F   UNL     1      -8.082   6.992  66.442  1.00  0.00    -0.100 F  
HETATM   39  C   UNL     1      -8.012   4.696  67.102  1.00  0.00    -0.102 C  
HETATM   40  F   UNL     1      -8.272   6.561  68.563  1.00  0.00    -0.115 F  
HETATM   41  F   UNL     1      -8.958   3.739  66.994  1.00  0.00    -0.111 F  
HETATM   42  F   UNL     1      -7.261   4.660  65.976  1.00  0.00    -0.069 F  
HETATM   43  F   UNL     1      -7.199   4.328  68.124  1.00  0.00    -0.056 F  
ENDBRANCH  36  37
ENDBRANCH  35  36
ENDBRANCH  34  35
ENDBRANCH  32  34
ENDBRANCH  31  32
ENDBRANCH  30  31
ENDBRANCH  29  30
ENDBRANCH  28  29
ENDBRANCH  27  28
ENDBRANCH  26  27
ENDBRANCH  25  26
ENDBRANCH  24  25
ENDBRANCH  23  24
ENDBRANCH  21  23
TORSDOF 14
ENDMDL
MODEL      202
REMARK 921   NORMALIZED FREE ENERGY PREDICTED BY IDOCK:   -3.73 KCAL/MOL
REMARK 922        TOTAL FREE ENERGY PREDICTED BY IDOCK:  -10.07 KCAL/MOL
REMARK 923 INTER-LIGAND FREE ENERGY PREDICTED BY IDOCK:   -7.98 KCAL/MOL
REMARK 924 INTRA-LIGAND FREE ENERGY PREDICTED BY IDOCK:   -2.09 KCAL/MOL
REMARK 927      BINDING AFFINITY PREDICTED BY RF-SCORE:    0.00 PKD
ROOT
HETATM    1  C   UNL     1     -11.719  15.338  66.330  1.00  0.00     0.096 C  
HETATM    2  C   UNL     1     -10.355  15.744  66.310  1.00  0.00    -0.320 C  
HETATM    3  C   UNL     1     -10.465  14.249  66.185  1.00  0.00    -0.294 C  
HETATM    4  C   UNL     1     -12.390  13.742  65.777  1.00  0.00    -0.486 C  
HETATM    5  O   UNL     1     -13.124  12.617  65.283  1.00  0.00    -0.611 OA 
HETATM    6  C   UNL     1     -11.590  14.240  64.778  1.00  0.00    -0.404 C  
HETATM    7  C   UNL     1     -10.904  12.532  64.832  1.00  0.00    -0.327 C  
HETATM    8  C   UNL     1     -11.934  14.835  63.460  1.00  0.00     0.760 C  
HETATM    9  H   UNL     1     -14.024  12.380  65.092  1.00  0.00     0.000 HD 
HETATM   10  C   UNL     1     -11.146  11.754  66.421  1.00  0.00    -0.360 C  
HETATM   11  C   UNL     1     -11.422  12.625  67.866  1.00  0.00    -0.360 C  
HETATM   12  C   UNL     1     -11.920  11.873  69.107  1.00  0.00    -0.336 A  
HETATM   13  C   UNL     1     -11.735  10.482  69.214  1.00  0.00    -0.281 A  
HETATM   14  C   UNL     1     -11.987   9.802  70.410  1.00  0.00    -0.218 A  
HETATM   15  C   UNL     1     -12.439  10.508  71.513  1.00  0.00    -0.387 A  
HETATM   16  C   UNL     1     -12.623  11.881  71.443  1.00  0.00    -0.346 A  
HETATM   17  O   UNL     1     -12.696   9.892  72.703  1.00  0.00    -0.210 OA 
HETATM   18  C   UNL     1     -12.334  12.587  70.259  1.00  0.00    -0.265 A  
HETATM   19  H   UNL     1     -13.006  10.375  73.459  1.00  0.00     0.000 HD 
HETATM   20  C   UNL     1     -12.492  14.097  70.301  1.00  0.00    -0.416 C  
HETATM   21  C   UNL     1     -11.670  14.892  69.258  1.00  0.00    -0.344 C  
HETATM   22  C   UNL     1     -12.029  14.278  67.884  1.00  0.00    -0.364 C  
ENDROOT
BRANCH  21  23
HETATM   23  C   UNL     1     -10.162  14.842  69.580  1.00  0.00    -0.143 C  
BRANCH  23  24
HETATM   24  C   UNL     1      -9.390  16.136  69.401  1.00  0.00    -0.186 C  
BRANCH  24  25
HETATM   25  C   UNL     1      -7.885  15.852  69.280  1.00  0.00    -0.226 C  
BRANCH  25  26
HETATM   26  C   UNL     1      -7.498  14.935  68.107  1.00  0.00    -0.118 C  
BRANCH  26  27
HETATM   27  C   UNL     1      -7.269  13.478  68.505  1.00  0.00    -0.110 C  
BRANCH  27  28
HETATM   28  C   UNL     1      -6.241  12.797  67.600  1.00  0.00    -0.153 C  
BRANCH  28  29
HETATM   29  C   UNL     1      -5.800  11.423  68.110  1.00  0.00    -0.045 C  
BRANCH  29  30
HETATM   30  C   UNL     1      -6.034  10.261  67.132  1.00  0.00    -0.050 C  
BRANCH  30  31
HETATM   31  C   UNL     1      -7.390   9.578  67.244  1.00  0.00    -0.087 C  
BRANCH  31  32
HETATM   32  S   UNL     1      -7.723   8.976  68.932  1.00  0.00    -0.095 S  
HETATM   33  O   UNL     1      -8.306  10.123  69.705  1.00  0.00    -0.175 OA 
BRANCH  32  34
HETATM   34  C   UNL     1      -9.098   7.853  68.521  1.00  0.00    -0.132 C  
BRANCH  34  35
HETATM   35  C   UNL     1      -8.605   6.453  68.174  1.00  0.00    -0.117 C  
BRANCH  35  36
HETATM   36  C   UNL     1      -9.560   5.743  67.216  1.00  0.00    -0.122 C  
BRANCH  36  37
HETATM   37  C   UNL     1      -9.030   4.401  66.716  1.00  0.00    -0.118 C  
HETATM   38  F   UNL     1      -8.152   3.914  67.640  1.00  0.00    -0.087 F  
HETATM   39  C   UNL     1      -8.383   4.455  65.324  1.00  0.00    -0.112 C  
HETATM   40  F   UNL     1     -10.080   3.527  66.716  1.00  0.00    -0.125 F  
HETATM   41  F   UNL     1      -8.529   5.659  64.730  1.00  0.00    -0.133 F  
HETATM   42  F   UNL     1      -7.057   4.189  65.392  1.00  0.00    -0.057 F  
HETATM   43  F   UNL     1      -8.921   3.538  64.482  1.00  0.00    -0.111 F  
ENDBRANCH  36  37
ENDBRANCH  35  36
ENDBRANCH  34  35
ENDBRANCH  32  34
ENDBRANCH  31  32
ENDBRANCH  30  31
ENDBRANCH  29  30
ENDBRANCH  28  29
ENDBRANCH  27  28
ENDBRANCH  26  27
ENDBRANCH  25  26
ENDBRANCH  24  25
ENDBRANCH  23  24
ENDBRANCH  21  23
TORSDOF 14
ENDMDL
MODEL      203
REMARK 921   NORMALIZED FREE ENERGY PREDICTED BY IDOCK:   -3.72 KCAL/MOL
REMARK 922        TOTAL FREE ENERGY PREDICTED BY IDOCK:  -10.06 KCAL/MOL
REMARK 923 INTER-LIGAND FREE ENERGY PREDICTED BY IDOCK:   -8.97 KCAL/MOL
REMARK 924 INTRA-LIGAND FREE ENERGY PREDICTED BY IDOCK:   -1.09 KCAL/MOL
REMARK 927      BINDING AFFINITY PREDICTED BY RF-SCORE:    0.00 PKD
ROOT
HETATM    1  C   UNL     1     -10.004   4.599  68.123  1.00  0.00    -0.127 C  
HETATM    2  C   UNL     1     -10.655   5.528  67.263  1.00  0.00    -0.294 C  
HETATM    3  C   UNL     1      -9.197   5.870  67.405  1.00  0.00    -0.108 C  
HETATM    4  C   UNL     1      -8.214   4.311  68.260  1.00  0.00    -0.088 C  
HETATM    5  O   UNL     1      -6.870   3.848  68.426  1.00  0.00    -0.046 OA 
HETATM    6  C   UNL     1      -8.557   4.255  66.931  1.00  0.00    -0.108 C  
HETATM    7  C   UNL     1      -7.112   5.387  66.779  1.00  0.00    -0.069 C  
HETATM    8  C   UNL     1      -8.665   3.100  66.002  1.00  0.00    -0.129 C  
HETATM    9  H   UNL     1      -6.410   3.120  68.826  1.00  0.00     0.000 HD 
HETATM   10  C   UNL     1      -6.791   6.283  68.290  1.00  0.00    -0.071 C  
HETATM   11  C   UNL     1      -7.965   6.531  69.509  1.00  0.00    -0.117 C  
HETATM   12  C   UNL     1      -7.516   7.036  70.885  1.00  0.00    -0.082 A  
HETATM   13  C   UNL     1      -6.282   7.697  71.030  1.00  0.00    -0.035 A  
HETATM   14  C   UNL     1      -5.938   8.348  72.220  1.00  0.00    -0.059 A  
HETATM   15  C   UNL     1      -6.823   8.334  73.285  1.00  0.00    -0.111 A  
HETATM   16  C   UNL     1      -8.051   7.698  73.171  1.00  0.00    -0.163 A  
HETATM   17  O   UNL     1      -6.536   8.956  74.465  1.00  0.00    -0.234 OA 
HETATM   18  C   UNL     1      -8.431   7.075  71.967  1.00  0.00    -0.115 A  
HETATM   19  H   UNL     1      -7.142   8.947  75.195  1.00  0.00     0.000 HD 
HETATM   20  C   UNL     1      -9.824   6.472  71.912  1.00  0.00    -0.168 C  
HETATM   21  C   UNL     1     -10.436   6.313  70.500  1.00  0.00    -0.274 C  
HETATM   22  C   UNL     1      -9.394   5.517  69.678  1.00  0.00    -0.172 C  
ENDROOT
BRANCH  21  23
HETATM   23  C   UNL     1     -10.789   7.683  69.885  1.00  0.00    -0.241 C  
BRANCH  23  24
HETATM   24  C   UNL     1     -10.569   8.897  70.769  1.00  0.00    -0.281 C  
BRANCH  24  25
HETATM   25  C   UNL     1     -11.916   9.494  71.207  1.00  0.00    -0.445 C  
BRANCH  25  26
HETATM   26  C   UNL     1     -12.461  10.594  70.280  1.00  0.00    -0.381 C  
BRANCH  26  27
HETATM   27  C   UNL     1     -11.379  11.483  69.667  1.00  0.00    -0.329 C  
BRANCH  27  28
HETATM   28  C   UNL     1     -11.972  12.740  69.029  1.00  0.00    -0.288 C  
BRANCH  28  29
HETATM   29  C   UNL     1     -11.880  12.746  67.501  1.00  0.00    -0.402 C  
BRANCH  29  30
HETATM   30  C   UNL     1     -12.075  14.121  66.844  1.00  0.00    -0.466 C  
BRANCH  30  31
HETATM   31  C   UNL     1     -11.348  15.275  67.517  1.00  0.00    -0.297 C  
BRANCH  31  32
HETATM   32  S   UNL     1      -9.839  15.760  66.617  1.00  0.00    -0.267 S  
HETATM   33  O   UNL     1      -9.618  14.740  65.538  1.00  0.00    -0.286 OA 
BRANCH  32  34
HETATM   34  C   UNL     1     -10.506  17.252  65.813  1.00  0.00    -0.229 C  
BRANCH  34  35
HETATM   35  C   UNL     1     -10.312  18.497  66.673  1.00  0.00    -0.442 C  
BRANCH  35  36
HETATM   36  C   UNL     1      -9.020  18.424  67.484  1.00  0.00    -0.271 C  
BRANCH  36  37
HETATM   37  C   UNL     1      -7.960  19.424  67.025  1.00  0.00    -0.263 C  
HETATM   38  F   UNL     1      -8.552  20.327  66.191  1.00  0.00    -0.322 F  
HETATM   39  C   UNL     1      -6.735  18.784  66.355  1.00  0.00    -0.207 C  
HETATM   40  F   UNL     1      -7.578  20.140  68.124  1.00  0.00    -0.325 F  
HETATM   41  F   UNL     1      -6.752  17.435  66.421  1.00  0.00    -0.203 F  
HETATM   42  F   UNL     1      -6.658  19.129  65.048  1.00  0.00    -0.294 F  
HETATM   43  F   UNL     1      -5.576  19.188  66.933  1.00  0.00    -0.159 F  
ENDBRANCH  36  37
ENDBRANCH  35  36
ENDBRANCH  34  35
ENDBRANCH  32  34
ENDBRANCH  31  32
ENDBRANCH  30  31
ENDBRANCH  29  30
ENDBRANCH  28  29
ENDBRANCH  27  28
ENDBRANCH  26  27
ENDBRANCH  25  26
ENDBRANCH  24  25
ENDBRANCH  23  24
ENDBRANCH  21  23
TORSDOF 14
ENDMDL
MODEL      204
REMARK 921   NORMALIZED FREE ENERGY PREDICTED BY IDOCK:   -3.68 KCAL/MOL
REMARK 922        TOTAL FREE ENERGY PREDICTED BY IDOCK:   -9.98 KCAL/MOL
REMARK 923 INTER-LIGAND FREE ENERGY PREDICTED BY IDOCK:   -9.22 KCAL/MOL
REMARK 924 INTRA-LIGAND FREE ENERGY PREDICTED BY IDOCK:   -0.76 KCAL/MOL
REMARK 927      BINDING AFFINITY PREDICTED BY RF-SCORE:    0.00 PKD
ROOT
HETATM    1  C   UNL     1      -7.427  17.085  66.920  1.00  0.00    -0.248 C  
HETATM    2  C   UNL     1      -8.030  17.399  65.669  1.00  0.00     0.478 C  
HETATM    3  C   UNL     1      -8.804  18.019  66.800  1.00  0.00    -0.274 C  
HETATM    4  C   UNL     1      -7.701  17.933  68.504  1.00  0.00    -0.297 C  
HETATM    5  O   UNL     1      -7.678  18.536  69.803  1.00  0.00     0.420 OA 
HETATM    6  C   UNL     1      -7.415  18.883  67.554  1.00  0.00    -0.244 C  
HETATM    7  C   UNL     1      -8.906  19.683  68.281  1.00  0.00    -0.361 C  
HETATM    8  C   UNL     1      -6.195  19.702  67.333  1.00  0.00    -0.203 C  
HETATM    9  H   UNL     1      -7.163  18.496  70.599  1.00  0.00     0.000 HD 
HETATM   10  C   UNL     1     -10.001  18.503  69.054  1.00  0.00    -0.323 C  
HETATM   11  C   UNL     1     -10.005  16.834  68.680  1.00  0.00    -0.276 C  
HETATM   12  C   UNL     1     -10.752  15.865  69.604  1.00  0.00    -0.304 A  
HETATM   13  C   UNL     1     -11.763  16.340  70.461  1.00  0.00    -0.144 A  
HETATM   14  C   UNL     1     -12.599  15.463  71.160  1.00  0.00    -0.485 A  
HETATM   15  C   UNL     1     -12.427  14.096  71.017  1.00  0.00    -0.367 A  
HETATM   16  C   UNL     1     -11.446  13.596  70.173  1.00  0.00    -0.111 A  
HETATM   17  O   UNL     1     -13.219  13.200  71.673  1.00  0.00    -0.384 OA 
HETATM   18  C   UNL     1     -10.623  14.464  69.430  1.00  0.00    -0.140 A  
HETATM   19  H   UNL     1     -13.101  12.263  71.575  1.00  0.00     0.000 HD 
HETATM   20  C   UNL     1      -9.630  13.825  68.475  1.00  0.00    -0.176 C  
HETATM   21  C   UNL     1      -9.158  14.711  67.297  1.00  0.00    -0.215 C  
HETATM   22  C   UNL     1      -8.632  16.017  67.939  1.00  0.00    -0.165 C  
ENDROOT
BRANCH  21  23
HETATM   23  C   UNL     1     -10.293  14.940  66.279  1.00  0.00    -0.302 C  
BRANCH  23  24
HETATM   24  C   UNL     1     -11.704  14.660  66.765  1.00  0.00    -0.355 C  
BRANCH  24  25
HETATM   25  C   UNL     1     -12.267  13.403  66.086  1.00  0.00    -0.471 C  
BRANCH  25  26
HETATM   26  C   UNL     1     -12.345  13.483  64.552  1.00  0.00    -0.406 C  
BRANCH  26  27
HETATM   27  C   UNL     1     -12.533  12.129  63.867  1.00  0.00    -0.581 C  
BRANCH  27  28
HETATM   28  C   UNL     1     -11.195  11.502  63.472  1.00  0.00    -0.412 C  
BRANCH  28  29
HETATM   29  C   UNL     1     -10.063  11.826  64.449  1.00  0.00    -0.319 C  
BRANCH  29  30
HETATM   30  C   UNL     1      -8.979  10.743  64.570  1.00  0.00    -0.181 C  
BRANCH  30  31
HETATM   31  C   UNL     1      -9.026   9.913  65.844  1.00  0.00    -0.152 C  
BRANCH  31  32
HETATM   32  S   UNL     1      -7.463   9.991  66.778  1.00  0.00    -0.097 S  
HETATM   33  O   UNL     1      -7.728  10.784  68.024  1.00  0.00    -0.097 OA 
BRANCH  32  34
HETATM   34  C   UNL     1      -7.383   8.238  67.264  1.00  0.00    -0.089 C  
BRANCH  34  35
HETATM   35  C   UNL     1      -7.702   8.042  68.742  1.00  0.00    -0.108 C  
BRANCH  35  36
HETATM   36  C   UNL     1      -9.172   7.687  68.958  1.00  0.00    -0.140 C  
BRANCH  36  37
HETATM   37  C   UNL     1      -9.389   6.651  70.059  1.00  0.00    -0.158 C  
HETATM   38  F   UNL     1      -8.220   5.974  70.250  1.00  0.00    -0.109 F  
HETATM   39  C   UNL     1     -10.546   5.677  69.790  1.00  0.00    -0.329 C  
HETATM   40  F   UNL     1      -9.607   7.336  71.221  1.00  0.00    -0.161 F  
HETATM   41  F   UNL     1     -11.257   6.005  68.690  1.00  0.00    -0.365 F  
HETATM   42  F   UNL     1     -10.091   4.413  69.623  1.00  0.00    -0.284 F  
HETATM   43  F   UNL     1     -11.424   5.640  70.824  1.00  0.00    -0.285 F  
ENDBRANCH  36  37
ENDBRANCH  35  36
ENDBRANCH  34  35
ENDBRANCH  32  34
ENDBRANCH  31  32
ENDBRANCH  30  31
ENDBRANCH  29  30
ENDBRANCH  28  29
ENDBRANCH  27  28
ENDBRANCH  26  27
ENDBRANCH  25  26
ENDBRANCH  24  25
ENDBRANCH  23  24
ENDBRANCH  21  23
TORSDOF 14
ENDMDL
MODEL      205
REMARK 921   NORMALIZED FREE ENERGY PREDICTED BY IDOCK:   -3.67 KCAL/MOL
REMARK 922        TOTAL FREE ENERGY PREDICTED BY IDOCK:   -9.96 KCAL/MOL
REMARK 923 INTER-LIGAND FREE ENERGY PREDICTED BY IDOCK:   -7.43 KCAL/MOL
REMARK 924 INTRA-LIGAND FREE ENERGY PREDICTED BY IDOCK:   -2.53 KCAL/MOL
REMARK 927      BINDING AFFINITY PREDICTED BY RF-SCORE:    0.00 PKD
ROOT
HETATM    1  C   UNL     1      -9.988  14.521  69.793  1.00  0.00     0.308 C  
HETATM    2  C   UNL     1      -8.609  14.849  69.667  1.00  0.00     0.084 C  
HETATM    3  C   UNL     1      -9.417  15.540  68.603  1.00  0.00    -0.204 C  
HETATM    4  C   UNL     1     -11.392  15.416  69.062  1.00  0.00    -0.316 C  
HETATM    5  O   UNL     1     -12.624  16.041  68.689  1.00  0.00    -0.099 OA 
HETATM    6  C   UNL     1     -10.596  16.326  69.714  1.00  0.00    -0.316 C  
HETATM    7  C   UNL     1     -10.783  17.237  68.124  1.00  0.00    -0.363 C  
HETATM    8  C   UNL     1     -10.800  17.060  70.991  1.00  0.00     1.045 C  
HETATM    9  H   UNL     1     -13.547  15.983  68.904  1.00  0.00     0.000 HD 
HETATM   10  C   UNL     1     -11.139  16.146  66.756  1.00  0.00     0.027 C  
HETATM   11  C   UNL     1     -10.780  14.473  66.763  1.00  0.00    -0.291 C  
HETATM   12  C   UNL     1     -11.396  13.574  65.685  1.00  0.00    -0.312 A  
HETATM   13  C   UNL     1     -11.865  14.131  64.481  1.00  0.00    -0.451 A  
HETATM   14  C   UNL     1     -12.240  13.324  63.400  1.00  0.00    -0.476 A  
HETATM   15  C   UNL     1     -12.157  11.946  63.517  1.00  0.00    -0.470 A  
HETATM   16  C   UNL     1     -11.690  11.367  64.688  1.00  0.00     0.075 A  
HETATM   17  O   UNL     1     -12.506  11.117  62.492  1.00  0.00    -0.449 OA 
HETATM   18  C   UNL     1     -11.270  12.164  65.769  1.00  0.00    -0.384 A  
HETATM   19  H   UNL     1     -12.450  10.172  62.572  1.00  0.00     0.000 HD 
HETATM   20  C   UNL     1     -10.701  11.443  66.979  1.00  0.00    -0.304 C  
HETATM   21  C   UNL     1      -9.754  12.273  67.878  1.00  0.00    -0.202 C  
HETATM   22  C   UNL     1     -10.540  13.554  68.246  1.00  0.00    -0.259 C  
ENDROOT
BRANCH  21  23
HETATM   23  C   UNL     1      -8.414  12.556  67.168  1.00  0.00    -0.186 C  
BRANCH  23  24
HETATM   24  C   UNL     1      -7.894  11.467  66.248  1.00  0.00    -0.015 C  
BRANCH  24  25
HETATM   25  C   UNL     1      -7.209  10.358  67.060  1.00  0.00    -0.093 C  
BRANCH  25  26
HETATM   26  C   UNL     1      -6.630  10.816  68.409  1.00  0.00    -0.055 C  
BRANCH  26  27
HETATM   27  C   UNL     1      -6.069   9.680  69.264  1.00  0.00    -0.037 C  
BRANCH  27  28
HETATM   28  C   UNL     1      -6.301   9.924  70.756  1.00  0.00    -0.086 C  
BRANCH  28  29
HETATM   29  C   UNL     1      -6.923   8.726  71.476  1.00  0.00    -0.091 C  
BRANCH  29  30
HETATM   30  C   UNL     1      -8.421   8.512  71.205  1.00  0.00    -0.203 C  
BRANCH  30  31
HETATM   31  C   UNL     1      -9.312   8.502  72.439  1.00  0.00    -0.278 C  
BRANCH  31  32
HETATM   32  S   UNL     1     -10.368   7.019  72.517  1.00  0.00    -0.216 S  
HETATM   33  O   UNL     1     -11.706   7.395  71.951  1.00  0.00    -0.271 OA 
BRANCH  32  34
HETATM   34  C   UNL     1      -9.505   6.040  71.246  1.00  0.00    -0.163 C  
BRANCH  34  35
HETATM   35  C   UNL     1     -10.478   5.259  70.370  1.00  0.00    -0.322 C  
BRANCH  35  36
HETATM   36  C   UNL     1     -11.226   6.177  69.405  1.00  0.00    -0.466 C  
BRANCH  36  37
HETATM   37  C   UNL     1     -10.462   6.447  68.111  1.00  0.00    -0.218 C  
HETATM   38  F   UNL     1      -9.356   5.649  68.089  1.00  0.00    -0.111 F  
HETATM   39  C   UNL     1     -10.077   7.918  67.899  1.00  0.00    -0.191 C  
HETATM   40  F   UNL     1     -11.246   6.010  67.081  1.00  0.00    -0.357 F  
HETATM   41  F   UNL     1     -10.612   8.735  68.832  1.00  0.00    -0.223 F  
HETATM   42  F   UNL     1      -8.734   8.081  67.933  1.00  0.00    -0.125 F  
HETATM   43  F   UNL     1     -10.494   8.380  66.693  1.00  0.00    -0.360 F  
ENDBRANCH  36  37
ENDBRANCH  35  36
ENDBRANCH  34  35
ENDBRANCH  32  34
ENDBRANCH  31  32
ENDBRANCH  30  31
ENDBRANCH  29  30
ENDBRANCH  28  29
ENDBRANCH  27  28
ENDBRANCH  26  27
ENDBRANCH  25  26
ENDBRANCH  24  25
ENDBRANCH  23  24
ENDBRANCH  21  23
TORSDOF 14
ENDMDL
MODEL      206
REMARK 921   NORMALIZED FREE ENERGY PREDICTED BY IDOCK:   -3.67 KCAL/MOL
REMARK 922        TOTAL FREE ENERGY PREDICTED BY IDOCK:   -9.96 KCAL/MOL
REMARK 923 INTER-LIGAND FREE ENERGY PREDICTED BY IDOCK:   -8.47 KCAL/MOL
REMARK 924 INTRA-LIGAND FREE ENERGY PREDICTED BY IDOCK:   -1.49 KCAL/MOL
REMARK 927      BINDING AFFINITY PREDICTED BY RF-SCORE:    0.00 PKD
ROOT
HETATM    1  C   UNL     1      -8.431  14.824  69.290  1.00  0.00    -0.043 C  
HETATM    2  C   UNL     1      -7.114  14.305  69.148  1.00  0.00    -0.117 C  
HETATM    3  C   UNL     1      -7.541  15.015  67.893  1.00  0.00    -0.150 C  
HETATM    4  C   UNL     1      -9.213  16.107  68.266  1.00  0.00    -0.197 C  
HETATM    5  O   UNL     1      -9.954  17.176  67.669  1.00  0.00    -0.266 OA 
HETATM    6  C   UNL     1      -7.988  16.573  68.676  1.00  0.00    -0.232 C  
HETATM    7  C   UNL     1      -7.835  16.983  66.887  1.00  0.00    -0.249 C  
HETATM    8  C   UNL     1      -7.626  17.606  69.684  1.00  0.00     0.609 C  
HETATM    9  H   UNL     1     -10.736  17.687  67.844  1.00  0.00     0.000 HD 
HETATM   10  C   UNL     1      -8.867  15.947  65.864  1.00  0.00    -0.168 C  
HETATM   11  C   UNL     1      -9.457  14.419  66.358  1.00  0.00    -0.309 C  
HETATM   12  C   UNL     1     -10.573  13.751  65.546  1.00  0.00    -0.312 A  
HETATM   13  C   UNL     1     -10.803  14.134  64.211  1.00  0.00    -0.056 A  
HETATM   14  C   UNL     1     -11.667  13.409  63.382  1.00  0.00    -0.211 A  
HETATM   15  C   UNL     1     -12.320  12.295  63.885  1.00  0.00    -0.509 A  
HETATM   16  C   UNL     1     -12.107  11.888  65.194  1.00  0.00    -0.025 A  
HETATM   17  O   UNL     1     -13.168  11.553  63.118  1.00  0.00    -0.602 OA 
HETATM   18  C   UNL     1     -11.209  12.580  66.029  1.00  0.00    -0.354 A  
HETATM   19  H   UNL     1     -13.616  10.790  63.462  1.00  0.00     0.000 HD 
HETATM   20  C   UNL     1     -10.983  12.014  67.420  1.00  0.00    -0.311 C  
HETATM   21  C   UNL     1      -9.646  12.400  68.097  1.00  0.00    -0.218 C  
HETATM   22  C   UNL     1      -9.581  13.945  68.050  1.00  0.00    -0.219 C  
ENDROOT
BRANCH  21  23
HETATM   23  C   UNL     1      -8.450  11.712  67.407  1.00  0.00    -0.150 C  
BRANCH  23  24
HETATM   24  C   UNL     1      -8.725  11.073  66.058  1.00  0.00    -0.192 C  
BRANCH  24  25
HETATM   25  C   UNL     1      -8.486   9.557  66.123  1.00  0.00    -0.127 C  
BRANCH  25  26
HETATM   26  C   UNL     1      -9.012   8.879  67.400  1.00  0.00    -0.143 C  
BRANCH  26  27
HETATM   27  C   UNL     1      -8.146   7.718  67.890  1.00  0.00    -0.126 C  
BRANCH  27  28
HETATM   28  C   UNL     1      -6.787   8.200  68.400  1.00  0.00    -0.068 C  
BRANCH  28  29
HETATM   29  C   UNL     1      -6.857   8.869  69.774  1.00  0.00    -0.046 C  
BRANCH  29  30
HETATM   30  C   UNL     1      -6.429   7.980  70.952  1.00  0.00    -0.037 C  
BRANCH  30  31
HETATM   31  C   UNL     1      -7.406   6.873  71.322  1.00  0.00    -0.081 C  
BRANCH  31  32
HETATM   32  S   UNL     1      -8.609   7.406  72.584  1.00  0.00    -0.118 S  
HETATM   33  O   UNL     1      -9.064   8.786  72.208  1.00  0.00    -0.355 OA 
BRANCH  32  34
HETATM   34  C   UNL     1      -9.951   6.259  72.138  1.00  0.00    -0.166 C  
BRANCH  34  35
HETATM   35  C   UNL     1     -10.761   6.765  70.949  1.00  0.00    -0.269 C  
BRANCH  35  36
HETATM   36  C   UNL     1     -12.250   6.855  71.280  1.00  0.00    -0.427 C  
BRANCH  36  37
HETATM   37  C   UNL     1     -12.648   8.186  71.915  1.00  0.00    -0.335 C  
HETATM   38  F   UNL     1     -13.943   8.093  72.334  1.00  0.00    -0.331 F  
HETATM   39  C   UNL     1     -12.457   9.405  71.000  1.00  0.00    -0.239 C  
HETATM   40  F   UNL     1     -11.907   8.328  73.054  1.00  0.00    -0.452 F  
HETATM   41  F   UNL     1     -11.833   9.094  69.844  1.00  0.00    -0.068 F  
HETATM   42  F   UNL     1     -13.646   9.970  70.686  1.00  0.00    -0.417 F  
HETATM   43  F   UNL     1     -11.713  10.370  71.597  1.00  0.00    -0.381 F  
ENDBRANCH  36  37
ENDBRANCH  35  36
ENDBRANCH  34  35
ENDBRANCH  32  34
ENDBRANCH  31  32
ENDBRANCH  30  31
ENDBRANCH  29  30
ENDBRANCH  28  29
ENDBRANCH  27  28
ENDBRANCH  26  27
ENDBRANCH  25  26
ENDBRANCH  24  25
ENDBRANCH  23  24
ENDBRANCH  21  23
TORSDOF 14
ENDMDL
MODEL      207
REMARK 921   NORMALIZED FREE ENERGY PREDICTED BY IDOCK:   -3.65 KCAL/MOL
REMARK 922        TOTAL FREE ENERGY PREDICTED BY IDOCK:   -9.93 KCAL/MOL
REMARK 923 INTER-LIGAND FREE ENERGY PREDICTED BY IDOCK:   -8.17 KCAL/MOL
REMARK 924 INTRA-LIGAND FREE ENERGY PREDICTED BY IDOCK:   -1.76 KCAL/MOL
REMARK 927      BINDING AFFINITY PREDICTED BY RF-SCORE:    0.00 PKD
ROOT
HETATM    1  C   UNL     1     -11.656  11.597  67.563  1.00  0.00    -0.345 C  
HETATM    2  C   UNL     1     -11.638  11.581  68.986  1.00  0.00    -0.383 C  
HETATM    3  C   UNL     1     -10.305  12.019  68.444  1.00  0.00    -0.220 C  
HETATM    4  C   UNL     1     -10.485  12.452  66.467  1.00  0.00    -0.230 C  
HETATM    5  O   UNL     1      -9.759  13.147  65.448  1.00  0.00    -0.478 OA 
HETATM    6  C   UNL     1     -10.930  13.352  67.406  1.00  0.00    -0.287 C  
HETATM    7  C   UNL     1      -9.125  13.690  67.556  1.00  0.00    -0.213 C  
HETATM    8  C   UNL     1     -11.869  14.498  67.287  1.00  0.00    -0.419 C  
HETATM    9  H   UNL     1      -9.843  13.350  64.524  1.00  0.00     0.000 HD 
HETATM   10  C   UNL     1      -8.129  12.297  67.053  1.00  0.00    -0.141 C  
HETATM   11  C   UNL     1      -8.711  10.688  67.006  1.00  0.00    -0.128 C  
HETATM   12  C   UNL     1      -7.890   9.619  66.275  1.00  0.00    -0.101 A  
HETATM   13  C   UNL     1      -6.516   9.820  66.039  1.00  0.00    -0.080 A  
HETATM   14  C   UNL     1      -5.699   8.788  65.565  1.00  0.00    -0.047 A  
HETATM   15  C   UNL     1      -6.251   7.542  65.311  1.00  0.00    -0.038 A  
HETATM   16  C   UNL     1      -7.600   7.311  65.542  1.00  0.00    -0.097 A  
HETATM   17  O   UNL     1      -5.497   6.503  64.853  1.00  0.00    -0.021 OA 
HETATM   18  C   UNL     1      -8.427   8.326  66.059  1.00  0.00    -0.148 A  
HETATM   19  H   UNL     1      -5.875   5.649  64.678  1.00  0.00     0.000 HD 
HETATM   20  C   UNL     1      -9.871   7.957  66.351  1.00  0.00    -0.217 C  
HETATM   21  C   UNL     1     -10.595   8.836  67.399  1.00  0.00    -0.304 C  
HETATM   22  C   UNL     1     -10.425  10.295  66.913  1.00  0.00    -0.291 C  
ENDROOT
BRANCH  21  23
HETATM   23  C   UNL     1     -10.037   8.590  68.816  1.00  0.00    -0.210 C  
BRANCH  23  24
HETATM   24  C   UNL     1      -8.735   9.290  69.161  1.00  0.00    -0.139 C  
BRANCH  24  25
HETATM   25  C   UNL     1      -7.732   8.294  69.763  1.00  0.00    -0.098 C  
BRANCH  25  26
HETATM   26  C   UNL     1      -8.183   7.651  71.086  1.00  0.00    -0.100 C  
BRANCH  26  27
HETATM   27  C   UNL     1      -8.791   8.639  72.082  1.00  0.00    -0.245 C  
BRANCH  27  28
HETATM   28  C   UNL     1      -9.777   7.954  73.029  1.00  0.00    -0.349 C  
BRANCH  28  29
HETATM   29  C   UNL     1     -11.218   7.961  72.513  1.00  0.00    -0.436 C  
BRANCH  29  30
HETATM   30  C   UNL     1     -11.787   6.578  72.159  1.00  0.00    -0.348 C  
BRANCH  30  31
HETATM   31  C   UNL     1     -11.408   5.453  73.111  1.00  0.00    -0.263 C  
BRANCH  31  32
HETATM   32  S   UNL     1     -10.138   4.351  72.407  1.00  0.00    -0.184 S  
HETATM   33  O   UNL     1     -10.681   2.954  72.465  1.00  0.00    -0.060 OA 
BRANCH  32  34
HETATM   34  C   UNL     1     -10.268   4.906  70.678  1.00  0.00    -0.211 C  
BRANCH  34  35
HETATM   35  C   UNL     1      -9.262   4.200  69.775  1.00  0.00    -0.213 C  
BRANCH  35  36
HETATM   36  C   UNL     1      -9.225   4.822  68.380  1.00  0.00    -0.162 C  
BRANCH  36  37
HETATM   37  C   UNL     1      -9.399   3.802  67.258  1.00  0.00    -0.197 C  
HETATM   38  F   UNL     1      -9.848   2.634  67.803  1.00  0.00    -0.212 F  
HETATM   39  C   UNL     1      -8.135   3.562  66.419  1.00  0.00    -0.096 C  
HETATM   40  F   UNL     1     -10.417   4.247  66.462  1.00  0.00    -0.235 F  
HETATM   41  F   UNL     1      -7.132   4.408  66.739  1.00  0.00    -0.061 F  
HETATM   42  F   UNL     1      -7.675   2.300  66.581  1.00  0.00    -0.066 F  
HETATM   43  F   UNL     1      -8.372   3.723  65.093  1.00  0.00    -0.098 F  
ENDBRANCH  36  37
ENDBRANCH  35  36
ENDBRANCH  34  35
ENDBRANCH  32  34
ENDBRANCH  31  32
ENDBRANCH  30  31
ENDBRANCH  29  30
ENDBRANCH  28  29
ENDBRANCH  27  28
ENDBRANCH  26  27
ENDBRANCH  25  26
ENDBRANCH  24  25
ENDBRANCH  23  24
ENDBRANCH  21  23
TORSDOF 14
ENDMDL
MODEL      208
REMARK 921   NORMALIZED FREE ENERGY PREDICTED BY IDOCK:   -3.60 KCAL/MOL
REMARK 922        TOTAL FREE ENERGY PREDICTED BY IDOCK:   -9.85 KCAL/MOL
REMARK 923 INTER-LIGAND FREE ENERGY PREDICTED BY IDOCK:   -6.15 KCAL/MOL
REMARK 924 INTRA-LIGAND FREE ENERGY PREDICTED BY IDOCK:   -3.70 KCAL/MOL
REMARK 927      BINDING AFFINITY PREDICTED BY RF-SCORE:    0.00 PKD
ROOT
HETATM    1  C   UNL     1      -6.385   8.535  70.367  1.00  0.00    -0.035 C  
HETATM    2  C   UNL     1      -6.191   7.306  69.678  1.00  0.00    -0.031 C  
HETATM    3  C   UNL     1      -7.323   8.085  69.064  1.00  0.00    -0.084 C  
HETATM    4  C   UNL     1      -7.293   9.991  69.766  1.00  0.00    -0.141 C  
HETATM    5  O   UNL     1      -7.846  11.269  69.432  1.00  0.00    -0.355 OA 
HETATM    6  C   UNL     1      -6.403   9.609  68.793  1.00  0.00    -0.046 C  
HETATM    7  C   UNL     1      -7.896   9.775  67.727  1.00  0.00    -0.094 C  
HETATM    8  C   UNL     1      -5.127  10.227  68.343  1.00  0.00    -0.035 C  
HETATM    9  H   UNL     1      -7.832  12.160  69.760  1.00  0.00     0.000 HD 
HETATM   10  C   UNL     1      -9.412   9.570  68.648  1.00  0.00    -0.143 C  
HETATM   11  C   UNL     1      -9.502   8.756  70.151  1.00  0.00    -0.182 C  
HETATM   12  C   UNL     1     -10.769   8.899  71.002  1.00  0.00    -0.315 A  
HETATM   13  C   UNL     1     -11.981   9.297  70.407  1.00  0.00    -0.028 A  
HETATM   14  C   UNL     1     -13.192   9.238  71.106  1.00  0.00    -0.244 A  
HETATM   15  C   UNL     1     -13.201   8.788  72.416  1.00  0.00    -0.394 A  
HETATM   16  C   UNL     1     -12.025   8.381  73.028  1.00  0.00     0.275 A  
HETATM   17  O   UNL     1     -14.355   8.708  73.139  1.00  0.00    -1.076 OA 
HETATM   18  C   UNL     1     -10.804   8.394  72.326  1.00  0.00    -0.422 A  
HETATM   19  H   UNL     1     -14.362   8.400  74.037  1.00  0.00     0.000 HD 
HETATM   20  C   UNL     1      -9.584   7.857  73.053  1.00  0.00    -0.341 C  
HETATM   21  C   UNL     1      -8.430   7.352  72.154  1.00  0.00    -0.124 C  
HETATM   22  C   UNL     1      -8.103   8.520  71.194  1.00  0.00    -0.158 C  
ENDROOT
BRANCH  21  23
HETATM   23  C   UNL     1      -8.817   6.047  71.427  1.00  0.00    -0.136 C  
BRANCH  23  24
HETATM   24  C   UNL     1      -8.831   4.784  72.268  1.00  0.00    -0.133 C  
BRANCH  24  25
HETATM   25  C   UNL     1      -8.938   3.541  71.371  1.00  0.00    -0.158 C  
BRANCH  25  26
HETATM   26  C   UNL     1      -7.948   3.514  70.193  1.00  0.00    -0.052 C  
BRANCH  26  27
HETATM   27  C   UNL     1      -6.527   3.934  70.566  1.00  0.00    -0.031 C  
BRANCH  27  28
HETATM   28  C   UNL     1      -5.482   3.232  69.697  1.00  0.00    -0.016 C  
BRANCH  28  29
HETATM   29  C   UNL     1      -6.088   2.471  68.516  1.00  0.00    -0.025 C  
BRANCH  29  30
HETATM   30  C   UNL     1      -6.257   3.295  67.230  1.00  0.00    -0.032 C  
BRANCH  30  31
HETATM   31  C   UNL     1      -6.020   4.791  67.379  1.00  0.00    -0.023 C  
BRANCH  31  32
HETATM   32  S   UNL     1      -5.543   5.575  65.804  1.00  0.00    -0.014 S  
HETATM   33  O   UNL     1      -5.661   4.529  64.734  1.00  0.00    -0.013 OA 
BRANCH  32  34
HETATM   34  C   UNL     1      -6.984   6.677  65.636  1.00  0.00    -0.056 C  
BRANCH  34  35
HETATM   35  C   UNL     1      -8.298   5.904  65.650  1.00  0.00    -0.143 C  
BRANCH  35  36
HETATM   36  C   UNL     1      -9.454   6.769  66.148  1.00  0.00    -0.057 C  
BRANCH  36  37
HETATM   37  C   UNL     1     -10.617   5.958  66.715  1.00  0.00    -0.300 C  
HETATM   38  F   UNL     1     -11.770   6.658  66.513  1.00  0.00    -0.124 F  
HETATM   39  C   UNL     1     -10.461   5.579  68.195  1.00  0.00    -0.163 C  
HETATM   40  F   UNL     1     -10.735   4.833  65.948  1.00  0.00    -0.301 F  
HETATM   41  F   UNL     1      -9.250   5.912  68.692  1.00  0.00    -0.118 F  
HETATM   42  F   UNL     1     -11.399   6.189  68.957  1.00  0.00    -0.415 F  
HETATM   43  F   UNL     1     -10.609   4.244  68.392  1.00  0.00     0.139 F  
ENDBRANCH  36  37
ENDBRANCH  35  36
ENDBRANCH  34  35
ENDBRANCH  32  34
ENDBRANCH  31  32
ENDBRANCH  30  31
ENDBRANCH  29  30
ENDBRANCH  28  29
ENDBRANCH  27  28
ENDBRANCH  26  27
ENDBRANCH  25  26
ENDBRANCH  24  25
ENDBRANCH  23  24
ENDBRANCH  21  23
TORSDOF 14
ENDMDL
MODEL      209
REMARK 921   NORMALIZED FREE ENERGY PREDICTED BY IDOCK:   -3.54 KCAL/MOL
REMARK 922        TOTAL FREE ENERGY PREDICTED BY IDOCK:   -9.73 KCAL/MOL
REMARK 923 INTER-LIGAND FREE ENERGY PREDICTED BY IDOCK:   -7.53 KCAL/MOL
REMARK 924 INTRA-LIGAND FREE ENERGY PREDICTED BY IDOCK:   -2.21 KCAL/MOL
REMARK 927      BINDING AFFINITY PREDICTED BY RF-SCORE:    0.00 PKD
ROOT
HETATM    1  C   UNL     1     -12.524  14.724  68.290  1.00  0.00     0.275 C  
HETATM    2  C   UNL     1     -12.274  13.341  68.068  1.00  0.00    -0.118 C  
HETATM    3  C   UNL     1     -11.219  13.933  68.962  1.00  0.00    -0.312 C  
HETATM    4  C   UNL     1     -11.827  15.760  69.611  1.00  0.00    -0.340 C  
HETATM    5  O   UNL     1     -11.494  16.703  70.636  1.00  0.00    -0.523 OA 
HETATM    6  C   UNL     1     -12.346  14.625  70.185  1.00  0.00    -0.390 C  
HETATM    7  C   UNL     1     -10.705  14.613  71.023  1.00  0.00     0.580 C  
HETATM    8  C   UNL     1     -13.571  14.419  71.001  1.00  0.00    -0.256 C  
HETATM    9  H   UNL     1     -11.778  17.556  70.940  1.00  0.00     0.000 HD 
HETATM   10  C   UNL     1      -9.457  15.478  70.084  1.00  0.00     0.275 C  
HETATM   11  C   UNL     1      -9.572  15.765  68.401  1.00  0.00    -0.200 C  
HETATM   12  C   UNL     1      -8.616  16.771  67.749  1.00  0.00    -0.199 A  
HETATM   13  C   UNL     1      -7.407  17.114  68.385  1.00  0.00    -0.220 A  
HETATM   14  C   UNL     1      -6.424  17.862  67.729  1.00  0.00    -0.192 A  
HETATM   15  C   UNL     1      -6.644  18.286  66.428  1.00  0.00    -0.211 A  
HETATM   16  C   UNL     1      -7.821  17.956  65.771  1.00  0.00     0.035 A  
HETATM   17  O   UNL     1      -5.716  19.013  65.743  1.00  0.00    -0.148 OA 
HETATM   18  C   UNL     1      -8.803  17.168  66.402  1.00  0.00    -0.288 A  
HETATM   19  H   UNL     1      -5.866  19.304  64.852  1.00  0.00     0.000 HD 
HETATM   20  C   UNL     1     -10.022  16.794  65.577  1.00  0.00    -0.054 C  
HETATM   21  C   UNL     1     -10.782  15.525  66.032  1.00  0.00    -0.331 C  
HETATM   22  C   UNL     1     -11.102  15.741  67.530  1.00  0.00    -0.258 C  
ENDROOT
BRANCH  21  23
HETATM   23  C   UNL     1      -9.958  14.251  65.756  1.00  0.00    -0.346 C  
BRANCH  23  24
HETATM   24  C   UNL     1     -10.472  13.338  64.657  1.00  0.00    -0.420 C  
BRANCH  24  25
HETATM   25  C   UNL     1     -10.178  11.869  64.997  1.00  0.00    -0.316 C  
BRANCH  25  26
HETATM   26  C   UNL     1      -9.236  11.665  66.196  1.00  0.00    -0.228 C  
BRANCH  26  27
HETATM   27  C   UNL     1      -9.708  10.598  67.184  1.00  0.00    -0.199 C  
BRANCH  27  28
HETATM   28  C   UNL     1      -8.748   9.409  67.237  1.00  0.00    -0.133 C  
BRANCH  28  29
HETATM   29  C   UNL     1      -8.685   8.622  65.927  1.00  0.00    -0.201 C  
BRANCH  29  30
HETATM   30  C   UNL     1      -8.949   7.114  66.061  1.00  0.00    -0.141 C  
BRANCH  30  31
HETATM   31  C   UNL     1      -9.012   6.588  67.488  1.00  0.00    -0.110 C  
BRANCH  31  32
HETATM   32  S   UNL     1      -9.675   4.892  67.570  1.00  0.00    -0.165 S  
HETATM   33  O   UNL     1      -8.595   3.968  67.087  1.00  0.00    -0.099 OA 
BRANCH  32  34
HETATM   34  C   UNL     1      -9.735   4.743  69.385  1.00  0.00    -0.196 C  
BRANCH  34  35
HETATM   35  C   UNL     1      -9.367   6.051  70.076  1.00  0.00    -0.170 C  
BRANCH  35  36
HETATM   36  C   UNL     1     -10.610   6.817  70.527  1.00  0.00    -0.260 C  
BRANCH  36  37
HETATM   37  C   UNL     1     -10.294   7.993  71.449  1.00  0.00    -0.200 C  
HETATM   38  F   UNL     1      -9.158   7.702  72.145  1.00  0.00    -0.142 F  
HETATM   39  C   UNL     1     -11.437   8.372  72.404  1.00  0.00    -0.380 C  
HETATM   40  F   UNL     1      -9.971   9.055  70.652  1.00  0.00    -0.204 F  
HETATM   41  F   UNL     1     -12.571   7.684  72.155  1.00  0.00    -0.304 F  
HETATM   42  F   UNL     1     -11.092   8.143  73.692  1.00  0.00    -0.089 F  
HETATM   43  F   UNL     1     -11.752   9.689  72.314  1.00  0.00    -0.346 F  
ENDBRANCH  36  37
ENDBRANCH  35  36
ENDBRANCH  34  35
ENDBRANCH  32  34
ENDBRANCH  31  32
ENDBRANCH  30  31
ENDBRANCH  29  30
ENDBRANCH  28  29
ENDBRANCH  27  28
ENDBRANCH  26  27
ENDBRANCH  25  26
ENDBRANCH  24  25
ENDBRANCH  23  24
ENDBRANCH  21  23
TORSDOF 14
ENDMDL
MODEL      210
REMARK 921   NORMALIZED FREE ENERGY PREDICTED BY IDOCK:   -3.53 KCAL/MOL
REMARK 922        TOTAL FREE ENERGY PREDICTED BY IDOCK:   -9.70 KCAL/MOL
REMARK 923 INTER-LIGAND FREE ENERGY PREDICTED BY IDOCK:   -7.86 KCAL/MOL
REMARK 924 INTRA-LIGAND FREE ENERGY PREDICTED BY IDOCK:   -1.85 KCAL/MOL
REMARK 927      BINDING AFFINITY PREDICTED BY RF-SCORE:    0.00 PKD
ROOT
HETATM    1  C   UNL     1      -9.499   6.303  69.870  1.00  0.00    -0.162 C  
HETATM    2  C   UNL     1      -8.235   5.715  69.583  1.00  0.00    -0.107 C  
HETATM    3  C   UNL     1      -8.061   7.114  70.108  1.00  0.00    -0.130 C  
HETATM    4  C   UNL     1      -9.812   7.759  70.911  1.00  0.00    -0.175 C  
HETATM    5  O   UNL     1     -10.279   8.795  71.783  1.00  0.00    -0.281 OA 
HETATM    6  C   UNL     1      -9.017   6.890  71.618  1.00  0.00    -0.135 C  
HETATM    7  C   UNL     1      -8.045   8.427  71.910  1.00  0.00    -0.193 C  
HETATM    8  C   UNL     1      -9.328   6.005  72.771  1.00  0.00    -0.145 C  
HETATM    9  H   UNL     1     -11.097   9.096  72.159  1.00  0.00     0.000 HD 
HETATM   10  C   UNL     1      -8.303   9.646  70.632  1.00  0.00    -0.043 C  
HETATM   11  C   UNL     1      -8.877   9.265  69.066  1.00  0.00    -0.136 C  
HETATM   12  C   UNL     1      -9.355  10.399  68.150  1.00  0.00    -0.149 A  
HETATM   13  C   UNL     1      -8.934  11.722  68.383  1.00  0.00    -0.168 A  
HETATM   14  C   UNL     1      -9.181  12.740  67.455  1.00  0.00    -0.191 A  
HETATM   15  C   UNL     1      -9.862  12.446  66.285  1.00  0.00    -0.247 A  
HETATM   16  C   UNL     1     -10.281  11.150  66.023  1.00  0.00    -0.300 A  
HETATM   17  O   UNL     1     -10.123  13.401  65.348  1.00  0.00    -0.356 OA 
HETATM   18  C   UNL     1     -10.005  10.106  66.926  1.00  0.00    -0.259 A  
HETATM   19  H   UNL     1     -10.590  13.201  64.545  1.00  0.00     0.000 HD 
HETATM   20  C   UNL     1     -10.435   8.708  66.517  1.00  0.00    -0.127 C  
HETATM   21  C   UNL     1      -9.667   7.542  67.184  1.00  0.00    -0.228 C  
HETATM   22  C   UNL     1      -9.769   7.790  68.708  1.00  0.00    -0.157 C  
ENDROOT
BRANCH  21  23
HETATM   23  C   UNL     1      -8.216   7.461  66.669  1.00  0.00    -0.125 C  
BRANCH  23  24
HETATM   24  C   UNL     1      -7.784   8.538  65.692  1.00  0.00    -0.095 C  
BRANCH  24  25
HETATM   25  C   UNL     1      -6.324   8.942  65.946  1.00  0.00    -0.056 C  
BRANCH  25  26
HETATM   26  C   UNL     1      -6.093  10.457  66.085  1.00  0.00    -0.096 C  
BRANCH  26  27
HETATM   27  C   UNL     1      -5.675  10.896  67.488  1.00  0.00    -0.044 C  
BRANCH  27  28
HETATM   28  C   UNL     1      -5.326  12.384  67.537  1.00  0.00    -0.115 C  
BRANCH  28  29
HETATM   29  C   UNL     1      -5.200  12.931  68.960  1.00  0.00    -0.068 C  
BRANCH  29  30
HETATM   30  C   UNL     1      -6.206  14.035  69.322  1.00  0.00    -0.105 C  
BRANCH  30  31
HETATM   31  C   UNL     1      -5.617  15.431  69.471  1.00  0.00    -0.103 C  
BRANCH  31  32
HETATM   32  S   UNL     1      -6.634  16.701  68.651  1.00  0.00    -0.168 S  
HETATM   33  O   UNL     1      -5.695  17.637  67.948  1.00  0.00    -0.139 OA 
BRANCH  32  34
HETATM   34  C   UNL     1      -7.377  15.632  67.378  1.00  0.00    -0.204 C  
BRANCH  34  35
HETATM   35  C   UNL     1      -8.424  16.371  66.552  1.00  0.00    -0.336 C  
BRANCH  35  36
HETATM   36  C   UNL     1      -8.154  17.875  66.519  1.00  0.00    -0.303 C  
BRANCH  36  37
HETATM   37  C   UNL     1      -9.403  18.719  66.765  1.00  0.00    -0.318 C  
HETATM   38  F   UNL     1      -9.177  19.974  66.278  1.00  0.00    -0.378 F  
HETATM   39  C   UNL     1      -9.849  18.776  68.233  1.00  0.00    -0.373 C  
HETATM   40  F   UNL     1     -10.399  18.201  65.987  1.00  0.00    -0.369 F  
HETATM   41  F   UNL     1      -9.135  17.948  69.026  1.00  0.00    -0.258 F  
HETATM   42  F   UNL     1      -9.726  20.029  68.732  1.00  0.00    -0.401 F  
HETATM   43  F   UNL     1     -11.152  18.427  68.378  1.00  0.00    -0.114 F  
ENDBRANCH  36  37
ENDBRANCH  35  36
ENDBRANCH  34  35
ENDBRANCH  32  34
ENDBRANCH  31  32
ENDBRANCH  30  31
ENDBRANCH  29  30
ENDBRANCH  28  29
ENDBRANCH  27  28
ENDBRANCH  26  27
ENDBRANCH  25  26
ENDBRANCH  24  25
ENDBRANCH  23  24
ENDBRANCH  21  23
TORSDOF 14
ENDMDL
MODEL      211
REMARK 921   NORMALIZED FREE ENERGY PREDICTED BY IDOCK:   -3.51 KCAL/MOL
REMARK 922        TOTAL FREE ENERGY PREDICTED BY IDOCK:   -9.68 KCAL/MOL
REMARK 923 INTER-LIGAND FREE ENERGY PREDICTED BY IDOCK:   -6.88 KCAL/MOL
REMARK 924 INTRA-LIGAND FREE ENERGY PREDICTED BY IDOCK:   -2.80 KCAL/MOL
REMARK 927      BINDING AFFINITY PREDICTED BY RF-SCORE:    0.00 PKD
ROOT
HETATM    1  C   UNL     1     -11.209  13.952  65.697  1.00  0.00    -0.306 C  
HETATM    2  C   UNL     1     -12.386  14.073  66.488  1.00  0.00    -0.442 C  
HETATM    3  C   UNL     1     -11.223  14.747  67.163  1.00  0.00    -0.346 C  
HETATM    4  C   UNL     1      -9.692  14.943  65.842  1.00  0.00    -0.333 C  
HETATM    5  O   UNL     1      -8.475  15.686  65.709  1.00  0.00    -0.122 OA 
HETATM    6  C   UNL     1     -10.761  15.803  65.779  1.00  0.00    -0.337 C  
HETATM    7  C   UNL     1      -9.913  16.550  67.233  1.00  0.00    -0.264 C  
HETATM    8  C   UNL     1     -11.232  16.693  64.686  1.00  0.00    -0.023 C  
HETATM    9  H   UNL     1      -7.759  15.778  65.091  1.00  0.00     0.000 HD 
HETATM   10  C   UNL     1      -8.881  15.375  68.094  1.00  0.00    -0.170 C  
HETATM   11  C   UNL     1      -9.085  13.680  67.983  1.00  0.00    -0.192 C  
HETATM   12  C   UNL     1      -7.974  12.759  68.503  1.00  0.00    -0.095 A  
HETATM   13  C   UNL     1      -7.034  13.240  69.434  1.00  0.00     0.082 A  
HETATM   14  C   UNL     1      -6.141  12.378  70.080  1.00  0.00    -0.102 A  
HETATM   15  C   UNL     1      -6.173  11.023  69.794  1.00  0.00    -0.113 A  
HETATM   16  C   UNL     1      -7.094  10.517  68.888  1.00  0.00    -0.074 A  
HETATM   17  O   UNL     1      -5.327  10.141  70.400  1.00  0.00    -0.041 OA 
HETATM   18  C   UNL     1      -8.028  11.364  68.260  1.00  0.00    -0.136 A  
HETATM   19  H   UNL     1      -5.349   9.212  70.204  1.00  0.00     0.000 HD 
HETATM   20  C   UNL     1      -9.046  10.709  67.343  1.00  0.00    -0.146 C  
HETATM   21  C   UNL     1     -10.359  11.497  67.120  1.00  0.00    -0.248 C  
HETATM   22  C   UNL     1      -9.929  12.905  66.646  1.00  0.00    -0.251 C  
ENDROOT
BRANCH  21  23
HETATM   23  C   UNL     1     -11.225  11.514  68.397  1.00  0.00    -0.314 C  
BRANCH  23  24
HETATM   24  C   UNL     1     -10.667  10.780  69.602  1.00  0.00    -0.261 C  
BRANCH  24  25
HETATM   25  C   UNL     1     -11.453   9.484  69.853  1.00  0.00    -0.100 C  
BRANCH  25  26
HETATM   26  C   UNL     1     -10.666   8.192  69.573  1.00  0.00    -0.180 C  
BRANCH  26  27
HETATM   27  C   UNL     1     -11.444   6.911  69.873  1.00  0.00    -0.294 C  
BRANCH  27  28
HETATM   28  C   UNL     1     -10.786   6.095  70.986  1.00  0.00    -0.317 C  
BRANCH  28  29
HETATM   29  C   UNL     1     -11.493   6.230  72.336  1.00  0.00    -0.335 C  
BRANCH  29  30
HETATM   30  C   UNL     1     -10.659   6.898  73.442  1.00  0.00    -0.372 C  
BRANCH  30  31
HETATM   31  C   UNL     1      -9.510   7.769  72.956  1.00  0.00    -0.251 C  
BRANCH  31  32
HETATM   32  S   UNL     1      -7.892   6.958  73.165  1.00  0.00    -0.094 S  
HETATM   33  O   UNL     1      -8.146   5.484  73.288  1.00  0.00    -0.113 OA 
BRANCH  32  34
HETATM   34  C   UNL     1      -7.255   7.253  71.484  1.00  0.00    -0.072 C  
BRANCH  34  35
HETATM   35  C   UNL     1      -6.035   6.391  71.177  1.00  0.00    -0.028 C  
BRANCH  35  36
HETATM   36  C   UNL     1      -6.290   5.459  69.994  1.00  0.00    -0.030 C  
BRANCH  36  37
HETATM   37  C   UNL     1      -6.222   6.165  68.641  1.00  0.00    -0.036 C  
HETATM   38  F   UNL     1      -5.619   7.376  68.817  1.00  0.00    -0.019 F  
HETATM   39  C   UNL     1      -7.581   6.328  67.945  1.00  0.00    -0.102 C  
HETATM   40  F   UNL     1      -5.370   5.445  67.853  1.00  0.00    -0.006 F  
HETATM   41  F   UNL     1      -8.578   5.687  68.593  1.00  0.00    -0.103 F  
HETATM   42  F   UNL     1      -7.927   7.633  67.850  1.00  0.00    -0.109 F  
HETATM   43  F   UNL     1      -7.561   5.838  66.680  1.00  0.00    -0.085 F  
ENDBRANCH  36  37
ENDBRANCH  35  36
ENDBRANCH  34  35
ENDBRANCH  32  34
ENDBRANCH  31  32
ENDBRANCH  30  31
ENDBRANCH  29  30
ENDBRANCH  28  29
ENDBRANCH  27  28
ENDBRANCH  26  27
ENDBRANCH  25  26
ENDBRANCH  24  25
ENDBRANCH  23  24
ENDBRANCH  21  23
TORSDOF 14
ENDMDL
MODEL      212
REMARK 921   NORMALIZED FREE ENERGY PREDICTED BY IDOCK:   -3.51 KCAL/MOL
REMARK 922        TOTAL FREE ENERGY PREDICTED BY IDOCK:   -9.67 KCAL/MOL
REMARK 923 INTER-LIGAND FREE ENERGY PREDICTED BY IDOCK:   -8.22 KCAL/MOL
REMARK 924 INTRA-LIGAND FREE ENERGY PREDICTED BY IDOCK:   -1.44 KCAL/MOL
REMARK 927      BINDING AFFINITY PREDICTED BY RF-SCORE:    0.00 PKD
ROOT
HETATM    1  C   UNL     1      -8.188   7.498  64.530  1.00  0.00    -0.036 C  
HETATM    2  C   UNL     1      -7.093   8.407  64.511  1.00  0.00    -0.077 C  
HETATM    3  C   UNL     1      -6.760   7.194  65.336  1.00  0.00    -0.051 C  
HETATM    4  C   UNL     1      -8.136   5.740  64.992  1.00  0.00    -0.131 C  
HETATM    5  O   UNL     1      -8.284   4.330  65.191  1.00  0.00    -0.100 OA 
HETATM    6  C   UNL     1      -7.143   5.971  64.071  1.00  0.00    -0.053 C  
HETATM    7  C   UNL     1      -6.138   5.053  65.313  1.00  0.00    -0.030 C  
HETATM    8  C   UNL     1      -7.037   5.591  62.638  1.00  0.00    -0.044 C  
HETATM    9  H   UNL     1      -8.927   3.650  65.030  1.00  0.00     0.000 HD 
HETATM   10  C   UNL     1      -6.824   5.167  66.958  1.00  0.00    -0.060 C  
HETATM   11  C   UNL     1      -7.895   6.407  67.451  1.00  0.00    -0.105 C  
HETATM   12  C   UNL     1      -8.662   6.249  68.769  1.00  0.00    -0.121 A  
HETATM   13  C   UNL     1      -8.196   5.363  69.758  1.00  0.00    -0.100 A  
HETATM   14  C   UNL     1      -8.749   5.347  71.043  1.00  0.00    -0.141 A  
HETATM   15  C   UNL     1      -9.787   6.213  71.350  1.00  0.00    -0.175 A  
HETATM   16  C   UNL     1     -10.263   7.104  70.399  1.00  0.00    -0.203 A  
HETATM   17  O   UNL     1     -10.357   6.240  72.588  1.00  0.00    -0.190 OA 
HETATM   18  C   UNL     1      -9.689   7.163  69.114  1.00  0.00    -0.158 A  
HETATM   19  H   UNL     1     -11.068   6.833  72.799  1.00  0.00     0.000 HD 
HETATM   20  C   UNL     1     -10.225   8.222  68.167  1.00  0.00    -0.255 C  
HETATM   21  C   UNL     1      -9.268   8.659  67.031  1.00  0.00    -0.186 C  
HETATM   22  C   UNL     1      -8.846   7.355  66.313  1.00  0.00    -0.182 C  
ENDROOT
BRANCH  21  23
HETATM   23  C   UNL     1      -8.078   9.470  67.583  1.00  0.00    -0.110 C  
BRANCH  23  24
HETATM   24  C   UNL     1      -8.411  10.564  68.582  1.00  0.00    -0.138 C  
BRANCH  24  25
HETATM   25  C   UNL     1      -8.853  11.842  67.853  1.00  0.00    -0.165 C  
BRANCH  25  26
HETATM   26  C   UNL     1     -10.370  12.101  67.876  1.00  0.00    -0.216 C  
BRANCH  26  27
HETATM   27  C   UNL     1     -11.120  11.510  66.683  1.00  0.00    -0.355 C  
BRANCH  27  28
HETATM   28  C   UNL     1     -12.221  12.447  66.184  1.00  0.00    -0.119 C  
BRANCH  28  29
HETATM   29  C   UNL     1     -12.469  12.343  64.678  1.00  0.00    -0.500 C  
BRANCH  29  30
HETATM   30  C   UNL     1     -12.334  13.664  63.905  1.00  0.00    -0.375 C  
BRANCH  30  31
HETATM   31  C   UNL     1     -12.282  14.920  64.763  1.00  0.00    -0.284 C  
BRANCH  31  32
HETATM   32  S   UNL     1     -10.685  15.787  64.622  1.00  0.00     0.104 S  
HETATM   33  O   UNL     1     -10.980  17.258  64.586  1.00  0.00    -1.013 OA 
BRANCH  32  34
HETATM   34  C   UNL     1     -10.056  15.408  66.289  1.00  0.00    -0.292 C  
BRANCH  34  35
HETATM   35  C   UNL     1     -11.072  15.752  67.373  1.00  0.00    -0.235 C  
BRANCH  35  36
HETATM   36  C   UNL     1     -11.154  17.260  67.607  1.00  0.00    -0.002 C  
BRANCH  36  37
HETATM   37  C   UNL     1      -9.847  17.866  68.114  1.00  0.00    -0.334 C  
HETATM   38  F   UNL     1      -9.398  17.111  69.158  1.00  0.00    -0.257 F  
HETATM   39  C   UNL     1      -9.951  19.345  68.516  1.00  0.00    -0.434 C  
HETATM   40  F   UNL     1      -8.919  17.708  67.124  1.00  0.00    -0.229 F  
HETATM   41  F   UNL     1     -11.151  19.884  68.212  1.00  0.00    -0.290 F  
HETATM   42  F   UNL     1      -9.755  19.504  69.846  1.00  0.00    -0.214 F  
HETATM   43  F   UNL     1      -9.014  20.103  67.891  1.00  0.00    -0.371 F  
ENDBRANCH  36  37
ENDBRANCH  35  36
ENDBRANCH  34  35
ENDBRANCH  32  34
ENDBRANCH  31  32
ENDBRANCH  30  31
ENDBRANCH  29  30
ENDBRANCH  28  29
ENDBRANCH  27  28
ENDBRANCH  26  27
ENDBRANCH  25  26
ENDBRANCH  24  25
ENDBRANCH  23  24
ENDBRANCH  21  23
TORSDOF 14
ENDMDL
MODEL      213
REMARK 921   NORMALIZED FREE ENERGY PREDICTED BY IDOCK:   -3.49 KCAL/MOL
REMARK 922        TOTAL FREE ENERGY PREDICTED BY IDOCK:   -9.64 KCAL/MOL
REMARK 923 INTER-LIGAND FREE ENERGY PREDICTED BY IDOCK:   -7.41 KCAL/MOL
REMARK 924 INTRA-LIGAND FREE ENERGY PREDICTED BY IDOCK:   -2.23 KCAL/MOL
REMARK 927      BINDING AFFINITY PREDICTED BY RF-SCORE:    0.00 PKD
ROOT
HETATM    1  C   UNL     1      -8.451  12.534  66.987  1.00  0.00    -0.161 C  
HETATM    2  C   UNL     1      -8.699  11.844  65.767  1.00  0.00     0.210 C  
HETATM    3  C   UNL     1      -9.986  12.100  66.502  1.00  0.00    -0.230 C  
HETATM    4  C   UNL     1      -9.662  13.445  67.989  1.00  0.00    -0.222 C  
HETATM    5  O   UNL     1     -10.422  14.309  68.842  1.00  0.00    -0.243 OA 
HETATM    6  C   UNL     1      -9.769  13.878  66.690  1.00  0.00    -0.295 C  
HETATM    7  C   UNL     1     -11.560  13.594  67.016  1.00  0.00    -0.389 C  
HETATM    8  C   UNL     1      -9.349  15.152  66.050  1.00  0.00    -0.326 C  
HETATM    9  H   UNL     1     -10.271  14.938  69.537  1.00  0.00     0.000 HD 
HETATM   10  C   UNL     1     -11.831  12.390  68.307  1.00  0.00    -0.364 C  
HETATM   11  C   UNL     1     -10.667  11.226  68.772  1.00  0.00    -0.240 C  
HETATM   12  C   UNL     1     -10.870  10.449  70.078  1.00  0.00    -0.348 A  
HETATM   13  C   UNL     1     -12.151  10.350  70.652  1.00  0.00    -0.443 A  
HETATM   14  C   UNL     1     -12.407   9.485  71.721  1.00  0.00    -0.474 A  
HETATM   15  C   UNL     1     -11.378   8.714  72.237  1.00  0.00    -0.340 A  
HETATM   16  C   UNL     1     -10.105   8.783  71.688  1.00  0.00    -0.390 A  
HETATM   17  O   UNL     1     -11.576   7.853  73.275  1.00  0.00    -0.610 OA 
HETATM   18  C   UNL     1      -9.840   9.617  70.585  1.00  0.00    -0.268 A  
HETATM   19  H   UNL     1     -10.871   7.325  73.629  1.00  0.00     0.000 HD 
HETATM   20  C   UNL     1      -8.438   9.567  70.004  1.00  0.00    -0.210 C  
HETATM   21  C   UNL     1      -8.302  10.008  68.526  1.00  0.00    -0.113 C  
HETATM   22  C   UNL     1      -8.946  11.412  68.446  1.00  0.00    -0.172 C  
ENDROOT
BRANCH  21  23
HETATM   23  C   UNL     1      -8.947   8.979  67.575  1.00  0.00    -0.131 C  
BRANCH  23  24
HETATM   24  C   UNL     1      -8.467   7.545  67.704  1.00  0.00    -0.117 C  
BRANCH  24  25
HETATM   25  C   UNL     1      -6.932   7.491  67.722  1.00  0.00    -0.080 C  
BRANCH  25  26
HETATM   26  C   UNL     1      -6.341   6.321  68.528  1.00  0.00    -0.044 C  
BRANCH  26  27
HETATM   27  C   UNL     1      -5.138   6.704  69.390  1.00  0.00    -0.013 C  
BRANCH  27  28
HETATM   28  C   UNL     1      -5.213   6.073  70.781  1.00  0.00    -0.013 C  
BRANCH  28  29
HETATM   29  C   UNL     1      -6.179   6.795  71.723  1.00  0.00    -0.038 C  
BRANCH  29  30
HETATM   30  C   UNL     1      -7.421   5.984  72.125  1.00  0.00    -0.095 C  
BRANCH  30  31
HETATM   31  C   UNL     1      -7.139   4.617  72.733  1.00  0.00    -0.077 C  
BRANCH  31  32
HETATM   32  S   UNL     1      -7.501   3.257  71.574  1.00  0.00    -0.044 S  
HETATM   33  O   UNL     1      -6.914   2.007  72.160  1.00  0.00    -0.024 OA 
BRANCH  32  34
HETATM   34  C   UNL     1      -9.301   3.182  71.845  1.00  0.00    -0.128 C  
BRANCH  34  35
HETATM   35  C   UNL     1     -10.064   2.960  70.544  1.00  0.00     0.508 C  
BRANCH  35  36
HETATM   36  C   UNL     1      -9.890   4.135  69.583  1.00  0.00    -0.208 C  
BRANCH  36  37
HETATM   37  C   UNL     1     -10.223   5.486  70.212  1.00  0.00    -0.255 C  
HETATM   38  F   UNL     1     -10.513   5.287  71.530  1.00  0.00    -0.259 F  
HETATM   39  C   UNL     1     -11.359   6.246  69.512  1.00  0.00    -0.404 C  
HETATM   40  F   UNL     1      -9.078   6.230  70.200  1.00  0.00    -0.146 F  
HETATM   41  F   UNL     1     -11.764   5.643  68.374  1.00  0.00     0.337 F  
HETATM   42  F   UNL     1     -12.439   6.363  70.321  1.00  0.00    -0.339 F  
HETATM   43  F   UNL     1     -10.988   7.507  69.174  1.00  0.00    -0.211 F  
ENDBRANCH  36  37
ENDBRANCH  35  36
ENDBRANCH  34  35
ENDBRANCH  32  34
ENDBRANCH  31  32
ENDBRANCH  30  31
ENDBRANCH  29  30
ENDBRANCH  28  29
ENDBRANCH  27  28
ENDBRANCH  26  27
ENDBRANCH  25  26
ENDBRANCH  24  25
ENDBRANCH  23  24
ENDBRANCH  21  23
TORSDOF 14
ENDMDL
MODEL      214
REMARK 921   NORMALIZED FREE ENERGY PREDICTED BY IDOCK:   -3.46 KCAL/MOL
REMARK 922        TOTAL FREE ENERGY PREDICTED BY IDOCK:   -9.58 KCAL/MOL
REMARK 923 INTER-LIGAND FREE ENERGY PREDICTED BY IDOCK:   -7.48 KCAL/MOL
REMARK 924 INTRA-LIGAND FREE ENERGY PREDICTED BY IDOCK:   -2.11 KCAL/MOL
REMARK 927      BINDING AFFINITY PREDICTED BY RF-SCORE:    0.00 PKD
ROOT
HETATM    1  C   UNL     1     -11.190  15.883  69.788  1.00  0.00    -0.339 C  
HETATM    2  C   UNL     1     -11.892  16.449  68.687  1.00  0.00     0.138 C  
HETATM    3  C   UNL     1     -12.076  14.956  68.722  1.00  0.00    -0.212 C  
HETATM    4  C   UNL     1     -11.447  14.236  70.514  1.00  0.00    -0.093 C  
HETATM    5  O   UNL     1     -11.578  13.048  71.301  1.00  0.00     0.270 OA 
HETATM    6  C   UNL     1     -12.668  14.859  70.420  1.00  0.00    -0.370 C  
HETATM    7  C   UNL     1     -13.142  13.244  69.672  1.00  0.00     1.248 C  
HETATM    8  C   UNL     1     -13.543  15.451  71.466  1.00  0.00    -0.604 C  
HETATM    9  H   UNL     1     -11.284  12.711  72.139  1.00  0.00     0.000 HD 
HETATM   10  C   UNL     1     -11.745  12.391  68.957  1.00  0.00    -0.372 C  
HETATM   11  C   UNL     1     -10.300  13.176  68.487  1.00  0.00    -0.245 C  
HETATM   12  C   UNL     1      -9.059  12.330  68.177  1.00  0.00    -0.196 A  
HETATM   13  C   UNL     1      -9.194  10.969  67.847  1.00  0.00    -0.155 A  
HETATM   14  C   UNL     1      -8.114  10.225  67.360  1.00  0.00    -0.110 A  
HETATM   15  C   UNL     1      -6.879  10.835  67.207  1.00  0.00    -0.081 A  
HETATM   16  C   UNL     1      -6.716  12.178  67.515  1.00  0.00    -0.129 A  
HETATM   17  O   UNL     1      -5.797  10.155  66.733  1.00  0.00    -0.049 OA 
HETATM   18  C   UNL     1      -7.803  12.952  67.966  1.00  0.00    -0.149 A  
HETATM   19  H   UNL     1      -4.950  10.572  66.628  1.00  0.00     0.000 HD 
HETATM   20  C   UNL     1      -7.546  14.430  68.203  1.00  0.00    -0.128 C  
HETATM   21  C   UNL     1      -8.788  15.350  68.139  1.00  0.00    -0.170 C  
HETATM   22  C   UNL     1      -9.813  14.743  69.126  1.00  0.00    -0.167 C  
ENDROOT
BRANCH  21  23
HETATM   23  C   UNL     1      -9.319  15.471  66.696  1.00  0.00    -0.291 C  
BRANCH  23  24
HETATM   24  C   UNL     1      -9.687  14.174  66.000  1.00  0.00    -0.297 C  
BRANCH  24  25
HETATM   25  C   UNL     1     -11.004  14.333  65.224  1.00  0.00    -0.347 C  
BRANCH  25  26
HETATM   26  C   UNL     1     -11.935  13.110  65.285  1.00  0.00    -0.437 C  
BRANCH  26  27
HETATM   27  C   UNL     1     -12.296  12.535  63.916  1.00  0.00    -0.576 C  
BRANCH  27  28
HETATM   28  C   UNL     1     -11.146  11.720  63.321  1.00  0.00    -0.370 C  
BRANCH  28  29
HETATM   29  C   UNL     1     -10.373  10.912  64.365  1.00  0.00    -0.430 C  
BRANCH  29  30
HETATM   30  C   UNL     1      -8.988  10.424  63.914  1.00  0.00    -0.247 C  
BRANCH  30  31
HETATM   31  C   UNL     1      -8.993   9.266  62.926  1.00  0.00    -0.102 C  
BRANCH  31  32
HETATM   32  S   UNL     1      -7.553   8.169  63.140  1.00  0.00    -0.135 S  
HETATM   33  O   UNL     1      -6.323   9.014  62.979  1.00  0.00    -0.090 OA 
BRANCH  32  34
HETATM   34  C   UNL     1      -7.755   7.850  64.922  1.00  0.00    -0.112 C  
BRANCH  34  35
HETATM   35  C   UNL     1      -8.653   6.647  65.187  1.00  0.00     0.023 C  
BRANCH  35  36
HETATM   36  C   UNL     1      -8.918   6.462  66.681  1.00  0.00    -0.145 C  
BRANCH  36  37
HETATM   37  C   UNL     1     -10.302   6.941  67.113  1.00  0.00    -0.269 C  
HETATM   38  F   UNL     1     -10.513   8.181  66.585  1.00  0.00    -0.364 F  
HETATM   39  C   UNL     1     -10.521   6.951  68.633  1.00  0.00    -0.195 C  
HETATM   40  F   UNL     1     -11.218   6.127  66.509  1.00  0.00    -0.368 F  
HETATM   41  F   UNL     1      -9.493   6.396  69.310  1.00  0.00    -0.136 F  
HETATM   42  F   UNL     1     -10.682   8.213  69.095  1.00  0.00    -0.222 F  
HETATM   43  F   UNL     1     -11.636   6.263  68.986  1.00  0.00    -0.451 F  
ENDBRANCH  36  37
ENDBRANCH  35  36
ENDBRANCH  34  35
ENDBRANCH  32  34
ENDBRANCH  31  32
ENDBRANCH  30  31
ENDBRANCH  29  30
ENDBRANCH  28  29
ENDBRANCH  27  28
ENDBRANCH  26  27
ENDBRANCH  25  26
ENDBRANCH  24  25
ENDBRANCH  23  24
ENDBRANCH  21  23
TORSDOF 14
ENDMDL
MODEL      215
REMARK 921   NORMALIZED FREE ENERGY PREDICTED BY IDOCK:   -3.41 KCAL/MOL
REMARK 922        TOTAL FREE ENERGY PREDICTED BY IDOCK:   -9.48 KCAL/MOL
REMARK 923 INTER-LIGAND FREE ENERGY PREDICTED BY IDOCK:   -9.59 KCAL/MOL
REMARK 924 INTRA-LIGAND FREE ENERGY PREDICTED BY IDOCK:    0.11 KCAL/MOL
REMARK 927      BINDING AFFINITY PREDICTED BY RF-SCORE:    0.00 PKD
ROOT
HETATM    1  C   UNL     1      -8.625  14.783  66.873  1.00  0.00    -0.254 C  
HETATM    2  C   UNL     1      -9.234  14.608  65.599  1.00  0.00     0.252 C  
HETATM    3  C   UNL     1     -10.003  15.606  66.421  1.00  0.00    -0.298 C  
HETATM    4  C   UNL     1      -8.892  16.160  68.029  1.00  0.00    -0.181 C  
HETATM    5  O   UNL     1      -8.864  17.203  69.009  1.00  0.00    -0.220 OA 
HETATM    6  C   UNL     1      -8.611  16.687  66.792  1.00  0.00    -0.268 C  
HETATM    7  C   UNL     1     -10.100  17.702  67.175  1.00  0.00    -0.328 C  
HETATM    8  C   UNL     1      -7.393  17.364  66.276  1.00  0.00    -0.347 C  
HETATM    9  H   UNL     1      -8.345  17.463  69.761  1.00  0.00     0.000 HD 
HETATM   10  C   UNL     1     -11.190  16.897  68.337  1.00  0.00    -0.109 C  
HETATM   11  C   UNL     1     -11.195  15.208  68.613  1.00  0.00    -0.295 C  
HETATM   12  C   UNL     1     -11.937  14.654  69.834  1.00  0.00    -0.381 A  
HETATM   13  C   UNL     1     -12.944  15.416  70.457  1.00  0.00    -0.379 A  
HETATM   14  C   UNL     1     -13.777  14.863  71.436  1.00  0.00    -0.527 A  
HETATM   15  C   UNL     1     -13.604  13.541  71.812  1.00  0.00    -0.350 A  
HETATM   16  C   UNL     1     -12.627  12.761  71.210  1.00  0.00    -0.347 A  
HETATM   17  O   UNL     1     -14.392  12.955  72.758  1.00  0.00    -0.621 OA 
HETATM   18  C   UNL     1     -11.808  13.289  70.194  1.00  0.00    -0.333 A  
HETATM   19  H   UNL     1     -14.274  12.049  73.015  1.00  0.00     0.000 HD 
HETATM   20  C   UNL     1     -10.819  12.339  69.541  1.00  0.00     0.089 C  
HETATM   21  C   UNL     1     -10.353  12.722  68.116  1.00  0.00    -0.243 C  
HETATM   22  C   UNL     1      -9.825  14.173  68.223  1.00  0.00    -0.235 C  
ENDROOT
BRANCH  21  23
HETATM   23  C   UNL     1     -11.493  12.556  67.091  1.00  0.00    -0.414 C  
BRANCH  23  24
HETATM   24  C   UNL     1     -12.146  13.832  66.593  1.00  0.00    -0.471 C  
BRANCH  24  25
HETATM   25  C   UNL     1     -13.049  13.538  65.386  1.00  0.00    -0.121 C  
BRANCH  25  26
HETATM   26  C   UNL     1     -12.386  13.771  64.017  1.00  0.00    -0.370 C  
BRANCH  26  27
HETATM   27  C   UNL     1     -11.056  13.038  63.838  1.00  0.00    -0.411 C  
BRANCH  27  28
HETATM   28  C   UNL     1     -11.260  11.537  63.624  1.00  0.00    -0.451 C  
BRANCH  28  29
HETATM   29  C   UNL     1      -9.976  10.722  63.791  1.00  0.00    -0.411 C  
BRANCH  29  30
HETATM   30  C   UNL     1      -9.425  10.664  65.224  1.00  0.00    -0.270 C  
BRANCH  30  31
HETATM   31  C   UNL     1      -8.522   9.477  65.528  1.00  0.00    -0.140 C  
BRANCH  31  32
HETATM   32  S   UNL     1      -7.234   9.885  66.752  1.00  0.00    -0.092 S  
HETATM   33  O   UNL     1      -6.992  11.363  66.666  1.00  0.00    -0.138 OA 
BRANCH  32  34
HETATM   34  C   UNL     1      -8.223   9.589  68.252  1.00  0.00    -0.113 C  
BRANCH  34  35
HETATM   35  C   UNL     1      -8.987   8.272  68.181  1.00  0.00    -0.139 C  
BRANCH  35  36
HETATM   36  C   UNL     1      -8.916   7.510  69.503  1.00  0.00    -0.143 C  
BRANCH  36  37
HETATM   37  C   UNL     1      -7.659   6.654  69.643  1.00  0.00    -0.098 C  
HETATM   38  F   UNL     1      -7.481   5.956  68.484  1.00  0.00    -0.078 F  
HETATM   39  C   UNL     1      -7.668   5.709  70.853  1.00  0.00    -0.096 C  
HETATM   40  F   UNL     1      -6.596   7.509  69.719  1.00  0.00    -0.036 F  
HETATM   41  F   UNL     1      -8.732   5.908  71.660  1.00  0.00    -0.131 F  
HETATM   42  F   UNL     1      -7.689   4.413  70.460  1.00  0.00    -0.050 F  
HETATM   43  F   UNL     1      -6.561   5.863  71.622  1.00  0.00    -0.047 F  
ENDBRANCH  36  37
ENDBRANCH  35  36
ENDBRANCH  34  35
ENDBRANCH  32  34
ENDBRANCH  31  32
ENDBRANCH  30  31
ENDBRANCH  29  30
ENDBRANCH  28  29
ENDBRANCH  27  28
ENDBRANCH  26  27
ENDBRANCH  25  26
ENDBRANCH  24  25
ENDBRANCH  23  24
ENDBRANCH  21  23
TORSDOF 14
ENDMDL
MODEL      216
REMARK 921   NORMALIZED FREE ENERGY PREDICTED BY IDOCK:   -3.31 KCAL/MOL
REMARK 922        TOTAL FREE ENERGY PREDICTED BY IDOCK:   -9.31 KCAL/MOL
REMARK 923 INTER-LIGAND FREE ENERGY PREDICTED BY IDOCK:   -7.92 KCAL/MOL
REMARK 924 INTRA-LIGAND FREE ENERGY PREDICTED BY IDOCK:   -1.39 KCAL/MOL
REMARK 927      BINDING AFFINITY PREDICTED BY RF-SCORE:    0.00 PKD
ROOT
HETATM    1  C   UNL     1     -12.063  12.758  68.779  1.00  0.00    -0.165 C  
HETATM    2  C   UNL     1     -10.873  12.019  69.035  1.00  0.00    -0.223 C  
HETATM    3  C   UNL     1     -10.836  13.346  69.743  1.00  0.00     0.310 C  
HETATM    4  C   UNL     1     -12.690  14.177  69.726  1.00  0.00     0.050 C  
HETATM    5  O   UNL     1     -13.411  15.212  70.404  1.00  0.00    -0.664 OA 
HETATM    6  C   UNL     1     -12.404  13.165  70.609  1.00  0.00    -0.405 C  
HETATM    7  C   UNL     1     -11.543  14.532  71.494  1.00  0.00    -0.060 C  
HETATM    8  C   UNL     1     -13.301  12.262  71.379  1.00  0.00    -0.017 C  
HETATM    9  H   UNL     1     -14.278  15.600  70.396  1.00  0.00     0.000 HD 
HETATM   10  C   UNL     1     -11.056  15.851  70.394  1.00  0.00    -0.382 C  
HETATM   11  C   UNL     1     -10.862  15.650  68.706  1.00  0.00    -0.262 C  
HETATM   12  C   UNL     1     -10.746  16.892  67.815  1.00  0.00    -0.315 A  
HETATM   13  C   UNL     1     -10.362  18.128  68.370  1.00  0.00    -0.371 A  
HETATM   14  C   UNL     1     -10.048  19.225  67.560  1.00  0.00    -0.487 A  
HETATM   15  C   UNL     1     -10.126  19.100  66.182  1.00  0.00    -0.426 A  
HETATM   16  C   UNL     1     -10.493  17.893  65.605  1.00  0.00    -0.105 A  
HETATM   17  O   UNL     1      -9.826  20.138  65.350  1.00  0.00    -0.410 OA 
HETATM   18  C   UNL     1     -10.771  16.767  66.404  1.00  0.00    -0.105 A  
HETATM   19  H   UNL     1      -9.879  20.053  64.405  1.00  0.00     0.000 HD 
HETATM   20  C   UNL     1     -11.089  15.470  65.681  1.00  0.00    -0.235 C  
HETATM   21  C   UNL     1     -10.836  14.170  66.482  1.00  0.00    -0.298 C  
HETATM   22  C   UNL     1     -11.616  14.336  67.808  1.00  0.00    -0.383 C  
ENDROOT
BRANCH  21  23
HETATM   23  C   UNL     1      -9.327  13.921  66.683  1.00  0.00    -0.282 C  
BRANCH  23  24
HETATM   24  C   UNL     1      -8.869  12.475  66.638  1.00  0.00    -0.142 C  
BRANCH  24  25
HETATM   25  C   UNL     1      -9.864  11.620  65.839  1.00  0.00    -0.262 C  
BRANCH  25  26
HETATM   26  C   UNL     1      -9.219  10.691  64.796  1.00  0.00    -0.255 C  
BRANCH  26  27
HETATM   27  C   UNL     1      -8.932   9.281  65.312  1.00  0.00    -0.260 C  
BRANCH  27  28
HETATM   28  C   UNL     1      -7.567   9.193  65.996  1.00  0.00    -0.095 C  
BRANCH  28  29
HETATM   29  C   UNL     1      -7.212   7.779  66.459  1.00  0.00    -0.086 C  
BRANCH  29  30
HETATM   30  C   UNL     1      -7.519   7.482  67.936  1.00  0.00    -0.105 C  
BRANCH  30  31
HETATM   31  C   UNL     1      -8.554   6.393  68.180  1.00  0.00    -0.117 C  
BRANCH  31  32
HETATM   32  S   UNL     1      -9.967   6.990  69.164  1.00  0.00    -0.169 S  
HETATM   33  O   UNL     1     -10.954   7.590  68.205  1.00  0.00    -0.052 OA 
BRANCH  32  34
HETATM   34  C   UNL     1     -10.622   5.364  69.658  1.00  0.00    -0.258 C  
BRANCH  34  35
HETATM   35  C   UNL     1      -9.587   4.257  69.488  1.00  0.00    -0.274 C  
BRANCH  35  36
HETATM   36  C   UNL     1      -9.178   3.659  70.833  1.00  0.00    -0.199 C  
BRANCH  36  37
HETATM   37  C   UNL     1      -8.014   4.394  71.494  1.00  0.00    -0.083 C  
HETATM   38  F   UNL     1      -7.193   4.870  70.513  1.00  0.00    -0.047 F  
HETATM   39  C   UNL     1      -7.224   3.550  72.504  1.00  0.00    -0.048 C  
HETATM   40  F   UNL     1      -8.531   5.502  72.105  1.00  0.00    -0.120 F  
HETATM   41  F   UNL     1      -7.792   2.346  72.733  1.00  0.00    -0.048 F  
HETATM   42  F   UNL     1      -5.959   3.330  72.074  1.00  0.00    -0.011 F  
HETATM   43  F   UNL     1      -7.123   4.167  73.708  1.00  0.00    -0.054 F  
ENDBRANCH  36  37
ENDBRANCH  35  36
ENDBRANCH  34  35
ENDBRANCH  32  34
ENDBRANCH  31  32
ENDBRANCH  30  31
ENDBRANCH  29  30
ENDBRANCH  28  29
ENDBRANCH  27  28
ENDBRANCH  26  27
ENDBRANCH  25  26
ENDBRANCH  24  25
ENDBRANCH  23  24
ENDBRANCH  21  23
TORSDOF 14
ENDMDL
MODEL      217
REMARK 921   NORMALIZED FREE ENERGY PREDICTED BY IDOCK:   -3.29 KCAL/MOL
REMARK 922        TOTAL FREE ENERGY PREDICTED BY IDOCK:   -9.28 KCAL/MOL
REMARK 923 INTER-LIGAND FREE ENERGY PREDICTED BY IDOCK:   -6.46 KCAL/MOL
REMARK 924 INTRA-LIGAND FREE ENERGY PREDICTED BY IDOCK:   -2.82 KCAL/MOL
REMARK 927      BINDING AFFINITY PREDICTED BY RF-SCORE:    0.00 PKD
ROOT
HETATM    1  C   UNL     1      -6.594   8.401  70.007  1.00  0.00    -0.039 C  
HETATM    2  C   UNL     1      -6.524   7.218  69.220  1.00  0.00    -0.036 C  
HETATM    3  C   UNL     1      -7.615   8.124  68.719  1.00  0.00    -0.105 C  
HETATM    4  C   UNL     1      -7.410   9.962  69.558  1.00  0.00    -0.102 C  
HETATM    5  O   UNL     1      -7.874  11.300  69.346  1.00  0.00    -0.355 OA 
HETATM    6  C   UNL     1      -6.592   9.592  68.519  1.00  0.00    -0.052 C  
HETATM    7  C   UNL     1      -8.109   9.951  67.539  1.00  0.00    -0.110 C  
HETATM    8  C   UNL     1      -5.291  10.146  68.059  1.00  0.00    -0.038 C  
HETATM    9  H   UNL     1      -7.779  12.159  69.738  1.00  0.00     0.000 HD 
HETATM   10  C   UNL     1      -9.598   9.788  68.511  1.00  0.00    -0.155 C  
HETATM   11  C   UNL     1      -9.690   8.870  69.951  1.00  0.00    -0.185 C  
HETATM   12  C   UNL     1     -10.908   9.040  70.868  1.00  0.00    -0.323 A  
HETATM   13  C   UNL     1     -12.108   9.572  70.360  1.00  0.00    -0.061 A  
HETATM   14  C   UNL     1     -13.290   9.549  71.107  1.00  0.00    -0.314 A  
HETATM   15  C   UNL     1     -13.282   9.001  72.380  1.00  0.00    -0.447 A  
HETATM   16  C   UNL     1     -12.117   8.461  72.905  1.00  0.00     0.023 A  
HETATM   17  O   UNL     1     -14.409   8.951  73.147  1.00  0.00    -1.143 OA 
HETATM   18  C   UNL     1     -10.929   8.438  72.150  1.00  0.00    -0.411 A  
HETATM   19  H   UNL     1     -14.404   8.576  74.019  1.00  0.00     0.000 HD 
HETATM   20  C   UNL     1      -9.725   7.757  72.779  1.00  0.00    -0.292 C  
HETATM   21  C   UNL     1      -8.651   7.238  71.793  1.00  0.00    -0.121 C  
HETATM   22  C   UNL     1      -8.273   8.449  70.908  1.00  0.00    -0.130 C  
ENDROOT
BRANCH  21  23
HETATM   23  C   UNL     1      -9.167   6.026  70.990  1.00  0.00    -0.168 C  
BRANCH  23  24
HETATM   24  C   UNL     1      -9.130   4.683  71.695  1.00  0.00    -0.172 C  
BRANCH  24  25
HETATM   25  C   UNL     1      -9.776   3.598  70.820  1.00  0.00    -0.222 C  
BRANCH  25  26
HETATM   26  C   UNL     1      -9.624   3.821  69.306  1.00  0.00    -0.209 C  
BRANCH  26  27
HETATM   27  C   UNL     1      -8.247   3.446  68.757  1.00  0.00    -0.075 C  
BRANCH  27  28
HETATM   28  C   UNL     1      -8.337   2.873  67.342  1.00  0.00    -0.092 C  
BRANCH  28  29
HETATM   29  C   UNL     1      -9.376   3.578  66.468  1.00  0.00    -0.189 C  
BRANCH  29  30
HETATM   30  C   UNL     1      -8.940   3.831  65.016  1.00  0.00    -0.131 C  
BRANCH  30  31
HETATM   31  C   UNL     1      -7.439   3.965  64.801  1.00  0.00    -0.076 C  
BRANCH  31  32
HETATM   32  S   UNL     1      -6.888   3.158  63.262  1.00  0.00    -0.036 S  
HETATM   33  O   UNL     1      -8.067   3.118  62.334  1.00  0.00    -0.069 OA 
BRANCH  32  34
HETATM   34  C   UNL     1      -5.788   4.485  62.674  1.00  0.00    -0.017 C  
BRANCH  34  35
HETATM   35  C   UNL     1      -6.417   5.864  62.843  1.00  0.00    -0.028 C  
BRANCH  35  36
HETATM   36  C   UNL     1      -5.477   6.825  63.568  1.00  0.00    -0.027 C  
BRANCH  36  37
HETATM   37  C   UNL     1      -6.155   7.602  64.695  1.00  0.00    -0.038 C  
HETATM   38  F   UNL     1      -6.756   6.709  65.532  1.00  0.00    -0.045 F  
HETATM   39  C   UNL     1      -7.158   8.662  64.217  1.00  0.00    -0.089 C  
HETATM   40  F   UNL     1      -5.166   8.186  65.434  1.00  0.00    -0.030 F  
HETATM   41  F   UNL     1      -7.153   8.815  62.875  1.00  0.00    -0.091 F  
HETATM   42  F   UNL     1      -8.420   8.342  64.588  1.00  0.00    -0.158 F  
HETATM   43  F   UNL     1      -6.893   9.882  64.748  1.00  0.00    -0.102 F  
ENDBRANCH  36  37
ENDBRANCH  35  36
ENDBRANCH  34  35
ENDBRANCH  32  34
ENDBRANCH  31  32
ENDBRANCH  30  31
ENDBRANCH  29  30
ENDBRANCH  28  29
ENDBRANCH  27  28
ENDBRANCH  26  27
ENDBRANCH  25  26
ENDBRANCH  24  25
ENDBRANCH  23  24
ENDBRANCH  21  23
TORSDOF 14
ENDMDL
MODEL      218
REMARK 921   NORMALIZED FREE ENERGY PREDICTED BY IDOCK:   -3.28 KCAL/MOL
REMARK 922        TOTAL FREE ENERGY PREDICTED BY IDOCK:   -9.26 KCAL/MOL
REMARK 923 INTER-LIGAND FREE ENERGY PREDICTED BY IDOCK:   -8.79 KCAL/MOL
REMARK 924 INTRA-LIGAND FREE ENERGY PREDICTED BY IDOCK:   -0.47 KCAL/MOL
REMARK 927      BINDING AFFINITY PREDICTED BY RF-SCORE:    0.00 PKD
ROOT
HETATM    1  C   UNL     1      -9.592  10.254  65.791  1.00  0.00    -0.279 C  
HETATM    2  C   UNL     1      -8.228  10.658  65.770  1.00  0.00    -0.161 C  
HETATM    3  C   UNL     1      -8.666  10.343  67.175  1.00  0.00    -0.130 C  
HETATM    4  C   UNL     1     -10.445   9.363  67.126  1.00  0.00    -0.244 C  
HETATM    5  O   UNL     1     -11.257   8.564  67.994  1.00  0.00    -0.344 OA 
HETATM    6  C   UNL     1      -9.286   8.687  66.832  1.00  0.00    -0.216 C  
HETATM    7  C   UNL     1      -9.098   8.740  68.664  1.00  0.00    -0.141 C  
HETATM    8  C   UNL     1      -9.063   7.399  66.124  1.00  0.00    -0.167 C  
HETATM    9  H   UNL     1     -12.088   8.106  67.971  1.00  0.00     0.000 HD 
HETATM   10  C   UNL     1      -9.988  10.104  69.398  1.00  0.00    -0.247 C  
HETATM   11  C   UNL     1     -10.454  11.503  68.530  1.00  0.00    -0.228 C  
HETATM   12  C   UNL     1     -11.469  12.465  69.158  1.00  0.00    -0.358 A  
HETATM   13  C   UNL     1     -11.678  12.465  70.550  1.00  0.00     0.023 A  
HETATM   14  C   UNL     1     -12.437  13.462  71.174  1.00  0.00    -0.414 A  
HETATM   15  C   UNL     1     -13.005  14.467  70.408  1.00  0.00    -0.155 A  
HETATM   16  C   UNL     1     -12.810  14.500  69.035  1.00  0.00     0.782 A  
HETATM   17  O   UNL     1     -13.749  15.463  70.969  1.00  0.00    -0.653 OA 
HETATM   18  C   UNL     1     -12.015  13.529  68.396  1.00  0.00    -0.378 A  
HETATM   19  H   UNL     1     -14.138  16.152  70.444  1.00  0.00     0.000 HD 
HETATM   20  C   UNL     1     -11.795  13.691  66.902  1.00  0.00    -0.451 C  
HETATM   21  C   UNL     1     -10.529  13.012  66.328  1.00  0.00    -0.285 C  
HETATM   22  C   UNL     1     -10.604  11.533  66.776  1.00  0.00    -0.289 C  
ENDROOT
BRANCH  21  23
HETATM   23  C   UNL     1      -9.247  13.732  66.795  1.00  0.00    -0.255 C  
BRANCH  23  24
HETATM   24  C   UNL     1      -8.380  12.989  67.795  1.00  0.00    -0.175 C  
BRANCH  24  25
HETATM   25  C   UNL     1      -8.010  13.905  68.972  1.00  0.00     0.098 C  
BRANCH  25  26
HETATM   26  C   UNL     1      -7.770  15.375  68.589  1.00  0.00    -0.143 C  
BRANCH  26  27
HETATM   27  C   UNL     1      -6.620  15.581  67.602  1.00  0.00    -0.195 C  
BRANCH  27  28
HETATM   28  C   UNL     1      -6.605  17.002  67.037  1.00  0.00    -0.238 C  
BRANCH  28  29
HETATM   29  C   UNL     1      -5.196  17.580  66.889  1.00  0.00    -0.177 C  
BRANCH  29  30
HETATM   30  C   UNL     1      -5.141  19.079  66.553  1.00  0.00    -0.147 C  
BRANCH  30  31
HETATM   31  C   UNL     1      -5.238  20.018  67.747  1.00  0.00    -0.181 C  
BRANCH  31  32
HETATM   32  S   UNL     1      -6.836  20.892  67.810  1.00  0.00    -0.245 S  
HETATM   33  O   UNL     1      -7.520  20.663  66.494  1.00  0.00    -0.219 OA 
BRANCH  32  34
HETATM   34  C   UNL     1      -7.652  19.816  69.032  1.00  0.00    -0.224 C  
BRANCH  34  35
HETATM   35  C   UNL     1      -9.168  19.818  68.871  1.00  0.00    -0.226 C  
BRANCH  35  36
HETATM   36  C   UNL     1      -9.688  18.452  68.427  1.00  0.00    -0.379 C  
BRANCH  36  37
HETATM   37  C   UNL     1     -10.802  18.538  67.387  1.00  0.00    -0.294 C  
HETATM   38  F   UNL     1     -11.706  17.547  67.641  1.00  0.00     0.252 F  
HETATM   39  C   UNL     1     -10.316  18.472  65.932  1.00  0.00    -0.315 C  
HETATM   40  F   UNL     1     -11.473  19.707  67.610  1.00  0.00    -0.365 F  
HETATM   41  F   UNL     1      -8.969  18.494  65.833  1.00  0.00    -0.226 F  
HETATM   42  F   UNL     1     -10.753  17.346  65.321  1.00  0.00    -0.366 F  
HETATM   43  F   UNL     1     -10.777  19.516  65.199  1.00  0.00    -0.433 F  
ENDBRANCH  36  37
ENDBRANCH  35  36
ENDBRANCH  34  35
ENDBRANCH  32  34
ENDBRANCH  31  32
ENDBRANCH  30  31
ENDBRANCH  29  30
ENDBRANCH  28  29
ENDBRANCH  27  28
ENDBRANCH  26  27
ENDBRANCH  25  26
ENDBRANCH  24  25
ENDBRANCH  23  24
ENDBRANCH  21  23
TORSDOF 14
ENDMDL
MODEL      219
REMARK 921   NORMALIZED FREE ENERGY PREDICTED BY IDOCK:   -3.27 KCAL/MOL
REMARK 922        TOTAL FREE ENERGY PREDICTED BY IDOCK:   -9.23 KCAL/MOL
REMARK 923 INTER-LIGAND FREE ENERGY PREDICTED BY IDOCK:   -7.38 KCAL/MOL
REMARK 924 INTRA-LIGAND FREE ENERGY PREDICTED BY IDOCK:   -1.85 KCAL/MOL
REMARK 927      BINDING AFFINITY PREDICTED BY RF-SCORE:    0.00 PKD
ROOT
HETATM    1  C   UNL     1     -10.192   5.921  66.278  1.00  0.00    -0.087 C  
HETATM    2  C   UNL     1      -9.218   6.942  66.093  1.00  0.00    -0.118 C  
HETATM    3  C   UNL     1      -8.620   5.764  66.812  1.00  0.00    -0.112 C  
HETATM    4  C   UNL     1      -9.878   4.175  66.674  1.00  0.00    -0.185 C  
HETATM    5  O   UNL     1      -9.842   2.755  66.857  1.00  0.00    -0.354 OA 
HETATM    6  C   UNL     1      -9.093   4.518  65.601  1.00  0.00    -0.140 C  
HETATM    7  C   UNL     1      -7.795   3.701  66.621  1.00  0.00    -0.088 C  
HETATM    8  C   UNL     1      -9.204   4.165  64.161  1.00  0.00    -0.149 C  
HETATM    9  H   UNL     1     -10.430   2.012  66.792  1.00  0.00     0.000 HD 
HETATM   10  C   UNL     1      -8.186   3.726  68.363  1.00  0.00    -0.087 C  
HETATM   11  C   UNL     1      -9.275   4.840  69.070  1.00  0.00    -0.174 C  
HETATM   12  C   UNL     1      -9.776   4.589  70.498  1.00  0.00    -0.290 A  
HETATM   13  C   UNL     1      -9.052   3.749  71.365  1.00  0.00    -0.177 A  
HETATM   14  C   UNL     1      -9.365   3.663  72.726  1.00  0.00    -0.145 A  
HETATM   15  C   UNL     1     -10.415   4.411  73.234  1.00  0.00    -0.187 A  
HETATM   16  C   UNL     1     -11.141   5.254  72.406  1.00  0.00    -0.260 A  
HETATM   17  O   UNL     1     -10.756   4.365  74.553  1.00  0.00    -0.270 OA 
HETATM   18  C   UNL     1     -10.813   5.386  71.043  1.00  0.00    -0.189 A  
HETATM   19  H   UNL     1     -11.476   4.877  74.902  1.00  0.00     0.000 HD 
HETATM   20  C   UNL     1     -11.615   6.391  70.234  1.00  0.00    -0.451 C  
HETATM   21  C   UNL     1     -10.926   6.937  68.961  1.00  0.00    -0.225 C  
HETATM   22  C   UNL     1     -10.506   5.693  68.144  1.00  0.00    -0.260 C  
ENDROOT
BRANCH  21  23
HETATM   23  C   UNL     1      -9.747   7.866  69.319  1.00  0.00    -0.159 C  
BRANCH  23  24
HETATM   24  C   UNL     1      -9.366   7.940  70.786  1.00  0.00    -0.161 C  
BRANCH  24  25
HETATM   25  C   UNL     1      -8.422   9.126  71.037  1.00  0.00    -0.221 C  
BRANCH  25  26
HETATM   26  C   UNL     1      -6.925   8.778  70.981  1.00  0.00    -0.077 C  
BRANCH  26  27
HETATM   27  C   UNL     1      -6.628   7.405  70.378  1.00  0.00    -0.046 C  
BRANCH  27  28
HETATM   28  C   UNL     1      -6.100   7.516  68.947  1.00  0.00    -0.031 C  
BRANCH  28  29
HETATM   29  C   UNL     1      -6.441   8.849  68.277  1.00  0.00    -0.059 C  
BRANCH  29  30
HETATM   30  C   UNL     1      -5.230   9.658  67.786  1.00  0.00    -0.036 C  
BRANCH  30  31
HETATM   31  C   UNL     1      -5.507  11.120  67.469  1.00  0.00    -0.043 C  
BRANCH  31  32
HETATM   32  S   UNL     1      -6.561  11.912  68.728  1.00  0.00    -0.087 S  
HETATM   33  O   UNL     1      -5.946  13.243  69.048  1.00  0.00    -0.075 OA 
BRANCH  32  34
HETATM   34  C   UNL     1      -8.006  12.232  67.667  1.00  0.00    -0.161 C  
BRANCH  34  35
HETATM   35  C   UNL     1      -8.172  13.717  67.362  1.00  0.00    -0.187 C  
BRANCH  35  36
HETATM   36  C   UNL     1      -9.631  14.155  67.483  1.00  0.00    -0.223 C  
BRANCH  36  37
HETATM   37  C   UNL     1      -9.925  14.935  68.763  1.00  0.00    -0.228 C  
HETATM   38  F   UNL     1     -10.705  14.160  69.570  1.00  0.00    -0.234 F  
HETATM   39  C   UNL     1     -10.573  16.308  68.531  1.00  0.00    -0.294 C  
HETATM   40  F   UNL     1      -8.741  15.077  69.429  1.00  0.00    -0.194 F  
HETATM   41  F   UNL     1     -10.636  16.639  67.224  1.00  0.00    -0.309 F  
HETATM   42  F   UNL     1     -11.834  16.341  69.024  1.00  0.00    -0.334 F  
HETATM   43  F   UNL     1      -9.887  17.300  69.152  1.00  0.00    -0.271 F  
ENDBRANCH  36  37
ENDBRANCH  35  36
ENDBRANCH  34  35
ENDBRANCH  32  34
ENDBRANCH  31  32
ENDBRANCH  30  31
ENDBRANCH  29  30
ENDBRANCH  28  29
ENDBRANCH  27  28
ENDBRANCH  26  27
ENDBRANCH  25  26
ENDBRANCH  24  25
ENDBRANCH  23  24
ENDBRANCH  21  23
TORSDOF 14
ENDMDL
MODEL      220
REMARK 921   NORMALIZED FREE ENERGY PREDICTED BY IDOCK:   -3.23 KCAL/MOL
REMARK 922        TOTAL FREE ENERGY PREDICTED BY IDOCK:   -9.17 KCAL/MOL
REMARK 923 INTER-LIGAND FREE ENERGY PREDICTED BY IDOCK:   -6.77 KCAL/MOL
REMARK 924 INTRA-LIGAND FREE ENERGY PREDICTED BY IDOCK:   -2.40 KCAL/MOL
REMARK 927      BINDING AFFINITY PREDICTED BY RF-SCORE:    0.00 PKD
ROOT
HETATM    1  C   UNL     1     -10.442  15.777  67.781  1.00  0.00    -0.283 C  
HETATM    2  C   UNL     1     -10.850  15.649  69.139  1.00  0.00    -0.246 C  
HETATM    3  C   UNL     1      -9.349  15.664  69.036  1.00  0.00    -0.243 C  
HETATM    4  C   UNL     1      -8.802  16.280  67.179  1.00  0.00    -0.193 C  
HETATM    5  O   UNL     1      -7.637  16.773  66.509  1.00  0.00    -0.244 OA 
HETATM    6  C   UNL     1      -9.218  17.202  68.108  1.00  0.00    -0.261 C  
HETATM    7  C   UNL     1      -7.523  16.915  68.768  1.00  0.00    -0.237 C  
HETATM    8  C   UNL     1      -9.700  18.599  67.946  1.00  0.00    -0.350 C  
HETATM    9  H   UNL     1      -7.381  17.061  65.641  1.00  0.00     0.000 HD 
HETATM   10  C   UNL     1      -6.879  15.314  68.312  1.00  0.00    -0.122 C  
HETATM   11  C   UNL     1      -7.867  13.995  67.851  1.00  0.00    -0.161 C  
HETATM   12  C   UNL     1      -7.220  12.774  67.188  1.00  0.00    -0.014 A  
HETATM   13  C   UNL     1      -5.843  12.528  67.347  1.00  0.00    -0.137 A  
HETATM   14  C   UNL     1      -5.264  11.324  66.932  1.00  0.00    -0.088 A  
HETATM   15  C   UNL     1      -6.057  10.353  66.343  1.00  0.00    -0.081 A  
HETATM   16  C   UNL     1      -7.419  10.562  66.179  1.00  0.00    -0.136 A  
HETATM   17  O   UNL     1      -5.542   9.161  65.925  1.00  0.00    -0.044 OA 
HETATM   18  C   UNL     1      -8.025  11.750  66.629  1.00  0.00    -0.070 A  
HETATM   19  H   UNL     1      -6.085   8.495  65.521  1.00  0.00     0.000 HD 
HETATM   20  C   UNL     1      -9.533  11.856  66.477  1.00  0.00    -0.226 C  
HETATM   21  C   UNL     1     -10.241  12.842  67.437  1.00  0.00    -0.230 C  
HETATM   22  C   UNL     1      -9.514  14.196  67.260  1.00  0.00    -0.229 C  
ENDROOT
BRANCH  21  23
HETATM   23  C   UNL     1     -10.224  12.319  68.888  1.00  0.00    -0.041 C  
BRANCH  23  24
HETATM   24  C   UNL     1     -10.197  10.812  69.063  1.00  0.00    -0.229 C  
BRANCH  24  25
HETATM   25  C   UNL     1     -11.611  10.229  68.926  1.00  0.00    -0.132 C  
BRANCH  25  26
HETATM   26  C   UNL     1     -12.695  10.983  69.714  1.00  0.00    -0.024 C  
BRANCH  26  27
HETATM   27  C   UNL     1     -13.272  10.195  70.890  1.00  0.00    -0.360 C  
BRANCH  27  28
HETATM   28  C   UNL     1     -12.237   9.988  71.996  1.00  0.00    -0.126 C  
BRANCH  28  29
HETATM   29  C   UNL     1     -11.655   8.573  72.024  1.00  0.00    -0.432 C  
BRANCH  29  30
HETATM   30  C   UNL     1     -10.638   8.310  73.146  1.00  0.00     0.109 C  
BRANCH  30  31
HETATM   31  C   UNL     1      -9.308   7.723  72.698  1.00  0.00    -0.188 C  
BRANCH  31  32
HETATM   32  S   UNL     1      -9.358   5.904  72.589  1.00  0.00    -0.142 S  
HETATM   33  O   UNL     1     -10.376   5.427  73.582  1.00  0.00    -0.195 OA 
BRANCH  32  34
HETATM   34  C   UNL     1     -10.121   5.781  70.939  1.00  0.00    -0.199 C  
BRANCH  34  35
HETATM   35  C   UNL     1      -9.099   5.967  69.823  1.00  0.00    -0.147 C  
BRANCH  35  36
HETATM   36  C   UNL     1      -9.589   5.367  68.507  1.00  0.00    -0.169 C  
BRANCH  36  37
HETATM   37  C   UNL     1     -10.279   6.382  67.599  1.00  0.00    -0.169 C  
HETATM   38  F   UNL     1     -11.238   5.733  66.877  1.00  0.00    -0.301 F  
HETATM   39  C   UNL     1      -9.327   7.151  66.672  1.00  0.00    -0.166 C  
HETATM   40  F   UNL     1     -10.958   7.250  68.407  1.00  0.00    -0.209 F  
HETATM   41  F   UNL     1      -8.027   6.891  66.930  1.00  0.00    -0.101 F  
HETATM   42  F   UNL     1      -9.556   6.845  65.373  1.00  0.00     0.219 F  
HETATM   43  F   UNL     1      -9.486   8.494  66.788  1.00  0.00    -0.177 F  
ENDBRANCH  36  37
ENDBRANCH  35  36
ENDBRANCH  34  35
ENDBRANCH  32  34
ENDBRANCH  31  32
ENDBRANCH  30  31
ENDBRANCH  29  30
ENDBRANCH  28  29
ENDBRANCH  27  28
ENDBRANCH  26  27
ENDBRANCH  25  26
ENDBRANCH  24  25
ENDBRANCH  23  24
ENDBRANCH  21  23
TORSDOF 14
ENDMDL
MODEL      221
REMARK 921   NORMALIZED FREE ENERGY PREDICTED BY IDOCK:   -3.20 KCAL/MOL
REMARK 922        TOTAL FREE ENERGY PREDICTED BY IDOCK:   -9.12 KCAL/MOL
REMARK 923 INTER-LIGAND FREE ENERGY PREDICTED BY IDOCK:   -6.41 KCAL/MOL
REMARK 924 INTRA-LIGAND FREE ENERGY PREDICTED BY IDOCK:   -2.71 KCAL/MOL
REMARK 927      BINDING AFFINITY PREDICTED BY RF-SCORE:    0.00 PKD
ROOT
HETATM    1  C   UNL     1      -8.877   8.965  70.098  1.00  0.00    -0.172 C  
HETATM    2  C   UNL     1      -9.927   9.538  69.327  1.00  0.00    -0.191 C  
HETATM    3  C   UNL     1     -10.125   8.054  69.473  1.00  0.00    -0.196 C  
HETATM    4  C   UNL     1      -8.886   7.342  70.917  1.00  0.00    -0.148 C  
HETATM    5  O   UNL     1      -8.743   6.173  71.731  1.00  0.00    -0.136 OA 
HETATM    6  C   UNL     1     -10.035   8.007  71.271  1.00  0.00    -0.211 C  
HETATM    7  C   UNL     1     -10.800   6.398  70.805  1.00  0.00    -0.321 C  
HETATM    8  C   UNL     1     -10.433   8.648  72.551  1.00  0.00    -0.221 C  
HETATM    9  H   UNL     1      -8.164   5.840  72.406  1.00  0.00     0.000 HD 
HETATM   10  C   UNL     1      -9.801   5.482  69.643  1.00  0.00    -0.258 C  
HETATM   11  C   UNL     1      -8.618   6.206  68.640  1.00  0.00    -0.113 C  
HETATM   12  C   UNL     1      -7.610   5.310  67.910  1.00  0.00    -0.084 A  
HETATM   13  C   UNL     1      -7.897   3.948  67.696  1.00  0.00    -0.082 A  
HETATM   14  C   UNL     1      -7.102   3.157  66.861  1.00  0.00    -0.058 A  
HETATM   15  C   UNL     1      -6.000   3.719  66.236  1.00  0.00    -0.024 A  
HETATM   16  C   UNL     1      -5.696   5.060  66.419  1.00  0.00    -0.018 A  
HETATM   17  O   UNL     1      -5.195   2.991  65.409  1.00  0.00    -0.008 OA 
HETATM   18  C   UNL     1      -6.510   5.881  67.223  1.00  0.00    -0.047 A  
HETATM   19  H   UNL     1      -4.440   3.376  64.981  1.00  0.00     0.000 HD 
HETATM   20  C   UNL     1      -6.142   7.352  67.302  1.00  0.00    -0.046 C  
HETATM   21  C   UNL     1      -7.291   8.317  67.683  1.00  0.00    -0.093 C  
HETATM   22  C   UNL     1      -7.883   7.765  69.001  1.00  0.00    -0.118 C  
ENDROOT
BRANCH  21  23
HETATM   23  C   UNL     1      -8.324   8.432  66.543  1.00  0.00    -0.111 C  
BRANCH  23  24
HETATM   24  C   UNL     1      -8.956   9.796  66.340  1.00  0.00    -0.176 C  
BRANCH  24  25
HETATM   25  C   UNL     1      -8.994  10.155  64.846  1.00  0.00    -0.230 C  
BRANCH  25  26
HETATM   26  C   UNL     1     -10.392  10.503  64.306  1.00  0.00    -0.208 C  
BRANCH  26  27
HETATM   27  C   UNL     1     -10.709  11.999  64.319  1.00  0.00    -0.382 C  
BRANCH  27  28
HETATM   28  C   UNL     1     -11.421  12.418  65.605  1.00  0.00    -0.412 C  
BRANCH  28  29
HETATM   29  C   UNL     1     -12.281  13.673  65.441  1.00  0.00    -0.474 C  
BRANCH  29  30
HETATM   30  C   UNL     1     -12.346  14.582  66.678  1.00  0.00    -0.141 C  
BRANCH  30  31
HETATM   31  C   UNL     1     -11.024  14.794  67.402  1.00  0.00    -0.313 C  
BRANCH  31  32
HETATM   32  S   UNL     1     -10.839  16.500  68.016  1.00  0.00    -0.311 S  
HETATM   33  O   UNL     1     -10.491  16.412  69.473  1.00  0.00    -0.281 OA 
BRANCH  32  34
HETATM   34  C   UNL     1      -9.305  16.913  67.124  1.00  0.00    -0.234 C  
BRANCH  34  35
HETATM   35  C   UNL     1      -8.660  15.680  66.499  1.00  0.00    -0.335 C  
BRANCH  35  36
HETATM   36  C   UNL     1      -7.559  15.110  67.392  1.00  0.00    -0.232 C  
BRANCH  36  37
HETATM   37  C   UNL     1      -7.526  13.583  67.412  1.00  0.00    -0.122 C  
HETATM   38  F   UNL     1      -8.121  13.124  66.272  1.00  0.00     0.266 F  
HETATM   39  C   UNL     1      -8.172  12.953  68.655  1.00  0.00     0.015 C  
HETATM   40  F   UNL     1      -6.217  13.206  67.316  1.00  0.00    -0.162 F  
HETATM   41  F   UNL     1      -8.526  13.873  69.579  1.00  0.00     0.258 F  
HETATM   42  F   UNL     1      -9.283  12.253  68.326  1.00  0.00    -0.182 F  
HETATM   43  F   UNL     1      -7.333  12.084  69.273  1.00  0.00    -0.093 F  
ENDBRANCH  36  37
ENDBRANCH  35  36
ENDBRANCH  34  35
ENDBRANCH  32  34
ENDBRANCH  31  32
ENDBRANCH  30  31
ENDBRANCH  29  30
ENDBRANCH  28  29
ENDBRANCH  27  28
ENDBRANCH  26  27
ENDBRANCH  25  26
ENDBRANCH  24  25
ENDBRANCH  23  24
ENDBRANCH  21  23
TORSDOF 14
ENDMDL
MODEL      222
REMARK 921   NORMALIZED FREE ENERGY PREDICTED BY IDOCK:   -3.20 KCAL/MOL
REMARK 922        TOTAL FREE ENERGY PREDICTED BY IDOCK:   -9.10 KCAL/MOL
REMARK 923 INTER-LIGAND FREE ENERGY PREDICTED BY IDOCK:   -5.98 KCAL/MOL
REMARK 924 INTRA-LIGAND FREE ENERGY PREDICTED BY IDOCK:   -3.12 KCAL/MOL
REMARK 927      BINDING AFFINITY PREDICTED BY RF-SCORE:    0.00 PKD
ROOT
HETATM    1  C   UNL     1      -8.186   4.800  64.266  1.00  0.00    -0.117 C  
HETATM    2  C   UNL     1      -6.898   4.571  64.825  1.00  0.00    -0.046 C  
HETATM    3  C   UNL     1      -7.919   4.767  65.911  1.00  0.00    -0.103 C  
HETATM    4  C   UNL     1      -9.785   4.654  65.116  1.00  0.00    -0.106 C  
HETATM    5  O   UNL     1     -11.135   4.473  65.561  1.00  0.00    -0.820 OA 
HETATM    6  C   UNL     1      -9.071   3.503  65.346  1.00  0.00    -0.145 C  
HETATM    7  C   UNL     1      -9.577   3.845  67.084  1.00  0.00    -0.226 C  
HETATM    8  C   UNL     1      -9.239   2.129  64.805  1.00  0.00    -0.129 C  
HETATM    9  H   UNL     1     -12.007   4.420  65.189  1.00  0.00     0.000 HD 
HETATM   10  C   UNL     1      -9.915   5.576  67.364  1.00  0.00    -0.189 C  
HETATM   11  C   UNL     1      -9.303   6.830  66.374  1.00  0.00    -0.175 C  
HETATM   12  C   UNL     1      -9.891   8.239  66.506  1.00  0.00    -0.323 A  
HETATM   13  C   UNL     1     -10.576   8.614  67.678  1.00  0.00    -0.272 A  
HETATM   14  C   UNL     1     -10.943   9.943  67.916  1.00  0.00    -0.281 A  
HETATM   15  C   UNL     1     -10.635  10.914  66.976  1.00  0.00    -0.257 A  
HETATM   16  C   UNL     1      -9.953  10.578  65.816  1.00  0.00    -0.318 A  
HETATM   17  O   UNL     1     -10.967  12.223  67.163  1.00  0.00    -0.241 OA 
HETATM   18  C   UNL     1      -9.540   9.253  65.580  1.00  0.00    -0.291 A  
HETATM   19  H   UNL     1     -10.756  12.889  66.519  1.00  0.00     0.000 HD 
HETATM   20  C   UNL     1      -8.732   8.996  64.320  1.00  0.00    -0.140 C  
HETATM   21  C   UNL     1      -7.828   7.740  64.341  1.00  0.00    -0.138 C  
HETATM   22  C   UNL     1      -8.755   6.561  64.722  1.00  0.00     0.270 C  
ENDROOT
BRANCH  21  23
HETATM   23  C   UNL     1      -6.638   7.924  65.305  1.00  0.00    -0.044 C  
BRANCH  23  24
HETATM   24  C   UNL     1      -5.942   9.272  65.271  1.00  0.00    -0.062 C  
BRANCH  24  25
HETATM   25  C   UNL     1      -5.603   9.739  66.695  1.00  0.00    -0.046 C  
BRANCH  25  26
HETATM   26  C   UNL     1      -6.212  11.096  67.086  1.00  0.00    -0.083 C  
BRANCH  26  27
HETATM   27  C   UNL     1      -5.889  11.534  68.514  1.00  0.00    -0.045 C  
BRANCH  27  28
HETATM   28  C   UNL     1      -7.102  11.403  69.436  1.00  0.00    -0.065 C  
BRANCH  28  29
HETATM   29  C   UNL     1      -7.593   9.962  69.589  1.00  0.00    -0.136 C  
BRANCH  29  30
HETATM   30  C   UNL     1      -6.561   8.982  70.169  1.00  0.00    -0.045 C  
BRANCH  30  31
HETATM   31  C   UNL     1      -6.059   9.314  71.567  1.00  0.00    -0.063 C  
BRANCH  31  32
HETATM   32  S   UNL     1      -5.879   7.828  72.607  1.00  0.00    -0.042 S  
HETATM   33  O   UNL     1      -5.913   8.281  74.037  1.00  0.00    -0.093 OA 
BRANCH  32  34
HETATM   34  C   UNL     1      -7.499   7.080  72.243  1.00  0.00    -0.086 C  
BRANCH  34  35
HETATM   35  C   UNL     1      -8.287   6.779  73.513  1.00  0.00    -0.130 C  
BRANCH  35  36
HETATM   36  C   UNL     1      -9.463   5.843  73.237  1.00  0.00    -0.142 C  
BRANCH  36  37
HETATM   37  C   UNL     1      -9.043   4.390  73.024  1.00  0.00    -0.119 C  
HETATM   38  F   UNL     1      -7.852   4.188  73.658  1.00  0.00    -0.079 F  
HETATM   39  C   UNL     1      -8.954   3.968  71.550  1.00  0.00    -0.114 C  
HETATM   40  F   UNL     1      -9.946   3.608  73.687  1.00  0.00    -0.128 F  
HETATM   41  F   UNL     1      -9.404   4.922  70.708  1.00  0.00    -0.159 F  
HETATM   42  F   UNL     1      -7.678   3.681  71.201  1.00  0.00    -0.047 F  
HETATM   43  F   UNL     1      -9.685   2.852  71.301  1.00  0.00    -0.204 F  
ENDBRANCH  36  37
ENDBRANCH  35  36
ENDBRANCH  34  35
ENDBRANCH  32  34
ENDBRANCH  31  32
ENDBRANCH  30  31
ENDBRANCH  29  30
ENDBRANCH  28  29
ENDBRANCH  27  28
ENDBRANCH  26  27
ENDBRANCH  25  26
ENDBRANCH  24  25
ENDBRANCH  23  24
ENDBRANCH  21  23
TORSDOF 14
ENDMDL
MODEL      223
REMARK 921   NORMALIZED FREE ENERGY PREDICTED BY IDOCK:   -3.18 KCAL/MOL
REMARK 922        TOTAL FREE ENERGY PREDICTED BY IDOCK:   -9.08 KCAL/MOL
REMARK 923 INTER-LIGAND FREE ENERGY PREDICTED BY IDOCK:   -9.04 KCAL/MOL
REMARK 924 INTRA-LIGAND FREE ENERGY PREDICTED BY IDOCK:   -0.03 KCAL/MOL
REMARK 927      BINDING AFFINITY PREDICTED BY RF-SCORE:    0.00 PKD
ROOT
HETATM    1  C   UNL     1      -9.349   3.754  66.420  1.00  0.00    -0.197 C  
HETATM    2  C   UNL     1     -10.173   4.505  65.534  1.00  0.00    -0.251 C  
HETATM    3  C   UNL     1      -8.871   5.218  65.780  1.00  0.00    -0.149 C  
HETATM    4  C   UNL     1      -7.560   3.949  66.673  1.00  0.00    -0.088 C  
HETATM    5  O   UNL     1      -6.153   3.855  66.921  1.00  0.00    -0.026 OA 
HETATM    6  C   UNL     1      -7.794   3.849  65.323  1.00  0.00    -0.089 C  
HETATM    7  C   UNL     1      -6.699   5.330  65.288  1.00  0.00    -0.048 C  
HETATM    8  C   UNL     1      -7.532   2.739  64.369  1.00  0.00    -0.070 C  
HETATM    9  H   UNL     1      -5.540   3.262  67.338  1.00  0.00     0.000 HD 
HETATM   10  C   UNL     1      -6.721   6.226  66.832  1.00  0.00    -0.061 C  
HETATM   11  C   UNL     1      -7.990   6.110  67.973  1.00  0.00    -0.110 C  
HETATM   12  C   UNL     1      -7.777   6.669  69.385  1.00  0.00    -0.101 A  
HETATM   13  C   UNL     1      -6.776   7.630  69.623  1.00  0.00    -0.040 A  
HETATM   14  C   UNL     1      -6.691   8.307  70.845  1.00  0.00    -0.040 A  
HETATM   15  C   UNL     1      -7.603   8.022  71.848  1.00  0.00    -0.089 A  
HETATM   16  C   UNL     1      -8.606   7.086  71.641  1.00  0.00    -0.116 A  
HETATM   17  O   UNL     1      -7.564   8.657  73.054  1.00  0.00    -0.352 OA 
HETATM   18  C   UNL     1      -8.732   6.426  70.404  1.00  0.00    -0.147 A  
HETATM   19  H   UNL     1      -8.189   8.462  73.742  1.00  0.00     0.000 HD 
HETATM   20  C   UNL     1      -9.907   5.476  70.245  1.00  0.00    -0.260 C  
HETATM   21  C   UNL     1     -10.367   5.208  68.792  1.00  0.00    -0.162 C  
HETATM   22  C   UNL     1      -9.103   4.747  68.029  1.00  0.00    -0.137 C  
ENDROOT
BRANCH  21  23
HETATM   23  C   UNL     1     -11.036   6.455  68.178  1.00  0.00    -0.358 C  
BRANCH  23  24
HETATM   24  C   UNL     1     -10.169   7.312  67.275  1.00  0.00    -0.323 C  
BRANCH  24  25
HETATM   25  C   UNL     1     -10.511   8.799  67.453  1.00  0.00    -0.349 C  
BRANCH  25  26
HETATM   26  C   UNL     1     -10.360   9.323  68.892  1.00  0.00    -0.231 C  
BRANCH  26  27
HETATM   27  C   UNL     1     -11.292  10.486  69.231  1.00  0.00    -0.325 C  
BRANCH  27  28
HETATM   28  C   UNL     1     -11.673  11.289  67.987  1.00  0.00    -0.305 C  
BRANCH  28  29
HETATM   29  C   UNL     1     -11.983  12.758  68.286  1.00  0.00    -0.276 C  
BRANCH  29  30
HETATM   30  C   UNL     1     -12.221  13.636  67.047  1.00  0.00    -0.373 C  
BRANCH  30  31
HETATM   31  C   UNL     1     -11.158  14.693  66.783  1.00  0.00    -0.335 C  
BRANCH  31  32
HETATM   32  S   UNL     1      -9.739  14.544  67.917  1.00  0.00    -0.222 S  
HETATM   33  O   UNL     1      -8.503  14.852  67.125  1.00  0.00    -0.193 OA 
BRANCH  32  34
HETATM   34  C   UNL     1     -10.096  16.006  68.943  1.00  0.00    -0.229 C  
BRANCH  34  35
HETATM   35  C   UNL     1     -11.511  15.974  69.509  1.00  0.00    -0.326 C  
BRANCH  35  36
HETATM   36  C   UNL     1     -11.603  16.727  70.835  1.00  0.00     0.499 C  
BRANCH  36  37
HETATM   37  C   UNL     1     -11.955  15.828  72.019  1.00  0.00    -0.479 C  
HETATM   38  F   UNL     1     -10.987  14.873  72.137  1.00  0.00    -0.354 F  
HETATM   39  C   UNL     1     -13.347  15.186  71.933  1.00  0.00    -0.399 C  
HETATM   40  F   UNL     1     -11.853  16.590  73.148  1.00  0.00    -0.565 F  
HETATM   41  F   UNL     1     -14.069  15.648  70.890  1.00  0.00    -0.478 F  
HETATM   42  F   UNL     1     -13.257  13.841  71.806  1.00  0.00    -0.383 F  
HETATM   43  F   UNL     1     -14.080  15.423  73.050  1.00  0.00    -0.505 F  
ENDBRANCH  36  37
ENDBRANCH  35  36
ENDBRANCH  34  35
ENDBRANCH  32  34
ENDBRANCH  31  32
ENDBRANCH  30  31
ENDBRANCH  29  30
ENDBRANCH  28  29
ENDBRANCH  27  28
ENDBRANCH  26  27
ENDBRANCH  25  26
ENDBRANCH  24  25
ENDBRANCH  23  24
ENDBRANCH  21  23
TORSDOF 14
ENDMDL
MODEL      224
REMARK 921   NORMALIZED FREE ENERGY PREDICTED BY IDOCK:   -3.17 KCAL/MOL
REMARK 922        TOTAL FREE ENERGY PREDICTED BY IDOCK:   -9.06 KCAL/MOL
REMARK 923 INTER-LIGAND FREE ENERGY PREDICTED BY IDOCK:   -9.73 KCAL/MOL
REMARK 924 INTRA-LIGAND FREE ENERGY PREDICTED BY IDOCK:    0.67 KCAL/MOL
REMARK 927      BINDING AFFINITY PREDICTED BY RF-SCORE:    0.00 PKD
ROOT
HETATM    1  C   UNL     1      -8.630  14.783  66.892  1.00  0.00    -0.254 C  
HETATM    2  C   UNL     1      -9.275  14.642  65.631  1.00  0.00     0.252 C  
HETATM    3  C   UNL     1      -9.980  15.668  66.475  1.00  0.00    -0.287 C  
HETATM    4  C   UNL     1      -8.810  16.165  68.059  1.00  0.00    -0.181 C  
HETATM    5  O   UNL     1      -8.714  17.201  69.042  1.00  0.00    -0.220 OA 
HETATM    6  C   UNL     1      -8.534  16.685  66.818  1.00  0.00    -0.270 C  
HETATM    7  C   UNL     1      -9.968  17.763  67.239  1.00  0.00    -0.324 C  
HETATM    8  C   UNL     1      -7.299  17.311  66.277  1.00  0.00    -0.342 C  
HETATM    9  H   UNL     1      -8.167  17.434  69.783  1.00  0.00     0.000 HD 
HETATM   10  C   UNL     1     -11.065  17.000  68.422  1.00  0.00    -0.164 C  
HETATM   11  C   UNL     1     -11.138  15.312  68.691  1.00  0.00    -0.282 C  
HETATM   12  C   UNL     1     -11.877  14.785  69.927  1.00  0.00    -0.364 A  
HETATM   13  C   UNL     1     -12.835  15.587  70.576  1.00  0.00    -0.402 A  
HETATM   14  C   UNL     1     -13.668  15.067  71.572  1.00  0.00    -0.553 A  
HETATM   15  C   UNL     1     -13.546  13.736  71.938  1.00  0.00    -0.429 A  
HETATM   16  C   UNL     1     -12.617  12.918  71.311  1.00  0.00    -0.352 A  
HETATM   17  O   UNL     1     -14.337  13.180  72.899  1.00  0.00    -0.553 OA 
HETATM   18  C   UNL     1     -11.799  13.414  70.278  1.00  0.00    -0.316 A  
HETATM   19  H   UNL     1     -14.253  12.268  73.151  1.00  0.00     0.000 HD 
HETATM   20  C   UNL     1     -10.868  12.424  69.600  1.00  0.00     0.244 C  
HETATM   21  C   UNL     1     -10.418  12.794  68.166  1.00  0.00    -0.244 C  
HETATM   22  C   UNL     1      -9.824  14.219  68.266  1.00  0.00    -0.235 C  
ENDROOT
BRANCH  21  23
HETATM   23  C   UNL     1     -11.587  12.683  67.166  1.00  0.00    -0.434 C  
BRANCH  23  24
HETATM   24  C   UNL     1     -12.089  13.983  66.566  1.00  0.00    -0.488 C  
BRANCH  24  25
HETATM   25  C   UNL     1     -13.034  13.702  65.387  1.00  0.00    -0.331 C  
BRANCH  25  26
HETATM   26  C   UNL     1     -12.375  13.796  64.001  1.00  0.00    -0.370 C  
BRANCH  26  27
HETATM   27  C   UNL     1     -11.038  13.062  63.896  1.00  0.00    -0.411 C  
BRANCH  27  28
HETATM   28  C   UNL     1     -11.221  11.544  63.906  1.00  0.00    -0.439 C  
BRANCH  28  29
HETATM   29  C   UNL     1      -9.909  10.776  64.074  1.00  0.00    -0.390 C  
BRANCH  29  30
HETATM   30  C   UNL     1      -9.223  10.953  65.438  1.00  0.00    -0.231 C  
BRANCH  30  31
HETATM   31  C   UNL     1      -8.103   9.967  65.738  1.00  0.00    -0.123 C  
BRANCH  31  32
HETATM   32  S   UNL     1      -8.506   8.870  67.137  1.00  0.00    -0.106 S  
HETATM   33  O   UNL     1      -9.693   9.462  67.839  1.00  0.00    -0.146 OA 
BRANCH  32  34
HETATM   34  C   UNL     1      -9.110   7.452  66.167  1.00  0.00    -0.126 C  
BRANCH  34  35
HETATM   35  C   UNL     1      -7.978   6.739  65.435  1.00  0.00    -0.121 C  
BRANCH  35  36
HETATM   36  C   UNL     1      -7.513   5.496  66.193  1.00  0.00    -0.082 C  
BRANCH  36  37
HETATM   37  C   UNL     1      -8.250   4.224  65.778  1.00  0.00    -0.109 C  
HETATM   38  F   UNL     1      -9.587   4.493  65.741  1.00  0.00    -0.140 F  
HETATM   39  C   UNL     1      -7.962   3.008  66.671  1.00  0.00    -0.077 C  
HETATM   40  F   UNL     1      -7.896   3.956  64.486  1.00  0.00    -0.080 F  
HETATM   41  F   UNL     1      -6.995   3.249  67.582  1.00  0.00    -0.047 F  
HETATM   42  F   UNL     1      -9.072   2.624  67.344  1.00  0.00    -0.141 F  
HETATM   43  F   UNL     1      -7.557   1.935  65.946  1.00  0.00    -0.064 F  
ENDBRANCH  36  37
ENDBRANCH  35  36
ENDBRANCH  34  35
ENDBRANCH  32  34
ENDBRANCH  31  32
ENDBRANCH  30  31
ENDBRANCH  29  30
ENDBRANCH  28  29
ENDBRANCH  27  28
ENDBRANCH  26  27
ENDBRANCH  25  26
ENDBRANCH  24  25
ENDBRANCH  23  24
ENDBRANCH  21  23
TORSDOF 14
ENDMDL
MODEL      225
REMARK 921   NORMALIZED FREE ENERGY PREDICTED BY IDOCK:   -3.11 KCAL/MOL
REMARK 922        TOTAL FREE ENERGY PREDICTED BY IDOCK:   -8.95 KCAL/MOL
REMARK 923 INTER-LIGAND FREE ENERGY PREDICTED BY IDOCK:   -6.98 KCAL/MOL
REMARK 924 INTRA-LIGAND FREE ENERGY PREDICTED BY IDOCK:   -1.97 KCAL/MOL
REMARK 927      BINDING AFFINITY PREDICTED BY RF-SCORE:    0.00 PKD
ROOT
HETATM    1  C   UNL     1     -11.788  15.308  66.338  1.00  0.00     0.194 C  
HETATM    2  C   UNL     1     -10.448  15.787  66.311  1.00  0.00    -0.315 C  
HETATM    3  C   UNL     1     -10.484  14.298  66.098  1.00  0.00    -0.294 C  
HETATM    4  C   UNL     1     -12.389  13.714  65.705  1.00  0.00    -0.482 C  
HETATM    5  O   UNL     1     -13.077  12.581  65.161  1.00  0.00    -0.659 OA 
HETATM    6  C   UNL     1     -11.643  14.312  64.720  1.00  0.00    -0.404 C  
HETATM    7  C   UNL     1     -10.868  12.642  64.654  1.00  0.00    -0.349 C  
HETATM    8  C   UNL     1     -12.053  14.964  63.448  1.00  0.00     1.067 C  
HETATM    9  H   UNL     1     -13.967  12.308  64.978  1.00  0.00     0.000 HD 
HETATM   10  C   UNL     1     -11.026  11.760  66.199  1.00  0.00    -0.355 C  
HETATM   11  C   UNL     1     -11.310  12.529  67.701  1.00  0.00    -0.362 C  
HETATM   12  C   UNL     1     -11.735  11.680  68.905  1.00  0.00    -0.397 A  
HETATM   13  C   UNL     1     -11.474  10.297  68.923  1.00  0.00    -0.190 A  
HETATM   14  C   UNL     1     -11.659   9.535  70.082  1.00  0.00    -0.156 A  
HETATM   15  C   UNL     1     -12.118  10.149  71.236  1.00  0.00    -0.394 A  
HETATM   16  C   UNL     1     -12.376  11.512  71.252  1.00  0.00    -0.314 A  
HETATM   17  O   UNL     1     -12.311   9.451  72.392  1.00  0.00    -0.278 OA 
HETATM   18  C   UNL     1     -12.155  12.301  70.107  1.00  0.00    -0.364 A  
HETATM   19  H   UNL     1     -12.626   9.872  73.183  1.00  0.00     0.000 HD 
HETATM   20  C   UNL     1     -12.391  13.796  70.243  1.00  0.00    -0.407 C  
HETATM   21  C   UNL     1     -11.639  14.693  69.231  1.00  0.00    -0.335 C  
HETATM   22  C   UNL     1     -12.001  14.143  67.832  1.00  0.00    -0.378 C  
ENDROOT
BRANCH  21  23
HETATM   23  C   UNL     1     -10.122  14.706  69.515  1.00  0.00     0.004 C  
BRANCH  23  24
HETATM   24  C   UNL     1      -9.425  16.049  69.403  1.00  0.00    -0.226 C  
BRANCH  24  25
HETATM   25  C   UNL     1      -7.901  15.862  69.359  1.00  0.00    -0.191 C  
BRANCH  25  26
HETATM   26  C   UNL     1      -7.397  14.982  68.201  1.00  0.00    -0.119 C  
BRANCH  26  27
HETATM   27  C   UNL     1      -7.023  13.559  68.619  1.00  0.00    -0.100 C  
BRANCH  27  28
HETATM   28  C   UNL     1      -6.180  12.858  67.552  1.00  0.00    -0.154 C  
BRANCH  28  29
HETATM   29  C   UNL     1      -5.542  11.557  68.043  1.00  0.00    -0.043 C  
BRANCH  29  30
HETATM   30  C   UNL     1      -5.867  10.315  67.199  1.00  0.00    -0.050 C  
BRANCH  30  31
HETATM   31  C   UNL     1      -7.123   9.559  67.607  1.00  0.00    -0.081 C  
BRANCH  31  32
HETATM   32  S   UNL     1      -7.113   9.104  69.372  1.00  0.00    -0.054 S  
HETATM   33  O   UNL     1      -7.786  10.215  70.122  1.00  0.00    -0.165 OA 
BRANCH  32  34
HETATM   34  C   UNL     1      -8.301   7.727  69.274  1.00  0.00    -0.136 C  
BRANCH  34  35
HETATM   35  C   UNL     1      -7.616   6.405  68.942  1.00  0.00    -0.100 C  
BRANCH  35  36
HETATM   36  C   UNL     1      -8.030   5.300  69.912  1.00  0.00    -0.083 C  
BRANCH  36  37
HETATM   37  C   UNL     1      -7.524   3.917  69.505  1.00  0.00    -0.053 C  
HETATM   38  F   UNL     1      -8.317   3.446  68.500  1.00  0.00    -0.076 F  
HETATM   39  C   UNL     1      -7.449   2.907  70.660  1.00  0.00    -0.036 C  
HETATM   40  F   UNL     1      -6.290   4.088  68.945  1.00  0.00    -0.029 F  
HETATM   41  F   UNL     1      -7.710   3.468  71.859  1.00  0.00    -0.052 F  
HETATM   42  F   UNL     1      -8.329   1.895  70.480  1.00  0.00    -0.048 F  
HETATM   43  F   UNL     1      -6.219   2.341  70.754  1.00  0.00    -0.017 F  
ENDBRANCH  36  37
ENDBRANCH  35  36
ENDBRANCH  34  35
ENDBRANCH  32  34
ENDBRANCH  31  32
ENDBRANCH  30  31
ENDBRANCH  29  30
ENDBRANCH  28  29
ENDBRANCH  27  28
ENDBRANCH  26  27
ENDBRANCH  25  26
ENDBRANCH  24  25
ENDBRANCH  23  24
ENDBRANCH  21  23
TORSDOF 14
ENDMDL
MODEL      226
REMARK 921   NORMALIZED FREE ENERGY PREDICTED BY IDOCK:   -3.09 KCAL/MOL
REMARK 922        TOTAL FREE ENERGY PREDICTED BY IDOCK:   -8.91 KCAL/MOL
REMARK 923 INTER-LIGAND FREE ENERGY PREDICTED BY IDOCK:   -7.64 KCAL/MOL
REMARK 924 INTRA-LIGAND FREE ENERGY PREDICTED BY IDOCK:   -1.27 KCAL/MOL
REMARK 927      BINDING AFFINITY PREDICTED BY RF-SCORE:    0.00 PKD
ROOT
HETATM    1  C   UNL     1     -10.950  14.878  65.720  1.00  0.00    -0.345 C  
HETATM    2  C   UNL     1     -12.099  14.759  66.552  1.00  0.00    -0.121 C  
HETATM    3  C   UNL     1     -10.860  14.947  67.384  1.00  0.00    -0.304 C  
HETATM    4  C   UNL     1      -9.327  15.546  66.193  1.00  0.00    -0.345 C  
HETATM    5  O   UNL     1      -8.033  16.144  66.325  1.00  0.00    -0.271 OA 
HETATM    6  C   UNL     1     -10.289  16.450  66.572  1.00  0.00    -0.306 C  
HETATM    7  C   UNL     1      -9.348  16.393  68.154  1.00  0.00    -0.209 C  
HETATM    8  C   UNL     1     -10.661  17.772  66.003  1.00  0.00    -0.229 C  
HETATM    9  H   UNL     1      -7.316  16.424  65.768  1.00  0.00     0.000 HD 
HETATM   10  C   UNL     1      -8.454  14.861  68.357  1.00  0.00    -0.153 C  
HETATM   11  C   UNL     1      -8.855  13.417  67.533  1.00  0.00    -0.210 C  
HETATM   12  C   UNL     1      -7.856  12.254  67.535  1.00  0.00    -0.166 A  
HETATM   13  C   UNL     1      -6.858  12.180  68.526  1.00  0.00    -0.086 A  
HETATM   14  C   UNL     1      -6.068  11.036  68.680  1.00  0.00    -0.043 A  
HETATM   15  C   UNL     1      -6.260   9.954  67.836  1.00  0.00    -0.051 A  
HETATM   16  C   UNL     1      -7.241   9.994  66.856  1.00  0.00    -0.091 A  
HETATM   17  O   UNL     1      -5.518   8.816  67.948  1.00  0.00    -0.034 OA 
HETATM   18  C   UNL     1      -8.074  11.120  66.714  1.00  0.00    -0.155 A  
HETATM   19  H   UNL     1      -5.650   8.074  67.370  1.00  0.00     0.000 HD 
HETATM   20  C   UNL     1      -9.169  11.041  65.664  1.00  0.00    -0.231 C  
HETATM   21  C   UNL     1     -10.383  11.975  65.883  1.00  0.00    -0.278 C  
HETATM   22  C   UNL     1      -9.795  13.397  66.043  1.00  0.00    -0.273 C  
ENDROOT
BRANCH  21  23
HETATM   23  C   UNL     1     -11.230  11.519  67.088  1.00  0.00    -0.365 C  
BRANCH  23  24
HETATM   24  C   UNL     1     -10.551  10.593  68.080  1.00  0.00    -0.237 C  
BRANCH  24  25
HETATM   25  C   UNL     1     -11.277   9.241  68.138  1.00  0.00     0.218 C  
BRANCH  25  26
HETATM   26  C   UNL     1     -10.348   8.016  68.195  1.00  0.00    -0.250 C  
BRANCH  26  27
HETATM   27  C   UNL     1     -11.059   6.711  68.550  1.00  0.00    -0.284 C  
BRANCH  27  28
HETATM   28  C   UNL     1     -11.016   6.432  70.054  1.00  0.00    -0.397 C  
BRANCH  28  29
HETATM   29  C   UNL     1     -12.147   7.112  70.828  1.00  0.00    -0.331 C  
BRANCH  29  30
HETATM   30  C   UNL     1     -11.707   8.268  71.740  1.00  0.00    -0.357 C  
BRANCH  30  31
HETATM   31  C   UNL     1     -10.207   8.522  71.793  1.00  0.00    -0.282 C  
BRANCH  31  32
HETATM   32  S   UNL     1      -9.432   7.780  73.266  1.00  0.00    -0.288 S  
HETATM   33  O   UNL     1     -10.508   7.048  74.013  1.00  0.00    -0.366 OA 
BRANCH  32  34
HETATM   34  C   UNL     1      -8.429   6.526  72.405  1.00  0.00    -0.118 C  
BRANCH  34  35
HETATM   35  C   UNL     1      -8.088   5.349  73.312  1.00  0.00    -0.111 C  
BRANCH  35  36
HETATM   36  C   UNL     1      -8.468   4.016  72.669  1.00  0.00    -0.100 C  
BRANCH  36  37
HETATM   37  C   UNL     1      -7.572   3.633  71.493  1.00  0.00    -0.056 C  
HETATM   38  F   UNL     1      -6.463   4.427  71.521  1.00  0.00    -0.016 F  
HETATM   39  C   UNL     1      -8.261   3.707  70.123  1.00  0.00    -0.052 C  
HETATM   40  F   UNL     1      -7.118   2.366  71.728  1.00  0.00    -0.028 F  
HETATM   41  F   UNL     1      -9.584   3.961  70.219  1.00  0.00    -0.212 F  
HETATM   42  F   UNL     1      -7.713   4.676  69.353  1.00  0.00    -0.057 F  
HETATM   43  F   UNL     1      -8.137   2.545  69.433  1.00  0.00    -0.048 F  
ENDBRANCH  36  37
ENDBRANCH  35  36
ENDBRANCH  34  35
ENDBRANCH  32  34
ENDBRANCH  31  32
ENDBRANCH  30  31
ENDBRANCH  29  30
ENDBRANCH  28  29
ENDBRANCH  27  28
ENDBRANCH  26  27
ENDBRANCH  25  26
ENDBRANCH  24  25
ENDBRANCH  23  24
ENDBRANCH  21  23
TORSDOF 14
ENDMDL
MODEL      227
REMARK 921   NORMALIZED FREE ENERGY PREDICTED BY IDOCK:   -3.08 KCAL/MOL
REMARK 922        TOTAL FREE ENERGY PREDICTED BY IDOCK:   -8.90 KCAL/MOL
REMARK 923 INTER-LIGAND FREE ENERGY PREDICTED BY IDOCK:   -8.18 KCAL/MOL
REMARK 924 INTRA-LIGAND FREE ENERGY PREDICTED BY IDOCK:   -0.72 KCAL/MOL
REMARK 927      BINDING AFFINITY PREDICTED BY RF-SCORE:    0.00 PKD
ROOT
HETATM    1  C   UNL     1      -9.474   3.938  69.389  1.00  0.00    -0.260 C  
HETATM    2  C   UNL     1     -10.046   4.651  68.298  1.00  0.00    -0.070 C  
HETATM    3  C   UNL     1      -8.573   4.938  68.405  1.00  0.00    -0.101 C  
HETATM    4  C   UNL     1      -7.710   3.598  69.664  1.00  0.00    -0.051 C  
HETATM    5  O   UNL     1      -6.401   3.121  69.994  1.00  0.00    -0.027 OA 
HETATM    6  C   UNL     1      -8.024   3.224  68.381  1.00  0.00    -0.062 C  
HETATM    7  C   UNL     1      -6.508   4.200  68.003  1.00  0.00    -0.038 C  
HETATM    8  C   UNL     1      -8.182   1.877  67.771  1.00  0.00    -0.074 C  
HETATM    9  H   UNL     1      -5.997   2.495  70.582  1.00  0.00     0.000 HD 
HETATM   10  C   UNL     1      -6.167   5.433  69.248  1.00  0.00    -0.029 C  
HETATM   11  C   UNL     1      -7.352   6.046  70.319  1.00  0.00    -0.088 C  
HETATM   12  C   UNL     1      -6.905   6.860  71.539  1.00  0.00    -0.065 A  
HETATM   13  C   UNL     1      -5.636   7.469  71.558  1.00  0.00    -0.035 A  
HETATM   14  C   UNL     1      -5.280   8.381  72.557  1.00  0.00    -0.040 A  
HETATM   15  C   UNL     1      -6.189   8.688  73.557  1.00  0.00    -0.087 A  
HETATM   16  C   UNL     1      -7.451   8.112  73.561  1.00  0.00    -0.197 A  
HETATM   17  O   UNL     1      -5.891   9.574  74.550  1.00  0.00    -0.301 OA 
HETATM   18  C   UNL     1      -7.841   7.224  72.540  1.00  0.00    -0.104 A  
HETATM   19  H   UNL     1      -6.514   9.784  75.236  1.00  0.00     0.000 HD 
HETATM   20  C   UNL     1      -9.267   6.703  72.586  1.00  0.00    -0.148 C  
HETATM   21  C   UNL     1      -9.854   6.222  71.237  1.00  0.00    -0.197 C  
HETATM   22  C   UNL     1      -8.845   5.188  70.685  1.00  0.00    -0.150 C  
ENDROOT
BRANCH  21  23
HETATM   23  C   UNL     1     -10.106   7.407  70.282  1.00  0.00    -0.197 C  
BRANCH  23  24
HETATM   24  C   UNL     1      -9.576   8.758  70.727  1.00  0.00    -0.256 C  
BRANCH  24  25
HETATM   25  C   UNL     1     -10.727   9.656  71.206  1.00  0.00    -0.317 C  
BRANCH  25  26
HETATM   26  C   UNL     1     -11.732  10.050  70.110  1.00  0.00    -0.285 C  
BRANCH  26  27
HETATM   27  C   UNL     1     -11.313  11.272  69.292  1.00  0.00    -0.354 C  
BRANCH  27  28
HETATM   28  C   UNL     1     -12.005  11.306  67.928  1.00  0.00    -0.080 C  
BRANCH  28  29
HETATM   29  C   UNL     1     -11.066  11.687  66.782  1.00  0.00    -0.366 C  
BRANCH  29  30
HETATM   30  C   UNL     1     -11.367  13.040  66.118  1.00  0.00    -0.349 C  
BRANCH  30  31
HETATM   31  C   UNL     1     -11.739  14.166  67.072  1.00  0.00    -0.405 C  
BRANCH  31  32
HETATM   32  S   UNL     1     -10.278  15.080  67.665  1.00  0.00    -0.237 S  
HETATM   33  O   UNL     1      -9.310  14.068  68.205  1.00  0.00    -0.199 OA 
BRANCH  32  34
HETATM   34  C   UNL     1      -9.648  15.610  66.041  1.00  0.00    -0.351 C  
BRANCH  34  35
HETATM   35  C   UNL     1      -9.748  17.120  65.856  1.00  0.00    -0.140 C  
BRANCH  35  36
HETATM   36  C   UNL     1      -9.698  17.854  67.195  1.00  0.00    -0.289 C  
BRANCH  36  37
HETATM   37  C   UNL     1     -10.445  19.186  67.183  1.00  0.00    -0.447 C  
HETATM   38  F   UNL     1     -10.424  19.681  65.911  1.00  0.00    -0.493 F  
HETATM   39  C   UNL     1      -9.907  20.222  68.180  1.00  0.00    -0.266 C  
HETATM   40  F   UNL     1     -11.758  18.914  67.445  1.00  0.00     0.110 F  
HETATM   41  F   UNL     1      -8.955  19.715  68.993  1.00  0.00    -0.392 F  
HETATM   42  F   UNL     1      -9.373  21.287  67.537  1.00  0.00    -0.474 F  
HETATM   43  F   UNL     1     -10.888  20.705  68.984  1.00  0.00    -0.267 F  
ENDBRANCH  36  37
ENDBRANCH  35  36
ENDBRANCH  34  35
ENDBRANCH  32  34
ENDBRANCH  31  32
ENDBRANCH  30  31
ENDBRANCH  29  30
ENDBRANCH  28  29
ENDBRANCH  27  28
ENDBRANCH  26  27
ENDBRANCH  25  26
ENDBRANCH  24  25
ENDBRANCH  23  24
ENDBRANCH  21  23
TORSDOF 14
ENDMDL
MODEL      228
REMARK 921   NORMALIZED FREE ENERGY PREDICTED BY IDOCK:   -3.08 KCAL/MOL
REMARK 922        TOTAL FREE ENERGY PREDICTED BY IDOCK:   -8.89 KCAL/MOL
REMARK 923 INTER-LIGAND FREE ENERGY PREDICTED BY IDOCK:   -6.49 KCAL/MOL
REMARK 924 INTRA-LIGAND FREE ENERGY PREDICTED BY IDOCK:   -2.40 KCAL/MOL
REMARK 927      BINDING AFFINITY PREDICTED BY RF-SCORE:    0.00 PKD
ROOT
HETATM    1  C   UNL     1     -12.046  12.995  65.572  1.00  0.00    -0.501 C  
HETATM    2  C   UNL     1     -13.033  13.314  66.546  1.00  0.00     0.962 C  
HETATM    3  C   UNL     1     -11.773  14.099  66.791  1.00  0.00    -0.432 C  
HETATM    4  C   UNL     1     -10.562  13.962  65.165  1.00  0.00    -0.379 C  
HETATM    5  O   UNL     1      -9.422  14.631  64.614  1.00  0.00    -0.157 OA 
HETATM    6  C   UNL     1     -11.644  14.807  65.139  1.00  0.00    -0.358 C  
HETATM    7  C   UNL     1     -10.530  15.845  66.175  1.00  0.00    -0.336 C  
HETATM    8  C   UNL     1     -12.360  15.437  63.999  1.00  0.00     0.093 C  
HETATM    9  H   UNL     1      -8.856  14.567  63.854  1.00  0.00     0.000 HD 
HETATM   10  C   UNL     1      -9.306  14.873  67.039  1.00  0.00    -0.240 C  
HETATM   11  C   UNL     1      -9.481  13.201  67.356  1.00  0.00    -0.214 C  
HETATM   12  C   UNL     1      -8.260  12.399  67.822  1.00  0.00    -0.163 A  
HETATM   13  C   UNL     1      -7.158  13.058  68.400  1.00  0.00    -0.103 A  
HETATM   14  C   UNL     1      -6.125  12.346  69.019  1.00  0.00    -0.077 A  
HETATM   15  C   UNL     1      -6.178  10.961  69.058  1.00  0.00    -0.043 A  
HETATM   16  C   UNL     1      -7.255  10.284  68.505  1.00  0.00    -0.080 A  
HETATM   17  O   UNL     1      -5.198  10.222  69.652  1.00  0.00    -0.038 OA 
HETATM   18  C   UNL     1      -8.323  10.986  67.915  1.00  0.00    -0.124 A  
HETATM   19  H   UNL     1      -5.234   9.274  69.679  1.00  0.00     0.000 HD 
HETATM   20  C   UNL     1      -9.493  10.162  67.406  1.00  0.00    -0.175 C  
HETATM   21  C   UNL     1     -10.846  10.906  67.296  1.00  0.00    -0.342 C  
HETATM   22  C   UNL     1     -10.566  12.162  66.438  1.00  0.00    -0.275 C  
ENDROOT
BRANCH  21  23
HETATM   23  C   UNL     1     -11.422  11.228  68.690  1.00  0.00    -0.362 C  
BRANCH  23  24
HETATM   24  C   UNL     1     -10.686  10.639  69.879  1.00  0.00    -0.260 C  
BRANCH  24  25
HETATM   25  C   UNL     1     -11.506   9.505  70.512  1.00  0.00    -0.337 C  
BRANCH  25  26
HETATM   26  C   UNL     1     -11.069   8.090  70.097  1.00  0.00    -0.191 C  
BRANCH  26  27
HETATM   27  C   UNL     1     -11.907   6.973  70.720  1.00  0.00    -0.401 C  
BRANCH  27  28
HETATM   28  C   UNL     1     -11.076   5.713  70.970  1.00  0.00    -0.202 C  
BRANCH  28  29
HETATM   29  C   UNL     1     -10.900   5.388  72.454  1.00  0.00    -0.297 C  
BRANCH  29  30
HETATM   30  C   UNL     1      -9.452   5.116  72.893  1.00  0.00    -0.158 C  
BRANCH  30  31
HETATM   31  C   UNL     1      -8.377   5.761  72.030  1.00  0.00    -0.122 C  
BRANCH  31  32
HETATM   32  S   UNL     1      -7.351   4.526  71.167  1.00  0.00    -0.049 S  
HETATM   33  O   UNL     1      -7.992   3.186  71.383  1.00  0.00    -0.057 OA 
BRANCH  32  34
HETATM   34  C   UNL     1      -7.741   5.037  69.462  1.00  0.00    -0.067 C  
BRANCH  34  35
HETATM   35  C   UNL     1      -8.719   4.080  68.790  1.00  0.00    -0.131 C  
BRANCH  35  36
HETATM   36  C   UNL     1      -9.490   4.765  67.662  1.00  0.00    -0.176 C  
BRANCH  36  37
HETATM   37  C   UNL     1      -8.815   4.628  66.299  1.00  0.00    -0.113 C  
HETATM   38  F   UNL     1      -7.862   3.656  66.385  1.00  0.00    -0.085 F  
HETATM   39  C   UNL     1      -8.216   5.933  65.756  1.00  0.00    -0.130 C  
HETATM   40  F   UNL     1      -9.753   4.141  65.432  1.00  0.00    -0.151 F  
HETATM   41  F   UNL     1      -8.520   7.003  66.522  1.00  0.00    -0.109 F  
HETATM   42  F   UNL     1      -6.867   5.855  65.678  1.00  0.00    -0.050 F  
HETATM   43  F   UNL     1      -8.662   6.211  64.505  1.00  0.00    -0.064 F  
ENDBRANCH  36  37
ENDBRANCH  35  36
ENDBRANCH  34  35
ENDBRANCH  32  34
ENDBRANCH  31  32
ENDBRANCH  30  31
ENDBRANCH  29  30
ENDBRANCH  28  29
ENDBRANCH  27  28
ENDBRANCH  26  27
ENDBRANCH  25  26
ENDBRANCH  24  25
ENDBRANCH  23  24
ENDBRANCH  21  23
TORSDOF 14
ENDMDL
MODEL      229
REMARK 921   NORMALIZED FREE ENERGY PREDICTED BY IDOCK:   -3.03 KCAL/MOL
REMARK 922        TOTAL FREE ENERGY PREDICTED BY IDOCK:   -8.81 KCAL/MOL
REMARK 923 INTER-LIGAND FREE ENERGY PREDICTED BY IDOCK:   -8.53 KCAL/MOL
REMARK 924 INTRA-LIGAND FREE ENERGY PREDICTED BY IDOCK:   -0.28 KCAL/MOL
REMARK 927      BINDING AFFINITY PREDICTED BY RF-SCORE:    0.00 PKD
ROOT
HETATM    1  C   UNL     1     -10.446  11.818  65.570  1.00  0.00    -0.311 C  
HETATM    2  C   UNL     1     -11.225  11.166  66.567  1.00  0.00    -0.151 C  
HETATM    3  C   UNL     1     -11.597  12.621  66.470  1.00  0.00    -0.441 C  
HETATM    4  C   UNL     1     -10.805  13.412  64.774  1.00  0.00    -0.375 C  
HETATM    5  O   UNL     1     -10.972  14.569  63.948  1.00  0.00    -0.226 OA 
HETATM    6  C   UNL     1     -11.934  12.632  64.701  1.00  0.00    -0.463 C  
HETATM    7  C   UNL     1     -12.724  14.171  65.331  1.00  0.00    -0.453 C  
HETATM    8  C   UNL     1     -12.555  11.924  63.550  1.00  0.00    -0.579 C  
HETATM    9  H   UNL     1     -10.602  14.939  63.155  1.00  0.00     0.000 HD 
HETATM   10  C   UNL     1     -11.576  15.206  66.224  1.00  0.00    -0.080 C  
HETATM   11  C   UNL     1     -10.127  14.624  66.923  1.00  0.00    -0.255 C  
HETATM   12  C   UNL     1      -9.070  15.630  67.395  1.00  0.00    -0.203 A  
HETATM   13  C   UNL     1      -9.431  16.962  67.668  1.00  0.00    -0.241 A  
HETATM   14  C   UNL     1      -8.545  17.846  68.292  1.00  0.00    -0.277 A  
HETATM   15  C   UNL     1      -7.278  17.408  68.642  1.00  0.00    -0.237 A  
HETATM   16  C   UNL     1      -6.894  16.097  68.394  1.00  0.00    -0.128 A  
HETATM   17  O   UNL     1      -6.378  18.229  69.255  1.00  0.00    -0.241 OA 
HETATM   18  C   UNL     1      -7.788  15.183  67.805  1.00  0.00    -0.161 A  
HETATM   19  H   UNL     1      -5.510  17.929  69.495  1.00  0.00     0.000 HD 
HETATM   20  C   UNL     1      -7.306  13.752  67.644  1.00  0.00    -0.182 C  
HETATM   21  C   UNL     1      -8.411  12.673  67.545  1.00  0.00    -0.176 C  
HETATM   22  C   UNL     1      -9.347  13.134  66.402  1.00  0.00    -0.188 C  
ENDROOT
BRANCH  21  23
HETATM   23  C   UNL     1      -9.133  12.488  68.895  1.00  0.00     0.305 C  
BRANCH  23  24
HETATM   24  C   UNL     1     -10.455  11.743  68.858  1.00  0.00    -0.182 C  
BRANCH  24  25
HETATM   25  C   UNL     1     -11.483  12.426  69.774  1.00  0.00    -0.220 C  
BRANCH  25  26
HETATM   26  C   UNL     1     -12.360  11.457  70.586  1.00  0.00    -0.466 C  
BRANCH  26  27
HETATM   27  C   UNL     1     -12.104   9.981  70.281  1.00  0.00    -0.226 C  
BRANCH  27  28
HETATM   28  C   UNL     1     -11.426   9.269  71.452  1.00  0.00    -0.439 C  
BRANCH  28  29
HETATM   29  C   UNL     1     -11.611   7.751  71.426  1.00  0.00    -0.305 C  
BRANCH  29  30
HETATM   30  C   UNL     1     -10.535   6.978  70.646  1.00  0.00    -0.229 C  
BRANCH  30  31
HETATM   31  C   UNL     1      -9.784   7.786  69.598  1.00  0.00    -0.172 C  
BRANCH  31  32
HETATM   32  S   UNL     1      -7.976   7.649  69.784  1.00  0.00    -0.118 S  
HETATM   33  O   UNL     1      -7.593   6.254  69.384  1.00  0.00    -0.094 OA 
BRANCH  32  34
HETATM   34  C   UNL     1      -7.507   8.748  68.410  1.00  0.00    -0.091 C  
BRANCH  34  35
HETATM   35  C   UNL     1      -7.923   8.180  67.058  1.00  0.00    -0.104 C  
BRANCH  35  36
HETATM   36  C   UNL     1      -8.191   9.288  66.041  1.00  0.00    -0.111 C  
BRANCH  36  37
HETATM   37  C   UNL     1      -7.099   9.413  64.980  1.00  0.00    -0.101 C  
HETATM   38  F   UNL     1      -6.548  10.658  65.074  1.00  0.00    -0.121 F  
HETATM   39  C   UNL     1      -7.575   9.134  63.547  1.00  0.00    -0.109 C  
HETATM   40  F   UNL     1      -6.101   8.546  65.325  1.00  0.00    -0.047 F  
HETATM   41  F   UNL     1      -8.848   8.686  63.500  1.00  0.00    -0.127 F  
HETATM   42  F   UNL     1      -7.505  10.250  62.783  1.00  0.00    -0.128 F  
HETATM   43  F   UNL     1      -6.810   8.195  62.936  1.00  0.00    -0.082 F  
ENDBRANCH  36  37
ENDBRANCH  35  36
ENDBRANCH  34  35
ENDBRANCH  32  34
ENDBRANCH  31  32
ENDBRANCH  30  31
ENDBRANCH  29  30
ENDBRANCH  28  29
ENDBRANCH  27  28
ENDBRANCH  26  27
ENDBRANCH  25  26
ENDBRANCH  24  25
ENDBRANCH  23  24
ENDBRANCH  21  23
TORSDOF 14
ENDMDL
MODEL      230
REMARK 921   NORMALIZED FREE ENERGY PREDICTED BY IDOCK:   -2.96 KCAL/MOL
REMARK 922        TOTAL FREE ENERGY PREDICTED BY IDOCK:   -8.67 KCAL/MOL
REMARK 923 INTER-LIGAND FREE ENERGY PREDICTED BY IDOCK:   -6.15 KCAL/MOL
REMARK 924 INTRA-LIGAND FREE ENERGY PREDICTED BY IDOCK:   -2.52 KCAL/MOL
REMARK 927      BINDING AFFINITY PREDICTED BY RF-SCORE:    0.00 PKD
ROOT
HETATM    1  C   UNL     1     -11.027  11.876  66.134  1.00  0.00    -0.352 C  
HETATM    2  C   UNL     1     -10.090  12.882  66.501  1.00  0.00    -0.263 C  
HETATM    3  C   UNL     1      -9.920  12.503  65.055  1.00  0.00    -0.198 C  
HETATM    4  C   UNL     1     -11.522  11.412  64.448  1.00  0.00    -0.073 C  
HETATM    5  O   UNL     1     -12.134  10.989  63.224  1.00  0.00    -0.273 OA 
HETATM    6  C   UNL     1     -11.632  12.776  64.566  1.00  0.00    -0.397 C  
HETATM    7  C   UNL     1     -10.700  12.728  62.978  1.00  0.00     0.830 C  
HETATM    8  C   UNL     1     -12.829  13.651  64.670  1.00  0.00    -0.090 C  
HETATM    9  H   UNL     1     -12.883  10.479  62.939  1.00  0.00     0.000 HD 
HETATM   10  C   UNL     1      -9.743  11.230  62.798  1.00  0.00    -0.289 C  
HETATM   11  C   UNL     1      -9.266  10.251  64.117  1.00  0.00    -0.309 C  
HETATM   12  C   UNL     1      -8.722   8.844  63.843  1.00  0.00    -0.056 A  
HETATM   13  C   UNL     1      -8.209   8.518  62.574  1.00  0.00    -0.189 A  
HETATM   14  C   UNL     1      -7.522   7.320  62.350  1.00  0.00    -0.096 A  
HETATM   15  C   UNL     1      -7.350   6.427  63.395  1.00  0.00    -0.066 A  
HETATM   16  C   UNL     1      -7.836   6.723  64.660  1.00  0.00    -0.116 A  
HETATM   17  O   UNL     1      -6.684   5.248  63.230  1.00  0.00    -0.031 OA 
HETATM   18  C   UNL     1      -8.493   7.943  64.913  1.00  0.00    -0.045 A  
HETATM   19  H   UNL     1      -6.566   4.636  63.946  1.00  0.00     0.000 HD 
HETATM   20  C   UNL     1      -8.922   8.212  66.345  1.00  0.00    -0.207 C  
HETATM   21  C   UNL     1      -9.107   9.700  66.726  1.00  0.00    -0.171 C  
HETATM   22  C   UNL     1     -10.082  10.285  65.677  1.00  0.00    -0.341 C  
ENDROOT
BRANCH  21  23
HETATM   23  C   UNL     1      -7.752  10.435  66.784  1.00  0.00    -0.114 C  
BRANCH  23  24
HETATM   24  C   UNL     1      -7.256  10.831  68.163  1.00  0.00    -0.083 C  
BRANCH  24  25
HETATM   25  C   UNL     1      -8.225  10.334  69.246  1.00  0.00    -0.164 C  
BRANCH  25  26
HETATM   26  C   UNL     1      -7.623   9.309  70.223  1.00  0.00    -0.125 C  
BRANCH  26  27
HETATM   27  C   UNL     1      -7.330   7.947  69.594  1.00  0.00    -0.090 C  
BRANCH  27  28
HETATM   28  C   UNL     1      -5.878   7.520  69.816  1.00  0.00    -0.024 C  
BRANCH  28  29
HETATM   29  C   UNL     1      -5.692   6.623  71.042  1.00  0.00    -0.027 C  
BRANCH  29  30
HETATM   30  C   UNL     1      -5.337   7.364  72.341  1.00  0.00    -0.037 C  
BRANCH  30  31
HETATM   31  C   UNL     1      -5.815   6.697  73.623  1.00  0.00    -0.058 C  
BRANCH  31  32
HETATM   32  S   UNL     1      -7.363   7.428  74.247  1.00  0.00    -0.125 S  
HETATM   33  O   UNL     1      -7.600   8.693  73.475  1.00  0.00    -0.376 OA 
BRANCH  32  34
HETATM   34  C   UNL     1      -8.507   6.175  73.585  1.00  0.00    -0.121 C  
BRANCH  34  35
HETATM   35  C   UNL     1      -9.961   6.504  73.905  1.00  0.00    -0.297 C  
BRANCH  35  36
HETATM   36  C   UNL     1     -10.606   7.332  72.795  1.00  0.00    -0.322 C  
BRANCH  36  37
HETATM   37  C   UNL     1     -11.693   6.578  72.031  1.00  0.00    -0.323 C  
HETATM   38  F   UNL     1     -11.461   5.240  72.161  1.00  0.00    -0.258 F  
HETATM   39  C   UNL     1     -11.814   6.971  70.551  1.00  0.00    -0.290 C  
HETATM   40  F   UNL     1     -12.874   6.807  72.679  1.00  0.00     0.060 F  
HETATM   41  F   UNL     1     -11.028   8.019  70.226  1.00  0.00    -0.239 F  
HETATM   42  F   UNL     1     -11.475   5.938  69.744  1.00  0.00    -0.459 F  
HETATM   43  F   UNL     1     -13.084   7.319  70.224  1.00  0.00     0.058 F  
ENDBRANCH  36  37
ENDBRANCH  35  36
ENDBRANCH  34  35
ENDBRANCH  32  34
ENDBRANCH  31  32
ENDBRANCH  30  31
ENDBRANCH  29  30
ENDBRANCH  28  29
ENDBRANCH  27  28
ENDBRANCH  26  27
ENDBRANCH  25  26
ENDBRANCH  24  25
ENDBRANCH  23  24
ENDBRANCH  21  23
TORSDOF 14
ENDMDL
MODEL      231
REMARK 921   NORMALIZED FREE ENERGY PREDICTED BY IDOCK:   -2.95 KCAL/MOL
REMARK 922        TOTAL FREE ENERGY PREDICTED BY IDOCK:   -8.65 KCAL/MOL
REMARK 923 INTER-LIGAND FREE ENERGY PREDICTED BY IDOCK:   -6.10 KCAL/MOL
REMARK 924 INTRA-LIGAND FREE ENERGY PREDICTED BY IDOCK:   -2.55 KCAL/MOL
REMARK 927      BINDING AFFINITY PREDICTED BY RF-SCORE:    0.00 PKD
ROOT
HETATM    1  C   UNL     1     -11.271   6.115  70.271  1.00  0.00    -0.439 C  
HETATM    2  C   UNL     1     -10.036   5.911  70.948  1.00  0.00    -0.238 C  
HETATM    3  C   UNL     1     -10.662   7.214  71.367  1.00  0.00    -0.245 C  
HETATM    4  C   UNL     1     -12.593   7.272  70.739  1.00  0.00    -0.106 C  
HETATM    5  O   UNL     1     -13.788   8.014  71.005  1.00  0.00    -0.579 OA 
HETATM    6  C   UNL     1     -12.258   6.533  71.848  1.00  0.00    -0.373 C  
HETATM    7  C   UNL     1     -12.215   8.202  72.626  1.00  0.00    -0.270 C  
HETATM    8  C   UNL     1     -12.982   5.435  72.541  1.00  0.00     0.941 C  
HETATM    9  H   UNL     1     -14.691   8.041  70.711  1.00  0.00     0.000 HD 
HETATM   10  C   UNL     1     -11.899   9.496  71.437  1.00  0.00    -0.464 C  
HETATM   11  C   UNL     1     -11.156   9.224  69.920  1.00  0.00    -0.200 C  
HETATM   12  C   UNL     1     -11.208  10.327  68.856  1.00  0.00    -0.259 A  
HETATM   13  C   UNL     1     -11.448  11.663  69.231  1.00  0.00    -0.364 A  
HETATM   14  C   UNL     1     -11.298  12.715  68.321  1.00  0.00    -0.337 A  
HETATM   15  C   UNL     1     -10.915  12.440  67.018  1.00  0.00    -0.260 A  
HETATM   16  C   UNL     1     -10.663  11.135  66.620  1.00  0.00    -0.322 A  
HETATM   17  O   UNL     1     -10.752  13.429  66.094  1.00  0.00    -0.280 OA 
HETATM   18  C   UNL     1     -10.768  10.069  67.534  1.00  0.00    -0.339 A  
HETATM   19  H   UNL     1     -10.490  13.241  65.201  1.00  0.00     0.000 HD 
HETATM   20  C   UNL     1     -10.398   8.686  67.027  1.00  0.00    -0.368 C  
HETATM   21  C   UNL     1      -9.971   7.662  68.106  1.00  0.00    -0.203 C  
HETATM   22  C   UNL     1     -11.118   7.644  69.144  1.00  0.00     0.108 C  
ENDROOT
BRANCH  21  23
HETATM   23  C   UNL     1      -8.599   8.026  68.710  1.00  0.00    -0.128 C  
BRANCH  23  24
HETATM   24  C   UNL     1      -7.402   7.263  68.174  1.00  0.00    -0.100 C  
BRANCH  24  25
HETATM   25  C   UNL     1      -6.170   7.503  69.061  1.00  0.00    -0.035 C  
BRANCH  25  26
HETATM   26  C   UNL     1      -6.317   8.663  70.061  1.00  0.00    -0.034 C  
BRANCH  26  27
HETATM   27  C   UNL     1      -5.150   8.792  71.039  1.00  0.00    -0.028 C  
BRANCH  27  28
HETATM   28  C   UNL     1      -5.436   8.078  72.361  1.00  0.00    -0.037 C  
BRANCH  28  29
HETATM   29  C   UNL     1      -6.448   8.815  73.241  1.00  0.00     0.008 C  
BRANCH  29  30
HETATM   30  C   UNL     1      -7.510   7.920  73.899  1.00  0.00    -0.190 C  
BRANCH  30  31
HETATM   31  C   UNL     1      -7.836   6.636  73.149  1.00  0.00    -0.098 C  
BRANCH  31  32
HETATM   32  S   UNL     1      -7.170   5.160  73.985  1.00  0.00    -0.083 S  
HETATM   33  O   UNL     1      -8.220   4.090  73.901  1.00  0.00    -0.090 OA 
BRANCH  32  34
HETATM   34  C   UNL     1      -5.887   4.747  72.760  1.00  0.00    -0.016 C  
BRANCH  34  35
HETATM   35  C   UNL     1      -6.248   3.505  71.952  1.00  0.00    -0.014 C  
BRANCH  35  36
HETATM   36  C   UNL     1      -7.288   3.817  70.877  1.00  0.00    -0.037 C  
BRANCH  36  37
HETATM   37  C   UNL     1      -7.916   2.568  70.263  1.00  0.00    -0.042 C  
HETATM   38  F   UNL     1      -7.010   1.550  70.334  1.00  0.00    -0.030 F  
HETATM   39  C   UNL     1      -8.415   2.755  68.822  1.00  0.00    -0.068 C  
HETATM   40  F   UNL     1      -8.949   2.194  71.075  1.00  0.00    -0.094 F  
HETATM   41  F   UNL     1      -8.336   4.037  68.407  1.00  0.00    -0.087 F  
HETATM   42  F   UNL     1      -7.699   1.999  67.956  1.00  0.00    -0.053 F  
HETATM   43  F   UNL     1      -9.711   2.380  68.685  1.00  0.00    -0.246 F  
ENDBRANCH  36  37
ENDBRANCH  35  36
ENDBRANCH  34  35
ENDBRANCH  32  34
ENDBRANCH  31  32
ENDBRANCH  30  31
ENDBRANCH  29  30
ENDBRANCH  28  29
ENDBRANCH  27  28
ENDBRANCH  26  27
ENDBRANCH  25  26
ENDBRANCH  24  25
ENDBRANCH  23  24
ENDBRANCH  21  23
TORSDOF 14
ENDMDL
MODEL      232
REMARK 921   NORMALIZED FREE ENERGY PREDICTED BY IDOCK:   -2.92 KCAL/MOL
REMARK 922        TOTAL FREE ENERGY PREDICTED BY IDOCK:   -8.61 KCAL/MOL
REMARK 923 INTER-LIGAND FREE ENERGY PREDICTED BY IDOCK:   -6.68 KCAL/MOL
REMARK 924 INTRA-LIGAND FREE ENERGY PREDICTED BY IDOCK:   -1.93 KCAL/MOL
REMARK 927      BINDING AFFINITY PREDICTED BY RF-SCORE:    0.00 PKD
ROOT
HETATM    1  C   UNL     1     -10.031  14.651  69.661  1.00  0.00     0.117 C  
HETATM    2  C   UNL     1      -8.629  14.871  69.549  1.00  0.00     0.007 C  
HETATM    3  C   UNL     1      -9.365  15.558  68.431  1.00  0.00    -0.192 C  
HETATM    4  C   UNL     1     -11.352  15.600  68.852  1.00  0.00    -0.339 C  
HETATM    5  O   UNL     1     -12.529  16.291  68.417  1.00  0.00     0.168 OA 
HETATM    6  C   UNL     1     -10.505  16.487  69.471  1.00  0.00    -0.298 C  
HETATM    7  C   UNL     1     -10.595  17.318  67.829  1.00  0.00    -0.367 C  
HETATM    8  C   UNL     1     -10.679  17.304  70.701  1.00  0.00     1.096 C  
HETATM    9  H   UNL     1     -13.458  16.311  68.614  1.00  0.00     0.000 HD 
HETATM   10  C   UNL     1     -11.004  16.181  66.515  1.00  0.00    -0.047 C  
HETATM   11  C   UNL     1     -10.768  14.490  66.622  1.00  0.00    -0.305 C  
HETATM   12  C   UNL     1     -11.427  13.577  65.580  1.00  0.00    -0.330 A  
HETATM   13  C   UNL     1     -11.832  14.099  64.337  1.00  0.00    -0.447 A  
HETATM   14  C   UNL     1     -12.244  13.262  63.294  1.00  0.00    -0.387 A  
HETATM   15  C   UNL     1     -12.264  11.890  63.488  1.00  0.00    -0.482 A  
HETATM   16  C   UNL     1     -11.862  11.345  64.699  1.00  0.00     0.165 A  
HETATM   17  O   UNL     1     -12.653  11.032  62.502  1.00  0.00    -0.280 OA 
HETATM   18  C   UNL     1     -11.405  12.170  65.744  1.00  0.00    -0.402 A  
HETATM   19  H   UNL     1     -12.667  10.091  62.634  1.00  0.00     0.000 HD 
HETATM   20  C   UNL     1     -10.913  11.478  67.004  1.00  0.00    -0.347 C  
HETATM   21  C   UNL     1      -9.925  12.288  67.878  1.00  0.00    -0.202 C  
HETATM   22  C   UNL     1     -10.623  13.640  68.157  1.00  0.00    -0.255 C  
ENDROOT
BRANCH  21  23
HETATM   23  C   UNL     1      -8.555  12.434  67.184  1.00  0.00    -0.189 C  
BRANCH  23  24
HETATM   24  C   UNL     1      -8.098  11.260  66.338  1.00  0.00    -0.138 C  
BRANCH  24  25
HETATM   25  C   UNL     1      -7.082  10.404  67.109  1.00  0.00    -0.090 C  
BRANCH  25  26
HETATM   26  C   UNL     1      -6.585  11.029  68.424  1.00  0.00    -0.058 C  
BRANCH  26  27
HETATM   27  C   UNL     1      -5.562  10.174  69.172  1.00  0.00    -0.038 C  
BRANCH  27  28
HETATM   28  C   UNL     1      -5.547  10.487  70.669  1.00  0.00    -0.093 C  
BRANCH  28  29
HETATM   29  C   UNL     1      -6.253   9.426  71.517  1.00  0.00    -0.011 C  
BRANCH  29  30
HETATM   30  C   UNL     1      -7.046   8.379  70.719  1.00  0.00    -0.050 C  
BRANCH  30  31
HETATM   31  C   UNL     1      -6.296   7.092  70.408  1.00  0.00    -0.042 C  
BRANCH  31  32
HETATM   32  S   UNL     1      -7.353   5.860  69.579  1.00  0.00    -0.077 S  
HETATM   33  O   UNL     1      -7.590   4.747  70.558  1.00  0.00    -0.056 OA 
BRANCH  32  34
HETATM   34  C   UNL     1      -8.879   6.852  69.517  1.00  0.00    -0.133 C  
BRANCH  34  35
HETATM   35  C   UNL     1     -10.126   5.977  69.461  1.00  0.00    -0.246 C  
BRANCH  35  36
HETATM   36  C   UNL     1     -10.680   5.698  70.857  1.00  0.00    -0.313 C  
BRANCH  36  37
HETATM   37  C   UNL     1     -11.527   6.841  71.413  1.00  0.00    -0.292 C  
HETATM   38  F   UNL     1     -12.023   7.559  70.364  1.00  0.00    -0.249 F  
HETATM   39  C   UNL     1     -10.785   7.756  72.398  1.00  0.00    -0.290 C  
HETATM   40  F   UNL     1     -12.616   6.280  72.017  1.00  0.00    -0.385 F  
HETATM   41  F   UNL     1      -9.552   7.298  72.706  1.00  0.00    -0.159 F  
HETATM   42  F   UNL     1     -10.644   9.004  71.892  1.00  0.00    -0.362 F  
HETATM   43  F   UNL     1     -11.456   7.885  73.570  1.00  0.00    -0.288 F  
ENDBRANCH  36  37
ENDBRANCH  35  36
ENDBRANCH  34  35
ENDBRANCH  32  34
ENDBRANCH  31  32
ENDBRANCH  30  31
ENDBRANCH  29  30
ENDBRANCH  28  29
ENDBRANCH  27  28
ENDBRANCH  26  27
ENDBRANCH  25  26
ENDBRANCH  24  25
ENDBRANCH  23  24
ENDBRANCH  21  23
TORSDOF 14
ENDMDL
MODEL      233
REMARK 921   NORMALIZED FREE ENERGY PREDICTED BY IDOCK:   -2.92 KCAL/MOL
REMARK 922        TOTAL FREE ENERGY PREDICTED BY IDOCK:   -8.60 KCAL/MOL
REMARK 923 INTER-LIGAND FREE ENERGY PREDICTED BY IDOCK:   -6.73 KCAL/MOL
REMARK 924 INTRA-LIGAND FREE ENERGY PREDICTED BY IDOCK:   -1.86 KCAL/MOL
REMARK 927      BINDING AFFINITY PREDICTED BY RF-SCORE:    0.00 PKD
ROOT
HETATM    1  C   UNL     1     -10.584  13.635  66.444  1.00  0.00    -0.284 C  
HETATM    2  C   UNL     1     -11.726  13.041  65.836  1.00  0.00    -0.442 C  
HETATM    3  C   UNL     1     -11.670  12.704  67.302  1.00  0.00    -0.435 C  
HETATM    4  C   UNL     1     -10.310  13.900  68.221  1.00  0.00    -0.249 C  
HETATM    5  O   UNL     1      -9.961  14.310  69.548  1.00  0.00    -0.413 OA 
HETATM    6  C   UNL     1     -11.549  14.398  67.901  1.00  0.00    -0.374 C  
HETATM    7  C   UNL     1     -12.039  13.419  69.381  1.00  0.00    -0.321 C  
HETATM    8  C   UNL     1     -12.032  15.798  67.773  1.00  0.00     0.341 C  
HETATM    9  H   UNL     1      -9.325  14.869  69.979  1.00  0.00     0.000 HD 
HETATM   10  C   UNL     1     -10.915  12.069  69.704  1.00  0.00     0.033 C  
HETATM   11  C   UNL     1      -9.884  11.394  68.517  1.00  0.00    -0.200 C  
HETATM   12  C   UNL     1      -8.750  10.461  68.957  1.00  0.00    -0.170 A  
HETATM   13  C   UNL     1      -8.807   9.818  70.208  1.00  0.00    -0.188 A  
HETATM   14  C   UNL     1      -7.900   8.810  70.552  1.00  0.00    -0.104 A  
HETATM   15  C   UNL     1      -6.917   8.439  69.649  1.00  0.00    -0.048 A  
HETATM   16  C   UNL     1      -6.840   9.048  68.404  1.00  0.00    -0.064 A  
HETATM   17  O   UNL     1      -6.013   7.459  69.934  1.00  0.00    -0.024 OA 
HETATM   18  C   UNL     1      -7.770  10.035  68.026  1.00  0.00    -0.089 A  
HETATM   19  H   UNL     1      -5.339   7.205  69.316  1.00  0.00     0.000 HD 
HETATM   20  C   UNL     1      -7.654  10.588  66.616  1.00  0.00    -0.120 C  
HETATM   21  C   UNL     1      -8.944  11.205  66.024  1.00  0.00    -0.210 C  
HETATM   22  C   UNL     1      -9.418  12.257  67.055  1.00  0.00    -0.204 C  
ENDROOT
BRANCH  21  23
HETATM   23  C   UNL     1      -9.997  10.119  65.724  1.00  0.00    -0.339 C  
BRANCH  23  24
HETATM   24  C   UNL     1     -10.631   9.443  66.925  1.00  0.00    -0.238 C  
BRANCH  24  25
HETATM   25  C   UNL     1     -10.417   7.922  66.862  1.00  0.00    -0.388 C  
BRANCH  25  26
HETATM   26  C   UNL     1     -10.116   7.261  68.218  1.00  0.00    -0.193 C  
BRANCH  26  27
HETATM   27  C   UNL     1     -10.991   6.046  68.526  1.00  0.00    -0.350 C  
BRANCH  27  28
HETATM   28  C   UNL     1     -10.656   5.435  69.887  1.00  0.00    -0.351 C  
BRANCH  28  29
HETATM   29  C   UNL     1      -9.169   5.522  70.240  1.00  0.00    -0.181 C  
BRANCH  29  30
HETATM   30  C   UNL     1      -8.656   4.409  71.167  1.00  0.00    -0.120 C  
BRANCH  30  31
HETATM   31  C   UNL     1      -7.240   4.598  71.691  1.00  0.00    -0.067 C  
BRANCH  31  32
HETATM   32  S   UNL     1      -6.086   3.351  71.030  1.00  0.00    -0.018 S  
HETATM   33  O   UNL     1      -6.841   2.058  70.925  1.00  0.00    -0.031 OA 
BRANCH  32  34
HETATM   34  C   UNL     1      -5.942   4.025  69.344  1.00  0.00    -0.023 C  
BRANCH  34  35
HETATM   35  C   UNL     1      -6.447   3.044  68.293  1.00  0.00    -0.036 C  
BRANCH  35  36
HETATM   36  C   UNL     1      -7.802   3.472  67.729  1.00  0.00    -0.076 C  
BRANCH  36  37
HETATM   37  C   UNL     1      -7.689   4.421  66.537  1.00  0.00    -0.094 C  
HETATM   38  F   UNL     1      -7.619   5.699  67.009  1.00  0.00    -0.089 F  
HETATM   39  C   UNL     1      -8.820   4.280  65.508  1.00  0.00    -0.124 C  
HETATM   40  F   UNL     1      -6.480   4.184  65.947  1.00  0.00    -0.033 F  
HETATM   41  F   UNL     1      -9.638   3.239  65.774  1.00  0.00    -0.166 F  
HETATM   42  F   UNL     1      -9.582   5.398  65.465  1.00  0.00    -0.163 F  
HETATM   43  F   UNL     1      -8.339   4.088  64.254  1.00  0.00    -0.090 F  
ENDBRANCH  36  37
ENDBRANCH  35  36
ENDBRANCH  34  35
ENDBRANCH  32  34
ENDBRANCH  31  32
ENDBRANCH  30  31
ENDBRANCH  29  30
ENDBRANCH  28  29
ENDBRANCH  27  28
ENDBRANCH  26  27
ENDBRANCH  25  26
ENDBRANCH  24  25
ENDBRANCH  23  24
ENDBRANCH  21  23
TORSDOF 14
ENDMDL
MODEL      234
REMARK 921   NORMALIZED FREE ENERGY PREDICTED BY IDOCK:   -2.88 KCAL/MOL
REMARK 922        TOTAL FREE ENERGY PREDICTED BY IDOCK:   -8.54 KCAL/MOL
REMARK 923 INTER-LIGAND FREE ENERGY PREDICTED BY IDOCK:   -9.21 KCAL/MOL
REMARK 924 INTRA-LIGAND FREE ENERGY PREDICTED BY IDOCK:    0.68 KCAL/MOL
REMARK 927      BINDING AFFINITY PREDICTED BY RF-SCORE:    0.00 PKD
ROOT
HETATM    1  C   UNL     1      -8.591   9.354  65.666  1.00  0.00    -0.159 C  
HETATM    2  C   UNL     1      -7.403  10.125  65.808  1.00  0.00    -0.128 C  
HETATM    3  C   UNL     1      -7.533   9.140  66.937  1.00  0.00    -0.091 C  
HETATM    4  C   UNL     1      -8.971   7.777  66.488  1.00  0.00    -0.161 C  
HETATM    5  O   UNL     1      -9.403   6.485  66.928  1.00  0.00    -0.136 OA 
HETATM    6  C   UNL     1      -7.728   7.672  65.913  1.00  0.00    -0.098 C  
HETATM    7  C   UNL     1      -7.299   7.018  67.581  1.00  0.00    -0.096 C  
HETATM    8  C   UNL     1      -7.271   6.928  64.710  1.00  0.00    -0.075 C  
HETATM    9  H   UNL     1     -10.075   5.848  66.718  1.00  0.00     0.000 HD 
HETATM   10  C   UNL     1      -8.406   7.613  68.848  1.00  0.00    -0.129 C  
HETATM   11  C   UNL     1      -9.352   9.030  68.686  1.00  0.00    -0.136 C  
HETATM   12  C   UNL     1     -10.487   9.286  69.685  1.00  0.00    -0.234 A  
HETATM   13  C   UNL     1     -10.485   8.647  70.939  1.00  0.00    -0.265 A  
HETATM   14  C   UNL     1     -11.386   9.013  71.946  1.00  0.00    -0.438 A  
HETATM   15  C   UNL     1     -12.307  10.019  71.704  1.00  0.00    -0.394 A  
HETATM   16  C   UNL     1     -12.329  10.674  70.482  1.00  0.00    -0.448 A  
HETATM   17  O   UNL     1     -13.203  10.415  72.654  1.00  0.00    -0.415 OA 
HETATM   18  C   UNL     1     -11.402  10.348  69.472  1.00  0.00    -0.325 A  
HETATM   19  H   UNL     1     -13.835  11.104  72.489  1.00  0.00     0.000 HD 
HETATM   20  C   UNL     1     -11.453  11.171  68.197  1.00  0.00    -0.373 C  
HETATM   21  C   UNL     1     -10.147  11.212  67.368  1.00  0.00    -0.213 C  
HETATM   22  C   UNL     1      -9.757   9.735  67.125  1.00  0.00    -0.223 C  
ENDROOT
BRANCH  21  23
HETATM   23  C   UNL     1      -9.053  12.028  68.087  1.00  0.00    -0.191 C  
BRANCH  23  24
HETATM   24  C   UNL     1      -7.623  11.780  67.644  1.00  0.00    -0.132 C  
BRANCH  24  25
HETATM   25  C   UNL     1      -6.653  11.982  68.818  1.00  0.00    -0.082 C  
BRANCH  25  26
HETATM   26  C   UNL     1      -6.750  13.357  69.500  1.00  0.00     0.003 C  
BRANCH  26  27
HETATM   27  C   UNL     1      -6.827  14.531  68.525  1.00  0.00    -0.096 C  
BRANCH  27  28
HETATM   28  C   UNL     1      -6.915  15.872  69.255  1.00  0.00    -0.198 C  
BRANCH  28  29
HETATM   29  C   UNL     1      -7.146  17.059  68.318  1.00  0.00    -0.190 C  
BRANCH  29  30
HETATM   30  C   UNL     1      -8.132  16.797  67.169  1.00  0.00    -0.210 C  
BRANCH  30  31
HETATM   31  C   UNL     1      -9.492  17.467  67.311  1.00  0.00    -0.253 C  
BRANCH  31  32
HETATM   32  S   UNL     1     -10.811  16.275  67.714  1.00  0.00    -0.281 S  
HETATM   33  O   UNL     1     -10.319  14.916  67.311  1.00  0.00    -0.248 OA 
BRANCH  32  34
HETATM   34  C   UNL     1     -10.681  16.376  69.528  1.00  0.00    -0.325 C  
BRANCH  34  35
HETATM   35  C   UNL     1     -11.902  15.780  70.220  1.00  0.00    -0.369 C  
BRANCH  35  36
HETATM   36  C   UNL     1     -12.208  16.496  71.535  1.00  0.00     0.336 C  
BRANCH  36  37
HETATM   37  C   UNL     1     -13.149  15.712  72.447  1.00  0.00    -0.460 C  
HETATM   38  F   UNL     1     -13.325  16.423  73.598  1.00  0.00    -0.596 F  
HETATM   39  C   UNL     1     -12.685  14.281  72.754  1.00  0.00    -0.311 C  
HETATM   40  F   UNL     1     -14.374  15.692  71.841  1.00  0.00    -0.545 F  
HETATM   41  F   UNL     1     -11.593  13.925  72.044  1.00  0.00     0.190 F  
HETATM   42  F   UNL     1     -12.385  14.137  74.067  1.00  0.00    -0.158 F  
HETATM   43  F   UNL     1     -13.648  13.367  72.473  1.00  0.00    -0.557 F  
ENDBRANCH  36  37
ENDBRANCH  35  36
ENDBRANCH  34  35
ENDBRANCH  32  34
ENDBRANCH  31  32
ENDBRANCH  30  31
ENDBRANCH  29  30
ENDBRANCH  28  29
ENDBRANCH  27  28
ENDBRANCH  26  27
ENDBRANCH  25  26
ENDBRANCH  24  25
ENDBRANCH  23  24
ENDBRANCH  21  23
TORSDOF 14
ENDMDL
MODEL      235
REMARK 921   NORMALIZED FREE ENERGY PREDICTED BY IDOCK:   -2.88 KCAL/MOL
REMARK 922        TOTAL FREE ENERGY PREDICTED BY IDOCK:   -8.53 KCAL/MOL
REMARK 923 INTER-LIGAND FREE ENERGY PREDICTED BY IDOCK:   -6.72 KCAL/MOL
REMARK 924 INTRA-LIGAND FREE ENERGY PREDICTED BY IDOCK:   -1.82 KCAL/MOL
REMARK 927      BINDING AFFINITY PREDICTED BY RF-SCORE:    0.00 PKD
ROOT
HETATM    1  C   UNL     1     -13.233  14.292  69.981  1.00  0.00     0.508 C  
HETATM    2  C   UNL     1     -12.926  12.907  70.096  1.00  0.00     0.515 C  
HETATM    3  C   UNL     1     -11.802  13.746  70.640  1.00  0.00    -0.261 C  
HETATM    4  C   UNL     1     -12.435  15.663  70.868  1.00  0.00    -0.445 C  
HETATM    5  O   UNL     1     -12.031  16.855  71.550  1.00  0.00    -0.263 OA 
HETATM    6  C   UNL     1     -12.799  14.710  71.789  1.00  0.00    -0.402 C  
HETATM    7  C   UNL     1     -11.064  14.968  72.353  1.00  0.00     0.303 C  
HETATM    8  C   UNL     1     -13.889  14.699  72.799  1.00  0.00    -0.381 C  
HETATM    9  H   UNL     1     -12.327  17.751  71.657  1.00  0.00     0.000 HD 
HETATM   10  C   UNL     1     -10.011  15.582  71.049  1.00  0.00     1.157 C  
HETATM   11  C   UNL     1     -10.366  15.403  69.385  1.00  0.00    -0.258 C  
HETATM   12  C   UNL     1      -9.572  16.221  68.360  1.00  0.00    -0.216 A  
HETATM   13  C   UNL     1      -8.315  16.755  68.701  1.00  0.00    -0.252 A  
HETATM   14  C   UNL     1      -7.478  17.325  67.736  1.00  0.00    -0.184 A  
HETATM   15  C   UNL     1      -7.896  17.377  66.416  1.00  0.00    -0.302 A  
HETATM   16  C   UNL     1      -9.126  16.852  66.046  1.00  0.00    -0.199 A  
HETATM   17  O   UNL     1      -7.116  17.919  65.437  1.00  0.00    -0.452 OA 
HETATM   18  C   UNL     1      -9.962  16.236  66.998  1.00  0.00    -0.255 A  
HETATM   19  H   UNL     1      -7.402  17.955  64.532  1.00  0.00     0.000 HD 
HETATM   20  C   UNL     1     -11.253  15.622  66.486  1.00  0.00    -0.048 C  
HETATM   21  C   UNL     1     -11.862  14.502  67.364  1.00  0.00    -0.416 C  
HETATM   22  C   UNL     1     -11.994  15.104  68.783  1.00  0.00    -0.280 C  
ENDROOT
BRANCH  21  23
HETATM   23  C   UNL     1     -11.001  13.223  67.315  1.00  0.00    -0.284 C  
BRANCH  23  24
HETATM   24  C   UNL     1     -11.694  11.960  66.838  1.00  0.00    -0.291 C  
BRANCH  24  25
HETATM   25  C   UNL     1     -11.226  10.747  67.657  1.00  0.00    -0.370 C  
BRANCH  25  26
HETATM   26  C   UNL     1     -10.739  11.083  69.077  1.00  0.00    -0.258 C  
BRANCH  26  27
HETATM   27  C   UNL     1     -10.419   9.857  69.931  1.00  0.00    -0.309 C  
BRANCH  27  28
HETATM   28  C   UNL     1      -8.932   9.780  70.279  1.00  0.00    -0.198 C  
BRANCH  28  29
HETATM   29  C   UNL     1      -8.016   9.948  69.065  1.00  0.00    -0.101 C  
BRANCH  29  30
HETATM   30  C   UNL     1      -7.638   8.640  68.351  1.00  0.00    -0.096 C  
BRANCH  30  31
HETATM   31  C   UNL     1      -7.990   7.363  69.099  1.00  0.00    -0.118 C  
BRANCH  31  32
HETATM   32  S   UNL     1      -7.434   5.869  68.216  1.00  0.00    -0.086 S  
HETATM   33  O   UNL     1      -5.938   5.940  68.121  1.00  0.00    -0.015 OA 
BRANCH  32  34
HETATM   34  C   UNL     1      -7.830   4.657  69.517  1.00  0.00    -0.062 C  
BRANCH  34  35
HETATM   35  C   UNL     1      -8.451   5.319  70.742  1.00  0.00    -0.123 C  
BRANCH  35  36
HETATM   36  C   UNL     1      -9.943   5.009  70.853  1.00  0.00    -0.286 C  
BRANCH  36  37
HETATM   37  C   UNL     1     -10.606   5.652  72.069  1.00  0.00    -0.229 C  
HETATM   38  F   UNL     1     -11.093   4.660  72.869  1.00  0.00    -0.268 F  
HETATM   39  C   UNL     1     -11.707   6.667  71.726  1.00  0.00    -0.318 C  
HETATM   40  F   UNL     1      -9.618   6.253  72.796  1.00  0.00    -0.154 F  
HETATM   41  F   UNL     1     -11.792   6.914  70.401  1.00  0.00    -0.355 F  
HETATM   42  F   UNL     1     -12.919   6.229  72.140  1.00  0.00    -0.350 F  
HETATM   43  F   UNL     1     -11.497   7.862  72.333  1.00  0.00    -0.312 F  
ENDBRANCH  36  37
ENDBRANCH  35  36
ENDBRANCH  34  35
ENDBRANCH  32  34
ENDBRANCH  31  32
ENDBRANCH  30  31
ENDBRANCH  29  30
ENDBRANCH  28  29
ENDBRANCH  27  28
ENDBRANCH  26  27
ENDBRANCH  25  26
ENDBRANCH  24  25
ENDBRANCH  23  24
ENDBRANCH  21  23
TORSDOF 14
ENDMDL
MODEL      236
REMARK 921   NORMALIZED FREE ENERGY PREDICTED BY IDOCK:   -2.86 KCAL/MOL
REMARK 922        TOTAL FREE ENERGY PREDICTED BY IDOCK:   -8.50 KCAL/MOL
REMARK 923 INTER-LIGAND FREE ENERGY PREDICTED BY IDOCK:   -7.03 KCAL/MOL
REMARK 924 INTRA-LIGAND FREE ENERGY PREDICTED BY IDOCK:   -1.47 KCAL/MOL
REMARK 927      BINDING AFFINITY PREDICTED BY RF-SCORE:    0.00 PKD
ROOT
HETATM    1  C   UNL     1     -11.951  13.295  67.128  1.00  0.00    -0.400 C  
HETATM    2  C   UNL     1     -10.970  14.217  67.589  1.00  0.00    -0.286 C  
HETATM    3  C   UNL     1     -10.493  13.512  66.349  1.00  0.00    -0.287 C  
HETATM    4  C   UNL     1     -12.052  12.546  65.474  1.00  0.00    -0.419 C  
HETATM    5  O   UNL     1     -12.379  11.955  64.212  1.00  0.00    -0.303 OA 
HETATM    6  C   UNL     1     -11.919  13.905  65.322  1.00  0.00    -0.384 C  
HETATM    7  C   UNL     1     -10.619  13.382  64.126  1.00  0.00    -0.257 C  
HETATM    8  C   UNL     1     -12.904  14.939  64.908  1.00  0.00     0.318 C  
HETATM    9  H   UNL     1     -13.107  11.504  63.803  1.00  0.00     0.000 HD 
HETATM   10  C   UNL     1      -9.964  11.765  64.501  1.00  0.00    -0.273 C  
HETATM   11  C   UNL     1     -10.064  11.041  66.048  1.00  0.00    -0.297 C  
HETATM   12  C   UNL     1      -9.754   9.546  66.194  1.00  0.00    -0.324 A  
HETATM   13  C   UNL     1      -8.989   8.883  65.215  1.00  0.00    -0.213 A  
HETATM   14  C   UNL     1      -8.517   7.581  65.417  1.00  0.00    -0.105 A  
HETATM   15  C   UNL     1      -8.813   6.923  66.599  1.00  0.00    -0.135 A  
HETATM   16  C   UNL     1      -9.557   7.553  67.587  1.00  0.00    -0.171 A  
HETATM   17  O   UNL     1      -8.373   5.656  66.846  1.00  0.00    -0.108 OA 
HETATM   18  C   UNL     1     -10.005   8.878  67.418  1.00  0.00    -0.267 A  
HETATM   19  H   UNL     1      -8.576   5.205  67.656  1.00  0.00     0.000 HD 
HETATM   20  C   UNL     1     -10.745   9.510  68.584  1.00  0.00    -0.218 C  
HETATM   21  C   UNL     1     -10.730  11.056  68.635  1.00  0.00    -0.234 C  
HETATM   22  C   UNL     1     -11.249  11.527  67.256  1.00  0.00    -0.365 C  
ENDROOT
BRANCH  21  23
HETATM   23  C   UNL     1      -9.324  11.591  68.979  1.00  0.00     0.090 C  
BRANCH  23  24
HETATM   24  C   UNL     1      -8.175  11.059  68.143  1.00  0.00    -0.124 C  
BRANCH  24  25
HETATM   25  C   UNL     1      -6.852  11.169  68.915  1.00  0.00    -0.086 C  
BRANCH  25  26
HETATM   26  C   UNL     1      -5.658  10.467  68.244  1.00  0.00    -0.036 C  
BRANCH  26  27
HETATM   27  C   UNL     1      -5.918   9.004  67.887  1.00  0.00    -0.050 C  
BRANCH  27  28
HETATM   28  C   UNL     1      -6.240   8.166  69.125  1.00  0.00    -0.039 C  
BRANCH  28  29
HETATM   29  C   UNL     1      -5.129   8.189  70.177  1.00  0.00    -0.023 C  
BRANCH  29  30
HETATM   30  C   UNL     1      -5.556   8.705  71.561  1.00  0.00    -0.041 C  
BRANCH  30  31
HETATM   31  C   UNL     1      -5.632   7.650  72.655  1.00  0.00    -0.036 C  
BRANCH  31  32
HETATM   32  S   UNL     1      -6.692   6.243  72.187  1.00  0.00    -0.065 S  
HETATM   33  O   UNL     1      -5.815   5.026  72.130  1.00  0.00    -0.018 OA 
BRANCH  32  34
HETATM   34  C   UNL     1      -7.652   6.140  73.731  1.00  0.00    -0.091 C  
BRANCH  34  35
HETATM   35  C   UNL     1      -9.140   6.375  73.493  1.00  0.00    -0.134 C  
BRANCH  35  36
HETATM   36  C   UNL     1      -9.407   6.901  72.083  1.00  0.00    -0.147 C  
BRANCH  36  37
HETATM   37  C   UNL     1     -10.448   6.084  71.320  1.00  0.00    -0.230 C  
HETATM   38  F   UNL     1     -11.510   5.859  72.148  1.00  0.00    -0.306 F  
HETATM   39  C   UNL     1      -9.917   4.764  70.742  1.00  0.00    -0.221 C  
HETATM   40  F   UNL     1     -10.930   6.880  70.319  1.00  0.00    -0.251 F  
HETATM   41  F   UNL     1      -8.582   4.631  70.893  1.00  0.00    -0.096 F  
HETATM   42  F   UNL     1     -10.505   3.700  71.338  1.00  0.00    -0.114 F  
HETATM   43  F   UNL     1     -10.173   4.657  69.414  1.00  0.00    -0.285 F  
ENDBRANCH  36  37
ENDBRANCH  35  36
ENDBRANCH  34  35
ENDBRANCH  32  34
ENDBRANCH  31  32
ENDBRANCH  30  31
ENDBRANCH  29  30
ENDBRANCH  28  29
ENDBRANCH  27  28
ENDBRANCH  26  27
ENDBRANCH  25  26
ENDBRANCH  24  25
ENDBRANCH  23  24
ENDBRANCH  21  23
TORSDOF 14
ENDMDL
MODEL      237
REMARK 921   NORMALIZED FREE ENERGY PREDICTED BY IDOCK:   -2.86 KCAL/MOL
REMARK 922        TOTAL FREE ENERGY PREDICTED BY IDOCK:   -8.50 KCAL/MOL
REMARK 923 INTER-LIGAND FREE ENERGY PREDICTED BY IDOCK:   -7.23 KCAL/MOL
REMARK 924 INTRA-LIGAND FREE ENERGY PREDICTED BY IDOCK:   -1.27 KCAL/MOL
REMARK 927      BINDING AFFINITY PREDICTED BY RF-SCORE:    0.00 PKD
ROOT
HETATM    1  C   UNL     1      -5.664  10.455  67.167  1.00  0.00    -0.045 C  
HETATM    2  C   UNL     1      -5.756  11.309  66.033  1.00  0.00    -0.030 C  
HETATM    3  C   UNL     1      -7.110  11.112  66.659  1.00  0.00    -0.141 C  
HETATM    4  C   UNL     1      -6.893  10.269  68.494  1.00  0.00    -0.061 C  
HETATM    5  O   UNL     1      -7.662  10.074  69.686  1.00  0.00    -0.121 OA 
HETATM    6  C   UNL     1      -6.643  11.610  68.325  1.00  0.00    -0.059 C  
HETATM    7  C   UNL     1      -8.484  11.686  68.319  1.00  0.00    -0.160 C  
HETATM    8  C   UNL     1      -5.887  12.573  69.168  1.00  0.00    -0.080 C  
HETATM    9  H   UNL     1      -7.561   9.681  70.544  1.00  0.00     0.000 HD 
HETATM   10  C   UNL     1      -9.224  10.142  67.813  1.00  0.00    -0.146 C  
HETATM   11  C   UNL     1      -8.400   8.954  66.899  1.00  0.00    -0.112 C  
HETATM   12  C   UNL     1      -9.006   7.550  66.780  1.00  0.00    -0.164 A  
HETATM   13  C   UNL     1     -10.379   7.350  67.016  1.00  0.00    -0.384 A  
HETATM   14  C   UNL     1     -11.001   6.132  66.717  1.00  0.00    -0.322 A  
HETATM   15  C   UNL     1     -10.250   5.095  66.187  1.00  0.00    -0.222 A  
HETATM   16  C   UNL     1      -8.897   5.265  65.934  1.00  0.00    -0.145 A  
HETATM   17  O   UNL     1     -10.810   3.891  65.875  1.00  0.00    -0.021 OA 
HETATM   18  C   UNL     1      -8.264   6.497  66.189  1.00  0.00    -0.123 A  
HETATM   19  H   UNL     1     -10.296   3.180  65.512  1.00  0.00     0.000 HD 
HETATM   20  C   UNL     1      -6.798   6.612  65.809  1.00  0.00    -0.049 C  
HETATM   21  C   UNL     1      -6.277   8.046  65.556  1.00  0.00    -0.038 C  
HETATM   22  C   UNL     1      -6.643   8.856  66.822  1.00  0.00    -0.064 C  
ENDROOT
BRANCH  21  23
HETATM   23  C   UNL     1      -6.865   8.634  64.256  1.00  0.00    -0.074 C  
BRANCH  23  24
HETATM   24  C   UNL     1      -8.223   9.302  64.371  1.00  0.00    -0.151 C  
BRANCH  24  25
HETATM   25  C   UNL     1      -8.592  10.000  63.053  1.00  0.00    -0.195 C  
BRANCH  25  26
HETATM   26  C   UNL     1      -9.480  11.245  63.214  1.00  0.00    -0.339 C  
BRANCH  26  27
HETATM   27  C   UNL     1     -10.675  11.041  64.146  1.00  0.00    -0.344 C  
BRANCH  27  28
HETATM   28  C   UNL     1     -10.771  12.148  65.197  1.00  0.00    -0.333 C  
BRANCH  28  29
HETATM   29  C   UNL     1     -10.408  13.532  64.655  1.00  0.00    -0.406 C  
BRANCH  29  30
HETATM   30  C   UNL     1     -10.234  14.623  65.723  1.00  0.00    -0.360 C  
BRANCH  30  31
HETATM   31  C   UNL     1      -8.843  14.722  66.333  1.00  0.00    -0.117 C  
BRANCH  31  32
HETATM   32  S   UNL     1      -8.582  16.301  67.205  1.00  0.00    -0.188 S  
HETATM   33  O   UNL     1      -7.596  17.096  66.401  1.00  0.00    -0.256 OA 
BRANCH  32  34
HETATM   34  C   UNL     1     -10.227  17.021  66.899  1.00  0.00    -0.305 C  
BRANCH  34  35
HETATM   35  C   UNL     1     -10.896  17.483  68.189  1.00  0.00    -0.246 C  
BRANCH  35  36
HETATM   36  C   UNL     1     -10.333  16.752  69.407  1.00  0.00    -0.276 C  
BRANCH  36  37
HETATM   37  C   UNL     1     -11.367  15.892  70.130  1.00  0.00    -0.365 C  
HETATM   38  F   UNL     1     -11.182  16.034  71.474  1.00  0.00    -0.384 F  
HETATM   39  C   UNL     1     -11.348  14.410  69.730  1.00  0.00    -0.237 C  
HETATM   40  F   UNL     1     -12.594  16.436  69.872  1.00  0.00     0.066 F  
HETATM   41  F   UNL     1     -10.509  14.160  68.701  1.00  0.00    -0.224 F  
HETATM   42  F   UNL     1     -10.966  13.629  70.768  1.00  0.00     0.358 F  
HETATM   43  F   UNL     1     -12.575  13.975  69.347  1.00  0.00    -0.366 F  
ENDBRANCH  36  37
ENDBRANCH  35  36
ENDBRANCH  34  35
ENDBRANCH  32  34
ENDBRANCH  31  32
ENDBRANCH  30  31
ENDBRANCH  29  30
ENDBRANCH  28  29
ENDBRANCH  27  28
ENDBRANCH  26  27
ENDBRANCH  25  26
ENDBRANCH  24  25
ENDBRANCH  23  24
ENDBRANCH  21  23
TORSDOF 14
ENDMDL
MODEL      238
REMARK 921   NORMALIZED FREE ENERGY PREDICTED BY IDOCK:   -2.84 KCAL/MOL
REMARK 922        TOTAL FREE ENERGY PREDICTED BY IDOCK:   -8.46 KCAL/MOL
REMARK 923 INTER-LIGAND FREE ENERGY PREDICTED BY IDOCK:   -7.90 KCAL/MOL
REMARK 924 INTRA-LIGAND FREE ENERGY PREDICTED BY IDOCK:   -0.56 KCAL/MOL
REMARK 927      BINDING AFFINITY PREDICTED BY RF-SCORE:    0.00 PKD
ROOT
HETATM    1  C   UNL     1      -9.669   3.453  66.244  1.00  0.00     0.019 C  
HETATM    2  C   UNL     1     -10.326   4.009  65.110  1.00  0.00    -0.147 C  
HETATM    3  C   UNL     1      -8.932   4.559  65.238  1.00  0.00    -0.144 C  
HETATM    4  C   UNL     1      -7.882   3.445  66.573  1.00  0.00    -0.081 C  
HETATM    5  O   UNL     1      -6.519   3.223  66.952  1.00  0.00    -0.035 OA 
HETATM    6  C   UNL     1      -8.085   2.971  65.300  1.00  0.00    -0.086 C  
HETATM    7  C   UNL     1      -6.757   4.187  64.914  1.00  0.00    -0.048 C  
HETATM    8  C   UNL     1      -7.983   1.595  64.746  1.00  0.00    -0.069 C  
HETATM    9  H   UNL     1      -6.028   2.702  67.576  1.00  0.00     0.000 HD 
HETATM   10  C   UNL     1      -6.678   5.508  66.112  1.00  0.00    -0.057 C  
HETATM   11  C   UNL     1      -7.985   5.941  67.128  1.00  0.00    -0.102 C  
HETATM   12  C   UNL     1      -7.727   6.868  68.322  1.00  0.00    -0.113 A  
HETATM   13  C   UNL     1      -6.587   7.695  68.343  1.00  0.00    -0.054 A  
HETATM   14  C   UNL     1      -6.429   8.694  69.309  1.00  0.00    -0.042 A  
HETATM   15  C   UNL     1      -7.407   8.872  70.274  1.00  0.00    -0.067 A  
HETATM   16  C   UNL     1      -8.546   8.080  70.274  1.00  0.00    -0.132 A  
HETATM   17  O   UNL     1      -7.302   9.835  71.234  1.00  0.00    -0.290 OA 
HETATM   18  C   UNL     1      -8.741   7.097  69.284  1.00  0.00    -0.136 A  
HETATM   19  H   UNL     1      -7.972   9.957  71.895  1.00  0.00     0.000 HD 
HETATM   20  C   UNL     1     -10.053   6.332  69.321  1.00  0.00    -0.213 C  
HETATM   21  C   UNL     1     -10.505   5.702  67.982  1.00  0.00    -0.264 C  
HETATM   22  C   UNL     1      -9.312   4.844  67.497  1.00  0.00    -0.148 C  
ENDROOT
BRANCH  21  23
HETATM   23  C   UNL     1     -10.935   6.785  66.971  1.00  0.00    -0.439 C  
BRANCH  23  24
HETATM   24  C   UNL     1      -9.822   7.592  66.330  1.00  0.00    -0.174 C  
BRANCH  24  25
HETATM   25  C   UNL     1     -10.086   9.097  66.493  1.00  0.00    -0.357 C  
BRANCH  25  26
HETATM   26  C   UNL     1      -9.904   9.922  65.207  1.00  0.00    -0.373 C  
BRANCH  26  27
HETATM   27  C   UNL     1      -8.761  10.935  65.275  1.00  0.00    -0.147 C  
BRANCH  27  28
HETATM   28  C   UNL     1      -7.474  10.303  65.809  1.00  0.00    -0.144 C  
BRANCH  28  29
HETATM   29  C   UNL     1      -6.731  11.195  66.805  1.00  0.00    -0.135 C  
BRANCH  29  30
HETATM   30  C   UNL     1      -7.613  12.201  67.561  1.00  0.00    -0.151 C  
BRANCH  30  31
HETATM   31  C   UNL     1      -7.035  13.603  67.696  1.00  0.00    -0.172 C  
BRANCH  31  32
HETATM   32  S   UNL     1      -7.704  14.490  69.140  1.00  0.00    -0.034 S  
HETATM   33  O   UNL     1      -6.718  15.563  69.499  1.00  0.00    -0.156 OA 
BRANCH  32  34
HETATM   34  C   UNL     1      -9.099  15.305  68.299  1.00  0.00    -0.181 C  
BRANCH  34  35
HETATM   35  C   UNL     1      -9.090  16.814  68.512  1.00  0.00    -0.241 C  
BRANCH  35  36
HETATM   36  C   UNL     1      -8.675  17.559  67.244  1.00  0.00    -0.236 C  
BRANCH  36  37
HETATM   37  C   UNL     1      -9.181  18.999  67.195  1.00  0.00    -0.293 C  
HETATM   38  F   UNL     1      -9.329  19.448  68.475  1.00  0.00    -0.368 F  
HETATM   39  C   UNL     1     -10.481  19.185  66.398  1.00  0.00    -0.463 C  
HETATM   40  F   UNL     1      -8.182  19.759  66.656  1.00  0.00    -0.280 F  
HETATM   41  F   UNL     1     -10.867  18.058  65.762  1.00  0.00    -0.372 F  
HETATM   42  F   UNL     1     -11.498  19.569  67.205  1.00  0.00    -0.465 F  
HETATM   43  F   UNL     1     -10.356  20.146  65.448  1.00  0.00    -0.512 F  
ENDBRANCH  36  37
ENDBRANCH  35  36
ENDBRANCH  34  35
ENDBRANCH  32  34
ENDBRANCH  31  32
ENDBRANCH  30  31
ENDBRANCH  29  30
ENDBRANCH  28  29
ENDBRANCH  27  28
ENDBRANCH  26  27
ENDBRANCH  25  26
ENDBRANCH  24  25
ENDBRANCH  23  24
ENDBRANCH  21  23
TORSDOF 14
ENDMDL
MODEL      239
REMARK 921   NORMALIZED FREE ENERGY PREDICTED BY IDOCK:   -2.80 KCAL/MOL
REMARK 922        TOTAL FREE ENERGY PREDICTED BY IDOCK:   -8.39 KCAL/MOL
REMARK 923 INTER-LIGAND FREE ENERGY PREDICTED BY IDOCK:   -7.90 KCAL/MOL
REMARK 924 INTRA-LIGAND FREE ENERGY PREDICTED BY IDOCK:   -0.49 KCAL/MOL
REMARK 927      BINDING AFFINITY PREDICTED BY RF-SCORE:    0.00 PKD
ROOT
HETATM    1  C   UNL     1      -5.305   9.483  66.925  1.00  0.00    -0.045 C  
HETATM    2  C   UNL     1      -5.844  10.686  66.387  1.00  0.00    -0.092 C  
HETATM    3  C   UNL     1      -6.901   9.918  67.132  1.00  0.00    -0.083 C  
HETATM    4  C   UNL     1      -6.026   8.460  68.243  1.00  0.00    -0.046 C  
HETATM    5  O   UNL     1      -6.355   7.598  69.338  1.00  0.00    -0.034 OA 
HETATM    6  C   UNL     1      -5.994   9.762  68.680  1.00  0.00    -0.042 C  
HETATM    7  C   UNL     1      -7.740   9.380  69.127  1.00  0.00    -0.079 C  
HETATM    8  C   UNL     1      -5.125  10.431  69.683  1.00  0.00    -0.038 C  
HETATM    9  H   UNL     1      -5.946   6.916  69.858  1.00  0.00     0.000 HD 
HETATM   10  C   UNL     1      -8.424   8.066  68.131  1.00  0.00    -0.123 C  
HETATM   11  C   UNL     1      -7.800   7.617  66.602  1.00  0.00    -0.106 C  
HETATM   12  C   UNL     1      -8.251   6.295  65.972  1.00  0.00    -0.125 A  
HETATM   13  C   UNL     1      -9.449   5.684  66.388  1.00  0.00    -0.170 A  
HETATM   14  C   UNL     1      -9.992   4.595  65.696  1.00  0.00    -0.228 A  
HETATM   15  C   UNL     1      -9.334   4.098  64.582  1.00  0.00    -0.163 A  
HETATM   16  C   UNL     1      -8.156   4.684  64.142  1.00  0.00    -0.104 A  
HETATM   17  O   UNL     1      -9.824   3.043  63.872  1.00  0.00    -0.139 OA 
HETATM   18  C   UNL     1      -7.619   5.806  64.801  1.00  0.00    -0.086 A  
HETATM   19  H   UNL     1      -9.374   2.702  63.108  1.00  0.00     0.000 HD 
HETATM   20  C   UNL     1      -6.369   6.426  64.200  1.00  0.00    -0.030 C  
HETATM   21  C   UNL     1      -6.117   7.913  64.549  1.00  0.00    -0.048 C  
HETATM   22  C   UNL     1      -6.157   7.995  66.093  1.00  0.00    -0.045 C  
ENDROOT
BRANCH  21  23
HETATM   23  C   UNL     1      -7.146   8.831  63.857  1.00  0.00    -0.091 C  
BRANCH  23  24
HETATM   24  C   UNL     1      -8.533   8.876  64.471  1.00  0.00    -0.178 C  
BRANCH  24  25
HETATM   25  C   UNL     1      -9.279  10.141  64.022  1.00  0.00    -0.315 C  
BRANCH  25  26
HETATM   26  C   UNL     1     -10.133  10.805  65.116  1.00  0.00    -0.363 C  
BRANCH  26  27
HETATM   27  C   UNL     1     -10.578   9.849  66.223  1.00  0.00    -0.089 C  
BRANCH  27  28
HETATM   28  C   UNL     1     -10.951  10.598  67.503  1.00  0.00    -0.371 C  
BRANCH  28  29
HETATM   29  C   UNL     1     -11.471  12.014  67.247  1.00  0.00    -0.403 C  
BRANCH  29  30
HETATM   30  C   UNL     1     -11.692  12.863  68.509  1.00  0.00    -0.374 C  
BRANCH  30  31
HETATM   31  C   UNL     1     -10.730  14.029  68.687  1.00  0.00    -0.259 C  
BRANCH  31  32
HETATM   32  S   UNL     1     -11.576  15.545  69.241  1.00  0.00    -0.379 S  
HETATM   33  O   UNL     1     -12.319  15.204  70.500  1.00  0.00    -0.310 OA 
BRANCH  32  34
HETATM   34  C   UNL     1     -10.095  16.484  69.731  1.00  0.00    -0.015 C  
BRANCH  34  35
HETATM   35  C   UNL     1      -9.903  17.732  68.876  1.00  0.00    -0.290 C  
BRANCH  35  36
HETATM   36  C   UNL     1     -10.877  17.761  67.699  1.00  0.00    -0.234 C  
BRANCH  36  37
HETATM   37  C   UNL     1     -10.190  17.625  66.342  1.00  0.00    -0.364 C  
HETATM   38  F   UNL     1     -10.442  18.753  65.616  1.00  0.00    -0.446 F  
HETATM   39  C   UNL     1     -10.590  16.369  65.554  1.00  0.00    -0.330 C  
HETATM   40  F   UNL     1      -8.843  17.632  66.569  1.00  0.00    -0.249 F  
HETATM   41  F   UNL     1     -11.374  15.534  66.269  1.00  0.00    -0.289 F  
HETATM   42  F   UNL     1     -11.262  16.695  64.425  1.00  0.00    -0.502 F  
HETATM   43  F   UNL     1      -9.506  15.650  65.167  1.00  0.00    -0.223 F  
ENDBRANCH  36  37
ENDBRANCH  35  36
ENDBRANCH  34  35
ENDBRANCH  32  34
ENDBRANCH  31  32
ENDBRANCH  30  31
ENDBRANCH  29  30
ENDBRANCH  28  29
ENDBRANCH  27  28
ENDBRANCH  26  27
ENDBRANCH  25  26
ENDBRANCH  24  25
ENDBRANCH  23  24
ENDBRANCH  21  23
TORSDOF 14
ENDMDL
MODEL      240
REMARK 921   NORMALIZED FREE ENERGY PREDICTED BY IDOCK:   -2.80 KCAL/MOL
REMARK 922        TOTAL FREE ENERGY PREDICTED BY IDOCK:   -8.39 KCAL/MOL
REMARK 923 INTER-LIGAND FREE ENERGY PREDICTED BY IDOCK:   -7.62 KCAL/MOL
REMARK 924 INTRA-LIGAND FREE ENERGY PREDICTED BY IDOCK:   -0.77 KCAL/MOL
REMARK 927      BINDING AFFINITY PREDICTED BY RF-SCORE:    0.00 PKD
ROOT
HETATM    1  C   UNL     1      -9.668   3.483  66.057  1.00  0.00    -0.043 C  
HETATM    2  C   UNL     1     -10.213   4.192  64.950  1.00  0.00    -0.218 C  
HETATM    3  C   UNL     1      -8.829   4.689  65.268  1.00  0.00    -0.145 C  
HETATM    4  C   UNL     1      -7.918   3.390  66.537  1.00  0.00    -0.084 C  
HETATM    5  O   UNL     1      -6.598   3.089  67.003  1.00  0.00    -0.036 OA 
HETATM    6  C   UNL     1      -8.012   3.085  65.201  1.00  0.00    -0.082 C  
HETATM    7  C   UNL     1      -6.639   4.308  65.092  1.00  0.00    -0.047 C  
HETATM    8  C   UNL     1      -7.878   1.788  64.487  1.00  0.00    -0.068 C  
HETATM    9  H   UNL     1      -6.171   2.482  67.596  1.00  0.00     0.000 HD 
HETATM   10  C   UNL     1      -6.652   5.466  66.451  1.00  0.00    -0.056 C  
HETATM   11  C   UNL     1      -8.039   5.798  67.396  1.00  0.00    -0.102 C  
HETATM   12  C   UNL     1      -7.877   6.561  68.716  1.00  0.00    -0.110 A  
HETATM   13  C   UNL     1      -6.734   7.350  68.942  1.00  0.00    -0.049 A  
HETATM   14  C   UNL     1      -6.650   8.216  70.038  1.00  0.00    -0.036 A  
HETATM   15  C   UNL     1      -7.709   8.294  70.929  1.00  0.00    -0.082 A  
HETATM   16  C   UNL     1      -8.853   7.535  70.728  1.00  0.00    -0.148 A  
HETATM   17  O   UNL     1      -7.678   9.125  72.010  1.00  0.00    -0.331 OA 
HETATM   18  C   UNL     1      -8.971   6.691  69.608  1.00  0.00    -0.142 A  
HETATM   19  H   UNL     1      -8.403   9.179  72.620  1.00  0.00     0.000 HD 
HETATM   20  C   UNL     1     -10.290   5.959  69.431  1.00  0.00    -0.313 C  
HETATM   21  C   UNL     1     -10.628   5.514  67.988  1.00  0.00    -0.213 C  
HETATM   22  C   UNL     1      -9.407   4.695  67.504  1.00  0.00    -0.166 C  
ENDROOT
BRANCH  21  23
HETATM   23  C   UNL     1     -10.952   6.725  67.090  1.00  0.00    -0.458 C  
BRANCH  23  24
HETATM   24  C   UNL     1      -9.766   7.503  66.551  1.00  0.00    -0.238 C  
BRANCH  24  25
HETATM   25  C   UNL     1     -10.055   9.012  66.578  1.00  0.00    -0.354 C  
BRANCH  25  26
HETATM   26  C   UNL     1      -9.896   9.720  65.222  1.00  0.00    -0.335 C  
BRANCH  26  27
HETATM   27  C   UNL     1      -8.720  10.695  65.163  1.00  0.00    -0.196 C  
BRANCH  27  28
HETATM   28  C   UNL     1      -7.385   9.990  65.402  1.00  0.00    -0.139 C  
BRANCH  28  29
HETATM   29  C   UNL     1      -6.396  10.824  66.219  1.00  0.00    -0.129 C  
BRANCH  29  30
HETATM   30  C   UNL     1      -7.035  11.725  67.289  1.00  0.00    -0.138 C  
BRANCH  30  31
HETATM   31  C   UNL     1      -6.482  13.141  67.364  1.00  0.00    -0.068 C  
BRANCH  31  32
HETATM   32  S   UNL     1      -6.786  13.915  68.986  1.00  0.00    -0.107 S  
HETATM   33  O   UNL     1      -5.936  15.150  69.054  1.00  0.00    -0.095 OA 
BRANCH  32  34
HETATM   34  C   UNL     1      -8.497  14.459  68.678  1.00  0.00    -0.156 C  
BRANCH  34  35
HETATM   35  C   UNL     1      -8.551  15.864  68.089  1.00  0.00    -0.169 C  
BRANCH  35  36
HETATM   36  C   UNL     1      -8.931  15.840  66.610  1.00  0.00    -0.313 C  
BRANCH  36  37
HETATM   37  C   UNL     1     -10.439  15.791  66.373  1.00  0.00    -0.303 C  
HETATM   38  F   UNL     1     -11.066  16.252  67.494  1.00  0.00    -0.318 F  
HETATM   39  C   UNL     1     -10.973  14.406  65.980  1.00  0.00    -0.316 C  
HETATM   40  F   UNL     1     -10.724  16.703  65.396  1.00  0.00    -0.355 F  
HETATM   41  F   UNL     1      -9.986  13.508  65.774  1.00  0.00    -0.271 F  
HETATM   42  F   UNL     1     -11.788  13.907  66.938  1.00  0.00    -0.351 F  
HETATM   43  F   UNL     1     -11.702  14.453  64.836  1.00  0.00    -0.341 F  
ENDBRANCH  36  37
ENDBRANCH  35  36
ENDBRANCH  34  35
ENDBRANCH  32  34
ENDBRANCH  31  32
ENDBRANCH  30  31
ENDBRANCH  29  30
ENDBRANCH  28  29
ENDBRANCH  27  28
ENDBRANCH  26  27
ENDBRANCH  25  26
ENDBRANCH  24  25
ENDBRANCH  23  24
ENDBRANCH  21  23
TORSDOF 14
ENDMDL
MODEL      241
REMARK 921   NORMALIZED FREE ENERGY PREDICTED BY IDOCK:   -2.80 KCAL/MOL
REMARK 922        TOTAL FREE ENERGY PREDICTED BY IDOCK:   -8.39 KCAL/MOL
REMARK 923 INTER-LIGAND FREE ENERGY PREDICTED BY IDOCK:   -7.34 KCAL/MOL
REMARK 924 INTRA-LIGAND FREE ENERGY PREDICTED BY IDOCK:   -1.05 KCAL/MOL
REMARK 927      BINDING AFFINITY PREDICTED BY RF-SCORE:    0.00 PKD
ROOT
HETATM    1  C   UNL     1     -11.733  15.834  66.894  1.00  0.00     0.437 C  
HETATM    2  C   UNL     1     -10.396  16.315  66.988  1.00  0.00    -0.292 C  
HETATM    3  C   UNL     1     -10.410  14.861  66.604  1.00  0.00    -0.283 C  
HETATM    4  C   UNL     1     -12.291  14.322  66.054  1.00  0.00    -0.395 C  
HETATM    5  O   UNL     1     -12.943  13.259  65.351  1.00  0.00    -0.588 OA 
HETATM    6  C   UNL     1     -11.502  15.031  65.182  1.00  0.00    -0.339 C  
HETATM    7  C   UNL     1     -10.713  13.381  64.963  1.00  0.00    -0.354 C  
HETATM    8  C   UNL     1     -11.855  15.825  63.975  1.00  0.00     0.106 C  
HETATM    9  H   UNL     1     -13.822  13.007  65.094  1.00  0.00     0.000 HD 
HETATM   10  C   UNL     1     -10.939  12.327  66.386  1.00  0.00    -0.326 C  
HETATM   11  C   UNL     1     -11.301  12.918  67.950  1.00  0.00    -0.336 C  
HETATM   12  C   UNL     1     -11.776  11.935  69.027  1.00  0.00    -0.391 A  
HETATM   13  C   UNL     1     -11.507  10.559  68.899  1.00  0.00    -0.292 A  
HETATM   14  C   UNL     1     -11.742   9.669  69.952  1.00  0.00    -0.009 A  
HETATM   15  C   UNL     1     -12.261  10.145  71.146  1.00  0.00    -0.389 A  
HETATM   16  C   UNL     1     -12.529  11.497  71.306  1.00  0.00    -0.399 A  
HETATM   17  O   UNL     1     -12.504   9.319  72.203  1.00  0.00    -0.370 OA 
HETATM   18  C   UNL     1     -12.258  12.413  70.271  1.00  0.00    -0.345 A  
HETATM   19  H   UNL     1     -12.860   9.645  73.021  1.00  0.00     0.000 HD 
HETATM   20  C   UNL     1     -12.512  13.881  70.566  1.00  0.00    -0.422 C  
HETATM   21  C   UNL     1     -11.718  14.891  69.702  1.00  0.00    -0.356 C  
HETATM   22  C   UNL     1     -12.009  14.505  68.232  1.00  0.00    -0.303 C  
ENDROOT
BRANCH  21  23
HETATM   23  C   UNL     1     -10.217  14.873  70.058  1.00  0.00     0.040 C  
BRANCH  23  24
HETATM   24  C   UNL     1      -9.409  16.088  69.641  1.00  0.00    -0.040 C  
BRANCH  24  25
HETATM   25  C   UNL     1      -7.937  15.705  69.422  1.00  0.00    -0.226 C  
BRANCH  25  26
HETATM   26  C   UNL     1      -7.707  14.631  68.345  1.00  0.00    -0.125 C  
BRANCH  26  27
HETATM   27  C   UNL     1      -7.279  13.274  68.902  1.00  0.00    -0.054 C  
BRANCH  27  28
HETATM   28  C   UNL     1      -5.959  12.800  68.291  1.00  0.00    -0.075 C  
BRANCH  28  29
HETATM   29  C   UNL     1      -5.352  11.598  69.018  1.00  0.00    -0.046 C  
BRANCH  29  30
HETATM   30  C   UNL     1      -5.129  10.355  68.142  1.00  0.00    -0.034 C  
BRANCH  30  31
HETATM   31  C   UNL     1      -6.155   9.244  68.312  1.00  0.00    -0.052 C  
BRANCH  31  32
HETATM   32  S   UNL     1      -7.005   8.844  66.750  1.00  0.00    -0.078 S  
HETATM   33  O   UNL     1      -5.944   8.608  65.715  1.00  0.00    -0.047 OA 
BRANCH  32  34
HETATM   34  C   UNL     1      -7.649   7.211  67.237  1.00  0.00    -0.104 C  
BRANCH  34  35
HETATM   35  C   UNL     1      -8.652   7.313  68.381  1.00  0.00    -0.124 C  
BRANCH  35  36
HETATM   36  C   UNL     1     -10.090   7.339  67.866  1.00  0.00    -0.217 C  
BRANCH  36  37
HETATM   37  C   UNL     1     -10.900   6.108  68.267  1.00  0.00    -0.306 C  
HETATM   38  F   UNL     1     -12.202   6.316  67.919  1.00  0.00     0.970 F  
HETATM   39  C   UNL     1     -10.785   5.732  69.752  1.00  0.00    -0.348 C  
HETATM   40  F   UNL     1     -10.475   5.073  67.483  1.00  0.00    -0.214 F  
HETATM   41  F   UNL     1      -9.871   6.479  70.408  1.00  0.00    -0.174 F  
HETATM   42  F   UNL     1     -11.971   5.884  70.387  1.00  0.00    -0.202 F  
HETATM   43  F   UNL     1     -10.420   4.436  69.917  1.00  0.00    -0.234 F  
ENDBRANCH  36  37
ENDBRANCH  35  36
ENDBRANCH  34  35
ENDBRANCH  32  34
ENDBRANCH  31  32
ENDBRANCH  30  31
ENDBRANCH  29  30
ENDBRANCH  28  29
ENDBRANCH  27  28
ENDBRANCH  26  27
ENDBRANCH  25  26
ENDBRANCH  24  25
ENDBRANCH  23  24
ENDBRANCH  21  23
TORSDOF 14
ENDMDL
MODEL      242
REMARK 921   NORMALIZED FREE ENERGY PREDICTED BY IDOCK:   -2.76 KCAL/MOL
REMARK 922        TOTAL FREE ENERGY PREDICTED BY IDOCK:   -8.32 KCAL/MOL
REMARK 923 INTER-LIGAND FREE ENERGY PREDICTED BY IDOCK:   -7.04 KCAL/MOL
REMARK 924 INTRA-LIGAND FREE ENERGY PREDICTED BY IDOCK:   -1.28 KCAL/MOL
REMARK 927      BINDING AFFINITY PREDICTED BY RF-SCORE:    0.00 PKD
ROOT
HETATM    1  C   UNL     1      -7.722   9.119  67.903  1.00  0.00    -0.093 C  
HETATM    2  C   UNL     1      -8.991   9.585  67.459  1.00  0.00    -0.133 C  
HETATM    3  C   UNL     1      -9.028   8.102  67.705  1.00  0.00    -0.135 C  
HETATM    4  C   UNL     1      -7.371   7.544  68.740  1.00  0.00    -0.095 C  
HETATM    5  O   UNL     1      -6.909   6.430  69.512  1.00  0.00    -0.060 OA 
HETATM    6  C   UNL     1      -8.411   8.155  69.396  1.00  0.00    -0.127 C  
HETATM    7  C   UNL     1      -9.158   6.480  69.230  1.00  0.00    -0.137 C  
HETATM    8  C   UNL     1      -8.463   8.838  70.716  1.00  0.00    -0.202 C  
HETATM    9  H   UNL     1      -6.135   6.170  69.996  1.00  0.00     0.000 HD 
HETATM   10  C   UNL     1      -8.477   5.568  67.854  1.00  0.00    -0.098 C  
HETATM   11  C   UNL     1      -7.698   6.308  66.523  1.00  0.00    -0.099 C  
HETATM   12  C   UNL     1      -6.884   5.439  65.557  1.00  0.00    -0.060 A  
HETATM   13  C   UNL     1      -7.120   4.053  65.482  1.00  0.00    -0.063 A  
HETATM   14  C   UNL     1      -6.547   3.269  64.474  1.00  0.00    -0.035 A  
HETATM   15  C   UNL     1      -5.721   3.863  63.534  1.00  0.00    -0.014 A  
HETATM   16  C   UNL     1      -5.477   5.228  63.576  1.00  0.00    -0.013 A  
HETATM   17  O   UNL     1      -5.143   3.144  62.530  1.00  0.00    -0.004 OA 
HETATM   18  C   UNL     1      -6.079   6.039  64.557  1.00  0.00    -0.026 A  
HETATM   19  H   UNL     1      -4.577   3.551  61.885  1.00  0.00     0.000 HD 
HETATM   20  C   UNL     1      -5.814   7.532  64.476  1.00  0.00    -0.037 C  
HETATM   21  C   UNL     1      -6.869   8.443  65.148  1.00  0.00    -0.067 C  
HETATM   22  C   UNL     1      -7.007   7.926  66.600  1.00  0.00    -0.072 C  
ENDROOT
BRANCH  21  23
HETATM   23  C   UNL     1      -8.197   8.435  64.363  1.00  0.00    -0.141 C  
BRANCH  23  24
HETATM   24  C   UNL     1      -9.134   9.603  64.607  1.00  0.00    -0.286 C  
BRANCH  24  25
HETATM   25  C   UNL     1      -8.665  10.841  63.828  1.00  0.00    -0.084 C  
BRANCH  25  26
HETATM   26  C   UNL     1      -9.794  11.796  63.403  1.00  0.00    -0.407 C  
BRANCH  26  27
HETATM   27  C   UNL     1      -9.938  13.027  64.299  1.00  0.00    -0.085 C  
BRANCH  27  28
HETATM   28  C   UNL     1     -11.271  13.029  65.050  1.00  0.00    -0.324 C  
BRANCH  28  29
HETATM   29  C   UNL     1     -12.008  14.368  64.970  1.00  0.00    -0.413 C  
BRANCH  29  30
HETATM   30  C   UNL     1     -12.534  14.901  66.312  1.00  0.00     0.344 C  
BRANCH  30  31
HETATM   31  C   UNL     1     -11.776  14.427  67.544  1.00  0.00    -0.387 C  
BRANCH  31  32
HETATM   32  S   UNL     1     -10.723  15.736  68.252  1.00  0.00    -0.294 S  
HETATM   33  O   UNL     1     -11.013  15.792  69.723  1.00  0.00    -0.260 OA 
BRANCH  32  34
HETATM   34  C   UNL     1      -9.122  14.891  68.053  1.00  0.00    -0.180 C  
BRANCH  34  35
HETATM   35  C   UNL     1      -8.272  15.530  66.961  1.00  0.00    -0.275 C  
BRANCH  35  36
HETATM   36  C   UNL     1      -9.027  16.648  66.243  1.00  0.00    -0.340 C  
BRANCH  36  37
HETATM   37  C   UNL     1      -8.573  18.047  66.655  1.00  0.00    -0.263 C  
HETATM   38  F   UNL     1      -8.030  17.973  67.905  1.00  0.00    -0.222 F  
HETATM   39  C   UNL     1      -9.679  19.111  66.602  1.00  0.00    -0.346 C  
HETATM   40  F   UNL     1      -7.541  18.395  65.830  1.00  0.00    -0.281 F  
HETATM   41  F   UNL     1     -10.824  18.644  66.061  1.00  0.00    -0.424 F  
HETATM   42  F   UNL     1      -9.969  19.575  67.840  1.00  0.00    -0.382 F  
HETATM   43  F   UNL     1      -9.308  20.186  65.861  1.00  0.00    -0.424 F  
ENDBRANCH  36  37
ENDBRANCH  35  36
ENDBRANCH  34  35
ENDBRANCH  32  34
ENDBRANCH  31  32
ENDBRANCH  30  31
ENDBRANCH  29  30
ENDBRANCH  28  29
ENDBRANCH  27  28
ENDBRANCH  26  27
ENDBRANCH  25  26
ENDBRANCH  24  25
ENDBRANCH  23  24
ENDBRANCH  21  23
TORSDOF 14
ENDMDL
MODEL      243
REMARK 921   NORMALIZED FREE ENERGY PREDICTED BY IDOCK:   -2.76 KCAL/MOL
REMARK 922        TOTAL FREE ENERGY PREDICTED BY IDOCK:   -8.31 KCAL/MOL
REMARK 923 INTER-LIGAND FREE ENERGY PREDICTED BY IDOCK:   -7.15 KCAL/MOL
REMARK 924 INTRA-LIGAND FREE ENERGY PREDICTED BY IDOCK:   -1.16 KCAL/MOL
REMARK 927      BINDING AFFINITY PREDICTED BY RF-SCORE:    0.00 PKD
ROOT
HETATM    1  C   UNL     1      -5.669  10.426  67.166  1.00  0.00    -0.045 C  
HETATM    2  C   UNL     1      -5.918  11.446  66.206  1.00  0.00    -0.044 C  
HETATM    3  C   UNL     1      -7.187  11.070  66.921  1.00  0.00    -0.133 C  
HETATM    4  C   UNL     1      -6.739   9.954  68.558  1.00  0.00    -0.055 C  
HETATM    5  O   UNL     1      -7.366   9.522  69.770  1.00  0.00    -0.071 OA 
HETATM    6  C   UNL     1      -6.566  11.316  68.593  1.00  0.00    -0.064 C  
HETATM    7  C   UNL     1      -8.398  11.283  68.781  1.00  0.00    -0.120 C  
HETATM    8  C   UNL     1      -5.765  12.173  69.506  1.00  0.00    -0.087 C  
HETATM    9  H   UNL     1      -7.157   9.001  70.536  1.00  0.00     0.000 HD 
HETATM   10  C   UNL     1      -9.123   9.800  68.099  1.00  0.00    -0.125 C  
HETATM   11  C   UNL     1      -8.352   8.828  66.921  1.00  0.00    -0.108 C  
HETATM   12  C   UNL     1      -8.908   7.429  66.629  1.00  0.00    -0.157 A  
HETATM   13  C   UNL     1     -10.238   7.111  66.963  1.00  0.00    -0.339 A  
HETATM   14  C   UNL     1     -10.836   5.924  66.527  1.00  0.00    -0.214 A  
HETATM   15  C   UNL     1     -10.103   5.034  65.758  1.00  0.00    -0.123 A  
HETATM   16  C   UNL     1      -8.793   5.323  65.404  1.00  0.00    -0.152 A  
HETATM   17  O   UNL     1     -10.642   3.865  65.305  1.00  0.00    -0.470 OA 
HETATM   18  C   UNL     1      -8.190   6.532  65.799  1.00  0.00    -0.135 A  
HETATM   19  H   UNL     1     -10.140   3.255  64.778  1.00  0.00     0.000 HD 
HETATM   20  C   UNL     1      -6.779   6.794  65.300  1.00  0.00    -0.051 C  
HETATM   21  C   UNL     1      -6.349   8.280  65.241  1.00  0.00    -0.048 C  
HETATM   22  C   UNL     1      -6.611   8.849  66.655  1.00  0.00    -0.064 C  
ENDROOT
BRANCH  21  23
HETATM   23  C   UNL     1      -7.098   9.035  64.124  1.00  0.00    -0.094 C  
BRANCH  23  24
HETATM   24  C   UNL     1      -8.458   9.602  64.486  1.00  0.00    -0.186 C  
BRANCH  24  25
HETATM   25  C   UNL     1      -8.870  10.691  63.484  1.00  0.00    -0.189 C  
BRANCH  25  26
HETATM   26  C   UNL     1      -9.771  11.793  64.070  1.00  0.00    -0.202 C  
BRANCH  26  27
HETATM   27  C   UNL     1     -10.912  11.266  64.939  1.00  0.00    -0.243 C  
BRANCH  27  28
HETATM   28  C   UNL     1     -11.044  12.056  66.242  1.00  0.00    -0.363 C  
BRANCH  28  29
HETATM   29  C   UNL     1     -10.851  13.563  66.060  1.00  0.00    -0.282 C  
BRANCH  29  30
HETATM   30  C   UNL     1     -10.693  14.360  67.364  1.00  0.00    -0.280 C  
BRANCH  30  31
HETATM   31  C   UNL     1      -9.265  14.510  67.869  1.00  0.00    -0.196 C  
BRANCH  31  32
HETATM   32  S   UNL     1      -9.127  15.756  69.192  1.00  0.00    -0.272 S  
HETATM   33  O   UNL     1      -9.885  15.232  70.377  1.00  0.00    -0.029 OA 
BRANCH  32  34
HETATM   34  C   UNL     1      -7.355  15.535  69.548  1.00  0.00    -0.203 C  
BRANCH  34  35
HETATM   35  C   UNL     1      -6.613  16.866  69.598  1.00  0.00    -0.138 C  
BRANCH  35  36
HETATM   36  C   UNL     1      -7.331  17.940  68.782  1.00  0.00    -0.271 C  
BRANCH  36  37
HETATM   37  C   UNL     1      -6.462  18.544  67.680  1.00  0.00    -0.204 C  
HETATM   38  F   UNL     1      -6.675  19.892  67.654  1.00  0.00    -0.239 F  
HETATM   39  C   UNL     1      -6.685  17.930  66.290  1.00  0.00    -0.259 C  
HETATM   40  F   UNL     1      -5.160  18.389  68.063  1.00  0.00    -0.156 F  
HETATM   41  F   UNL     1      -7.512  16.863  66.321  1.00  0.00    -0.263 F  
HETATM   42  F   UNL     1      -7.217  18.836  65.436  1.00  0.00    -0.266 F  
HETATM   43  F   UNL     1      -5.523  17.507  65.734  1.00  0.00    -0.212 F  
ENDBRANCH  36  37
ENDBRANCH  35  36
ENDBRANCH  34  35
ENDBRANCH  32  34
ENDBRANCH  31  32
ENDBRANCH  30  31
ENDBRANCH  29  30
ENDBRANCH  28  29
ENDBRANCH  27  28
ENDBRANCH  26  27
ENDBRANCH  25  26
ENDBRANCH  24  25
ENDBRANCH  23  24
ENDBRANCH  21  23
TORSDOF 14
ENDMDL
MODEL      244
REMARK 921   NORMALIZED FREE ENERGY PREDICTED BY IDOCK:   -2.62 KCAL/MOL
REMARK 922        TOTAL FREE ENERGY PREDICTED BY IDOCK:   -8.05 KCAL/MOL
REMARK 923 INTER-LIGAND FREE ENERGY PREDICTED BY IDOCK:   -6.08 KCAL/MOL
REMARK 924 INTRA-LIGAND FREE ENERGY PREDICTED BY IDOCK:   -1.97 KCAL/MOL
REMARK 927      BINDING AFFINITY PREDICTED BY RF-SCORE:    0.00 PKD
ROOT
HETATM    1  C   UNL     1      -8.141  13.699  69.215  1.00  0.00     0.475 C  
HETATM    2  C   UNL     1      -8.356  12.681  68.244  1.00  0.00    -0.165 C  
HETATM    3  C   UNL     1      -7.437  13.743  67.704  1.00  0.00    -0.187 C  
HETATM    4  C   UNL     1      -6.804  14.930  69.226  1.00  0.00    -0.148 C  
HETATM    5  O   UNL     1      -5.771  15.888  69.485  1.00  0.00    -0.117 OA 
HETATM    6  C   UNL     1      -6.242  13.689  69.050  1.00  0.00    -0.097 C  
HETATM    7  C   UNL     1      -5.365  14.566  67.689  1.00  0.00     0.076 C  
HETATM    8  C   UNL     1      -5.456  12.836  69.980  1.00  0.00    -0.113 C  
HETATM    9  H   UNL     1      -5.475  16.443  70.196  1.00  0.00     0.000 HD 
HETATM   10  C   UNL     1      -6.274  15.985  67.099  1.00  0.00    -0.079 C  
HETATM   11  C   UNL     1      -7.959  16.184  67.318  1.00  0.00    -0.203 C  
HETATM   12  C   UNL     1      -8.588  17.558  67.055  1.00  0.00    -0.251 A  
HETATM   13  C   UNL     1      -7.923  18.498  66.246  1.00  0.00    -0.273 A  
HETATM   14  C   UNL     1      -8.556  19.671  65.819  1.00  0.00     0.027 A  
HETATM   15  C   UNL     1      -9.862  19.921  66.209  1.00  0.00    -0.461 A  
HETATM   16  C   UNL     1     -10.547  19.010  67.000  1.00  0.00    -0.543 A  
HETATM   17  O   UNL     1     -10.524  21.047  65.817  1.00  0.00     0.415 OA 
HETATM   18  C   UNL     1      -9.940  17.805  67.402  1.00  0.00    -0.323 A  
HETATM   19  H   UNL     1     -11.419  21.220  66.084  1.00  0.00     0.000 HD 
HETATM   20  C   UNL     1     -10.793  16.835  68.201  1.00  0.00    -0.353 C  
HETATM   21  C   UNL     1     -10.356  15.351  68.151  1.00  0.00    -0.239 C  
HETATM   22  C   UNL     1      -8.867  15.338  68.568  1.00  0.00    -0.185 C  
ENDROOT
BRANCH  21  23
HETATM   23  C   UNL     1     -10.612  14.740  66.758  1.00  0.00    -0.302 C  
BRANCH  23  24
HETATM   24  C   UNL     1     -11.691  15.398  65.919  1.00  0.00     0.208 C  
BRANCH  24  25
HETATM   25  C   UNL     1     -12.038  14.523  64.705  1.00  0.00    -0.486 C  
BRANCH  25  26
HETATM   26  C   UNL     1     -11.973  13.009  64.967  1.00  0.00    -0.438 C  
BRANCH  26  27
HETATM   27  C   UNL     1     -11.712  12.171  63.716  1.00  0.00    -0.576 C  
BRANCH  27  28
HETATM   28  C   UNL     1     -10.246  11.748  63.612  1.00  0.00    -0.461 C  
BRANCH  28  29
HETATM   29  C   UNL     1      -9.817  10.772  64.709  1.00  0.00    -0.358 C  
BRANCH  29  30
HETATM   30  C   UNL     1      -8.362  10.922  65.181  1.00  0.00     0.001 C  
BRANCH  30  31
HETATM   31  C   UNL     1      -7.317  10.274  64.285  1.00  0.00    -0.066 C  
BRANCH  31  32
HETATM   32  S   UNL     1      -5.723  10.043  65.139  1.00  0.00    -0.102 S  
HETATM   33  O   UNL     1      -6.005  10.035  66.613  1.00  0.00    -0.053 OA 
BRANCH  32  34
HETATM   34  C   UNL     1      -5.429   8.316  64.640  1.00  0.00    -0.040 C  
BRANCH  34  35
HETATM   35  C   UNL     1      -6.733   7.570  64.374  1.00  0.00    -0.048 C  
BRANCH  35  36
HETATM   36  C   UNL     1      -7.372   7.077  65.671  1.00  0.00    -0.079 C  
BRANCH  36  37
HETATM   37  C   UNL     1      -7.183   5.580  65.908  1.00  0.00    -0.072 C  
HETATM   38  F   UNL     1      -7.484   4.919  64.753  1.00  0.00    -0.069 F  
HETATM   39  C   UNL     1      -7.994   5.018  67.085  1.00  0.00    -0.100 C  
HETATM   40  F   UNL     1      -5.848   5.369  66.109  1.00  0.00    -0.016 F  
HETATM   41  F   UNL     1      -8.622   5.983  67.790  1.00  0.00    -0.108 F  
HETATM   42  F   UNL     1      -8.935   4.145  66.656  1.00  0.00    -0.111 F  
HETATM   43  F   UNL     1      -7.208   4.344  67.961  1.00  0.00    -0.060 F  
ENDBRANCH  36  37
ENDBRANCH  35  36
ENDBRANCH  34  35
ENDBRANCH  32  34
ENDBRANCH  31  32
ENDBRANCH  30  31
ENDBRANCH  29  30
ENDBRANCH  28  29
ENDBRANCH  27  28
ENDBRANCH  26  27
ENDBRANCH  25  26
ENDBRANCH  24  25
ENDBRANCH  23  24
ENDBRANCH  21  23
TORSDOF 14
ENDMDL
MODEL      245
REMARK 921   NORMALIZED FREE ENERGY PREDICTED BY IDOCK:   -2.61 KCAL/MOL
REMARK 922        TOTAL FREE ENERGY PREDICTED BY IDOCK:   -8.04 KCAL/MOL
REMARK 923 INTER-LIGAND FREE ENERGY PREDICTED BY IDOCK:   -6.53 KCAL/MOL
REMARK 924 INTRA-LIGAND FREE ENERGY PREDICTED BY IDOCK:   -1.51 KCAL/MOL
REMARK 927      BINDING AFFINITY PREDICTED BY RF-SCORE:    0.00 PKD
ROOT
HETATM    1  C   UNL     1     -11.692  15.711  69.931  1.00  0.00    -0.372 C  
HETATM    2  C   UNL     1     -12.595  15.916  68.850  1.00  0.00     0.776 C  
HETATM    3  C   UNL     1     -12.722  14.517  69.388  1.00  0.00     0.206 C  
HETATM    4  C   UNL     1     -11.764  14.387  71.175  1.00  0.00    -0.162 C  
HETATM    5  O   UNL     1     -11.716  13.514  72.309  1.00  0.00     0.885 OA 
HETATM    6  C   UNL     1     -13.002  14.979  71.106  1.00  0.00    -0.457 C  
HETATM    7  C   UNL     1     -13.548  13.222  71.005  1.00  0.00     0.326 C  
HETATM    8  C   UNL     1     -13.698  15.894  72.048  1.00  0.00    -0.222 C  
HETATM    9  H   UNL     1     -11.269  13.454  73.144  1.00  0.00     0.000 HD 
HETATM   10  C   UNL     1     -12.271  12.152  70.363  1.00  0.00    -0.378 C  
HETATM   11  C   UNL     1     -10.957  12.709  69.420  1.00  0.00    -0.042 C  
HETATM   12  C   UNL     1      -9.764  11.777  69.179  1.00  0.00     0.240 A  
HETATM   13  C   UNL     1      -9.910  10.385  69.328  1.00  0.00    -0.243 A  
HETATM   14  C   UNL     1      -8.909   9.498  68.919  1.00  0.00    -0.137 A  
HETATM   15  C   UNL     1      -7.741   9.996  68.364  1.00  0.00    -0.084 A  
HETATM   16  C   UNL     1      -7.570  11.363  68.196  1.00  0.00    -0.114 A  
HETATM   17  O   UNL     1      -6.737   9.173  67.947  1.00  0.00    -0.066 OA 
HETATM   18  C   UNL     1      -8.585  12.267  68.563  1.00  0.00    -0.068 A  
HETATM   19  H   UNL     1      -5.936   9.514  67.567  1.00  0.00     0.000 HD 
HETATM   20  C   UNL     1      -8.338  13.737  68.271  1.00  0.00    -0.161 C  
HETATM   21  C   UNL     1      -9.601  14.621  68.138  1.00  0.00    -0.213 C  
HETATM   22  C   UNL     1     -10.416  14.385  69.432  1.00  0.00    -0.097 C  
ENDROOT
BRANCH  21  23
HETATM   23  C   UNL     1     -10.382  14.291  66.849  1.00  0.00    -0.268 C  
BRANCH  23  24
HETATM   24  C   UNL     1     -11.793  13.764  67.030  1.00  0.00    -0.445 C  
BRANCH  24  25
HETATM   25  C   UNL     1     -12.458  13.524  65.666  1.00  0.00    -0.528 C  
BRANCH  25  26
HETATM   26  C   UNL     1     -11.487  13.519  64.473  1.00  0.00    -0.407 C  
BRANCH  26  27
HETATM   27  C   UNL     1     -11.478  12.210  63.683  1.00  0.00    -0.566 C  
BRANCH  27  28
HETATM   28  C   UNL     1     -10.206  11.400  63.942  1.00  0.00    -0.415 C  
BRANCH  28  29
HETATM   29  C   UNL     1     -10.180  10.738  65.321  1.00  0.00    -0.351 C  
BRANCH  29  30
HETATM   30  C   UNL     1      -9.588   9.320  65.349  1.00  0.00    -0.237 C  
BRANCH  30  31
HETATM   31  C   UNL     1     -10.280   8.343  66.289  1.00  0.00     0.053 C  
BRANCH  31  32
HETATM   32  S   UNL     1      -9.511   6.690  66.255  1.00  0.00    -0.011 S  
HETATM   33  O   UNL     1      -8.254   6.768  67.071  1.00  0.00    -0.111 OA 
BRANCH  32  34
HETATM   34  C   UNL     1     -10.754   5.825  67.267  1.00  0.00    -0.261 C  
BRANCH  34  35
HETATM   35  C   UNL     1     -10.354   5.772  68.738  1.00  0.00    -0.289 C  
BRANCH  35  36
HETATM   36  C   UNL     1     -11.295   6.606  69.606  1.00  0.00    -0.387 C  
BRANCH  36  37
HETATM   37  C   UNL     1     -10.761   6.847  71.017  1.00  0.00    -0.231 C  
HETATM   38  F   UNL     1     -10.974   5.721  71.757  1.00  0.00    -0.287 F  
HETATM   39  C   UNL     1     -11.355   8.080  71.715  1.00  0.00    -0.270 C  
HETATM   40  F   UNL     1      -9.403   6.967  70.919  1.00  0.00    -0.155 F  
HETATM   41  F   UNL     1     -12.141   8.812  70.897  1.00  0.00    -0.297 F  
HETATM   42  F   UNL     1     -12.101   7.721  72.786  1.00  0.00    -0.309 F  
HETATM   43  F   UNL     1     -10.388   8.913  72.176  1.00  0.00    -0.375 F  
ENDBRANCH  36  37
ENDBRANCH  35  36
ENDBRANCH  34  35
ENDBRANCH  32  34
ENDBRANCH  31  32
ENDBRANCH  30  31
ENDBRANCH  29  30
ENDBRANCH  28  29
ENDBRANCH  27  28
ENDBRANCH  26  27
ENDBRANCH  25  26
ENDBRANCH  24  25
ENDBRANCH  23  24
ENDBRANCH  21  23
TORSDOF 14
ENDMDL
MODEL      246
REMARK 921   NORMALIZED FREE ENERGY PREDICTED BY IDOCK:   -2.57 KCAL/MOL
REMARK 922        TOTAL FREE ENERGY PREDICTED BY IDOCK:   -7.97 KCAL/MOL
REMARK 923 INTER-LIGAND FREE ENERGY PREDICTED BY IDOCK:   -7.60 KCAL/MOL
REMARK 924 INTRA-LIGAND FREE ENERGY PREDICTED BY IDOCK:   -0.38 KCAL/MOL
REMARK 927      BINDING AFFINITY PREDICTED BY RF-SCORE:    0.00 PKD
ROOT
HETATM    1  C   UNL     1      -7.857  12.275  68.721  1.00  0.00     0.006 C  
HETATM    2  C   UNL     1      -7.767  11.581  67.482  1.00  0.00    -0.132 C  
HETATM    3  C   UNL     1      -7.009  12.879  67.418  1.00  0.00    -0.129 C  
HETATM    4  C   UNL     1      -6.785  13.625  69.294  1.00  0.00    -0.094 C  
HETATM    5  O   UNL     1      -5.986  14.599  69.976  1.00  0.00    -0.118 OA 
HETATM    6  C   UNL     1      -5.984  12.593  68.871  1.00  0.00    -0.074 C  
HETATM    7  C   UNL     1      -5.140  13.961  67.972  1.00  0.00    -0.097 C  
HETATM    8  C   UNL     1      -5.160  11.622  69.638  1.00  0.00    -0.058 C  
HETATM    9  H   UNL     1      -5.881  14.948  70.853  1.00  0.00     0.000 HD 
HETATM   10  C   UNL     1      -6.228  15.344  67.665  1.00  0.00    -0.167 C  
HETATM   11  C   UNL     1      -7.934  15.218  67.654  1.00  0.00    -0.177 C  
HETATM   12  C   UNL     1      -8.776  16.499  67.689  1.00  0.00    -0.195 A  
HETATM   13  C   UNL     1      -8.214  17.728  67.295  1.00  0.00    -0.226 A  
HETATM   14  C   UNL     1      -9.004  18.869  67.119  1.00  0.00    -0.299 A  
HETATM   15  C   UNL     1     -10.369  18.795  67.345  1.00  0.00    -0.418 A  
HETATM   16  C   UNL     1     -10.955  17.596  67.726  1.00  0.00    -0.111 A  
HETATM   17  O   UNL     1     -11.183  19.877  67.183  1.00  0.00    -0.198 OA 
HETATM   18  C   UNL     1     -10.181  16.428  67.867  1.00  0.00    -0.268 A  
HETATM   19  H   UNL     1     -12.118  19.827  67.338  1.00  0.00     0.000 HD 
HETATM   20  C   UNL     1     -10.921  15.147  68.211  1.00  0.00    -0.276 C  
HETATM   21  C   UNL     1     -10.210  13.830  67.818  1.00  0.00    -0.241 C  
HETATM   22  C   UNL     1      -8.801  13.908  68.450  1.00  0.00    -0.177 C  
ENDROOT
BRANCH  21  23
HETATM   23  C   UNL     1     -10.189  13.641  66.287  1.00  0.00    -0.296 C  
BRANCH  23  24
HETATM   24  C   UNL     1      -9.848  12.251  65.782  1.00  0.00    -0.260 C  
BRANCH  24  25
HETATM   25  C   UNL     1     -11.089  11.347  65.818  1.00  0.00    -0.217 C  
BRANCH  25  26
HETATM   26  C   UNL     1     -10.790   9.857  66.062  1.00  0.00     0.314 C  
BRANCH  26  27
HETATM   27  C   UNL     1     -10.628   9.489  67.537  1.00  0.00    -0.338 C  
BRANCH  27  28
HETATM   28  C   UNL     1      -9.939   8.135  67.711  1.00  0.00    -0.230 C  
BRANCH  28  29
HETATM   29  C   UNL     1     -10.273   7.452  69.039  1.00  0.00    -0.201 C  
BRANCH  29  30
HETATM   30  C   UNL     1      -9.135   6.614  69.642  1.00  0.00    -0.142 C  
BRANCH  30  31
HETATM   31  C   UNL     1      -7.902   7.398  70.067  1.00  0.00    -0.104 C  
BRANCH  31  32
HETATM   32  S   UNL     1      -8.295   8.701  71.279  1.00  0.00    -0.178 S  
HETATM   33  O   UNL     1      -8.933   9.831  70.525  1.00  0.00    -0.187 OA 
BRANCH  32  34
HETATM   34  C   UNL     1      -9.627   7.821  72.156  1.00  0.00    -0.176 C  
BRANCH  34  35
HETATM   35  C   UNL     1     -10.856   8.702  72.356  1.00  0.00    -0.312 C  
BRANCH  35  36
HETATM   36  C   UNL     1     -11.751   8.708  71.118  1.00  0.00    -0.334 C  
BRANCH  36  37
HETATM   37  C   UNL     1     -12.873   9.742  71.186  1.00  0.00    -0.345 C  
HETATM   38  F   UNL     1     -13.819   9.413  70.260  1.00  0.00     0.141 F  
HETATM   39  C   UNL     1     -12.407  11.193  70.999  1.00  0.00    -0.382 C  
HETATM   40  F   UNL     1     -13.484   9.594  72.399  1.00  0.00    -0.456 F  
HETATM   41  F   UNL     1     -11.062  11.305  70.949  1.00  0.00     0.076 F  
HETATM   42  F   UNL     1     -12.905  11.722  69.856  1.00  0.00    -0.068 F  
HETATM   43  F   UNL     1     -12.827  11.992  72.012  1.00  0.00    -0.450 F  
ENDBRANCH  36  37
ENDBRANCH  35  36
ENDBRANCH  34  35
ENDBRANCH  32  34
ENDBRANCH  31  32
ENDBRANCH  30  31
ENDBRANCH  29  30
ENDBRANCH  28  29
ENDBRANCH  27  28
ENDBRANCH  26  27
ENDBRANCH  25  26
ENDBRANCH  24  25
ENDBRANCH  23  24
ENDBRANCH  21  23
TORSDOF 14
ENDMDL
MODEL      247
REMARK 921   NORMALIZED FREE ENERGY PREDICTED BY IDOCK:   -2.52 KCAL/MOL
REMARK 922        TOTAL FREE ENERGY PREDICTED BY IDOCK:   -7.87 KCAL/MOL
REMARK 923 INTER-LIGAND FREE ENERGY PREDICTED BY IDOCK:   -5.54 KCAL/MOL
REMARK 924 INTRA-LIGAND FREE ENERGY PREDICTED BY IDOCK:   -2.33 KCAL/MOL
REMARK 927      BINDING AFFINITY PREDICTED BY RF-SCORE:    0.00 PKD
ROOT
HETATM    1  C   UNL     1      -8.159   9.119  66.710  1.00  0.00    -0.111 C  
HETATM    2  C   UNL     1      -7.055  10.017  66.683  1.00  0.00    -0.091 C  
HETATM    3  C   UNL     1      -6.734   8.759  65.923  1.00  0.00    -0.064 C  
HETATM    4  C   UNL     1      -8.440   7.703  65.605  1.00  0.00    -0.142 C  
HETATM    5  O   UNL     1      -8.905   6.637  64.770  1.00  0.00    -0.339 OA 
HETATM    6  C   UNL     1      -8.164   8.803  64.830  1.00  0.00    -0.160 C  
HETATM    7  C   UNL     1      -7.004   7.621  64.024  1.00  0.00    -0.062 C  
HETATM    8  C   UNL     1      -9.049   9.638  63.976  1.00  0.00    -0.246 C  
HETATM    9  H   UNL     1      -9.702   6.143  64.621  1.00  0.00     0.000 HD 
HETATM   10  C   UNL     1      -6.514   6.299  65.119  1.00  0.00    -0.039 C  
HETATM   11  C   UNL     1      -6.604   6.403  66.824  1.00  0.00    -0.051 C  
HETATM   12  C   UNL     1      -6.456   5.124  67.658  1.00  0.00    -0.045 A  
HETATM   13  C   UNL     1      -5.830   3.989  67.109  1.00  0.00    -0.023 A  
HETATM   14  C   UNL     1      -5.496   2.885  67.901  1.00  0.00    -0.017 A  
HETATM   15  C   UNL     1      -5.794   2.901  69.254  1.00  0.00    -0.023 A  
HETATM   16  C   UNL     1      -6.403   4.009  69.827  1.00  0.00    -0.028 A  
HETATM   17  O   UNL     1      -5.486   1.853  70.070  1.00  0.00    -0.014 OA 
HETATM   18  C   UNL     1      -6.708   5.145  69.052  1.00  0.00    -0.053 A  
HETATM   19  H   UNL     1      -5.690   1.863  70.997  1.00  0.00     0.000 HD 
HETATM   20  C   UNL     1      -7.303   6.337  69.781  1.00  0.00    -0.079 C  
HETATM   21  C   UNL     1      -7.111   7.712  69.097  1.00  0.00    -0.077 C  
HETATM   22  C   UNL     1      -7.654   7.544  67.658  1.00  0.00    -0.113 C  
ENDROOT
BRANCH  21  23
HETATM   23  C   UNL     1      -5.636   8.162  69.150  1.00  0.00    -0.031 C  
BRANCH  23  24
HETATM   24  C   UNL     1      -5.130   8.662  70.490  1.00  0.00    -0.021 C  
BRANCH  24  25
HETATM   25  C   UNL     1      -6.298   8.847  71.471  1.00  0.00    -0.075 C  
BRANCH  25  26
HETATM   26  C   UNL     1      -5.940   8.600  72.947  1.00  0.00    -0.081 C  
BRANCH  26  27
HETATM   27  C   UNL     1      -7.146   8.589  73.886  1.00  0.00    -0.104 C  
BRANCH  27  28
HETATM   28  C   UNL     1      -8.363   7.928  73.238  1.00  0.00    -0.248 C  
BRANCH  28  29
HETATM   29  C   UNL     1      -8.280   6.401  73.208  1.00  0.00    -0.114 C  
BRANCH  29  30
HETATM   30  C   UNL     1      -8.634   5.704  74.531  1.00  0.00    -0.110 C  
BRANCH  30  31
HETATM   31  C   UNL     1      -9.115   4.266  74.403  1.00  0.00    -0.099 C  
BRANCH  31  32
HETATM   32  S   UNL     1      -9.587   3.846  72.693  1.00  0.00    -0.143 S  
HETATM   33  O   UNL     1      -9.726   2.353  72.625  1.00  0.00    -0.100 OA 
BRANCH  32  34
HETATM   34  C   UNL     1     -11.271   4.540  72.729  1.00  0.00    -0.034 C  
BRANCH  34  35
HETATM   35  C   UNL     1     -11.258   6.063  72.789  1.00  0.00    -0.299 C  
BRANCH  35  36
HETATM   36  C   UNL     1     -11.780   6.681  71.493  1.00  0.00    -0.369 C  
BRANCH  36  37
HETATM   37  C   UNL     1     -11.940   8.198  71.568  1.00  0.00    -0.298 C  
HETATM   38  F   UNL     1     -13.271   8.494  71.509  1.00  0.00    -0.321 F  
HETATM   39  C   UNL     1     -11.161   8.970  70.492  1.00  0.00    -0.260 C  
HETATM   40  F   UNL     1     -11.536   8.586  72.814  1.00  0.00    -0.436 F  
HETATM   41  F   UNL     1     -10.357   8.171  69.759  1.00  0.00    -0.196 F  
HETATM   42  F   UNL     1     -12.003   9.600  69.638  1.00  0.00    -0.067 F  
HETATM   43  F   UNL     1     -10.369   9.928  71.034  1.00  0.00    -0.356 F  
ENDBRANCH  36  37
ENDBRANCH  35  36
ENDBRANCH  34  35
ENDBRANCH  32  34
ENDBRANCH  31  32
ENDBRANCH  30  31
ENDBRANCH  29  30
ENDBRANCH  28  29
ENDBRANCH  27  28
ENDBRANCH  26  27
ENDBRANCH  25  26
ENDBRANCH  24  25
ENDBRANCH  23  24
ENDBRANCH  21  23
TORSDOF 14
ENDMDL
MODEL      248
REMARK 921   NORMALIZED FREE ENERGY PREDICTED BY IDOCK:   -2.46 KCAL/MOL
REMARK 922        TOTAL FREE ENERGY PREDICTED BY IDOCK:   -7.76 KCAL/MOL
REMARK 923 INTER-LIGAND FREE ENERGY PREDICTED BY IDOCK:   -6.71 KCAL/MOL
REMARK 924 INTRA-LIGAND FREE ENERGY PREDICTED BY IDOCK:   -1.05 KCAL/MOL
REMARK 927      BINDING AFFINITY PREDICTED BY RF-SCORE:    0.00 PKD
ROOT
HETATM    1  C   UNL     1     -11.040  16.140  69.656  1.00  0.00    -0.344 C  
HETATM    2  C   UNL     1     -11.737  16.634  68.517  1.00  0.00     0.254 C  
HETATM    3  C   UNL     1     -11.871  15.139  68.614  1.00  0.00    -0.329 C  
HETATM    4  C   UNL     1     -11.257  14.519  70.448  1.00  0.00    -0.070 C  
HETATM    5  O   UNL     1     -11.365  13.361  71.284  1.00  0.00     0.606 OA 
HETATM    6  C   UNL     1     -12.496  15.094  70.302  1.00  0.00    -0.388 C  
HETATM    7  C   UNL     1     -12.899  13.432  69.616  1.00  0.00     0.567 C  
HETATM    8  C   UNL     1     -13.413  15.699  71.303  1.00  0.00    -0.439 C  
HETATM    9  H   UNL     1     -11.079  13.071  72.142  1.00  0.00     0.000 HD 
HETATM   10  C   UNL     1     -11.459  12.599  68.968  1.00  0.00    -0.354 C  
HETATM   11  C   UNL     1     -10.030  13.413  68.494  1.00  0.00    -0.193 C  
HETATM   12  C   UNL     1      -8.755  12.598  68.246  1.00  0.00    -0.169 A  
HETATM   13  C   UNL     1      -8.837  11.220  67.974  1.00  0.00    -0.148 A  
HETATM   14  C   UNL     1      -7.722  10.494  67.543  1.00  0.00    -0.098 A  
HETATM   15  C   UNL     1      -6.505  11.139  67.388  1.00  0.00    -0.071 A  
HETATM   16  C   UNL     1      -6.394  12.499  67.640  1.00  0.00    -0.140 A  
HETATM   17  O   UNL     1      -5.390  10.477  66.967  1.00  0.00    -0.040 OA 
HETATM   18  C   UNL     1      -7.516  13.253  68.034  1.00  0.00    -0.138 A  
HETATM   19  H   UNL     1      -4.556  10.919  66.861  1.00  0.00     0.000 HD 
HETATM   20  C   UNL     1      -7.315  14.748  68.212  1.00  0.00    -0.115 C  
HETATM   21  C   UNL     1      -8.586  15.621  68.081  1.00  0.00    -0.159 C  
HETATM   22  C   UNL     1      -9.611  15.022  69.073  1.00  0.00    -0.225 C  
ENDROOT
BRANCH  21  23
HETATM   23  C   UNL     1      -9.089  15.661  66.624  1.00  0.00    -0.313 C  
BRANCH  23  24
HETATM   24  C   UNL     1      -9.684  14.376  66.079  1.00  0.00    -0.320 C  
BRANCH  24  25
HETATM   25  C   UNL     1     -10.856  14.684  65.134  1.00  0.00    -0.414 C  
BRANCH  25  26
HETATM   26  C   UNL     1     -11.885  13.548  64.998  1.00  0.00    -0.377 C  
BRANCH  26  27
HETATM   27  C   UNL     1     -12.041  13.019  63.572  1.00  0.00    -0.617 C  
BRANCH  27  28
HETATM   28  C   UNL     1     -11.280  11.708  63.367  1.00  0.00    -0.401 C  
BRANCH  28  29
HETATM   29  C   UNL     1     -10.627  11.180  64.647  1.00  0.00    -0.386 C  
BRANCH  29  30
HETATM   30  C   UNL     1      -9.185  10.674  64.479  1.00  0.00    -0.264 C  
BRANCH  30  31
HETATM   31  C   UNL     1      -9.013   9.499  63.527  1.00  0.00    -0.173 C  
BRANCH  31  32
HETATM   32  S   UNL     1      -8.023   8.156  64.260  1.00  0.00    -0.126 S  
HETATM   33  O   UNL     1      -6.722   8.757  64.708  1.00  0.00    -0.069 OA 
BRANCH  32  34
HETATM   34  C   UNL     1      -9.034   7.896  65.752  1.00  0.00    -0.080 C  
BRANCH  34  35
HETATM   35  C   UNL     1      -8.720   6.566  66.429  1.00  0.00    -0.142 C  
BRANCH  35  36
HETATM   36  C   UNL     1      -9.661   5.459  65.957  1.00  0.00    -0.134 C  
BRANCH  36  37
HETATM   37  C   UNL     1      -9.049   4.063  66.051  1.00  0.00    -0.144 C  
HETATM   38  F   UNL     1      -7.748   4.189  66.443  1.00  0.00    -0.085 F  
HETATM   39  C   UNL     1      -9.152   3.240  64.759  1.00  0.00    -0.138 C  
HETATM   40  F   UNL     1      -9.677   3.415  67.077  1.00  0.00    -0.228 F  
HETATM   41  F   UNL     1      -9.897   3.850  63.812  1.00  0.00    -0.142 F  
HETATM   42  F   UNL     1      -7.928   3.006  64.230  1.00  0.00    -0.078 F  
HETATM   43  F   UNL     1      -9.719   2.027  64.979  1.00  0.00    -0.090 F  
ENDBRANCH  36  37
ENDBRANCH  35  36
ENDBRANCH  34  35
ENDBRANCH  32  34
ENDBRANCH  31  32
ENDBRANCH  30  31
ENDBRANCH  29  30
ENDBRANCH  28  29
ENDBRANCH  27  28
ENDBRANCH  26  27
ENDBRANCH  25  26
ENDBRANCH  24  25
ENDBRANCH  23  24
ENDBRANCH  21  23
TORSDOF 14
ENDMDL
MODEL      249
REMARK 921   NORMALIZED FREE ENERGY PREDICTED BY IDOCK:   -2.44 KCAL/MOL
REMARK 922        TOTAL FREE ENERGY PREDICTED BY IDOCK:   -7.73 KCAL/MOL
REMARK 923 INTER-LIGAND FREE ENERGY PREDICTED BY IDOCK:   -5.80 KCAL/MOL
REMARK 924 INTRA-LIGAND FREE ENERGY PREDICTED BY IDOCK:   -1.93 KCAL/MOL
REMARK 927      BINDING AFFINITY PREDICTED BY RF-SCORE:    0.00 PKD
ROOT
HETATM    1  C   UNL     1     -11.806  12.759  69.320  1.00  0.00    -0.358 C  
HETATM    2  C   UNL     1     -10.945  12.865  70.449  1.00  0.00     1.396 C  
HETATM    3  C   UNL     1     -10.235  13.306  69.198  1.00  0.00     0.189 C  
HETATM    4  C   UNL     1     -11.589  13.562  67.704  1.00  0.00    -0.339 C  
HETATM    5  O   UNL     1     -11.669  14.194  66.422  1.00  0.00    -0.357 OA 
HETATM    6  C   UNL     1     -11.460  14.520  68.680  1.00  0.00    -0.321 C  
HETATM    7  C   UNL     1      -9.954  14.939  67.705  1.00  0.00    -0.222 C  
HETATM    8  C   UNL     1     -12.375  15.616  69.094  1.00  0.00    -0.019 C  
HETATM    9  H   UNL     1     -12.301  14.314  65.724  1.00  0.00     0.000 HD 
HETATM   10  C   UNL     1      -9.343  13.546  66.770  1.00  0.00    -0.262 C  
HETATM   11  C   UNL     1      -9.706  11.918  67.154  1.00  0.00    -0.194 C  
HETATM   12  C   UNL     1      -9.395  10.823  66.127  1.00  0.00    -0.209 A  
HETATM   13  C   UNL     1      -8.452  11.054  65.108  1.00  0.00     0.038 A  
HETATM   14  C   UNL     1      -7.996  10.017  64.287  1.00  0.00    -0.152 A  
HETATM   15  C   UNL     1      -8.488   8.735  64.471  1.00  0.00    -0.140 A  
HETATM   16  C   UNL     1      -9.412   8.473  65.473  1.00  0.00     0.051 A  
HETATM   17  O   UNL     1      -8.072   7.689  63.700  1.00  0.00    -0.262 OA 
HETATM   18  C   UNL     1      -9.850   9.496  66.335  1.00  0.00    -0.320 A  
HETATM   19  H   UNL     1      -8.409   6.810  63.826  1.00  0.00     0.000 HD 
HETATM   20  C   UNL     1     -10.802   9.099  67.449  1.00  0.00    -0.140 C  
HETATM   21  C   UNL     1     -10.830  10.036  68.680  1.00  0.00    -0.265 C  
HETATM   22  C   UNL     1     -11.101  11.454  68.123  1.00  0.00    -0.306 C  
ENDROOT
BRANCH  21  23
HETATM   23  C   UNL     1      -9.522   9.933  69.492  1.00  0.00    -0.239 C  
BRANCH  23  24
HETATM   24  C   UNL     1      -9.569   9.075  70.743  1.00  0.00    -0.308 C  
BRANCH  24  25
HETATM   25  C   UNL     1     -10.893   9.289  71.492  1.00  0.00    -0.442 C  
BRANCH  25  26
HETATM   26  C   UNL     1     -11.303   8.126  72.413  1.00  0.00    -0.456 C  
BRANCH  26  27
HETATM   27  C   UNL     1     -10.209   7.078  72.616  1.00  0.00    -0.218 C  
BRANCH  27  28
HETATM   28  C   UNL     1     -10.789   5.724  73.026  1.00  0.00    -0.306 C  
BRANCH  28  29
HETATM   29  C   UNL     1      -9.755   4.785  73.650  1.00  0.00    -0.154 C  
BRANCH  29  30
HETATM   30  C   UNL     1      -8.726   4.206  72.667  1.00  0.00    -0.110 C  
BRANCH  30  31
HETATM   31  C   UNL     1      -9.063   2.833  72.104  1.00  0.00    -0.089 C  
BRANCH  31  32
HETATM   32  S   UNL     1      -9.536   2.905  70.345  1.00  0.00    -0.092 S  
HETATM   33  O   UNL     1      -9.764   4.348  70.004  1.00  0.00    -0.186 OA 
BRANCH  32  34
HETATM   34  C   UNL     1      -7.922   2.437  69.641  1.00  0.00    -0.041 C  
BRANCH  34  35
HETATM   35  C   UNL     1      -7.665   3.119  68.302  1.00  0.00    -0.059 C  
BRANCH  35  36
HETATM   36  C   UNL     1      -8.934   3.190  67.455  1.00  0.00    -0.184 C  
BRANCH  36  37
HETATM   37  C   UNL     1      -8.661   3.171  65.953  1.00  0.00    -0.129 C  
HETATM   38  F   UNL     1      -7.563   2.394  65.724  1.00  0.00    -0.066 F  
HETATM   39  C   UNL     1      -8.485   4.562  65.324  1.00  0.00    -0.124 C  
HETATM   40  F   UNL     1      -9.702   2.513  65.361  1.00  0.00    -0.071 F  
HETATM   41  F   UNL     1      -8.747   5.561  66.194  1.00  0.00    -0.118 F  
HETATM   42  F   UNL     1      -7.222   4.735  64.869  1.00  0.00    -0.058 F  
HETATM   43  F   UNL     1      -9.310   4.743  64.262  1.00  0.00    -0.154 F  
ENDBRANCH  36  37
ENDBRANCH  35  36
ENDBRANCH  34  35
ENDBRANCH  32  34
ENDBRANCH  31  32
ENDBRANCH  30  31
ENDBRANCH  29  30
ENDBRANCH  28  29
ENDBRANCH  27  28
ENDBRANCH  26  27
ENDBRANCH  25  26
ENDBRANCH  24  25
ENDBRANCH  23  24
ENDBRANCH  21  23
TORSDOF 14
ENDMDL
MODEL      250
REMARK 921   NORMALIZED FREE ENERGY PREDICTED BY IDOCK:   -2.30 KCAL/MOL
REMARK 922        TOTAL FREE ENERGY PREDICTED BY IDOCK:   -7.48 KCAL/MOL
REMARK 923 INTER-LIGAND FREE ENERGY PREDICTED BY IDOCK:   -5.86 KCAL/MOL
REMARK 924 INTRA-LIGAND FREE ENERGY PREDICTED BY IDOCK:   -1.62 KCAL/MOL
REMARK 927      BINDING AFFINITY PREDICTED BY RF-SCORE:    0.00 PKD
ROOT
HETATM    1  C   UNL     1      -6.337  11.980  68.368  1.00  0.00    -0.053 C  
HETATM    2  C   UNL     1      -6.398  11.578  67.004  1.00  0.00    -0.133 C  
HETATM    3  C   UNL     1      -7.775  11.879  67.531  1.00  0.00    -0.151 C  
HETATM    4  C   UNL     1      -7.624  12.856  69.306  1.00  0.00     0.388 C  
HETATM    5  O   UNL     1      -8.446  13.645  70.173  1.00  0.00     1.479 OA 
HETATM    6  C   UNL     1      -7.410  13.537  68.133  1.00  0.00    -0.121 C  
HETATM    7  C   UNL     1      -9.250  13.466  68.060  1.00  0.00    -0.209 C  
HETATM    8  C   UNL     1      -6.730  14.832  67.869  1.00  0.00    -0.177 C  
HETATM    9  H   UNL     1      -8.376  14.102  71.002  1.00  0.00     0.000 HD 
HETATM   10  C   UNL     1      -9.913  12.094  68.991  1.00  0.00     0.145 C  
HETATM   11  C   UNL     1      -9.004  10.703  69.398  1.00  0.00    -0.049 C  
HETATM   12  C   UNL     1      -9.557   9.732  70.448  1.00  0.00    -0.223 A  
HETATM   13  C   UNL     1     -10.933   9.718  70.745  1.00  0.00    -0.406 A  
HETATM   14  C   UNL     1     -11.499   8.714  71.538  1.00  0.00    -0.363 A  
HETATM   15  C   UNL     1     -10.689   7.715  72.054  1.00  0.00    -0.227 A  
HETATM   16  C   UNL     1      -9.330   7.696  71.773  1.00  0.00    -0.176 A  
HETATM   17  O   UNL     1     -11.192   6.712  72.830  1.00  0.00    -0.297 OA 
HETATM   18  C   UNL     1      -8.752   8.675  70.942  1.00  0.00    -0.216 A  
HETATM   19  H   UNL     1     -10.637   6.028  73.184  1.00  0.00     0.000 HD 
HETATM   20  C   UNL     1      -7.273   8.528  70.628  1.00  0.00    -0.052 C  
HETATM   21  C   UNL     1      -6.787   9.215  69.329  1.00  0.00    -0.049 C  
HETATM   22  C   UNL     1      -7.244  10.689  69.437  1.00  0.00    -0.126 C  
ENDROOT
BRANCH  21  23
HETATM   23  C   UNL     1      -7.327   8.492  68.078  1.00  0.00    -0.092 C  
BRANCH  23  24
HETATM   24  C   UNL     1      -6.405   8.444  66.874  1.00  0.00    -0.056 C  
BRANCH  24  25
HETATM   25  C   UNL     1      -6.874   7.371  65.879  1.00  0.00    -0.057 C  
BRANCH  25  26
HETATM   26  C   UNL     1      -8.402   7.250  65.741  1.00  0.00    -0.140 C  
BRANCH  26  27
HETATM   27  C   UNL     1      -9.149   8.574  65.907  1.00  0.00    -0.237 C  
BRANCH  27  28
HETATM   28  C   UNL     1      -9.052   9.441  64.652  1.00  0.00    -0.228 C  
BRANCH  28  29
HETATM   29  C   UNL     1     -10.300  10.292  64.406  1.00  0.00     0.070 C  
BRANCH  29  30
HETATM   30  C   UNL     1     -10.074  11.810  64.469  1.00  0.00    -0.312 C  
BRANCH  30  31
HETATM   31  C   UNL     1     -11.324  12.647  64.699  1.00  0.00    -0.318 C  
BRANCH  31  32
HETATM   32  S   UNL     1     -11.169  14.326  64.007  1.00  0.00     0.398 S  
HETATM   33  O   UNL     1     -12.506  14.992  64.154  1.00  0.00    -0.756 OA 
BRANCH  32  34
HETATM   34  C   UNL     1     -10.081  15.018  65.293  1.00  0.00    -0.343 C  
BRANCH  34  35
HETATM   35  C   UNL     1     -10.812  16.022  66.178  1.00  0.00    -0.179 C  
BRANCH  35  36
HETATM   36  C   UNL     1      -9.862  17.086  66.724  1.00  0.00    -0.283 C  
BRANCH  36  37
HETATM   37  C   UNL     1     -10.441  18.498  66.674  1.00  0.00    -0.398 C  
HETATM   38  F   UNL     1     -10.747  18.793  65.378  1.00  0.00    -0.484 F  
HETATM   39  C   UNL     1      -9.531  19.577  67.279  1.00  0.00    -0.329 C  
HETATM   40  F   UNL     1     -11.638  18.466  67.332  1.00  0.00     0.083 F  
HETATM   41  F   UNL     1      -8.437  19.058  67.877  1.00  0.00    -0.291 F  
HETATM   42  F   UNL     1      -9.106  20.445  66.330  1.00  0.00    -0.370 F  
HETATM   43  F   UNL     1     -10.176  20.313  68.218  1.00  0.00    -0.520 F  
ENDBRANCH  36  37
ENDBRANCH  35  36
ENDBRANCH  34  35
ENDBRANCH  32  34
ENDBRANCH  31  32
ENDBRANCH  30  31
ENDBRANCH  29  30
ENDBRANCH  28  29
ENDBRANCH  27  28
ENDBRANCH  26  27
ENDBRANCH  25  26
ENDBRANCH  24  25
ENDBRANCH  23  24
ENDBRANCH  21  23
TORSDOF 14
ENDMDL
MODEL      251
REMARK 921   NORMALIZED FREE ENERGY PREDICTED BY IDOCK:   -2.17 KCAL/MOL
REMARK 922        TOTAL FREE ENERGY PREDICTED BY IDOCK:   -7.24 KCAL/MOL
REMARK 923 INTER-LIGAND FREE ENERGY PREDICTED BY IDOCK:   -5.39 KCAL/MOL
REMARK 924 INTRA-LIGAND FREE ENERGY PREDICTED BY IDOCK:   -1.85 KCAL/MOL
REMARK 927      BINDING AFFINITY PREDICTED BY RF-SCORE:    0.00 PKD
ROOT
HETATM    1  C   UNL     1     -10.641  16.220  69.924  1.00  0.00    -0.280 C  
HETATM    2  C   UNL     1     -11.548  16.908  69.069  1.00  0.00     0.506 C  
HETATM    3  C   UNL     1     -12.251  15.801  69.806  1.00  0.00    -0.236 C  
HETATM    4  C   UNL     1     -11.068  15.134  71.317  1.00  0.00    -0.203 C  
HETATM    5  O   UNL     1     -11.189  14.359  72.515  1.00  0.00     0.412 OA 
HETATM    6  C   UNL     1     -11.762  16.311  71.463  1.00  0.00    -0.467 C  
HETATM    7  C   UNL     1     -13.165  15.148  71.732  1.00  0.00    -0.484 C  
HETATM    8  C   UNL     1     -11.574  17.441  72.410  1.00  0.00     1.406 C  
HETATM    9  H   UNL     1     -10.636  14.047  73.222  1.00  0.00     0.000 HD 
HETATM   10  C   UNL     1     -12.890  13.563  70.957  1.00  0.00    -0.343 C  
HETATM   11  C   UNL     1     -11.796  13.321  69.665  1.00  0.00    -0.391 C  
HETATM   12  C   UNL     1     -11.404  11.890  69.277  1.00  0.00    -0.338 A  
HETATM   13  C   UNL     1     -12.225  10.807  69.644  1.00  0.00    -0.325 A  
HETATM   14  C   UNL     1     -12.009   9.522  69.134  1.00  0.00     0.882 A  
HETATM   15  C   UNL     1     -10.958   9.304  68.257  1.00  0.00     0.008 A  
HETATM   16  C   UNL     1     -10.136  10.352  67.870  1.00  0.00    -0.200 A  
HETATM   17  O   UNL     1     -10.708   8.071  67.730  1.00  0.00    -0.419 OA 
HETATM   18  C   UNL     1     -10.366  11.660  68.341  1.00  0.00    -0.215 A  
HETATM   19  H   UNL     1      -9.988   7.921  67.129  1.00  0.00     0.000 HD 
HETATM   20  C   UNL     1      -9.462  12.755  67.802  1.00  0.00    -0.205 C  
HETATM   21  C   UNL     1     -10.037  14.191  67.853  1.00  0.00    -0.235 C  
HETATM   22  C   UNL     1     -10.464  14.421  69.322  1.00  0.00    -0.154 C  
ENDROOT
BRANCH  21  23
HETATM   23  C   UNL     1     -11.188  14.369  66.841  1.00  0.00    -0.340 C  
BRANCH  23  24
HETATM   24  C   UNL     1     -12.229  13.265  66.802  1.00  0.00    -0.340 C  
BRANCH  24  25
HETATM   25  C   UNL     1     -12.468  12.802  65.357  1.00  0.00    -0.478 C  
BRANCH  25  26
HETATM   26  C   UNL     1     -11.405  13.273  64.349  1.00  0.00    -0.415 C  
BRANCH  26  27
HETATM   27  C   UNL     1     -11.159  12.294  63.201  1.00  0.00    -0.217 C  
BRANCH  27  28
HETATM   28  C   UNL     1      -9.744  11.714  63.245  1.00  0.00    -0.390 C  
BRANCH  28  29
HETATM   29  C   UNL     1      -9.461  10.902  64.511  1.00  0.00    -0.284 C  
BRANCH  29  30
HETATM   30  C   UNL     1      -8.888   9.497  64.267  1.00  0.00    -0.247 C  
BRANCH  30  31
HETATM   31  C   UNL     1      -8.212   8.851  65.468  1.00  0.00    -0.129 C  
BRANCH  31  32
HETATM   32  S   UNL     1      -6.594   9.605  65.838  1.00  0.00    -0.083 S  
HETATM   33  O   UNL     1      -6.860  10.937  66.475  1.00  0.00    -0.116 OA 
BRANCH  32  34
HETATM   34  C   UNL     1      -6.095   8.465  67.168  1.00  0.00    -0.055 C  
BRANCH  34  35
HETATM   35  C   UNL     1      -7.255   8.137  68.102  1.00  0.00    -0.094 C  
BRANCH  35  36
HETATM   36  C   UNL     1      -7.008   8.670  69.513  1.00  0.00    -0.048 C  
BRANCH  36  37
HETATM   37  C   UNL     1      -8.065   8.226  70.521  1.00  0.00    -0.105 C  
HETATM   38  F   UNL     1      -8.921   9.267  70.735  1.00  0.00    -0.218 F  
HETATM   39  C   UNL     1      -7.494   7.708  71.849  1.00  0.00    -0.081 C  
HETATM   40  F   UNL     1      -8.815   7.256  69.918  1.00  0.00    -0.138 F  
HETATM   41  F   UNL     1      -6.148   7.605  71.831  1.00  0.00    -0.039 F  
HETATM   42  F   UNL     1      -7.828   8.525  72.876  1.00  0.00    -0.189 F  
HETATM   43  F   UNL     1      -7.975   6.478  72.159  1.00  0.00    -0.100 F  
ENDBRANCH  36  37
ENDBRANCH  35  36
ENDBRANCH  34  35
ENDBRANCH  32  34
ENDBRANCH  31  32
ENDBRANCH  30  31
ENDBRANCH  29  30
ENDBRANCH  28  29
ENDBRANCH  27  28
ENDBRANCH  26  27
ENDBRANCH  25  26
ENDBRANCH  24  25
ENDBRANCH  23  24
ENDBRANCH  21  23
TORSDOF 14
ENDMDL
MODEL      252
REMARK 921   NORMALIZED FREE ENERGY PREDICTED BY IDOCK:   -2.09 KCAL/MOL
REMARK 922        TOTAL FREE ENERGY PREDICTED BY IDOCK:   -7.09 KCAL/MOL
REMARK 923 INTER-LIGAND FREE ENERGY PREDICTED BY IDOCK:   -5.18 KCAL/MOL
REMARK 924 INTRA-LIGAND FREE ENERGY PREDICTED BY IDOCK:   -1.92 KCAL/MOL
REMARK 927      BINDING AFFINITY PREDICTED BY RF-SCORE:    0.00 PKD
ROOT
HETATM    1  C   UNL     1      -9.409  13.481  65.270  1.00  0.00     0.535 C  
HETATM    2  C   UNL     1      -8.486  12.415  65.466  1.00  0.00     1.212 C  
HETATM    3  C   UNL     1      -9.814  12.089  66.093  1.00  0.00    -0.255 C  
HETATM    4  C   UNL     1     -11.217  13.401  65.433  1.00  0.00    -0.288 C  
HETATM    5  O   UNL     1     -12.643  13.516  65.385  1.00  0.00    -0.470 OA 
HETATM    6  C   UNL     1     -10.814  12.369  64.622  1.00  0.00    -0.346 C  
HETATM    7  C   UNL     1     -11.907  11.403  65.747  1.00  0.00     0.584 C  
HETATM    8  C   UNL     1     -10.944  12.176  63.154  1.00  0.00    -0.247 C  
HETATM    9  H   UNL     1     -13.300  14.129  65.076  1.00  0.00     0.000 HD 
HETATM   10  C   UNL     1     -12.087  12.176  67.346  1.00  0.00     0.036 C  
HETATM   11  C   UNL     1     -10.971  13.308  67.979  1.00  0.00    -0.266 C  
HETATM   12  C   UNL     1     -11.365  14.138  69.206  1.00  0.00    -0.324 A  
HETATM   13  C   UNL     1     -12.395  13.697  70.058  1.00  0.00    -0.342 A  
HETATM   14  C   UNL     1     -12.639  14.317  71.289  1.00  0.00    -0.436 A  
HETATM   15  C   UNL     1     -11.859  15.394  71.677  1.00  0.00    -0.401 A  
HETATM   16  C   UNL     1     -10.831  15.846  70.864  1.00  0.00    -0.102 A  
HETATM   17  O   UNL     1     -12.054  16.029  72.868  1.00  0.00    -0.443 OA 
HETATM   18  C   UNL     1     -10.544  15.208  69.641  1.00  0.00    -0.274 A  
HETATM   19  H   UNL     1     -11.520  16.767  73.135  1.00  0.00     0.000 HD 
HETATM   20  C   UNL     1      -9.351  15.726  68.856  1.00  0.00    -0.228 C  
HETATM   21  C   UNL     1      -8.709  14.725  67.866  1.00  0.00    -0.167 C  
HETATM   22  C   UNL     1      -9.864  14.227  66.964  1.00  0.00    -0.254 C  
ENDROOT
BRANCH  21  23
HETATM   23  C   UNL     1      -7.978  13.590  68.612  1.00  0.00    -0.073 C  
BRANCH  23  24
HETATM   24  C   UNL     1      -6.804  12.954  67.892  1.00  0.00    -0.120 C  
BRANCH  24  25
HETATM   25  C   UNL     1      -5.670  12.643  68.881  1.00  0.00    -0.068 C  
BRANCH  25  26
HETATM   26  C   UNL     1      -6.127  11.980  70.192  1.00  0.00    -0.131 C  
BRANCH  26  27
HETATM   27  C   UNL     1      -5.419  10.661  70.502  1.00  0.00    -0.084 C  
BRANCH  27  28
HETATM   28  C   UNL     1      -5.774   9.574  69.487  1.00  0.00    -0.034 C  
BRANCH  28  29
HETATM   29  C   UNL     1      -7.230   9.112  69.578  1.00  0.00    -0.060 C  
BRANCH  29  30
HETATM   30  C   UNL     1      -7.854   9.205  70.979  1.00  0.00    -0.152 C  
BRANCH  30  31
HETATM   31  C   UNL     1      -9.243   8.598  71.115  1.00  0.00    -0.213 C  
BRANCH  31  32
HETATM   32  S   UNL     1      -9.385   6.997  70.255  1.00  0.00    -0.158 S  
HETATM   33  O   UNL     1     -10.087   6.053  71.187  1.00  0.00    -0.185 OA 
BRANCH  32  34
HETATM   34  C   UNL     1     -10.598   7.507  68.995  1.00  0.00    -0.180 C  
BRANCH  34  35
HETATM   35  C   UNL     1      -9.933   7.822  67.659  1.00  0.00    -0.230 C  
BRANCH  35  36
HETATM   36  C   UNL     1     -10.327   6.810  66.584  1.00  0.00    -0.219 C  
BRANCH  36  37
HETATM   37  C   UNL     1      -9.205   5.837  66.228  1.00  0.00    -0.158 C  
HETATM   38  F   UNL     1      -8.789   5.222  67.372  1.00  0.00    -0.109 F  
HETATM   39  C   UNL     1      -8.020   6.481  65.493  1.00  0.00    -0.117 C  
HETATM   40  F   UNL     1      -9.756   4.849  65.463  1.00  0.00    -0.164 F  
HETATM   41  F   UNL     1      -8.249   7.771  65.166  1.00  0.00    -0.120 F  
HETATM   42  F   UNL     1      -6.898   6.442  66.249  1.00  0.00    -0.051 F  
HETATM   43  F   UNL     1      -7.732   5.831  64.337  1.00  0.00    -0.074 F  
ENDBRANCH  36  37
ENDBRANCH  35  36
ENDBRANCH  34  35
ENDBRANCH  32  34
ENDBRANCH  31  32
ENDBRANCH  30  31
ENDBRANCH  29  30
ENDBRANCH  28  29
ENDBRANCH  27  28
ENDBRANCH  26  27
ENDBRANCH  25  26
ENDBRANCH  24  25
ENDBRANCH  23  24
ENDBRANCH  21  23
TORSDOF 14
ENDMDL
MODEL      253
REMARK 921   NORMALIZED FREE ENERGY PREDICTED BY IDOCK:   -2.06 KCAL/MOL
REMARK 922        TOTAL FREE ENERGY PREDICTED BY IDOCK:   -7.04 KCAL/MOL
REMARK 923 INTER-LIGAND FREE ENERGY PREDICTED BY IDOCK:   -6.22 KCAL/MOL
REMARK 924 INTRA-LIGAND FREE ENERGY PREDICTED BY IDOCK:   -0.82 KCAL/MOL
REMARK 927      BINDING AFFINITY PREDICTED BY RF-SCORE:    0.00 PKD
ROOT
HETATM    1  C   UNL     1      -7.177   7.763  66.279  1.00  0.00    -0.074 C  
HETATM    2  C   UNL     1      -6.138   7.441  67.196  1.00  0.00    -0.046 C  
HETATM    3  C   UNL     1      -7.486   7.174  67.808  1.00  0.00    -0.098 C  
HETATM    4  C   UNL     1      -8.909   7.218  66.359  1.00  0.00    -0.149 C  
HETATM    5  O   UNL     1     -10.266   6.801  66.171  1.00  0.00    -0.423 OA 
HETATM    6  C   UNL     1      -8.105   6.113  66.492  1.00  0.00    -0.110 C  
HETATM    7  C   UNL     1      -9.230   5.788  67.915  1.00  0.00    -0.108 C  
HETATM    8  C   UNL     1      -7.807   5.006  65.545  1.00  0.00    -0.092 C  
HETATM    9  H   UNL     1     -10.932   6.822  65.494  1.00  0.00     0.000 HD 
HETATM   10  C   UNL     1      -9.974   7.284  68.545  1.00  0.00    -0.168 C  
HETATM   11  C   UNL     1      -9.319   8.844  68.293  1.00  0.00    -0.149 C  
HETATM   12  C   UNL     1     -10.180  10.074  68.602  1.00  0.00    -0.198 A  
HETATM   13  C   UNL     1     -11.283   9.966  69.471  1.00  0.00    -0.220 A  
HETATM   14  C   UNL     1     -11.960  11.099  69.935  1.00  0.00    -0.439 A  
HETATM   15  C   UNL     1     -11.547  12.356  69.524  1.00  0.00    -0.286 A  
HETATM   16  C   UNL     1     -10.459  12.496  68.675  1.00  0.00    -0.220 A  
HETATM   17  O   UNL     1     -12.171  13.491  69.950  1.00  0.00    -0.322 OA 
HETATM   18  C   UNL     1      -9.740  11.369  68.233  1.00  0.00    -0.202 A  
HETATM   19  H   UNL     1     -11.889  14.353  69.668  1.00  0.00     0.000 HD 
HETATM   20  C   UNL     1      -8.517  11.626  67.369  1.00  0.00    -0.150 C  
HETATM   21  C   UNL     1      -7.448  10.507  67.361  1.00  0.00    -0.094 C  
HETATM   22  C   UNL     1      -8.200   9.210  66.983  1.00  0.00    -0.116 C  
ENDROOT
BRANCH  21  23
HETATM   23  C   UNL     1      -6.718  10.423  68.717  1.00  0.00    -0.053 C  
BRANCH  23  24
HETATM   24  C   UNL     1      -7.532   9.917  69.893  1.00  0.00    -0.156 C  
BRANCH  24  25
HETATM   25  C   UNL     1      -6.787   8.785  70.617  1.00  0.00    -0.050 C  
BRANCH  25  26
HETATM   26  C   UNL     1      -6.182   9.181  71.975  1.00  0.00     0.018 C  
BRANCH  26  27
HETATM   27  C   UNL     1      -6.305   8.101  73.049  1.00  0.00    -0.087 C  
BRANCH  27  28
HETATM   28  C   UNL     1      -7.351   8.466  74.104  1.00  0.00    -0.203 C  
BRANCH  28  29
HETATM   29  C   UNL     1      -8.680   7.730  73.919  1.00  0.00    -0.322 C  
BRANCH  29  30
HETATM   30  C   UNL     1      -9.670   8.408  72.958  1.00  0.00    -0.185 C  
BRANCH  30  31
HETATM   31  C   UNL     1     -10.264   7.502  71.889  1.00  0.00    -0.188 C  
BRANCH  31  32
HETATM   32  S   UNL     1     -11.669   6.525  72.515  1.00  0.00    -0.104 S  
HETATM   33  O   UNL     1     -12.800   6.699  71.544  1.00  0.00    -0.299 OA 
BRANCH  32  34
HETATM   34  C   UNL     1     -10.962   4.872  72.224  1.00  0.00    -0.044 C  
BRANCH  34  35
HETATM   35  C   UNL     1     -11.001   4.006  73.479  1.00  0.00    -0.354 C  
BRANCH  35  36
HETATM   36  C   UNL     1      -9.665   4.033  74.221  1.00  0.00    -0.150 C  
BRANCH  36  37
HETATM   37  C   UNL     1      -8.655   3.020  73.686  1.00  0.00    -0.073 C  
HETATM   38  F   UNL     1      -8.705   1.906  74.473  1.00  0.00    -0.057 F  
HETATM   39  C   UNL     1      -7.218   3.553  73.586  1.00  0.00    -0.052 C  
HETATM   40  F   UNL     1      -9.098   2.618  72.458  1.00  0.00    -0.087 F  
HETATM   41  F   UNL     1      -7.133   4.873  73.855  1.00  0.00    -0.073 F  
HETATM   42  F   UNL     1      -6.397   2.905  74.445  1.00  0.00    -0.016 F  
HETATM   43  F   UNL     1      -6.701   3.374  72.344  1.00  0.00    -0.019 F  
ENDBRANCH  36  37
ENDBRANCH  35  36
ENDBRANCH  34  35
ENDBRANCH  32  34
ENDBRANCH  31  32
ENDBRANCH  30  31
ENDBRANCH  29  30
ENDBRANCH  28  29
ENDBRANCH  27  28
ENDBRANCH  26  27
ENDBRANCH  25  26
ENDBRANCH  24  25
ENDBRANCH  23  24
ENDBRANCH  21  23
TORSDOF 14
ENDMDL
MODEL      254
REMARK 921   NORMALIZED FREE ENERGY PREDICTED BY IDOCK:   -2.02 KCAL/MOL
REMARK 922        TOTAL FREE ENERGY PREDICTED BY IDOCK:   -6.97 KCAL/MOL
REMARK 923 INTER-LIGAND FREE ENERGY PREDICTED BY IDOCK:   -3.52 KCAL/MOL
REMARK 924 INTRA-LIGAND FREE ENERGY PREDICTED BY IDOCK:   -3.44 KCAL/MOL
REMARK 927      BINDING AFFINITY PREDICTED BY RF-SCORE:    0.00 PKD
ROOT
HETATM    1  C   UNL     1     -10.236  13.888  64.646  1.00  0.00    -0.278 C  
HETATM    2  C   UNL     1      -9.323  12.796  64.662  1.00  0.00     0.638 C  
HETATM    3  C   UNL     1     -10.542  12.479  65.485  1.00  0.00    -0.304 C  
HETATM    4  C   UNL     1     -11.997  13.843  65.095  1.00  0.00    -0.385 C  
HETATM    5  O   UNL     1     -13.409  13.992  65.279  1.00  0.00    -0.741 OA 
HETATM    6  C   UNL     1     -11.757  12.828  64.201  1.00  0.00    -0.465 C  
HETATM    7  C   UNL     1     -12.682  11.852  65.460  1.00  0.00     1.559 C  
HETATM    8  C   UNL     1     -12.125  12.686  62.768  1.00  0.00     0.573 C  
HETATM    9  H   UNL     1     -14.089  14.629  65.097  1.00  0.00     0.000 HD 
HETATM   10  C   UNL     1     -12.583  12.578  67.088  1.00  0.00     1.224 C  
HETATM   11  C   UNL     1     -11.350  13.664  67.564  1.00  0.00    -0.335 C  
HETATM   12  C   UNL     1     -11.520  14.463  68.862  1.00  0.00    -0.319 A  
HETATM   13  C   UNL     1     -12.413  14.018  69.856  1.00  0.00    -0.301 A  
HETATM   14  C   UNL     1     -12.440  14.603  71.126  1.00  0.00    -0.402 A  
HETATM   15  C   UNL     1     -11.579  15.650  71.414  1.00  0.00    -0.433 A  
HETATM   16  C   UNL     1     -10.682  16.105  70.459  1.00  0.00    -0.078 A  
HETATM   17  O   UNL     1     -11.564  16.251  72.638  1.00  0.00    -0.416 OA 
HETATM   18  C   UNL     1     -10.612  15.500  69.189  1.00  0.00    -0.234 A  
HETATM   19  H   UNL     1     -10.975  16.968  72.836  1.00  0.00     0.000 HD 
HETATM   20  C   UNL     1      -9.546  16.015  68.238  1.00  0.00    -0.210 C  
HETATM   21  C   UNL     1      -9.098  15.033  67.129  1.00  0.00    -0.229 C  
HETATM   22  C   UNL     1     -10.394  14.590  66.411  1.00  0.00    -0.296 C  
ENDROOT
BRANCH  21  23
HETATM   23  C   UNL     1      -8.288  13.859  67.717  1.00  0.00    -0.174 C  
BRANCH  23  24
HETATM   24  C   UNL     1      -6.894  13.650  67.153  1.00  0.00     0.369 C  
BRANCH  24  25
HETATM   25  C   UNL     1      -5.867  13.526  68.289  1.00  0.00    -0.100 C  
BRANCH  25  26
HETATM   26  C   UNL     1      -6.460  13.638  69.704  1.00  0.00    -0.083 C  
BRANCH  26  27
HETATM   27  C   UNL     1      -5.902  12.616  70.695  1.00  0.00    -0.086 C  
BRANCH  27  28
HETATM   28  C   UNL     1      -5.125  11.505  69.986  1.00  0.00    -0.072 C  
BRANCH  28  29
HETATM   29  C   UNL     1      -6.021  10.384  69.455  1.00  0.00    -0.038 C  
BRANCH  29  30
HETATM   30  C   UNL     1      -7.422  10.318  70.082  1.00  0.00    -0.084 C  
BRANCH  30  31
HETATM   31  C   UNL     1      -7.817   8.966  70.657  1.00  0.00    -0.115 C  
BRANCH  31  32
HETATM   32  S   UNL     1      -6.691   7.634  70.126  1.00  0.00    -0.050 S  
HETATM   33  O   UNL     1      -6.622   6.637  71.246  1.00  0.00    -0.048 OA 
BRANCH  32  34
HETATM   34  C   UNL     1      -7.757   6.917  68.835  1.00  0.00    -0.110 C  
BRANCH  34  35
HETATM   35  C   UNL     1      -8.906   7.848  68.463  1.00  0.00    -0.134 C  
BRANCH  35  36
HETATM   36  C   UNL     1      -9.269   7.728  66.983  1.00  0.00    -0.176 C  
BRANCH  36  37
HETATM   37  C   UNL     1      -9.347   9.075  66.268  1.00  0.00    -0.225 C  
HETATM   38  F   UNL     1     -10.642   9.289  65.893  1.00  0.00    -0.220 F  
HETATM   39  C   UNL     1      -8.402   9.208  65.065  1.00  0.00    -0.158 C  
HETATM   40  F   UNL     1      -9.073  10.041  67.195  1.00  0.00    -0.137 F  
HETATM   41  F   UNL     1      -7.564   8.156  64.943  1.00  0.00    -0.079 F  
HETATM   42  F   UNL     1      -9.096   9.315  63.908  1.00  0.00    -0.241 F  
HETATM   43  F   UNL     1      -7.624  10.317  65.156  1.00  0.00    -0.129 F  
ENDBRANCH  36  37
ENDBRANCH  35  36
ENDBRANCH  34  35
ENDBRANCH  32  34
ENDBRANCH  31  32
ENDBRANCH  30  31
ENDBRANCH  29  30
ENDBRANCH  28  29
ENDBRANCH  27  28
ENDBRANCH  26  27
ENDBRANCH  25  26
ENDBRANCH  24  25
ENDBRANCH  23  24
ENDBRANCH  21  23
TORSDOF 14
ENDMDL
MODEL      255
REMARK 921   NORMALIZED FREE ENERGY PREDICTED BY IDOCK:   -2.01 KCAL/MOL
REMARK 922        TOTAL FREE ENERGY PREDICTED BY IDOCK:   -6.94 KCAL/MOL
REMARK 923 INTER-LIGAND FREE ENERGY PREDICTED BY IDOCK:   -6.22 KCAL/MOL
REMARK 924 INTRA-LIGAND FREE ENERGY PREDICTED BY IDOCK:   -0.73 KCAL/MOL
REMARK 927      BINDING AFFINITY PREDICTED BY RF-SCORE:    0.00 PKD
ROOT
HETATM    1  C   UNL     1      -7.944   5.248  64.927  1.00  0.00    -0.105 C  
HETATM    2  C   UNL     1      -7.189   4.119  65.351  1.00  0.00    -0.071 C  
HETATM    3  C   UNL     1      -8.148   4.550  66.427  1.00  0.00    -0.103 C  
HETATM    4  C   UNL     1      -9.497   5.855  65.651  1.00  0.00     0.144 C  
HETATM    5  O   UNL     1     -10.773   6.411  65.988  1.00  0.00    -0.213 OA 
HETATM    6  C   UNL     1      -9.634   4.510  65.410  1.00  0.00    -0.185 C  
HETATM    7  C   UNL     1     -10.260   4.528  67.142  1.00  0.00    -0.096 C  
HETATM    8  C   UNL     1     -10.409   3.780  64.373  1.00  0.00    -0.235 C  
HETATM    9  H   UNL     1     -11.404   7.021  65.626  1.00  0.00     0.000 HD 
HETATM   10  C   UNL     1      -9.622   5.907  68.080  1.00  0.00    -0.122 C  
HETATM   11  C   UNL     1      -8.195   6.753  67.662  1.00  0.00    -0.119 C  
HETATM   12  C   UNL     1      -7.900   8.097  68.338  1.00  0.00    -0.118 A  
HETATM   13  C   UNL     1      -8.513   8.424  69.562  1.00  0.00    -0.124 A  
HETATM   14  C   UNL     1      -8.113   9.541  70.304  1.00  0.00    -0.200 A  
HETATM   15  C   UNL     1      -7.098  10.352  69.822  1.00  0.00    -0.148 A  
HETATM   16  C   UNL     1      -6.468  10.051  68.623  1.00  0.00    -0.049 A  
HETATM   17  O   UNL     1      -6.669  11.450  70.508  1.00  0.00    -0.488 OA 
HETATM   18  C   UNL     1      -6.829   8.908  67.885  1.00  0.00    -0.070 A  
HETATM   19  H   UNL     1      -5.973  12.005  70.178  1.00  0.00     0.000 HD 
HETATM   20  C   UNL     1      -6.031   8.618  66.626  1.00  0.00    -0.053 C  
HETATM   21  C   UNL     1      -6.027   7.145  66.152  1.00  0.00    -0.036 C  
HETATM   22  C   UNL     1      -7.515   6.736  66.038  1.00  0.00    -0.081 C  
ENDROOT
BRANCH  21  23
HETATM   23  C   UNL     1      -5.214   6.251  67.111  1.00  0.00    -0.005 C  
BRANCH  23  24
HETATM   24  C   UNL     1      -5.649   6.249  68.565  1.00  0.00    -0.008 C  
BRANCH  24  25
HETATM   25  C   UNL     1      -5.923   4.815  69.042  1.00  0.00    -0.025 C  
BRANCH  25  26
HETATM   26  C   UNL     1      -5.154   4.403  70.309  1.00  0.00     0.000 C  
BRANCH  26  27
HETATM   27  C   UNL     1      -5.923   4.639  71.608  1.00  0.00    -0.017 C  
BRANCH  27  28
HETATM   28  C   UNL     1      -6.771   5.910  71.543  1.00  0.00    -0.055 C  
BRANCH  28  29
HETATM   29  C   UNL     1      -8.262   5.634  71.342  1.00  0.00    -0.122 C  
BRANCH  29  30
HETATM   30  C   UNL     1      -8.733   4.245  71.800  1.00  0.00    -0.131 C  
BRANCH  30  31
HETATM   31  C   UNL     1      -9.304   4.182  73.209  1.00  0.00    -0.112 C  
BRANCH  31  32
HETATM   32  S   UNL     1     -10.910   5.034  73.343  1.00  0.00    -0.322 S  
HETATM   33  O   UNL     1     -10.658   6.355  74.009  1.00  0.00    -0.292 OA 
BRANCH  32  34
HETATM   34  C   UNL     1     -11.156   5.366  71.570  1.00  0.00    -0.025 C  
BRANCH  34  35
HETATM   35  C   UNL     1     -12.256   6.394  71.330  1.00  0.00    -0.168 C  
BRANCH  35  36
HETATM   36  C   UNL     1     -11.797   7.497  70.377  1.00  0.00    -0.062 C  
BRANCH  36  37
HETATM   37  C   UNL     1     -11.870   8.894  70.989  1.00  0.00    -0.276 C  
HETATM   38  F   UNL     1     -10.895   9.002  71.937  1.00  0.00    -0.370 F  
HETATM   39  C   UNL     1     -13.243   9.257  71.575  1.00  0.00    -0.367 C  
HETATM   40  F   UNL     1     -11.525   9.782  70.009  1.00  0.00    -0.251 F  
HETATM   41  F   UNL     1     -14.182   8.322  71.315  1.00  0.00    -0.401 F  
HETATM   42  F   UNL     1     -13.175   9.407  72.919  1.00  0.00    -0.429 F  
HETATM   43  F   UNL     1     -13.710  10.428  71.076  1.00  0.00    -0.309 F  
ENDBRANCH  36  37
ENDBRANCH  35  36
ENDBRANCH  34  35
ENDBRANCH  32  34
ENDBRANCH  31  32
ENDBRANCH  30  31
ENDBRANCH  29  30
ENDBRANCH  28  29
ENDBRANCH  27  28
ENDBRANCH  26  27
ENDBRANCH  25  26
ENDBRANCH  24  25
ENDBRANCH  23  24
ENDBRANCH  21  23
TORSDOF 14
ENDMDL
MODEL      256
REMARK 921   NORMALIZED FREE ENERGY PREDICTED BY IDOCK:   -1.98 KCAL/MOL
REMARK 922        TOTAL FREE ENERGY PREDICTED BY IDOCK:   -6.90 KCAL/MOL
REMARK 923 INTER-LIGAND FREE ENERGY PREDICTED BY IDOCK:   -6.02 KCAL/MOL
REMARK 924 INTRA-LIGAND FREE ENERGY PREDICTED BY IDOCK:   -0.88 KCAL/MOL
REMARK 927      BINDING AFFINITY PREDICTED BY RF-SCORE:    0.00 PKD
ROOT
HETATM    1  C   UNL     1     -10.447  14.809  69.979  1.00  0.00     0.016 C  
HETATM    2  C   UNL     1      -9.027  14.898  69.990  1.00  0.00     0.507 C  
HETATM    3  C   UNL     1      -9.594  15.631  68.806  1.00  0.00    -0.215 C  
HETATM    4  C   UNL     1     -11.598  15.863  69.048  1.00  0.00    -0.389 C  
HETATM    5  O   UNL     1     -12.663  16.652  68.505  1.00  0.00     0.727 OA 
HETATM    6  C   UNL     1     -10.730  16.678  69.733  1.00  0.00    -0.254 C  
HETATM    7  C   UNL     1     -10.598  17.487  68.083  1.00  0.00    -0.366 C  
HETATM    8  C   UNL     1     -10.935  17.527  70.935  1.00  0.00     1.677 C  
HETATM    9  H   UNL     1     -13.599  16.760  68.617  1.00  0.00     0.000 HD 
HETATM   10  C   UNL     1     -10.994  16.371  66.747  1.00  0.00     0.011 C  
HETATM   11  C   UNL     1     -10.926  14.667  66.887  1.00  0.00    -0.324 C  
HETATM   12  C   UNL     1     -11.573  13.803  65.799  1.00  0.00    -0.342 A  
HETATM   13  C   UNL     1     -11.817  14.339  64.520  1.00  0.00    -0.456 A  
HETATM   14  C   UNL     1     -12.212  13.526  63.452  1.00  0.00    -0.338 A  
HETATM   15  C   UNL     1     -12.376  12.165  63.654  1.00  0.00    -0.568 A  
HETATM   16  C   UNL     1     -12.135  11.606  64.900  1.00  0.00     0.178 A  
HETATM   17  O   UNL     1     -12.755  11.331  62.644  1.00  0.00    -0.801 OA 
HETATM   18  C   UNL     1     -11.697  12.402  65.976  1.00  0.00    -0.469 A  
HETATM   19  H   UNL     1     -12.868  10.398  62.782  1.00  0.00     0.000 HD 
HETATM   20  C   UNL     1     -11.384  11.688  67.280  1.00  0.00    -0.372 C  
HETATM   21  C   UNL     1     -10.405  12.418  68.231  1.00  0.00    -0.232 C  
HETATM   22  C   UNL     1     -10.996  13.833  68.437  1.00  0.00    -0.275 C  
ENDROOT
BRANCH  21  23
HETATM   23  C   UNL     1      -8.972  12.426  67.661  1.00  0.00    -0.183 C  
BRANCH  23  24
HETATM   24  C   UNL     1      -8.771  11.727  66.329  1.00  0.00    -0.106 C  
BRANCH  24  25
HETATM   25  C   UNL     1      -8.283  10.287  66.545  1.00  0.00    -0.127 C  
BRANCH  25  26
HETATM   26  C   UNL     1      -7.349  10.101  67.753  1.00  0.00    -0.088 C  
BRANCH  26  27
HETATM   27  C   UNL     1      -7.112   8.641  68.138  1.00  0.00    -0.082 C  
BRANCH  27  28
HETATM   28  C   UNL     1      -6.001   8.501  69.180  1.00  0.00    -0.042 C  
BRANCH  28  29
HETATM   29  C   UNL     1      -6.478   8.756  70.611  1.00  0.00    -0.043 C  
BRANCH  29  30
HETATM   30  C   UNL     1      -5.832   7.860  71.680  1.00  0.00    -0.035 C  
BRANCH  30  31
HETATM   31  C   UNL     1      -5.939   8.369  73.110  1.00  0.00    -0.081 C  
BRANCH  31  32
HETATM   32  S   UNL     1      -7.386   7.684  73.982  1.00  0.00    -0.132 S  
HETATM   33  O   UNL     1      -8.500   8.680  73.846  1.00  0.00    -0.310 OA 
BRANCH  32  34
HETATM   34  C   UNL     1      -7.741   6.321  72.826  1.00  0.00    -0.104 C  
BRANCH  34  35
HETATM   35  C   UNL     1      -9.112   5.703  73.078  1.00  0.00    -0.121 C  
BRANCH  35  36
HETATM   36  C   UNL     1     -10.238   6.623  72.609  1.00  0.00    -0.206 C  
BRANCH  36  37
HETATM   37  C   UNL     1     -11.251   5.926  71.703  1.00  0.00    -0.237 C  
HETATM   38  F   UNL     1     -10.704   4.755  71.267  1.00  0.00    -0.225 F  
HETATM   39  C   UNL     1     -11.732   6.778  70.520  1.00  0.00    -0.375 C  
HETATM   40  F   UNL     1     -12.310   5.564  72.487  1.00  0.00    -0.307 F  
HETATM   41  F   UNL     1     -11.277   8.048  70.574  1.00  0.00    -0.257 F  
HETATM   42  F   UNL     1     -11.328   6.248  69.341  1.00  0.00    -0.395 F  
HETATM   43  F   UNL     1     -13.086   6.851  70.469  1.00  0.00    -0.278 F  
ENDBRANCH  36  37
ENDBRANCH  35  36
ENDBRANCH  34  35
ENDBRANCH  32  34
ENDBRANCH  31  32
ENDBRANCH  30  31
ENDBRANCH  29  30
ENDBRANCH  28  29
ENDBRANCH  27  28
ENDBRANCH  26  27
ENDBRANCH  25  26
ENDBRANCH  24  25
ENDBRANCH  23  24
ENDBRANCH  21  23
TORSDOF 14
ENDMDL
MODEL      257
REMARK 921   NORMALIZED FREE ENERGY PREDICTED BY IDOCK:   -1.96 KCAL/MOL
REMARK 922        TOTAL FREE ENERGY PREDICTED BY IDOCK:   -6.85 KCAL/MOL
REMARK 923 INTER-LIGAND FREE ENERGY PREDICTED BY IDOCK:   -5.73 KCAL/MOL
REMARK 924 INTRA-LIGAND FREE ENERGY PREDICTED BY IDOCK:   -1.13 KCAL/MOL
REMARK 927      BINDING AFFINITY PREDICTED BY RF-SCORE:    0.00 PKD
ROOT
HETATM    1  C   UNL     1     -12.008  15.711  70.730  1.00  0.00    -0.438 C  
HETATM    2  C   UNL     1     -13.080  16.092  69.874  1.00  0.00     1.221 C  
HETATM    3  C   UNL     1     -13.301  14.706  70.416  1.00  0.00     0.068 C  
HETATM    4  C   UNL     1     -12.014  14.364  71.950  1.00  0.00    -0.072 C  
HETATM    5  O   UNL     1     -11.858  13.447  73.039  1.00  0.00     1.494 OA 
HETATM    6  C   UNL     1     -13.132  15.133  72.157  1.00  0.00    -0.454 C  
HETATM    7  C   UNL     1     -13.949  13.482  72.164  1.00  0.00    -0.575 C  
HETATM    8  C   UNL     1     -13.461  16.102  73.236  1.00  0.00    -0.454 C  
HETATM    9  H   UNL     1     -11.256  13.287  73.756  1.00  0.00     0.000 HD 
HETATM   10  C   UNL     1     -13.020  12.262  71.250  1.00  0.00    -0.299 C  
HETATM   11  C   UNL     1     -11.869  12.658  70.047  1.00  0.00    -0.358 C  
HETATM   12  C   UNL     1     -10.912  11.571  69.544  1.00  0.00    -0.186 A  
HETATM   13  C   UNL     1     -11.235  10.211  69.710  1.00  0.00    -0.325 A  
HETATM   14  C   UNL     1     -10.492   9.203  69.086  1.00  0.00    -0.230 A  
HETATM   15  C   UNL     1      -9.408   9.545  68.294  1.00  0.00    -0.133 A  
HETATM   16  C   UNL     1      -9.070  10.877  68.103  1.00  0.00    -0.155 A  
HETATM   17  O   UNL     1      -8.655   8.601  67.660  1.00  0.00    -0.133 OA 
HETATM   18  C   UNL     1      -9.831  11.906  68.690  1.00  0.00    -0.139 A  
HETATM   19  H   UNL     1      -7.912   8.835  67.117  1.00  0.00     0.000 HD 
HETATM   20  C   UNL     1      -9.431  13.334  68.362  1.00  0.00    -0.172 C  
HETATM   21  C   UNL     1     -10.543  14.399  68.516  1.00  0.00    -0.256 C  
HETATM   22  C   UNL     1     -11.088  14.234  69.954  1.00  0.00    -0.125 C  
ENDROOT
BRANCH  21  23
HETATM   23  C   UNL     1     -11.623  14.241  67.426  1.00  0.00    -0.394 C  
BRANCH  23  24
HETATM   24  C   UNL     1     -12.138  12.835  67.184  1.00  0.00    -0.236 C  
BRANCH  24  25
HETATM   25  C   UNL     1     -12.271  12.562  65.677  1.00  0.00    -0.403 C  
BRANCH  25  26
HETATM   26  C   UNL     1     -11.130  13.137  64.820  1.00  0.00    -0.351 C  
BRANCH  26  27
HETATM   27  C   UNL     1     -10.996  12.483  63.445  1.00  0.00    -0.386 C  
BRANCH  27  28
HETATM   28  C   UNL     1      -9.666  11.742  63.296  1.00  0.00    -0.350 C  
BRANCH  28  29
HETATM   29  C   UNL     1      -9.625  10.413  64.053  1.00  0.00    -0.376 C  
BRANCH  29  30
HETATM   30  C   UNL     1      -8.892   9.274  63.326  1.00  0.00    -0.159 C  
BRANCH  30  31
HETATM   31  C   UNL     1      -8.468   8.106  64.205  1.00  0.00     0.078 C  
BRANCH  31  32
HETATM   32  S   UNL     1      -6.744   8.262  64.775  1.00  0.00    -0.068 S  
HETATM   33  O   UNL     1      -6.714   9.351  65.808  1.00  0.00    -0.075 OA 
BRANCH  32  34
HETATM   34  C   UNL     1      -6.639   6.676  65.665  1.00  0.00    -0.050 C  
BRANCH  34  35
HETATM   35  C   UNL     1      -7.594   5.636  65.089  1.00  0.00    -0.078 C  
BRANCH  35  36
HETATM   36  C   UNL     1      -7.730   4.427  66.013  1.00  0.00    -0.094 C  
BRANCH  36  37
HETATM   37  C   UNL     1      -9.127   4.280  66.614  1.00  0.00    -0.129 C  
HETATM   38  F   UNL     1     -10.044   4.603  65.658  1.00  0.00    -0.181 F  
HETATM   39  C   UNL     1      -9.355   5.104  67.890  1.00  0.00    -0.120 C  
HETATM   40  F   UNL     1      -9.318   2.951  66.868  1.00  0.00    -0.173 F  
HETATM   41  F   UNL     1      -8.228   5.702  68.332  1.00  0.00    -0.100 F  
HETATM   42  F   UNL     1     -10.280   6.071  67.687  1.00  0.00    -0.130 F  
HETATM   43  F   UNL     1      -9.814   4.336  68.910  1.00  0.00    -0.229 F  
ENDBRANCH  36  37
ENDBRANCH  35  36
ENDBRANCH  34  35
ENDBRANCH  32  34
ENDBRANCH  31  32
ENDBRANCH  30  31
ENDBRANCH  29  30
ENDBRANCH  28  29
ENDBRANCH  27  28
ENDBRANCH  26  27
ENDBRANCH  25  26
ENDBRANCH  24  25
ENDBRANCH  23  24
ENDBRANCH  21  23
TORSDOF 14
ENDMDL
MODEL      258
REMARK 921   NORMALIZED FREE ENERGY PREDICTED BY IDOCK:   -1.94 KCAL/MOL
REMARK 922        TOTAL FREE ENERGY PREDICTED BY IDOCK:   -6.82 KCAL/MOL
REMARK 923 INTER-LIGAND FREE ENERGY PREDICTED BY IDOCK:   -6.54 KCAL/MOL
REMARK 924 INTRA-LIGAND FREE ENERGY PREDICTED BY IDOCK:   -0.28 KCAL/MOL
REMARK 927      BINDING AFFINITY PREDICTED BY RF-SCORE:    0.00 PKD
ROOT
HETATM    1  C   UNL     1      -7.838  12.237  68.686  1.00  0.00    -0.063 C  
HETATM    2  C   UNL     1      -7.706  11.673  67.386  1.00  0.00    -0.147 C  
HETATM    3  C   UNL     1      -6.965  12.980  67.474  1.00  0.00    -0.155 C  
HETATM    4  C   UNL     1      -6.800  13.536  69.421  1.00  0.00    -0.010 C  
HETATM    5  O   UNL     1      -6.033  14.445  70.219  1.00  0.00    -0.134 OA 
HETATM    6  C   UNL     1      -5.974  12.560  68.918  1.00  0.00    -0.070 C  
HETATM    7  C   UNL     1      -5.126  14.021  68.185  1.00  0.00    -0.112 C  
HETATM    8  C   UNL     1      -5.158  11.526  69.607  1.00  0.00    -0.057 C  
HETATM    9  H   UNL     1      -5.956  14.705  71.129  1.00  0.00     0.000 HD 
HETATM   10  C   UNL     1      -6.224  15.415  67.988  1.00  0.00    -0.153 C  
HETATM   11  C   UNL     1      -7.928  15.272  67.918  1.00  0.00    -0.145 C  
HETATM   12  C   UNL     1      -8.788  16.534  68.058  1.00  0.00    -0.197 A  
HETATM   13  C   UNL     1      -8.233  17.802  67.805  1.00  0.00    -0.227 A  
HETATM   14  C   UNL     1      -9.034  18.946  67.722  1.00  0.00    -0.320 A  
HETATM   15  C   UNL     1     -10.403  18.835  67.902  1.00  0.00    -0.406 A  
HETATM   16  C   UNL     1     -10.982  17.597  68.145  1.00  0.00    -0.089 A  
HETATM   17  O   UNL     1     -11.227  19.919  67.827  1.00  0.00    -0.021 OA 
HETATM   18  C   UNL     1     -10.196  16.430  68.189  1.00  0.00    -0.262 A  
HETATM   19  H   UNL     1     -12.166  19.843  67.951  1.00  0.00     0.000 HD 
HETATM   20  C   UNL     1     -10.927  15.113  68.382  1.00  0.00    -0.271 C  
HETATM   21  C   UNL     1     -10.188  13.850  67.879  1.00  0.00    -0.241 C  
HETATM   22  C   UNL     1      -8.797  13.880  68.555  1.00  0.00    -0.137 C  
ENDROOT
BRANCH  21  23
HETATM   23  C   UNL     1     -10.124  13.816  66.338  1.00  0.00    -0.297 C  
BRANCH  23  24
HETATM   24  C   UNL     1      -9.865  12.463  65.702  1.00  0.00    -0.235 C  
BRANCH  24  25
HETATM   25  C   UNL     1     -10.961  11.463  66.099  1.00  0.00    -0.294 C  
BRANCH  25  26
HETATM   26  C   UNL     1     -10.580   9.985  65.907  1.00  0.00     0.001 C  
BRANCH  26  27
HETATM   27  C   UNL     1      -9.880   9.361  67.114  1.00  0.00    -0.242 C  
BRANCH  27  28
HETATM   28  C   UNL     1      -9.105   8.099  66.732  1.00  0.00    -0.191 C  
BRANCH  28  29
HETATM   29  C   UNL     1      -9.008   7.080  67.869  1.00  0.00    -0.122 C  
BRANCH  29  30
HETATM   30  C   UNL     1      -7.717   6.247  67.886  1.00  0.00    -0.103 C  
BRANCH  30  31
HETATM   31  C   UNL     1      -6.448   7.018  68.217  1.00  0.00    -0.044 C  
BRANCH  31  32
HETATM   32  S   UNL     1      -6.546   7.849  69.836  1.00  0.00    -0.037 S  
HETATM   33  O   UNL     1      -7.978   8.245  70.046  1.00  0.00    -0.099 OA 
BRANCH  32  34
HETATM   34  C   UNL     1      -6.236   6.387  70.877  1.00  0.00    -0.039 C  
BRANCH  34  35
HETATM   35  C   UNL     1      -7.320   6.199  71.933  1.00  0.00    -0.093 C  
BRANCH  35  36
HETATM   36  C   UNL     1      -8.509   5.412  71.384  1.00  0.00    -0.126 C  
BRANCH  36  37
HETATM   37  C   UNL     1      -9.462   4.918  72.471  1.00  0.00    -0.139 C  
HETATM   38  F   UNL     1     -10.214   3.903  71.956  1.00  0.00    -0.237 F  
HETATM   39  C   UNL     1     -10.359   6.012  73.069  1.00  0.00    -0.204 C  
HETATM   40  F   UNL     1      -8.697   4.346  73.448  1.00  0.00    -0.099 F  
HETATM   41  F   UNL     1     -10.041   7.246  72.624  1.00  0.00    -0.185 F  
HETATM   42  F   UNL     1     -11.661   5.791  72.772  1.00  0.00    -0.319 F  
HETATM   43  F   UNL     1     -10.270   6.051  74.423  1.00  0.00    -0.219 F  
ENDBRANCH  36  37
ENDBRANCH  35  36
ENDBRANCH  34  35
ENDBRANCH  32  34
ENDBRANCH  31  32
ENDBRANCH  30  31
ENDBRANCH  29  30
ENDBRANCH  28  29
ENDBRANCH  27  28
ENDBRANCH  26  27
ENDBRANCH  25  26
ENDBRANCH  24  25
ENDBRANCH  23  24
ENDBRANCH  21  23
TORSDOF 14
ENDMDL
MODEL      259
REMARK 921   NORMALIZED FREE ENERGY PREDICTED BY IDOCK:   -1.92 KCAL/MOL
REMARK 922        TOTAL FREE ENERGY PREDICTED BY IDOCK:   -6.79 KCAL/MOL
REMARK 923 INTER-LIGAND FREE ENERGY PREDICTED BY IDOCK:   -5.56 KCAL/MOL
REMARK 924 INTRA-LIGAND FREE ENERGY PREDICTED BY IDOCK:   -1.23 KCAL/MOL
REMARK 927      BINDING AFFINITY PREDICTED BY RF-SCORE:    0.00 PKD
ROOT
HETATM    1  C   UNL     1     -10.108  14.416  69.828  1.00  0.00     0.349 C  
HETATM    2  C   UNL     1      -8.714  14.679  69.716  1.00  0.00     0.447 C  
HETATM    3  C   UNL     1      -9.480  15.423  68.656  1.00  0.00    -0.205 C  
HETATM    4  C   UNL     1     -11.462  15.387  69.100  1.00  0.00    -0.333 C  
HETATM    5  O   UNL     1     -12.660  16.076  68.727  1.00  0.00    -0.188 OA 
HETATM    6  C   UNL     1     -10.628  16.249  69.770  1.00  0.00    -0.316 C  
HETATM    7  C   UNL     1     -10.759  17.189  68.191  1.00  0.00    -0.366 C  
HETATM    8  C   UNL     1     -10.806  16.975  71.055  1.00  0.00     1.045 C  
HETATM    9  H   UNL     1     -13.586  16.060  68.935  1.00  0.00     0.000 HD 
HETATM   10  C   UNL     1     -11.157  16.135  66.806  1.00  0.00     0.027 C  
HETATM   11  C   UNL     1     -10.879  14.447  66.792  1.00  0.00    -0.301 C  
HETATM   12  C   UNL     1     -11.529  13.593  65.698  1.00  0.00    -0.320 A  
HETATM   13  C   UNL     1     -11.963  14.189  64.498  1.00  0.00    -0.476 A  
HETATM   14  C   UNL     1     -12.367  13.416  63.404  1.00  0.00    -0.343 A  
HETATM   15  C   UNL     1     -12.352  12.034  63.503  1.00  0.00    -0.551 A  
HETATM   16  C   UNL     1     -11.922  11.417  64.669  1.00  0.00     0.276 A  
HETATM   17  O   UNL     1     -12.733  11.236  62.464  1.00  0.00    -0.607 OA 
HETATM   18  C   UNL     1     -11.472  12.178  65.764  1.00  0.00    -0.414 A  
HETATM   19  H   UNL     1     -12.723  10.289  62.531  1.00  0.00     0.000 HD 
HETATM   20  C   UNL     1     -10.948  11.414  66.967  1.00  0.00    -0.347 C  
HETATM   21  C   UNL     1      -9.968  12.186  67.884  1.00  0.00    -0.200 C  
HETATM   22  C   UNL     1     -10.694  13.498  68.264  1.00  0.00    -0.271 C  
ENDROOT
BRANCH  21  23
HETATM   23  C   UNL     1      -8.611  12.413  67.187  1.00  0.00    -0.189 C  
BRANCH  23  24
HETATM   24  C   UNL     1      -8.164  11.339  66.212  1.00  0.00    -0.126 C  
BRANCH  24  25
HETATM   25  C   UNL     1      -7.297  10.291  66.925  1.00  0.00    -0.097 C  
BRANCH  25  26
HETATM   26  C   UNL     1      -6.508  10.827  68.133  1.00  0.00    -0.058 C  
BRANCH  26  27
HETATM   27  C   UNL     1      -6.054   9.743  69.110  1.00  0.00    -0.037 C  
BRANCH  27  28
HETATM   28  C   UNL     1      -6.116  10.223  70.560  1.00  0.00    -0.114 C  
BRANCH  28  29
HETATM   29  C   UNL     1      -6.834   9.244  71.492  1.00  0.00     0.054 C  
BRANCH  29  30
HETATM   30  C   UNL     1      -7.894   8.361  70.815  1.00  0.00    -0.089 C  
BRANCH  30  31
HETATM   31  C   UNL     1      -9.277   8.983  70.689  1.00  0.00    -0.231 C  
BRANCH  31  32
HETATM   32  S   UNL     1     -10.440   7.903  69.792  1.00  0.00    -0.234 S  
HETATM   33  O   UNL     1     -10.009   7.883  68.355  1.00  0.00    -0.169 OA 
BRANCH  32  34
HETATM   34  C   UNL     1      -9.921   6.321  70.530  1.00  0.00    -0.186 C  
BRANCH  34  35
HETATM   35  C   UNL     1     -10.465   5.126  69.757  1.00  0.00    -0.274 C  
BRANCH  35  36
HETATM   36  C   UNL     1      -9.515   4.700  68.639  1.00  0.00    -0.213 C  
BRANCH  36  37
HETATM   37  C   UNL     1      -8.165   4.200  69.150  1.00  0.00    -0.069 C  
HETATM   38  F   UNL     1      -7.363   3.949  68.075  1.00  0.00    -0.059 F  
HETATM   39  C   UNL     1      -8.252   2.970  70.065  1.00  0.00    -0.044 C  
HETATM   40  F   UNL     1      -7.573   5.240  69.810  1.00  0.00    -0.063 F  
HETATM   41  F   UNL     1      -9.524   2.637  70.369  1.00  0.00    -0.188 F  
HETATM   42  F   UNL     1      -7.672   1.891  69.489  1.00  0.00    -0.043 F  
HETATM   43  F   UNL     1      -7.610   3.172  71.244  1.00  0.00    -0.041 F  
ENDBRANCH  36  37
ENDBRANCH  35  36
ENDBRANCH  34  35
ENDBRANCH  32  34
ENDBRANCH  31  32
ENDBRANCH  30  31
ENDBRANCH  29  30
ENDBRANCH  28  29
ENDBRANCH  27  28
ENDBRANCH  26  27
ENDBRANCH  25  26
ENDBRANCH  24  25
ENDBRANCH  23  24
ENDBRANCH  21  23
TORSDOF 14
ENDMDL
MODEL      260
REMARK 921   NORMALIZED FREE ENERGY PREDICTED BY IDOCK:   -1.90 KCAL/MOL
REMARK 922        TOTAL FREE ENERGY PREDICTED BY IDOCK:   -6.75 KCAL/MOL
REMARK 923 INTER-LIGAND FREE ENERGY PREDICTED BY IDOCK:   -5.49 KCAL/MOL
REMARK 924 INTRA-LIGAND FREE ENERGY PREDICTED BY IDOCK:   -1.26 KCAL/MOL
REMARK 927      BINDING AFFINITY PREDICTED BY RF-SCORE:    0.00 PKD
ROOT
HETATM    1  C   UNL     1      -6.399   7.574  70.244  1.00  0.00    -0.034 C  
HETATM    2  C   UNL     1      -6.199   8.652  71.151  1.00  0.00    -0.046 C  
HETATM    3  C   UNL     1      -7.510   8.804  70.429  1.00  0.00    -0.072 C  
HETATM    4  C   UNL     1      -7.971   7.064  69.487  1.00  0.00    -0.125 C  
HETATM    5  O   UNL     1      -9.110   6.432  68.894  1.00  0.00    -0.130 OA 
HETATM    6  C   UNL     1      -8.165   7.178  70.842  1.00  0.00    -0.116 C  
HETATM    7  C   UNL     1      -9.634   8.141  70.287  1.00  0.00    -0.171 C  
HETATM    8  C   UNL     1      -8.341   6.140  71.891  1.00  0.00    -0.118 C  
HETATM    9  H   UNL     1      -9.326   5.618  68.453  1.00  0.00     0.000 HD 
HETATM   10  C   UNL     1      -9.411   8.842  68.660  1.00  0.00    -0.143 C  
HETATM   11  C   UNL     1      -7.878   9.107  67.948  1.00  0.00    -0.100 C  
HETATM   12  C   UNL     1      -7.796   9.418  66.449  1.00  0.00    -0.100 A  
HETATM   13  C   UNL     1      -8.923   9.912  65.765  1.00  0.00    -0.189 A  
HETATM   14  C   UNL     1      -8.828  10.398  64.456  1.00  0.00    -0.225 A  
HETATM   15  C   UNL     1      -7.601  10.386  63.812  1.00  0.00    -0.029 A  
HETATM   16  C   UNL     1      -6.470   9.913  64.462  1.00  0.00    -0.120 A  
HETATM   17  O   UNL     1      -7.455  10.852  62.539  1.00  0.00    -0.331 OA 
HETATM   18  C   UNL     1      -6.540   9.460  65.793  1.00  0.00    -0.073 A  
HETATM   19  H   UNL     1      -6.615  10.843  62.096  1.00  0.00     0.000 HD 
HETATM   20  C   UNL     1      -5.237   9.035  66.447  1.00  0.00    -0.033 C  
HETATM   21  C   UNL     1      -5.208   9.087  67.993  1.00  0.00    -0.034 C  
HETATM   22  C   UNL     1      -6.425   8.257  68.464  1.00  0.00    -0.054 C  
ENDROOT
BRANCH  21  23
HETATM   23  C   UNL     1      -5.219  10.542  68.504  1.00  0.00    -0.037 C  
BRANCH  23  24
HETATM   24  C   UNL     1      -5.356  11.627  67.451  1.00  0.00    -0.078 C  
BRANCH  24  25
HETATM   25  C   UNL     1      -6.503  12.583  67.810  1.00  0.00    -0.120 C  
BRANCH  25  26
HETATM   26  C   UNL     1      -6.369  13.996  67.217  1.00  0.00     0.375 C  
BRANCH  26  27
HETATM   27  C   UNL     1      -5.621  14.980  68.116  1.00  0.00    -0.131 C  
BRANCH  27  28
HETATM   28  C   UNL     1      -6.563  15.684  69.094  1.00  0.00    -0.140 C  
BRANCH  28  29
HETATM   29  C   UNL     1      -7.740  14.811  69.536  1.00  0.00    -0.068 C  
BRANCH  29  30
HETATM   30  C   UNL     1      -9.103  15.519  69.553  1.00  0.00    -0.260 C  
BRANCH  30  31
HETATM   31  C   UNL     1      -9.809  15.608  68.208  1.00  0.00    -0.209 C  
BRANCH  31  32
HETATM   32  S   UNL     1     -11.280  16.683  68.269  1.00  0.00    -0.105 S  
HETATM   33  O   UNL     1     -11.760  16.698  69.691  1.00  0.00     0.127 OA 
BRANCH  32  34
HETATM   34  C   UNL     1     -10.435  18.268  67.972  1.00  0.00    -0.367 C  
BRANCH  34  35
HETATM   35  C   UNL     1     -10.070  18.453  66.503  1.00  0.00    -0.406 C  
BRANCH  35  36
HETATM   36  C   UNL     1      -9.000  19.528  66.321  1.00  0.00    -0.400 C  
BRANCH  36  37
HETATM   37  C   UNL     1      -7.585  19.028  66.606  1.00  0.00    -0.243 C  
HETATM   38  F   UNL     1      -7.511  18.671  67.920  1.00  0.00    -0.226 F  
HETATM   39  C   UNL     1      -6.477  20.030  66.249  1.00  0.00    -0.205 C  
HETATM   40  F   UNL     1      -7.418  17.868  65.903  1.00  0.00    -0.296 F  
HETATM   41  F   UNL     1      -6.949  21.123  65.613  1.00  0.00    -0.107 F  
HETATM   42  F   UNL     1      -5.826  20.451  67.359  1.00  0.00    -0.182 F  
HETATM   43  F   UNL     1      -5.542  19.478  65.436  1.00  0.00    -0.166 F  
ENDBRANCH  36  37
ENDBRANCH  35  36
ENDBRANCH  34  35
ENDBRANCH  32  34
ENDBRANCH  31  32
ENDBRANCH  30  31
ENDBRANCH  29  30
ENDBRANCH  28  29
ENDBRANCH  27  28
ENDBRANCH  26  27
ENDBRANCH  25  26
ENDBRANCH  24  25
ENDBRANCH  23  24
ENDBRANCH  21  23
TORSDOF 14
ENDMDL
MODEL      261
REMARK 921   NORMALIZED FREE ENERGY PREDICTED BY IDOCK:   -1.73 KCAL/MOL
REMARK 922        TOTAL FREE ENERGY PREDICTED BY IDOCK:   -6.45 KCAL/MOL
REMARK 923 INTER-LIGAND FREE ENERGY PREDICTED BY IDOCK:   -6.28 KCAL/MOL
REMARK 924 INTRA-LIGAND FREE ENERGY PREDICTED BY IDOCK:   -0.17 KCAL/MOL
REMARK 927      BINDING AFFINITY PREDICTED BY RF-SCORE:    0.00 PKD
ROOT
HETATM    1  C   UNL     1      -9.499   8.549  70.098  1.00  0.00    -0.169 C  
HETATM    2  C   UNL     1      -9.473   7.654  68.992  1.00  0.00    -0.150 C  
HETATM    3  C   UNL     1      -8.080   8.101  69.346  1.00  0.00    -0.116 C  
HETATM    4  C   UNL     1      -8.100   9.007  71.164  1.00  0.00    -0.139 C  
HETATM    5  O   UNL     1      -7.171   9.394  72.183  1.00  0.00    -0.182 OA 
HETATM    6  C   UNL     1      -8.148   7.637  71.085  1.00  0.00    -0.098 C  
HETATM    7  C   UNL     1      -6.353   7.854  70.734  1.00  0.00    -0.037 C  
HETATM    8  C   UNL     1      -8.567   6.618  72.083  1.00  0.00    -0.118 C  
HETATM    9  H   UNL     1      -7.180   9.817  73.033  1.00  0.00     0.000 HD 
HETATM   10  C   UNL     1      -5.985   9.463  70.052  1.00  0.00    -0.036 C  
HETATM   11  C   UNL     1      -7.148  10.447  69.274  1.00  0.00    -0.090 C  
HETATM   12  C   UNL     1      -6.816  11.919  69.001  1.00  0.00    -0.105 A  
HETATM   13  C   UNL     1      -5.477  12.349  68.969  1.00  0.00    -0.063 A  
HETATM   14  C   UNL     1      -5.132  13.630  68.522  1.00  0.00    -0.090 A  
HETATM   15  C   UNL     1      -6.128  14.500  68.112  1.00  0.00    -0.143 A  
HETATM   16  C   UNL     1      -7.458  14.103  68.124  1.00  0.00    -0.129 A  
HETATM   17  O   UNL     1      -5.844  15.757  67.665  1.00  0.00    -0.141 OA 
HETATM   18  C   UNL     1      -7.818  12.804  68.530  1.00  0.00    -0.099 A  
HETATM   19  H   UNL     1      -6.527  16.354  67.384  1.00  0.00     0.000 HD 
HETATM   20  C   UNL     1      -9.289  12.435  68.436  1.00  0.00    -0.158 C  
HETATM   21  C   UNL     1      -9.600  10.923  68.329  1.00  0.00    -0.169 C  
HETATM   22  C   UNL     1      -8.880  10.259  69.527  1.00  0.00    -0.166 C  
ENDROOT
BRANCH  21  23
HETATM   23  C   UNL     1      -9.167  10.359  66.960  1.00  0.00    -0.165 C  
BRANCH  23  24
HETATM   24  C   UNL     1      -9.412  11.247  65.755  1.00  0.00    -0.252 C  
BRANCH  24  25
HETATM   25  C   UNL     1     -10.486  10.633  64.843  1.00  0.00    -0.282 C  
BRANCH  25  26
HETATM   26  C   UNL     1     -10.954  11.548  63.698  1.00  0.00    -0.482 C  
BRANCH  26  27
HETATM   27  C   UNL     1     -12.417  11.348  63.301  1.00  0.00     0.221 C  
BRANCH  27  28
HETATM   28  C   UNL     1     -13.134  12.681  63.088  1.00  0.00     0.569 C  
BRANCH  28  29
HETATM   29  C   UNL     1     -12.359  13.881  63.637  1.00  0.00    -0.177 C  
BRANCH  29  30
HETATM   30  C   UNL     1     -12.344  13.998  65.169  1.00  0.00    -0.468 C  
BRANCH  30  31
HETATM   31  C   UNL     1     -12.138  15.404  65.713  1.00  0.00     0.550 C  
BRANCH  31  32
HETATM   32  S   UNL     1     -10.947  15.444  67.092  1.00  0.00    -0.289 S  
HETATM   33  O   UNL     1      -9.986  14.310  66.883  1.00  0.00    -0.252 OA 
BRANCH  32  34
HETATM   34  C   UNL     1     -10.080  16.974  66.620  1.00  0.00    -0.306 C  
BRANCH  34  35
HETATM   35  C   UNL     1      -9.151  17.467  67.724  1.00  0.00    -0.249 C  
BRANCH  35  36
HETATM   36  C   UNL     1      -8.111  18.450  67.186  1.00  0.00    -0.244 C  
BRANCH  36  37
HETATM   37  C   UNL     1      -8.052  19.758  67.971  1.00  0.00    -0.303 C  
HETATM   38  F   UNL     1      -8.018  20.793  67.083  1.00  0.00    -0.354 F  
HETATM   39  C   UNL     1      -6.880  19.849  68.960  1.00  0.00    -0.308 C  
HETATM   40  F   UNL     1      -9.241  19.886  68.633  1.00  0.00    -0.374 F  
HETATM   41  F   UNL     1      -6.193  18.691  69.060  1.00  0.00    -0.206 F  
HETATM   42  F   UNL     1      -6.006  20.815  68.592  1.00  0.00    -0.315 F  
HETATM   43  F   UNL     1      -7.301  20.162  70.212  1.00  0.00    -0.197 F  
ENDBRANCH  36  37
ENDBRANCH  35  36
ENDBRANCH  34  35
ENDBRANCH  32  34
ENDBRANCH  31  32
ENDBRANCH  30  31
ENDBRANCH  29  30
ENDBRANCH  28  29
ENDBRANCH  27  28
ENDBRANCH  26  27
ENDBRANCH  25  26
ENDBRANCH  24  25
ENDBRANCH  23  24
ENDBRANCH  21  23
TORSDOF 14
ENDMDL
MODEL      262
REMARK 921   NORMALIZED FREE ENERGY PREDICTED BY IDOCK:   -1.68 KCAL/MOL
REMARK 922        TOTAL FREE ENERGY PREDICTED BY IDOCK:   -6.34 KCAL/MOL
REMARK 923 INTER-LIGAND FREE ENERGY PREDICTED BY IDOCK:   -4.92 KCAL/MOL
REMARK 924 INTRA-LIGAND FREE ENERGY PREDICTED BY IDOCK:   -1.43 KCAL/MOL
REMARK 927      BINDING AFFINITY PREDICTED BY RF-SCORE:    0.00 PKD
ROOT
HETATM    1  C   UNL     1     -10.064  14.627  69.627  1.00  0.00     0.071 C  
HETATM    2  C   UNL     1      -8.648  14.745  69.550  1.00  0.00     0.101 C  
HETATM    3  C   UNL     1      -9.304  15.485  68.416  1.00  0.00    -0.192 C  
HETATM    4  C   UNL     1     -11.293  15.671  68.788  1.00  0.00    -0.349 C  
HETATM    5  O   UNL     1     -12.405  16.445  68.327  1.00  0.00     0.257 OA 
HETATM    6  C   UNL     1     -10.399  16.493  69.431  1.00  0.00    -0.298 C  
HETATM    7  C   UNL     1     -10.388  17.330  67.790  1.00  0.00    -0.356 C  
HETATM    8  C   UNL     1     -10.544  17.318  70.658  1.00  0.00     1.214 C  
HETATM    9  H   UNL     1     -13.335  16.533  68.501  1.00  0.00     0.000 HD 
HETATM   10  C   UNL     1     -10.847  16.227  66.463  1.00  0.00    -0.105 C  
HETATM   11  C   UNL     1     -10.736  14.523  66.570  1.00  0.00    -0.312 C  
HETATM   12  C   UNL     1     -11.434  13.663  65.510  1.00  0.00    -0.317 A  
HETATM   13  C   UNL     1     -11.770  14.213  64.259  1.00  0.00    -0.365 A  
HETATM   14  C   UNL     1     -12.215  13.410  63.204  1.00  0.00    -0.139 A  
HETATM   15  C   UNL     1     -12.339  12.043  63.393  1.00  0.00    -0.523 A  
HETATM   16  C   UNL     1     -12.008  11.469  64.611  1.00  0.00     0.101 A  
HETATM   17  O   UNL     1     -12.765  11.216  62.395  1.00  0.00    -0.222 OA 
HETATM   18  C   UNL     1     -11.518  12.257  65.670  1.00  0.00    -0.416 A  
HETATM   19  H   UNL     1     -12.851  10.279  62.524  1.00  0.00     0.000 HD 
HETATM   20  C   UNL     1     -11.109  11.530  66.940  1.00  0.00    -0.366 C  
HETATM   21  C   UNL     1     -10.086  12.265  67.840  1.00  0.00    -0.200 C  
HETATM   22  C   UNL     1     -10.691  13.664  68.106  1.00  0.00    -0.260 C  
ENDROOT
BRANCH  21  23
HETATM   23  C   UNL     1      -8.693  12.311  67.180  1.00  0.00    -0.193 C  
BRANCH  23  24
HETATM   24  C   UNL     1      -8.381  11.214  66.180  1.00  0.00    -0.144 C  
BRANCH  24  25
HETATM   25  C   UNL     1      -7.777   9.993  66.891  1.00  0.00    -0.096 C  
BRANCH  25  26
HETATM   26  C   UNL     1      -7.489  10.201  68.388  1.00  0.00    -0.086 C  
BRANCH  26  27
HETATM   27  C   UNL     1      -7.115   8.920  69.133  1.00  0.00    -0.063 C  
BRANCH  27  28
HETATM   28  C   UNL     1      -7.338   9.055  70.640  1.00  0.00    -0.099 C  
BRANCH  28  29
HETATM   29  C   UNL     1      -8.724   8.588  71.092  1.00  0.00    -0.215 C  
BRANCH  29  30
HETATM   30  C   UNL     1      -8.722   7.423  72.094  1.00  0.00    -0.134 C  
BRANCH  30  31
HETATM   31  C   UNL     1     -10.044   7.172  72.804  1.00  0.00    -0.196 C  
BRANCH  31  32
HETATM   32  S   UNL     1      -9.950   5.767  73.962  1.00  0.00    -0.244 S  
HETATM   33  O   UNL     1     -10.755   4.648  73.369  1.00  0.00    -0.199 OA 
BRANCH  32  34
HETATM   34  C   UNL     1      -8.194   5.359  73.705  1.00  0.00    -0.112 C  
BRANCH  34  35
HETATM   35  C   UNL     1      -7.882   3.916  74.089  1.00  0.00    -0.082 C  
BRANCH  35  36
HETATM   36  C   UNL     1      -7.967   2.984  72.882  1.00  0.00    -0.063 C  
BRANCH  36  37
HETATM   37  C   UNL     1      -6.973   3.332  71.776  1.00  0.00    -0.031 C  
HETATM   38  F   UNL     1      -5.927   4.008  72.334  1.00  0.00    -0.007 F  
HETATM   39  C   UNL     1      -7.578   4.130  70.611  1.00  0.00    -0.048 C  
HETATM   40  F   UNL     1      -6.446   2.157  71.322  1.00  0.00    -0.017 F  
HETATM   41  F   UNL     1      -8.919   4.256  70.708  1.00  0.00    -0.113 F  
HETATM   42  F   UNL     1      -7.053   5.376  70.548  1.00  0.00    -0.052 F  
HETATM   43  F   UNL     1      -7.328   3.541  69.414  1.00  0.00    -0.047 F  
ENDBRANCH  36  37
ENDBRANCH  35  36
ENDBRANCH  34  35
ENDBRANCH  32  34
ENDBRANCH  31  32
ENDBRANCH  30  31
ENDBRANCH  29  30
ENDBRANCH  28  29
ENDBRANCH  27  28
ENDBRANCH  26  27
ENDBRANCH  25  26
ENDBRANCH  24  25
ENDBRANCH  23  24
ENDBRANCH  21  23
TORSDOF 14
ENDMDL
MODEL      263
REMARK 921   NORMALIZED FREE ENERGY PREDICTED BY IDOCK:   -1.60 KCAL/MOL
REMARK 922        TOTAL FREE ENERGY PREDICTED BY IDOCK:   -6.20 KCAL/MOL
REMARK 923 INTER-LIGAND FREE ENERGY PREDICTED BY IDOCK:   -5.98 KCAL/MOL
REMARK 924 INTRA-LIGAND FREE ENERGY PREDICTED BY IDOCK:   -0.22 KCAL/MOL
REMARK 927      BINDING AFFINITY PREDICTED BY RF-SCORE:    0.00 PKD
ROOT
HETATM    1  C   UNL     1      -7.742   9.931  68.293  1.00  0.00    -0.085 C  
HETATM    2  C   UNL     1      -7.204   9.692  66.997  1.00  0.00    -0.087 C  
HETATM    3  C   UNL     1      -6.612  10.939  67.595  1.00  0.00    -0.065 C  
HETATM    4  C   UNL     1      -7.051  11.015  69.577  1.00  0.00    -0.113 C  
HETATM    5  O   UNL     1      -6.609  11.707  70.750  1.00  0.00    -0.401 OA 
HETATM    6  C   UNL     1      -6.050  10.186  69.132  1.00  0.00    -0.040 C  
HETATM    7  C   UNL     1      -5.130  11.779  69.034  1.00  0.00    -0.047 C  
HETATM    8  C   UNL     1      -5.396   9.017  69.775  1.00  0.00    -0.029 C  
HETATM    9  H   UNL     1      -6.814  11.742  71.677  1.00  0.00     0.000 HD 
HETATM   10  C   UNL     1      -6.220  13.181  68.846  1.00  0.00    -0.088 C  
HETATM   11  C   UNL     1      -7.817  13.061  68.245  1.00  0.00    -0.143 C  
HETATM   12  C   UNL     1      -8.767  14.254  68.409  1.00  0.00    -0.181 A  
HETATM   13  C   UNL     1      -8.251  15.545  68.627  1.00  0.00    -0.162 A  
HETATM   14  C   UNL     1      -9.072  16.677  68.575  1.00  0.00    -0.234 A  
HETATM   15  C   UNL     1     -10.424  16.528  68.313  1.00  0.00    -0.313 A  
HETATM   16  C   UNL     1     -10.961  15.269  68.085  1.00  0.00    -0.292 A  
HETATM   17  O   UNL     1     -11.265  17.600  68.248  1.00  0.00    -0.095 OA 
HETATM   18  C   UNL     1     -10.142  14.124  68.092  1.00  0.00    -0.239 A  
HETATM   19  H   UNL     1     -12.192  17.498  68.068  1.00  0.00     0.000 HD 
HETATM   20  C   UNL     1     -10.805  12.799  67.756  1.00  0.00    -0.248 C  
HETATM   21  C   UNL     1      -9.868  11.692  67.218  1.00  0.00    -0.203 C  
HETATM   22  C   UNL     1      -8.734  11.558  68.262  1.00  0.00    -0.162 C  
ENDROOT
BRANCH  21  23
HETATM   23  C   UNL     1      -9.362  12.026  65.800  1.00  0.00    -0.133 C  
BRANCH  23  24
HETATM   24  C   UNL     1      -8.343  11.073  65.203  1.00  0.00     0.090 C  
BRANCH  24  25
HETATM   25  C   UNL     1      -9.006  10.161  64.159  1.00  0.00    -0.267 C  
BRANCH  25  26
HETATM   26  C   UNL     1      -9.120   8.685  64.578  1.00  0.00     0.325 C  
BRANCH  26  27
HETATM   27  C   UNL     1     -10.072   8.443  65.749  1.00  0.00     0.611 C  
BRANCH  27  28
HETATM   28  C   UNL     1      -9.670   7.211  66.561  1.00  0.00    -0.199 C  
BRANCH  28  29
HETATM   29  C   UNL     1     -10.538   6.992  67.802  1.00  0.00    -0.298 C  
BRANCH  29  30
HETATM   30  C   UNL     1     -10.740   5.523  68.204  1.00  0.00    -0.160 C  
BRANCH  30  31
HETATM   31  C   UNL     1      -9.595   4.586  67.847  1.00  0.00    -0.157 C  
BRANCH  31  32
HETATM   32  S   UNL     1      -8.220   4.691  69.040  1.00  0.00    -0.080 S  
HETATM   33  O   UNL     1      -8.066   6.136  69.415  1.00  0.00    -0.109 OA 
BRANCH  32  34
HETATM   34  C   UNL     1      -9.046   3.861  70.434  1.00  0.00    -0.118 C  
BRANCH  34  35
HETATM   35  C   UNL     1      -9.119   4.754  71.668  1.00  0.00    -0.169 C  
BRANCH  35  36
HETATM   36  C   UNL     1     -10.357   5.650  71.641  1.00  0.00    -0.270 C  
BRANCH  36  37
HETATM   37  C   UNL     1     -10.319   6.765  72.683  1.00  0.00    -0.201 C  
HETATM   38  F   UNL     1     -11.134   6.414  73.720  1.00  0.00    -0.199 F  
HETATM   39  C   UNL     1     -10.696   8.151  72.139  1.00  0.00    -0.293 C  
HETATM   40  F   UNL     1      -9.057   6.788  73.205  1.00  0.00    -0.131 F  
HETATM   41  F   UNL     1     -10.854   8.158  70.798  1.00  0.00    -0.214 F  
HETATM   42  F   UNL     1     -11.850   8.595  72.690  1.00  0.00    -0.436 F  
HETATM   43  F   UNL     1      -9.747   9.079  72.424  1.00  0.00    -0.349 F  
ENDBRANCH  36  37
ENDBRANCH  35  36
ENDBRANCH  34  35
ENDBRANCH  32  34
ENDBRANCH  31  32
ENDBRANCH  30  31
ENDBRANCH  29  30
ENDBRANCH  28  29
ENDBRANCH  27  28
ENDBRANCH  26  27
ENDBRANCH  25  26
ENDBRANCH  24  25
ENDBRANCH  23  24
ENDBRANCH  21  23
TORSDOF 14
ENDMDL
MODEL      264
REMARK 921   NORMALIZED FREE ENERGY PREDICTED BY IDOCK:   -1.42 KCAL/MOL
REMARK 922        TOTAL FREE ENERGY PREDICTED BY IDOCK:   -5.88 KCAL/MOL
REMARK 923 INTER-LIGAND FREE ENERGY PREDICTED BY IDOCK:   -3.85 KCAL/MOL
REMARK 924 INTRA-LIGAND FREE ENERGY PREDICTED BY IDOCK:   -2.03 KCAL/MOL
REMARK 927      BINDING AFFINITY PREDICTED BY RF-SCORE:    0.00 PKD
ROOT
HETATM    1  C   UNL     1     -10.906   8.144  67.780  1.00  0.00    -0.072 C  
HETATM    2  C   UNL     1     -11.032   8.190  66.363  1.00  0.00     1.273 C  
HETATM    3  C   UNL     1      -9.608   7.910  66.760  1.00  0.00    -0.278 C  
HETATM    4  C   UNL     1      -9.537   7.419  68.730  1.00  0.00    -0.147 C  
HETATM    5  O   UNL     1      -8.633   6.799  69.651  1.00  0.00    -0.131 OA 
HETATM    6  C   UNL     1      -9.959   6.490  67.810  1.00  0.00    -0.154 C  
HETATM    7  C   UNL     1      -8.150   6.382  67.476  1.00  0.00    -0.117 C  
HETATM    8  C   UNL     1     -10.734   5.233  67.981  1.00  0.00     0.012 C  
HETATM    9  H   UNL     1      -8.599   6.569  70.572  1.00  0.00     0.000 HD 
HETATM   10  C   UNL     1      -7.287   7.879  67.926  1.00  0.00    -0.092 C  
HETATM   11  C   UNL     1      -8.053   9.401  68.081  1.00  0.00    -0.110 C  
HETATM   12  C   UNL     1      -7.300  10.549  68.763  1.00  0.00    -0.092 A  
HETATM   13  C   UNL     1      -5.896  10.517  68.859  1.00  0.00    -0.040 A  
HETATM   14  C   UNL     1      -5.168  11.633  69.285  1.00  0.00    -0.048 A  
HETATM   15  C   UNL     1      -5.840  12.794  69.631  1.00  0.00    -0.113 A  
HETATM   16  C   UNL     1      -7.223  12.860  69.539  1.00  0.00     0.376 A  
HETATM   17  O   UNL     1      -5.177  13.910  70.049  1.00  0.00    -0.089 OA 
HETATM   18  C   UNL     1      -7.968  11.760  69.072  1.00  0.00     0.100 A  
HETATM   19  H   UNL     1      -5.637  14.706  70.286  1.00  0.00     0.000 HD 
HETATM   20  C   UNL     1      -9.468  11.952  68.932  1.00  0.00     0.095 C  
HETATM   21  C   UNL     1     -10.179  11.011  67.930  1.00  0.00    -0.207 C  
HETATM   22  C   UNL     1      -9.785   9.575  68.350  1.00  0.00    -0.168 C  
ENDROOT
BRANCH  21  23
HETATM   23  C   UNL     1      -9.799  11.353  66.475  1.00  0.00    -0.237 C  
BRANCH  23  24
HETATM   24  C   UNL     1      -9.223  12.737  66.234  1.00  0.00    -0.096 C  
BRANCH  24  25
HETATM   25  C   UNL     1     -10.338  13.725  65.859  1.00  0.00    -0.315 C  
BRANCH  25  26
HETATM   26  C   UNL     1     -11.214  13.283  64.674  1.00  0.00    -0.370 C  
BRANCH  26  27
HETATM   27  C   UNL     1     -11.934  14.433  63.969  1.00  0.00    -0.288 C  
BRANCH  27  28
HETATM   28  C   UNL     1     -11.964  15.697  64.831  1.00  0.00     0.144 C  
BRANCH  28  29
HETATM   29  C   UNL     1     -10.946  16.752  64.394  1.00  0.00     0.568 C  
BRANCH  29  30
HETATM   30  C   UNL     1     -10.536  17.751  65.487  1.00  0.00    -0.023 C  
BRANCH  30  31
HETATM   31  C   UNL     1     -10.840  17.318  66.914  1.00  0.00    -0.004 C  
BRANCH  31  32
HETATM   32  S   UNL     1      -9.342  17.249  67.949  1.00  0.00    -0.263 S  
HETATM   33  O   UNL     1      -8.581  18.521  67.715  1.00  0.00    -0.264 OA 
BRANCH  32  34
HETATM   34  C   UNL     1     -10.160  17.405  69.569  1.00  0.00     0.031 C  
BRANCH  34  35
HETATM   35  C   UNL     1     -10.451  16.045  70.194  1.00  0.00    -0.198 C  
BRANCH  35  36
HETATM   36  C   UNL     1     -11.945  15.853  70.451  1.00  0.00    -0.336 C  
BRANCH  36  37
HETATM   37  C   UNL     1     -12.247  15.175  71.786  1.00  0.00    -0.355 C  
HETATM   38  F   UNL     1     -11.070  14.998  72.455  1.00  0.00    -0.471 F  
HETATM   39  C   UNL     1     -13.010  13.848  71.664  1.00  0.00    -0.352 C  
HETATM   40  F   UNL     1     -12.961  16.065  72.538  1.00  0.00    -0.465 F  
HETATM   41  F   UNL     1     -13.403  13.590  70.398  1.00  0.00    -0.033 F  
HETATM   42  F   UNL     1     -12.249  12.808  72.077  1.00  0.00     0.021 F  
HETATM   43  F   UNL     1     -14.130  13.838  72.430  1.00  0.00    -0.543 F  
ENDBRANCH  36  37
ENDBRANCH  35  36
ENDBRANCH  34  35
ENDBRANCH  32  34
ENDBRANCH  31  32
ENDBRANCH  30  31
ENDBRANCH  29  30
ENDBRANCH  28  29
ENDBRANCH  27  28
ENDBRANCH  26  27
ENDBRANCH  25  26
ENDBRANCH  24  25
ENDBRANCH  23  24
ENDBRANCH  21  23
TORSDOF 14
ENDMDL
MODEL      265
REMARK 921   NORMALIZED FREE ENERGY PREDICTED BY IDOCK:   -1.38 KCAL/MOL
REMARK 922        TOTAL FREE ENERGY PREDICTED BY IDOCK:   -5.80 KCAL/MOL
REMARK 923 INTER-LIGAND FREE ENERGY PREDICTED BY IDOCK:   -6.44 KCAL/MOL
REMARK 924 INTRA-LIGAND FREE ENERGY PREDICTED BY IDOCK:    0.63 KCAL/MOL
REMARK 927      BINDING AFFINITY PREDICTED BY RF-SCORE:    0.00 PKD
ROOT
HETATM    1  C   UNL     1      -7.353  14.352  69.903  1.00  0.00     0.182 C  
HETATM    2  C   UNL     1      -6.468  13.277  69.605  1.00  0.00    -0.053 C  
HETATM    3  C   UNL     1      -6.529  14.247  68.456  1.00  0.00    -0.095 C  
HETATM    4  C   UNL     1      -7.433  15.962  69.064  1.00  0.00    -0.194 C  
HETATM    5  O   UNL     1      -7.570  17.319  68.627  1.00  0.00    -0.240 OA 
HETATM    6  C   UNL     1      -6.125  15.722  69.407  1.00  0.00    -0.138 C  
HETATM    7  C   UNL     1      -5.848  16.213  67.653  1.00  0.00    -0.174 C  
HETATM    8  C   UNL     1      -5.270  16.322  70.465  1.00  0.00    -0.193 C  
HETATM    9  H   UNL     1      -7.992  18.121  68.911  1.00  0.00     0.000 HD 
HETATM   10  C   UNL     1      -7.289  15.937  66.636  1.00  0.00    -0.015 C  
HETATM   11  C   UNL     1      -8.539  14.843  67.046  1.00  0.00    -0.265 C  
HETATM   12  C   UNL     1      -9.864  14.902  66.277  1.00  0.00    -0.315 A  
HETATM   13  C   UNL     1      -9.918  15.502  65.005  1.00  0.00    -0.057 A  
HETATM   14  C   UNL     1     -11.053  15.392  64.193  1.00  0.00     0.266 A  
HETATM   15  C   UNL     1     -12.153  14.686  64.652  1.00  0.00    -0.454 A  
HETATM   16  C   UNL     1     -12.127  14.076  65.898  1.00  0.00    -0.448 A  
HETATM   17  O   UNL     1     -13.281  14.546  63.899  1.00  0.00     0.194 OA 
HETATM   18  C   UNL     1     -10.978  14.142  66.710  1.00  0.00    -0.300 A  
HETATM   19  H   UNL     1     -14.036  14.062  64.213  1.00  0.00     0.000 HD 
HETATM   20  C   UNL     1     -11.016  13.378  68.022  1.00  0.00    -0.265 C  
HETATM   21  C   UNL     1      -9.642  12.983  68.614  1.00  0.00    -0.029 C  
HETATM   22  C   UNL     1      -8.826  14.295  68.694  1.00  0.00    -0.150 C  
ENDROOT
BRANCH  21  23
HETATM   23  C   UNL     1      -8.963  11.887  67.767  1.00  0.00    -0.173 C  
BRANCH  23  24
HETATM   24  C   UNL     1      -9.374  11.809  66.308  1.00  0.00    -0.235 C  
BRANCH  24  25
HETATM   25  C   UNL     1     -10.404  10.689  66.098  1.00  0.00    -0.291 C  
BRANCH  25  26
HETATM   26  C   UNL     1     -10.689   9.838  67.348  1.00  0.00    -0.314 C  
BRANCH  26  27
HETATM   27  C   UNL     1     -10.369   8.353  67.176  1.00  0.00    -0.381 C  
BRANCH  27  28
HETATM   28  C   UNL     1      -9.089   8.139  66.366  1.00  0.00    -0.226 C  
BRANCH  28  29
HETATM   29  C   UNL     1      -7.815   8.263  67.204  1.00  0.00    -0.097 C  
BRANCH  29  30
HETATM   30  C   UNL     1      -6.760   7.175  66.947  1.00  0.00    -0.060 C  
BRANCH  30  31
HETATM   31  C   UNL     1      -6.959   5.879  67.720  1.00  0.00    -0.069 C  
BRANCH  31  32
HETATM   32  S   UNL     1      -7.199   6.168  69.503  1.00  0.00    -0.080 S  
HETATM   33  O   UNL     1      -8.205   7.272  69.643  1.00  0.00    -0.127 OA 
BRANCH  32  34
HETATM   34  C   UNL     1      -8.057   4.608  69.888  1.00  0.00    -0.068 C  
BRANCH  34  35
HETATM   35  C   UNL     1      -9.571   4.745  69.763  1.00  0.00    -0.249 C  
BRANCH  35  36
HETATM   36  C   UNL     1     -10.281   4.326  71.049  1.00  0.00    -0.070 C  
BRANCH  36  37
HETATM   37  C   UNL     1      -9.736   5.021  72.295  1.00  0.00    -0.158 C  
HETATM   38  F   UNL     1     -10.081   4.280  73.387  1.00  0.00    -0.146 F  
HETATM   39  C   UNL     1     -10.194   6.478  72.458  1.00  0.00    -0.183 C  
HETATM   40  F   UNL     1      -8.373   4.958  72.229  1.00  0.00    -0.111 F  
HETATM   41  F   UNL     1     -10.885   6.928  71.388  1.00  0.00    -0.236 F  
HETATM   42  F   UNL     1     -10.985   6.622  73.547  1.00  0.00    -0.278 F  
HETATM   43  F   UNL     1      -9.144   7.320  72.626  1.00  0.00    -0.145 F  
ENDBRANCH  36  37
ENDBRANCH  35  36
ENDBRANCH  34  35
ENDBRANCH  32  34
ENDBRANCH  31  32
ENDBRANCH  30  31
ENDBRANCH  29  30
ENDBRANCH  28  29
ENDBRANCH  27  28
ENDBRANCH  26  27
ENDBRANCH  25  26
ENDBRANCH  24  25
ENDBRANCH  23  24
ENDBRANCH  21  23
TORSDOF 14
ENDMDL
MODEL      266
REMARK 921   NORMALIZED FREE ENERGY PREDICTED BY IDOCK:   -1.36 KCAL/MOL
REMARK 922        TOTAL FREE ENERGY PREDICTED BY IDOCK:   -5.77 KCAL/MOL
REMARK 923 INTER-LIGAND FREE ENERGY PREDICTED BY IDOCK:   -3.04 KCAL/MOL
REMARK 924 INTRA-LIGAND FREE ENERGY PREDICTED BY IDOCK:   -2.73 KCAL/MOL
REMARK 927      BINDING AFFINITY PREDICTED BY RF-SCORE:    0.00 PKD
ROOT
HETATM    1  C   UNL     1      -9.415  13.522  65.624  1.00  0.00     0.099 C  
HETATM    2  C   UNL     1      -8.790  12.247  65.719  1.00  0.00     0.332 C  
HETATM    3  C   UNL     1     -10.244  12.154  66.096  1.00  0.00    -0.254 C  
HETATM    4  C   UNL     1     -11.199  13.858  65.538  1.00  0.00    -0.307 C  
HETATM    5  O   UNL     1     -12.538  14.323  65.333  1.00  0.00    -0.460 OA 
HETATM    6  C   UNL     1     -10.896  12.906  64.595  1.00  0.00    -0.365 C  
HETATM    7  C   UNL     1     -12.346  12.064  65.358  1.00  0.00     0.198 C  
HETATM    8  C   UNL     1     -10.814  12.995  63.114  1.00  0.00     0.762 C  
HETATM    9  H   UNL     1     -12.985  15.119  65.073  1.00  0.00     0.000 HD 
HETATM   10  C   UNL     1     -12.624  12.584  67.043  1.00  0.00     1.164 C  
HETATM   11  C   UNL     1     -11.414  13.291  68.024  1.00  0.00    -0.344 C  
HETATM   12  C   UNL     1     -11.822  13.979  69.333  1.00  0.00    -0.381 A  
HETATM   13  C   UNL     1     -13.052  13.667  69.942  1.00  0.00     0.721 A  
HETATM   14  C   UNL     1     -13.362  14.116  71.231  1.00  0.00    -0.370 A  
HETATM   15  C   UNL     1     -12.446  14.893  71.921  1.00  0.00    -0.333 A  
HETATM   16  C   UNL     1     -11.221  15.210  71.351  1.00  0.00    -0.319 A  
HETATM   17  O   UNL     1     -12.698  15.352  73.181  1.00  0.00    -0.385 OA 
HETATM   18  C   UNL     1     -10.876  14.731  70.073  1.00  0.00    -0.146 A  
HETATM   19  H   UNL     1     -12.071  15.884  73.654  1.00  0.00     0.000 HD 
HETATM   20  C   UNL     1      -9.484  15.065  69.563  1.00  0.00    -0.081 C  
HETATM   21  C   UNL     1      -8.914  14.115  68.483  1.00  0.00    -0.174 C  
HETATM   22  C   UNL     1      -9.979  14.067  67.361  1.00  0.00    -0.243 C  
ENDROOT
BRANCH  21  23
HETATM   23  C   UNL     1      -8.582  12.730  69.075  1.00  0.00     0.483 C  
BRANCH  23  24
HETATM   24  C   UNL     1      -7.756  11.802  68.203  1.00  0.00    -0.124 C  
BRANCH  24  25
HETATM   25  C   UNL     1      -6.330  11.668  68.759  1.00  0.00    -0.056 C  
BRANCH  25  26
HETATM   26  C   UNL     1      -6.216  11.856  70.282  1.00  0.00    -0.027 C  
BRANCH  26  27
HETATM   27  C   UNL     1      -5.215  10.915  70.952  1.00  0.00    -0.106 C  
BRANCH  27  28
HETATM   28  C   UNL     1      -5.178   9.546  70.269  1.00  0.00    -0.028 C  
BRANCH  28  29
HETATM   29  C   UNL     1      -6.203   8.560  70.835  1.00  0.00    -0.036 C  
BRANCH  29  30
HETATM   30  C   UNL     1      -6.668   8.858  72.269  1.00  0.00     0.044 C  
BRANCH  30  31
HETATM   31  C   UNL     1      -7.531   7.781  72.911  1.00  0.00    -0.104 C  
BRANCH  31  32
HETATM   32  S   UNL     1      -8.543   6.886  71.687  1.00  0.00    -0.116 S  
HETATM   33  O   UNL     1      -8.371   5.419  71.956  1.00  0.00    -0.119 OA 
BRANCH  32  34
HETATM   34  C   UNL     1     -10.179   7.360  72.333  1.00  0.00    -0.199 C  
BRANCH  34  35
HETATM   35  C   UNL     1     -10.493   8.828  72.065  1.00  0.00    -0.414 C  
BRANCH  35  36
HETATM   36  C   UNL     1     -11.672   8.984  71.106  1.00  0.00    -0.366 C  
BRANCH  36  37
HETATM   37  C   UNL     1     -11.353   9.851  69.890  1.00  0.00    -0.222 C  
HETATM   38  F   UNL     1     -12.487  10.516  69.525  1.00  0.00    -0.317 F  
HETATM   39  C   UNL     1     -10.765   9.079  68.699  1.00  0.00    -0.097 C  
HETATM   40  F   UNL     1     -10.481  10.819  70.303  1.00  0.00    -0.221 F  
HETATM   41  F   UNL     1     -10.503   7.788  68.996  1.00  0.00    -0.206 F  
HETATM   42  F   UNL     1     -11.611   9.094  67.643  1.00  0.00     0.215 F  
HETATM   43  F   UNL     1      -9.599   9.625  68.271  1.00  0.00    -0.138 F  
ENDBRANCH  36  37
ENDBRANCH  35  36
ENDBRANCH  34  35
ENDBRANCH  32  34
ENDBRANCH  31  32
ENDBRANCH  30  31
ENDBRANCH  29  30
ENDBRANCH  28  29
ENDBRANCH  27  28
ENDBRANCH  26  27
ENDBRANCH  25  26
ENDBRANCH  24  25
ENDBRANCH  23  24
ENDBRANCH  21  23
TORSDOF 14
ENDMDL
MODEL      267
REMARK 921   NORMALIZED FREE ENERGY PREDICTED BY IDOCK:   -1.32 KCAL/MOL
REMARK 922        TOTAL FREE ENERGY PREDICTED BY IDOCK:   -5.69 KCAL/MOL
REMARK 923 INTER-LIGAND FREE ENERGY PREDICTED BY IDOCK:   -6.95 KCAL/MOL
REMARK 924 INTRA-LIGAND FREE ENERGY PREDICTED BY IDOCK:    1.26 KCAL/MOL
REMARK 927      BINDING AFFINITY PREDICTED BY RF-SCORE:    0.00 PKD
ROOT
HETATM    1  C   UNL     1      -9.806   6.270  67.219  1.00  0.00    -0.165 C  
HETATM    2  C   UNL     1      -8.398   6.429  67.085  1.00  0.00    -0.112 C  
HETATM    3  C   UNL     1      -8.810   6.538  68.528  1.00  0.00    -0.121 C  
HETATM    4  C   UNL     1     -10.720   5.881  68.741  1.00  0.00    -0.284 C  
HETATM    5  O   UNL     1     -11.602   5.458  69.786  1.00  0.00     0.848 OA 
HETATM    6  C   UNL     1      -9.697   4.973  68.611  1.00  0.00    -0.221 C  
HETATM    7  C   UNL     1      -9.412   5.436  70.371  1.00  0.00    -0.215 C  
HETATM    8  C   UNL     1      -9.713   3.534  68.239  1.00  0.00    -0.061 C  
HETATM    9  H   UNL     1     -12.495   5.150  69.886  1.00  0.00     0.000 HD 
HETATM   10  C   UNL     1     -10.040   7.062  70.755  1.00  0.00    -0.205 C  
HETATM   11  C   UNL     1     -10.325   8.267  69.575  1.00  0.00    -0.219 C  
HETATM   12  C   UNL     1     -11.145   9.506  69.956  1.00  0.00    -0.268 A  
HETATM   13  C   UNL     1     -11.282   9.876  71.307  1.00  0.00    -0.356 A  
HETATM   14  C   UNL     1     -11.843  11.104  71.674  1.00  0.00     0.789 A  
HETATM   15  C   UNL     1     -12.285  11.973  70.690  1.00  0.00    -0.316 A  
HETATM   16  C   UNL     1     -12.156  11.641  69.349  1.00  0.00    -0.328 A  
HETATM   17  O   UNL     1     -12.835  13.183  70.995  1.00  0.00    -0.296 OA 
HETATM   18  C   UNL     1     -11.555  10.428  68.961  1.00  0.00    -0.220 A  
HETATM   19  H   UNL     1     -13.138  13.779  70.321  1.00  0.00     0.000 HD 
HETATM   20  C   UNL     1     -11.387  10.187  67.471  1.00  0.00     0.062 C  
HETATM   21  C   UNL     1     -10.272   9.192  67.069  1.00  0.00    -0.333 C  
HETATM   22  C   UNL     1     -10.556   7.898  67.868  1.00  0.00    -0.215 C  
ENDROOT
BRANCH  21  23
HETATM   23  C   UNL     1      -8.873   9.784  67.332  1.00  0.00    -0.137 C  
BRANCH  23  24
HETATM   24  C   UNL     1      -8.829  11.126  68.038  1.00  0.00    -0.142 C  
BRANCH  24  25
HETATM   25  C   UNL     1      -7.378  11.518  68.360  1.00  0.00    -0.097 C  
BRANCH  25  26
HETATM   26  C   UNL     1      -6.837  12.700  67.538  1.00  0.00    -0.151 C  
BRANCH  26  27
HETATM   27  C   UNL     1      -5.389  13.070  67.859  1.00  0.00    -0.113 C  
BRANCH  27  28
HETATM   28  C   UNL     1      -5.187  14.585  67.907  1.00  0.00    -0.068 C  
BRANCH  28  29
HETATM   29  C   UNL     1      -6.500  15.369  67.973  1.00  0.00    -0.148 C  
BRANCH  29  30
HETATM   30  C   UNL     1      -7.676  14.731  67.217  1.00  0.00    -0.214 C  
BRANCH  30  31
HETATM   31  C   UNL     1      -8.494  15.685  66.359  1.00  0.00    -0.236 C  
BRANCH  31  32
HETATM   32  S   UNL     1     -10.040  14.925  65.762  1.00  0.00    -0.365 S  
HETATM   33  O   UNL     1     -10.128  13.558  66.374  1.00  0.00    -0.279 OA 
BRANCH  32  34
HETATM   34  C   UNL     1     -11.201  15.994  66.670  1.00  0.00     0.127 C  
BRANCH  34  35
HETATM   35  C   UNL     1     -10.795  17.463  66.603  1.00  0.00     0.042 C  
BRANCH  35  36
HETATM   36  C   UNL     1     -10.906  18.138  67.969  1.00  0.00    -0.189 C  
BRANCH  36  37
HETATM   37  C   UNL     1      -9.715  19.037  68.298  1.00  0.00    -0.361 C  
HETATM   38  F   UNL     1      -9.957  19.653  69.491  1.00  0.00    -0.472 F  
HETATM   39  C   UNL     1      -9.381  20.067  67.209  1.00  0.00    -0.374 C  
HETATM   40  F   UNL     1      -8.643  18.220  68.522  1.00  0.00    -0.290 F  
HETATM   41  F   UNL     1     -10.115  19.897  66.089  1.00  0.00    -0.458 F  
HETATM   42  F   UNL     1      -9.593  21.329  67.650  1.00  0.00    -0.492 F  
HETATM   43  F   UNL     1      -8.078  20.000  66.835  1.00  0.00    -0.299 F  
ENDBRANCH  36  37
ENDBRANCH  35  36
ENDBRANCH  34  35
ENDBRANCH  32  34
ENDBRANCH  31  32
ENDBRANCH  30  31
ENDBRANCH  29  30
ENDBRANCH  28  29
ENDBRANCH  27  28
ENDBRANCH  26  27
ENDBRANCH  25  26
ENDBRANCH  24  25
ENDBRANCH  23  24
ENDBRANCH  21  23
TORSDOF 14
ENDMDL
MODEL      268
REMARK 921   NORMALIZED FREE ENERGY PREDICTED BY IDOCK:   -1.15 KCAL/MOL
REMARK 922        TOTAL FREE ENERGY PREDICTED BY IDOCK:   -5.39 KCAL/MOL
REMARK 923 INTER-LIGAND FREE ENERGY PREDICTED BY IDOCK:   -5.58 KCAL/MOL
REMARK 924 INTRA-LIGAND FREE ENERGY PREDICTED BY IDOCK:    0.19 KCAL/MOL
REMARK 927      BINDING AFFINITY PREDICTED BY RF-SCORE:    0.00 PKD
ROOT
HETATM    1  C   UNL     1      -8.210  13.686  69.635  1.00  0.00     1.156 C  
HETATM    2  C   UNL     1      -8.425  12.573  68.775  1.00  0.00     0.153 C  
HETATM    3  C   UNL     1      -7.511  13.576  68.125  1.00  0.00    -0.132 C  
HETATM    4  C   UNL     1      -6.875  14.914  69.515  1.00  0.00    -0.172 C  
HETATM    5  O   UNL     1      -5.844  15.896  69.671  1.00  0.00    -0.127 OA 
HETATM    6  C   UNL     1      -6.311  13.663  69.466  1.00  0.00    -0.114 C  
HETATM    7  C   UNL     1      -5.440  14.397  68.018  1.00  0.00    -0.121 C  
HETATM    8  C   UNL     1      -5.520  12.911  70.475  1.00  0.00    -0.163 C  
HETATM    9  H   UNL     1      -5.547  16.521  70.320  1.00  0.00     0.000 HD 
HETATM   10  C   UNL     1      -6.355  15.746  67.289  1.00  0.00    -0.105 C  
HETATM   11  C   UNL     1      -8.039  15.963  67.492  1.00  0.00    -0.171 C  
HETATM   12  C   UNL     1      -8.672  17.302  67.092  1.00  0.00    -0.231 A  
HETATM   13  C   UNL     1      -8.012  18.155  66.188  1.00  0.00    -0.222 A  
HETATM   14  C   UNL     1      -8.649  19.277  65.645  1.00  0.00     0.447 A  
HETATM   15  C   UNL     1      -9.954  19.564  66.011  1.00  0.00    -0.398 A  
HETATM   16  C   UNL     1     -10.635  18.737  66.894  1.00  0.00    -0.472 A  
HETATM   17  O   UNL     1     -10.620  20.642  65.508  1.00  0.00    -0.135 OA 
HETATM   18  C   UNL     1     -10.023  17.581  67.416  1.00  0.00    -0.315 A  
HETATM   19  H   UNL     1     -11.515  20.839  65.759  1.00  0.00     0.000 HD 
HETATM   20  C   UNL     1     -10.873  16.697  68.313  1.00  0.00    -0.356 C  
HETATM   21  C   UNL     1     -10.432  15.216  68.414  1.00  0.00    -0.233 C  
HETATM   22  C   UNL     1      -8.941  15.248  68.825  1.00  0.00    -0.200 C  
ENDROOT
BRANCH  21  23
HETATM   23  C   UNL     1     -10.691  14.464  67.092  1.00  0.00    -0.283 C  
BRANCH  23  24
HETATM   24  C   UNL     1      -9.942  14.965  65.872  1.00  0.00    -0.357 C  
BRANCH  24  25
HETATM   25  C   UNL     1      -9.684  13.813  64.888  1.00  0.00     0.162 C  
BRANCH  25  26
HETATM   26  C   UNL     1     -10.948  13.250  64.216  1.00  0.00    -0.418 C  
BRANCH  26  27
HETATM   27  C   UNL     1     -10.702  11.991  63.386  1.00  0.00    -0.475 C  
BRANCH  27  28
HETATM   28  C   UNL     1     -10.067  10.876  64.219  1.00  0.00    -0.413 C  
BRANCH  28  29
HETATM   29  C   UNL     1     -10.626  10.790  65.641  1.00  0.00    -0.199 C  
BRANCH  29  30
HETATM   30  C   UNL     1      -9.568  10.644  66.746  1.00  0.00    -0.200 C  
BRANCH  30  31
HETATM   31  C   UNL     1      -8.330   9.846  66.363  1.00  0.00    -0.125 C  
BRANCH  31  32
HETATM   32  S   UNL     1      -7.647   8.912  67.771  1.00  0.00    -0.094 S  
HETATM   33  O   UNL     1      -8.723   8.829  68.814  1.00  0.00    -0.135 OA 
BRANCH  32  34
HETATM   34  C   UNL     1      -7.557   7.284  66.962  1.00  0.00    -0.106 C  
BRANCH  34  35
HETATM   35  C   UNL     1      -8.520   7.179  65.784  1.00  0.00    -0.151 C  
BRANCH  35  36
HETATM   36  C   UNL     1      -9.874   6.616  66.212  1.00  0.00    -0.016 C  
BRANCH  36  37
HETATM   37  C   UNL     1      -9.895   5.092  66.300  1.00  0.00    -0.200 C  
HETATM   38  F   UNL     1      -9.285   4.719  67.462  1.00  0.00    -0.113 F  
HETATM   39  C   UNL     1      -9.259   4.380  65.097  1.00  0.00    -0.156 C  
HETATM   40  F   UNL     1     -11.201   4.714  66.438  1.00  0.00    -0.007 F  
HETATM   41  F   UNL     1      -8.921   5.234  64.107  1.00  0.00    -0.123 F  
HETATM   42  F   UNL     1      -8.139   3.712  65.462  1.00  0.00    -0.090 F  
HETATM   43  F   UNL     1     -10.098   3.464  64.552  1.00  0.00    -0.163 F  
ENDBRANCH  36  37
ENDBRANCH  35  36
ENDBRANCH  34  35
ENDBRANCH  32  34
ENDBRANCH  31  32
ENDBRANCH  30  31
ENDBRANCH  29  30
ENDBRANCH  28  29
ENDBRANCH  27  28
ENDBRANCH  26  27
ENDBRANCH  25  26
ENDBRANCH  24  25
ENDBRANCH  23  24
ENDBRANCH  21  23
TORSDOF 14
ENDMDL
MODEL      269
REMARK 921   NORMALIZED FREE ENERGY PREDICTED BY IDOCK:   -1.00 KCAL/MOL
REMARK 922        TOTAL FREE ENERGY PREDICTED BY IDOCK:   -5.10 KCAL/MOL
REMARK 923 INTER-LIGAND FREE ENERGY PREDICTED BY IDOCK:   -6.04 KCAL/MOL
REMARK 924 INTRA-LIGAND FREE ENERGY PREDICTED BY IDOCK:    0.93 KCAL/MOL
REMARK 927      BINDING AFFINITY PREDICTED BY RF-SCORE:    0.00 PKD
ROOT
HETATM    1  C   UNL     1      -7.878  14.527  70.034  1.00  0.00     0.533 C  
HETATM    2  C   UNL     1      -7.966  13.342  69.250  1.00  0.00     0.510 C  
HETATM    3  C   UNL     1      -7.127  14.377  68.552  1.00  0.00    -0.109 C  
HETATM    4  C   UNL     1      -6.657  15.862  69.857  1.00  0.00    -0.086 C  
HETATM    5  O   UNL     1      -5.723  16.942  69.965  1.00  0.00    -0.210 OA 
HETATM    6  C   UNL     1      -5.981  14.667  69.910  1.00  0.00    -0.132 C  
HETATM    7  C   UNL     1      -5.137  15.376  68.434  1.00  0.00    -0.098 C  
HETATM    8  C   UNL     1      -5.155  14.063  70.989  1.00  0.00    -0.123 C  
HETATM    9  H   UNL     1      -5.503  17.636  70.575  1.00  0.00     0.000 HD 
HETATM   10  C   UNL     1      -6.147  16.582  67.590  1.00  0.00    -0.162 C  
HETATM   11  C   UNL     1      -7.850  16.656  67.737  1.00  0.00    -0.175 C  
HETATM   12  C   UNL     1      -8.589  17.900  67.228  1.00  0.00    -0.241 A  
HETATM   13  C   UNL     1      -7.983  18.745  66.280  1.00  0.00    -0.285 A  
HETATM   14  C   UNL     1      -8.702  19.763  65.644  1.00  0.00     0.212 A  
HETATM   15  C   UNL     1     -10.038  19.953  65.958  1.00  0.00    -0.487 A  
HETATM   16  C   UNL     1     -10.666  19.131  66.882  1.00  0.00    -0.515 A  
HETATM   17  O   UNL     1     -10.783  20.929  65.364  1.00  0.00     0.428 OA 
HETATM   18  C   UNL     1      -9.969  18.075  67.499  1.00  0.00    -0.330 A  
HETATM   19  H   UNL     1     -11.699  21.059  65.579  1.00  0.00     0.000 HD 
HETATM   20  C   UNL     1     -10.761  17.181  68.437  1.00  0.00    -0.347 C  
HETATM   21  C   UNL     1     -10.192  15.758  68.655  1.00  0.00    -0.221 C  
HETATM   22  C   UNL     1      -8.723  15.956  69.097  1.00  0.00    -0.256 C  
ENDROOT
BRANCH  21  23
HETATM   23  C   UNL     1     -10.343  14.895  67.385  1.00  0.00    -0.243 C  
BRANCH  23  24
HETATM   24  C   UNL     1      -9.057  14.460  66.707  1.00  0.00    -0.278 C  
BRANCH  24  25
HETATM   25  C   UNL     1      -9.107  12.963  66.368  1.00  0.00    -0.083 C  
BRANCH  25  26
HETATM   26  C   UNL     1     -10.432  12.491  65.742  1.00  0.00    -0.296 C  
BRANCH  26  27
HETATM   27  C   UNL     1     -10.442  11.015  65.346  1.00  0.00    -0.306 C  
BRANCH  27  28
HETATM   28  C   UNL     1     -10.339  10.099  66.566  1.00  0.00    -0.270 C  
BRANCH  28  29
HETATM   29  C   UNL     1     -11.237  10.533  67.726  1.00  0.00    -0.344 C  
BRANCH  29  30
HETATM   30  C   UNL     1     -10.518  10.713  69.072  1.00  0.00    -0.237 C  
BRANCH  30  31
HETATM   31  C   UNL     1      -9.242   9.902  69.244  1.00  0.00    -0.200 C  
BRANCH  31  32
HETATM   32  S   UNL     1      -9.223   8.966  70.808  1.00  0.00    -0.244 S  
HETATM   33  O   UNL     1     -10.459   9.347  71.569  1.00  0.00    -0.337 OA 
BRANCH  32  34
HETATM   34  C   UNL     1      -9.516   7.312  70.103  1.00  0.00    -0.165 C  
BRANCH  34  35
HETATM   35  C   UNL     1      -9.581   6.236  71.182  1.00  0.00    -0.190 C  
BRANCH  35  36
HETATM   36  C   UNL     1      -8.242   5.518  71.340  1.00  0.00    -0.118 C  
BRANCH  36  37
HETATM   37  C   UNL     1      -8.357   3.997  71.252  1.00  0.00    -0.080 C  
HETATM   38  F   UNL     1      -9.469   3.691  70.524  1.00  0.00    -0.195 F  
HETATM   39  C   UNL     1      -8.382   3.285  72.612  1.00  0.00    -0.080 C  
HETATM   40  F   UNL     1      -7.301   3.556  70.506  1.00  0.00    -0.039 F  
HETATM   41  F   UNL     1      -8.153   4.126  73.644  1.00  0.00    -0.084 F  
HETATM   42  F   UNL     1      -9.577   2.688  72.828  1.00  0.00    -0.117 F  
HETATM   43  F   UNL     1      -7.441   2.311  72.688  1.00  0.00    -0.035 F  
ENDBRANCH  36  37
ENDBRANCH  35  36
ENDBRANCH  34  35
ENDBRANCH  32  34
ENDBRANCH  31  32
ENDBRANCH  30  31
ENDBRANCH  29  30
ENDBRANCH  28  29
ENDBRANCH  27  28
ENDBRANCH  26  27
ENDBRANCH  25  26
ENDBRANCH  24  25
ENDBRANCH  23  24
ENDBRANCH  21  23
TORSDOF 14
ENDMDL
MODEL      270
REMARK 921   NORMALIZED FREE ENERGY PREDICTED BY IDOCK:   -0.90 KCAL/MOL
REMARK 922        TOTAL FREE ENERGY PREDICTED BY IDOCK:   -4.93 KCAL/MOL
REMARK 923 INTER-LIGAND FREE ENERGY PREDICTED BY IDOCK:   -3.93 KCAL/MOL
REMARK 924 INTRA-LIGAND FREE ENERGY PREDICTED BY IDOCK:   -0.99 KCAL/MOL
REMARK 927      BINDING AFFINITY PREDICTED BY RF-SCORE:    0.00 PKD
ROOT
HETATM    1  C   UNL     1     -11.523  12.896  69.440  1.00  0.00    -0.323 C  
HETATM    2  C   UNL     1     -10.324  13.389  70.028  1.00  0.00     1.480 C  
HETATM    3  C   UNL     1     -10.065  12.891  68.632  1.00  0.00    -0.136 C  
HETATM    4  C   UNL     1     -11.834  12.609  67.673  1.00  0.00    -0.329 C  
HETATM    5  O   UNL     1     -12.317  12.439  66.336  1.00  0.00    -0.539 OA 
HETATM    6  C   UNL     1     -11.332  13.880  67.819  1.00  0.00    -0.335 C  
HETATM    7  C   UNL     1     -10.232  13.323  66.451  1.00  0.00    -0.292 C  
HETATM    8  C   UNL     1     -11.995  15.206  67.714  1.00  0.00    -0.047 C  
HETATM    9  H   UNL     1     -13.143  12.307  65.887  1.00  0.00     0.000 HD 
HETATM   10  C   UNL     1     -10.047  11.548  66.409  1.00  0.00    -0.250 C  
HETATM   11  C   UNL     1     -10.336  10.537  67.759  1.00  0.00    -0.248 C  
HETATM   12  C   UNL     1     -10.449   9.022  67.545  1.00  0.00    -0.338 A  
HETATM   13  C   UNL     1      -9.902   8.426  66.393  1.00  0.00    -0.310 A  
HETATM   14  C   UNL     1      -9.805   7.036  66.266  1.00  0.00    -0.010 A  
HETATM   15  C   UNL     1     -10.267   6.224  67.290  1.00  0.00    -0.191 A  
HETATM   16  C   UNL     1     -10.803   6.782  68.442  1.00  0.00    -0.284 A  
HETATM   17  O   UNL     1     -10.192   4.865  67.217  1.00  0.00    -0.183 OA 
HETATM   18  C   UNL     1     -10.869   8.179  68.604  1.00  0.00     0.037 A  
HETATM   19  H   UNL     1     -10.508   4.308  67.918  1.00  0.00     0.000 HD 
HETATM   20  C   UNL     1     -11.401   8.695  69.929  1.00  0.00     0.043 C  
HETATM   21  C   UNL     1     -10.960  10.125  70.323  1.00  0.00    -0.380 C  
HETATM   22  C   UNL     1     -11.336  11.026  69.123  1.00  0.00    -0.348 C  
ENDROOT
BRANCH  21  23
HETATM   23  C   UNL     1      -9.460  10.170  70.681  1.00  0.00     0.569 C  
BRANCH  23  24
HETATM   24  C   UNL     1      -8.490   9.797  69.574  1.00  0.00    -0.176 C  
BRANCH  24  25
HETATM   25  C   UNL     1      -7.091   9.536  70.151  1.00  0.00    -0.099 C  
BRANCH  25  26
HETATM   26  C   UNL     1      -6.017   9.200  69.102  1.00  0.00    -0.042 C  
BRANCH  26  27
HETATM   27  C   UNL     1      -6.293   7.917  68.318  1.00  0.00    -0.050 C  
BRANCH  27  28
HETATM   28  C   UNL     1      -6.764   6.785  69.232  1.00  0.00    -0.053 C  
BRANCH  28  29
HETATM   29  C   UNL     1      -5.743   6.411  70.309  1.00  0.00    -0.018 C  
BRANCH  29  30
HETATM   30  C   UNL     1      -6.167   6.745  71.748  1.00  0.00    -0.038 C  
BRANCH  30  31
HETATM   31  C   UNL     1      -7.268   5.867  72.325  1.00  0.00    -0.089 C  
BRANCH  31  32
HETATM   32  S   UNL     1      -6.817   4.101  72.317  1.00  0.00    -0.043 S  
HETATM   33  O   UNL     1      -6.081   3.824  73.595  1.00  0.00    -0.013 OA 
BRANCH  32  34
HETATM   34  C   UNL     1      -8.497   3.422  72.509  1.00  0.00    -0.084 C  
BRANCH  34  35
HETATM   35  C   UNL     1      -9.396   3.786  71.333  1.00  0.00    -0.208 C  
BRANCH  35  36
HETATM   36  C   UNL     1      -8.616   3.827  70.020  1.00  0.00    -0.107 C  
BRANCH  36  37
HETATM   37  C   UNL     1      -8.557   2.477  69.308  1.00  0.00    -0.072 C  
HETATM   38  F   UNL     1      -8.143   1.535  70.204  1.00  0.00    -0.042 F  
HETATM   39  C   UNL     1      -7.672   2.462  68.053  1.00  0.00    -0.055 C  
HETATM   40  F   UNL     1      -9.840   2.135  68.987  1.00  0.00    -0.174 F  
HETATM   41  F   UNL     1      -7.216   3.690  67.724  1.00  0.00    -0.055 F  
HETATM   42  F   UNL     1      -6.596   1.659  68.224  1.00  0.00    -0.027 F  
HETATM   43  F   UNL     1      -8.341   1.992  66.971  1.00  0.00    -0.072 F  
ENDBRANCH  36  37
ENDBRANCH  35  36
ENDBRANCH  34  35
ENDBRANCH  32  34
ENDBRANCH  31  32
ENDBRANCH  30  31
ENDBRANCH  29  30
ENDBRANCH  28  29
ENDBRANCH  27  28
ENDBRANCH  26  27
ENDBRANCH  25  26
ENDBRANCH  24  25
ENDBRANCH  23  24
ENDBRANCH  21  23
TORSDOF 14
ENDMDL
MODEL      271
REMARK 921   NORMALIZED FREE ENERGY PREDICTED BY IDOCK:   -0.78 KCAL/MOL
REMARK 922        TOTAL FREE ENERGY PREDICTED BY IDOCK:   -4.72 KCAL/MOL
REMARK 923 INTER-LIGAND FREE ENERGY PREDICTED BY IDOCK:   -2.94 KCAL/MOL
REMARK 924 INTRA-LIGAND FREE ENERGY PREDICTED BY IDOCK:   -1.78 KCAL/MOL
REMARK 927      BINDING AFFINITY PREDICTED BY RF-SCORE:    0.00 PKD
ROOT
HETATM    1  C   UNL     1      -9.502   8.560  70.101  1.00  0.00    -0.169 C  
HETATM    2  C   UNL     1      -9.437   7.713  68.959  1.00  0.00    -0.150 C  
HETATM    3  C   UNL     1      -8.060   8.163  69.364  1.00  0.00    -0.116 C  
HETATM    4  C   UNL     1      -8.134   8.990  71.217  1.00  0.00    -0.094 C  
HETATM    5  O   UNL     1      -7.234   9.345  72.273  1.00  0.00    -0.104 OA 
HETATM    6  C   UNL     1      -8.160   7.624  71.079  1.00  0.00    -0.095 C  
HETATM    7  C   UNL     1      -6.361   7.880  70.780  1.00  0.00    -0.037 C  
HETATM    8  C   UNL     1      -8.587   6.558  72.023  1.00  0.00    -0.125 C  
HETATM    9  H   UNL     1      -7.268   9.732  73.140  1.00  0.00     0.000 HD 
HETATM   10  C   UNL     1      -6.001   9.521  70.175  1.00  0.00    -0.047 C  
HETATM   11  C   UNL     1      -7.160  10.523  69.414  1.00  0.00    -0.110 C  
HETATM   12  C   UNL     1      -6.844  12.009  69.212  1.00  0.00    -0.066 A  
HETATM   13  C   UNL     1      -5.510  12.459  69.228  1.00  0.00    -0.071 A  
HETATM   14  C   UNL     1      -5.174  13.761  68.845  1.00  0.00    -0.072 A  
HETATM   15  C   UNL     1      -6.174  14.636  68.449  1.00  0.00    -0.102 A  
HETATM   16  C   UNL     1      -7.497  14.220  68.414  1.00  0.00    -0.122 A  
HETATM   17  O   UNL     1      -5.898  15.914  68.063  1.00  0.00    -0.109 OA 
HETATM   18  C   UNL     1      -7.848  12.900  68.756  1.00  0.00     0.040 A  
HETATM   19  H   UNL     1      -6.582  16.513  67.792  1.00  0.00     0.000 HD 
HETATM   20  C   UNL     1      -9.310  12.516  68.612  1.00  0.00     0.005 C  
HETATM   21  C   UNL     1      -9.597  11.005  68.433  1.00  0.00    -0.181 C  
HETATM   22  C   UNL     1      -8.895  10.301  69.618  1.00  0.00    -0.124 C  
ENDROOT
BRANCH  21  23
HETATM   23  C   UNL     1      -9.125  10.506  67.052  1.00  0.00    -0.156 C  
BRANCH  23  24
HETATM   24  C   UNL     1      -9.340  11.450  65.883  1.00  0.00    -0.247 C  
BRANCH  24  25
HETATM   25  C   UNL     1     -10.382  10.874  64.911  1.00  0.00    -0.371 C  
BRANCH  25  26
HETATM   26  C   UNL     1     -10.822  11.839  63.797  1.00  0.00    -0.490 C  
BRANCH  26  27
HETATM   27  C   UNL     1     -12.267  11.645  63.341  1.00  0.00    -0.319 C  
BRANCH  27  28
HETATM   28  C   UNL     1     -12.994  12.980  63.172  1.00  0.00     0.641 C  
BRANCH  28  29
HETATM   29  C   UNL     1     -12.257  14.156  63.817  1.00  0.00    -0.183 C  
BRANCH  29  30
HETATM   30  C   UNL     1     -12.309  14.190  65.353  1.00  0.00    -0.475 C  
BRANCH  30  31
HETATM   31  C   UNL     1     -12.158  15.569  65.979  1.00  0.00     0.769 C  
BRANCH  31  32
HETATM   32  S   UNL     1     -11.038  15.555  67.418  1.00  0.00    -0.242 S  
HETATM   33  O   UNL     1     -10.312  16.868  67.428  1.00  0.00    -0.296 OA 
BRANCH  32  34
HETATM   34  C   UNL     1     -12.312  15.636  68.717  1.00  0.00     0.231 C  
BRANCH  34  35
HETATM   35  C   UNL     1     -11.733  15.362  70.101  1.00  0.00    -0.356 C  
BRANCH  35  36
HETATM   36  C   UNL     1     -12.081  16.477  71.086  1.00  0.00     0.428 C  
BRANCH  36  37
HETATM   37  C   UNL     1     -12.842  15.983  72.314  1.00  0.00    -0.377 C  
HETATM   38  F   UNL     1     -13.796  16.906  72.630  1.00  0.00     0.849 F  
HETATM   39  C   UNL     1     -11.953  15.680  73.529  1.00  0.00    -0.419 C  
HETATM   40  F   UNL     1     -13.529  14.863  71.940  1.00  0.00    -0.346 F  
HETATM   41  F   UNL     1     -10.636  15.770  73.245  1.00  0.00     1.299 F  
HETATM   42  F   UNL     1     -12.212  16.533  74.548  1.00  0.00    -0.585 F  
HETATM   43  F   UNL     1     -12.164  14.428  74.008  1.00  0.00    -0.442 F  
ENDBRANCH  36  37
ENDBRANCH  35  36
ENDBRANCH  34  35
ENDBRANCH  32  34
ENDBRANCH  31  32
ENDBRANCH  30  31
ENDBRANCH  29  30
ENDBRANCH  28  29
ENDBRANCH  27  28
ENDBRANCH  26  27
ENDBRANCH  25  26
ENDBRANCH  24  25
ENDBRANCH  23  24
ENDBRANCH  21  23
TORSDOF 14
ENDMDL
MODEL      272
REMARK 921   NORMALIZED FREE ENERGY PREDICTED BY IDOCK:   -0.78 KCAL/MOL
REMARK 922        TOTAL FREE ENERGY PREDICTED BY IDOCK:   -4.71 KCAL/MOL
REMARK 923 INTER-LIGAND FREE ENERGY PREDICTED BY IDOCK:   -4.70 KCAL/MOL
REMARK 924 INTRA-LIGAND FREE ENERGY PREDICTED BY IDOCK:   -0.01 KCAL/MOL
REMARK 927      BINDING AFFINITY PREDICTED BY RF-SCORE:    0.00 PKD
ROOT
HETATM    1  C   UNL     1      -6.927  11.210  68.709  1.00  0.00    -0.088 C  
HETATM    2  C   UNL     1      -7.891  10.582  69.546  1.00  0.00    -0.134 C  
HETATM    3  C   UNL     1      -8.426  10.742  68.149  1.00  0.00    -0.125 C  
HETATM    4  C   UNL     1      -6.905  11.226  66.891  1.00  0.00    -0.134 C  
HETATM    5  O   UNL     1      -6.638  11.249  65.485  1.00  0.00    -0.352 OA 
HETATM    6  C   UNL     1      -7.059   9.926  67.307  1.00  0.00    -0.085 C  
HETATM    7  C   UNL     1      -8.414   9.962  66.060  1.00  0.00    -0.135 C  
HETATM    8  C   UNL     1      -6.107   8.784  67.302  1.00  0.00    -0.055 C  
HETATM    9  H   UNL     1      -5.928  11.475  64.897  1.00  0.00     0.000 HD 
HETATM   10  C   UNL     1      -9.033  11.612  65.778  1.00  0.00    -0.067 C  
HETATM   11  C   UNL     1      -8.846  12.895  66.895  1.00  0.00    -0.188 C  
HETATM   12  C   UNL     1      -9.133  14.330  66.438  1.00  0.00    -0.171 A  
HETATM   13  C   UNL     1      -9.940  14.566  65.309  1.00  0.00    -0.322 A  
HETATM   14  C   UNL     1     -10.389  15.851  64.989  1.00  0.00    -0.193 A  
HETATM   15  C   UNL     1     -10.025  16.921  65.791  1.00  0.00    -0.184 A  
HETATM   16  C   UNL     1      -9.237  16.720  66.915  1.00  0.00    -0.249 A  
HETATM   17  O   UNL     1     -10.440  18.192  65.524  1.00  0.00    -0.626 OA 
HETATM   18  C   UNL     1      -8.812  15.427  67.276  1.00  0.00    -0.212 A  
HETATM   19  H   UNL     1     -10.190  18.925  66.074  1.00  0.00     0.000 HD 
HETATM   20  C   UNL     1      -8.018  15.296  68.565  1.00  0.00    -0.141 C  
HETATM   21  C   UNL     1      -8.046  13.902  69.236  1.00  0.00     0.357 C  
HETATM   22  C   UNL     1      -7.604  12.900  68.143  1.00  0.00    -0.135 C  
ENDROOT
BRANCH  21  23
HETATM   23  C   UNL     1      -9.437  13.593  69.828  1.00  0.00     1.624 C  
BRANCH  23  24
HETATM   24  C   UNL     1     -10.627  13.836  68.919  1.00  0.00    -0.224 C  
BRANCH  24  25
HETATM   25  C   UNL     1     -11.580  12.632  68.948  1.00  0.00    -0.363 C  
BRANCH  25  26
HETATM   26  C   UNL     1     -12.606  12.654  70.095  1.00  0.00     0.031 C  
BRANCH  26  27
HETATM   27  C   UNL     1     -12.082  12.073  71.408  1.00  0.00     0.369 C  
BRANCH  27  28
HETATM   28  C   UNL     1     -13.011  10.990  71.960  1.00  0.00    -0.398 C  
BRANCH  28  29
HETATM   29  C   UNL     1     -13.573  10.065  70.878  1.00  0.00    -0.055 C  
BRANCH  29  30
HETATM   30  C   UNL     1     -13.252   8.574  71.069  1.00  0.00     0.084 C  
BRANCH  30  31
HETATM   31  C   UNL     1     -12.265   8.256  72.183  1.00  0.00    -0.364 C  
BRANCH  31  32
HETATM   32  S   UNL     1     -10.622   7.799  71.540  1.00  0.00    -0.216 S  
HETATM   33  O   UNL     1     -10.341   8.690  70.365  1.00  0.00    -0.191 OA 
BRANCH  32  34
HETATM   34  C   UNL     1      -9.633   8.425  72.936  1.00  0.00    -0.199 C  
BRANCH  34  35
HETATM   35  C   UNL     1      -8.463   7.504  73.263  1.00  0.00    -0.181 C  
BRANCH  35  36
HETATM   36  C   UNL     1      -8.502   6.227  72.425  1.00  0.00    -0.114 C  
BRANCH  36  37
HETATM   37  C   UNL     1      -8.971   5.003  73.209  1.00  0.00    -0.119 C  
HETATM   38  F   UNL     1      -7.943   4.108  73.266  1.00  0.00    -0.083 F  
HETATM   39  C   UNL     1     -10.240   4.342  72.649  1.00  0.00    -0.180 C  
HETATM   40  F   UNL     1      -9.176   5.404  74.499  1.00  0.00    -0.118 F  
HETATM   41  F   UNL     1     -10.795   5.052  71.643  1.00  0.00    -0.266 F  
HETATM   42  F   UNL     1      -9.976   3.101  72.179  1.00  0.00    -0.205 F  
HETATM   43  F   UNL     1     -11.196   4.202  73.601  1.00  0.00    -0.295 F  
ENDBRANCH  36  37
ENDBRANCH  35  36
ENDBRANCH  34  35
ENDBRANCH  32  34
ENDBRANCH  31  32
ENDBRANCH  30  31
ENDBRANCH  29  30
ENDBRANCH  28  29
ENDBRANCH  27  28
ENDBRANCH  26  27
ENDBRANCH  25  26
ENDBRANCH  24  25
ENDBRANCH  23  24
ENDBRANCH  21  23
TORSDOF 14
ENDMDL
MODEL      273
REMARK 921   NORMALIZED FREE ENERGY PREDICTED BY IDOCK:   -0.56 KCAL/MOL
REMARK 922        TOTAL FREE ENERGY PREDICTED BY IDOCK:   -4.30 KCAL/MOL
REMARK 923 INTER-LIGAND FREE ENERGY PREDICTED BY IDOCK:   -5.88 KCAL/MOL
REMARK 924 INTRA-LIGAND FREE ENERGY PREDICTED BY IDOCK:    1.58 KCAL/MOL
REMARK 927      BINDING AFFINITY PREDICTED BY RF-SCORE:    0.00 PKD
ROOT
HETATM    1  C   UNL     1      -7.931  14.493  69.723  1.00  0.00     0.327 C  
HETATM    2  C   UNL     1      -7.851  13.354  68.872  1.00  0.00     0.080 C  
HETATM    3  C   UNL     1      -7.121  14.522  68.265  1.00  0.00    -0.113 C  
HETATM    4  C   UNL     1      -6.874  15.971  69.667  1.00  0.00    -0.153 C  
HETATM    5  O   UNL     1      -6.082  17.146  69.872  1.00  0.00    -0.238 OA 
HETATM    6  C   UNL     1      -6.061  14.863  69.681  1.00  0.00    -0.125 C  
HETATM    7  C   UNL     1      -5.263  15.754  68.280  1.00  0.00    -0.106 C  
HETATM    8  C   UNL     1      -5.204  14.298  70.755  1.00  0.00    -0.121 C  
HETATM    9  H   UNL     1      -5.966  17.823  70.527  1.00  0.00     0.000 HD 
HETATM   10  C   UNL     1      -6.384  16.880  67.465  1.00  0.00    -0.179 C  
HETATM   11  C   UNL     1      -8.087  16.744  67.551  1.00  0.00    -0.188 C  
HETATM   12  C   UNL     1      -8.953  17.919  67.083  1.00  0.00    -0.252 A  
HETATM   13  C   UNL     1      -8.423  18.886  66.208  1.00  0.00    -0.268 A  
HETATM   14  C   UNL     1      -9.239  19.848  65.602  1.00  0.00     0.140 A  
HETATM   15  C   UNL     1     -10.598  19.859  65.874  1.00  0.00    -0.417 A  
HETATM   16  C   UNL     1     -11.152  18.914  66.726  1.00  0.00     0.047 A  
HETATM   17  O   UNL     1     -11.436  20.773  65.307  1.00  0.00     1.182 OA 
HETATM   18  C   UNL     1     -10.352  17.913  67.310  1.00  0.00    -0.374 A  
HETATM   19  H   UNL     1     -12.367  20.781  65.493  1.00  0.00     0.000 HD 
HETATM   20  C   UNL     1     -11.060  16.877  68.166  1.00  0.00    -0.205 C  
HETATM   21  C   UNL     1     -10.332  15.521  68.326  1.00  0.00    -0.235 C  
HETATM   22  C   UNL     1      -8.911  15.864  68.834  1.00  0.00    -0.228 C  
ENDROOT
BRANCH  21  23
HETATM   23  C   UNL     1     -10.337  14.724  67.005  1.00  0.00    -0.255 C  
BRANCH  23  24
HETATM   24  C   UNL     1      -9.005  14.152  66.555  1.00  0.00    -0.140 C  
BRANCH  24  25
HETATM   25  C   UNL     1      -9.059  12.617  66.532  1.00  0.00    -0.163 C  
BRANCH  25  26
HETATM   26  C   UNL     1     -10.370  12.030  65.981  1.00  0.00    -0.271 C  
BRANCH  26  27
HETATM   27  C   UNL     1     -10.336  10.516  65.776  1.00  0.00    -0.270 C  
BRANCH  27  28
HETATM   28  C   UNL     1     -10.561   9.760  67.086  1.00  0.00    -0.298 C  
BRANCH  28  29
HETATM   29  C   UNL     1     -11.262  10.599  68.156  1.00  0.00    -0.366 C  
BRANCH  29  30
HETATM   30  C   UNL     1     -10.615  10.547  69.549  1.00  0.00    -0.278 C  
BRANCH  30  31
HETATM   31  C   UNL     1      -9.562   9.465  69.739  1.00  0.00    -0.201 C  
BRANCH  31  32
HETATM   32  S   UNL     1      -9.973   8.334  71.108  1.00  0.00    -0.194 S  
HETATM   33  O   UNL     1     -10.812   9.105  72.085  1.00  0.00    -0.297 OA 
BRANCH  32  34
HETATM   34  C   UNL     1     -11.096   7.236  70.186  1.00  0.00    -0.258 C  
BRANCH  34  35
HETATM   35  C   UNL     1     -10.375   6.004  69.650  1.00  0.00    -0.294 C  
BRANCH  35  36
HETATM   36  C   UNL     1     -10.430   5.939  68.124  1.00  0.00    -0.291 C  
BRANCH  36  37
HETATM   37  C   UNL     1      -9.091   5.579  67.485  1.00  0.00    -0.107 C  
HETATM   38  F   UNL     1      -9.057   6.110  66.229  1.00  0.00    -0.139 F  
HETATM   39  C   UNL     1      -8.792   4.073  67.449  1.00  0.00    -0.119 C  
HETATM   40  F   UNL     1      -8.120   6.238  68.185  1.00  0.00    -0.109 F  
HETATM   41  F   UNL     1      -9.709   3.345  68.122  1.00  0.00    -0.238 F  
HETATM   42  F   UNL     1      -8.757   3.613  66.176  1.00  0.00    -0.107 F  
HETATM   43  F   UNL     1      -7.586   3.786  68.000  1.00  0.00    -0.064 F  
ENDBRANCH  36  37
ENDBRANCH  35  36
ENDBRANCH  34  35
ENDBRANCH  32  34
ENDBRANCH  31  32
ENDBRANCH  30  31
ENDBRANCH  29  30
ENDBRANCH  28  29
ENDBRANCH  27  28
ENDBRANCH  26  27
ENDBRANCH  25  26
ENDBRANCH  24  25
ENDBRANCH  23  24
ENDBRANCH  21  23
TORSDOF 14
ENDMDL
MODEL      274
REMARK 921   NORMALIZED FREE ENERGY PREDICTED BY IDOCK:   -0.49 KCAL/MOL
REMARK 922        TOTAL FREE ENERGY PREDICTED BY IDOCK:   -4.19 KCAL/MOL
REMARK 923 INTER-LIGAND FREE ENERGY PREDICTED BY IDOCK:   -3.11 KCAL/MOL
REMARK 924 INTRA-LIGAND FREE ENERGY PREDICTED BY IDOCK:   -1.08 KCAL/MOL
REMARK 927      BINDING AFFINITY PREDICTED BY RF-SCORE:    0.00 PKD
ROOT
HETATM    1  C   UNL     1     -12.643  13.153  68.593  1.00  0.00     0.671 C  
HETATM    2  C   UNL     1     -12.770  12.600  69.898  1.00  0.00     0.362 C  
HETATM    3  C   UNL     1     -11.463  13.331  69.757  1.00  0.00    -0.228 C  
HETATM    4  C   UNL     1     -11.497  14.463  68.071  1.00  0.00    -0.310 C  
HETATM    5  O   UNL     1     -10.774  15.557  67.495  1.00  0.00    -0.288 OA 
HETATM    6  C   UNL     1     -12.157  14.895  69.195  1.00  0.00    -0.267 C  
HETATM    7  C   UNL     1     -10.443  15.314  69.724  1.00  0.00    -0.287 C  
HETATM    8  C   UNL     1     -13.230  15.909  69.366  1.00  0.00     1.750 C  
HETATM    9  H   UNL     1     -10.789  16.086  66.707  1.00  0.00     0.000 HD 
HETATM   10  C   UNL     1      -9.216  14.312  68.901  1.00  0.00    -0.044 C  
HETATM   11  C   UNL     1      -9.559  12.797  68.185  1.00  0.00    -0.223 C  
HETATM   12  C   UNL     1      -8.525  12.165  67.246  1.00  0.00    -0.178 A  
HETATM   13  C   UNL     1      -7.176  12.563  67.305  1.00  0.00    -0.114 A  
HETATM   14  C   UNL     1      -6.178  11.868  66.614  1.00  0.00     0.056 A  
HETATM   15  C   UNL     1      -6.521  10.768  65.845  1.00  0.00    -0.097 A  
HETATM   16  C   UNL     1      -7.841  10.345  65.773  1.00  0.00    -0.150 A  
HETATM   17  O   UNL     1      -5.586  10.054  65.156  1.00  0.00    -0.066 OA 
HETATM   18  C   UNL     1      -8.851  11.007  66.495  1.00  0.00    -0.173 A  
HETATM   19  H   UNL     1      -5.821   9.300  64.628  1.00  0.00     0.000 HD 
HETATM   20  C   UNL     1     -10.252  10.425  66.415  1.00  0.00    -0.292 C  
HETATM   21  C   UNL     1     -11.195  10.771  67.592  1.00  0.00    -0.370 C  
HETATM   22  C   UNL     1     -11.182  12.314  67.703  1.00  0.00    -0.346 C  
ENDROOT
BRANCH  21  23
HETATM   23  C   UNL     1     -10.758  10.057  68.888  1.00  0.00    -0.243 C  
BRANCH  23  24
HETATM   24  C   UNL     1     -10.568   8.554  68.800  1.00  0.00    -0.162 C  
BRANCH  24  25
HETATM   25  C   UNL     1     -10.841   7.897  70.162  1.00  0.00    -0.243 C  
BRANCH  25  26
HETATM   26  C   UNL     1      -9.860   6.774  70.540  1.00  0.00    -0.187 C  
BRANCH  26  27
HETATM   27  C   UNL     1     -10.337   5.374  70.155  1.00  0.00    -0.361 C  
BRANCH  27  28
HETATM   28  C   UNL     1      -9.225   4.557  69.495  1.00  0.00    -0.192 C  
BRANCH  28  29
HETATM   29  C   UNL     1      -9.750   3.452  68.576  1.00  0.00    -0.011 C  
BRANCH  29  30
HETATM   30  C   UNL     1      -9.055   2.090  68.735  1.00  0.00    -0.197 C  
BRANCH  30  31
HETATM   31  C   UNL     1      -8.521   1.477  67.449  1.00  0.00    -0.082 C  
BRANCH  31  32
HETATM   32  S   UNL     1      -6.742   1.802  67.216  1.00  0.00    -0.035 S  
HETATM   33  O   UNL     1      -6.481   1.806  65.738  1.00  0.00    -0.023 OA 
BRANCH  32  34
HETATM   34  C   UNL     1      -6.740   3.539  67.764  1.00  0.00    -0.042 C  
BRANCH  34  35
HETATM   35  C   UNL     1      -5.516   4.294  67.259  1.00  0.00    -0.013 C  
BRANCH  35  36
HETATM   36  C   UNL     1      -5.895   5.348  66.220  1.00  0.00    -0.018 C  
BRANCH  36  37
HETATM   37  C   UNL     1      -6.916   6.363  66.731  1.00  0.00    -0.067 C  
HETATM   38  F   UNL     1      -6.941   6.298  68.094  1.00  0.00    -0.068 F  
HETATM   39  C   UNL     1      -8.327   6.189  66.150  1.00  0.00    -0.128 C  
HETATM   40  F   UNL     1      -6.432   7.606  66.435  1.00  0.00    -0.044 F  
HETATM   41  F   UNL     1      -8.377   5.253  65.178  1.00  0.00    -0.118 F  
HETATM   42  F   UNL     1      -9.209   5.828  67.112  1.00  0.00    -0.117 F  
HETATM   43  F   UNL     1      -8.793   7.341  65.606  1.00  0.00    -0.161 F  
ENDBRANCH  36  37
ENDBRANCH  35  36
ENDBRANCH  34  35
ENDBRANCH  32  34
ENDBRANCH  31  32
ENDBRANCH  30  31
ENDBRANCH  29  30
ENDBRANCH  28  29
ENDBRANCH  27  28
ENDBRANCH  26  27
ENDBRANCH  25  26
ENDBRANCH  24  25
ENDBRANCH  23  24
ENDBRANCH  21  23
TORSDOF 14
ENDMDL
MODEL      275
REMARK 921   NORMALIZED FREE ENERGY PREDICTED BY IDOCK:   -0.42 KCAL/MOL
REMARK 922        TOTAL FREE ENERGY PREDICTED BY IDOCK:   -4.05 KCAL/MOL
REMARK 923 INTER-LIGAND FREE ENERGY PREDICTED BY IDOCK:   -2.56 KCAL/MOL
REMARK 924 INTRA-LIGAND FREE ENERGY PREDICTED BY IDOCK:   -1.50 KCAL/MOL
REMARK 927      BINDING AFFINITY PREDICTED BY RF-SCORE:    0.00 PKD
ROOT
HETATM    1  C   UNL     1      -7.837   8.328  66.446  1.00  0.00    -0.095 C  
HETATM    2  C   UNL     1      -6.436   8.471  66.238  1.00  0.00    -0.061 C  
HETATM    3  C   UNL     1      -6.904   7.117  65.778  1.00  0.00    -0.056 C  
HETATM    4  C   UNL     1      -8.933   7.100  65.675  1.00  0.00     0.055 C  
HETATM    5  O   UNL     1      -9.973   6.310  65.089  1.00  0.00     0.500 OA 
HETATM    6  C   UNL     1      -8.205   7.707  64.682  1.00  0.00    -0.067 C  
HETATM    7  C   UNL     1      -7.930   5.959  64.172  1.00  0.00    -0.122 C  
HETATM    8  C   UNL     1      -8.605   8.702  63.651  1.00  0.00    -0.012 C  
HETATM    9  H   UNL     1     -10.922   6.301  65.040  1.00  0.00     0.000 HD 
HETATM   10  C   UNL     1      -8.094   4.821  65.539  1.00  0.00    -0.111 C  
HETATM   11  C   UNL     1      -7.935   5.284  67.178  1.00  0.00    -0.101 C  
HETATM   12  C   UNL     1      -8.393   4.315  68.274  1.00  0.00    -0.098 A  
HETATM   13  C   UNL     1      -8.517   2.941  67.998  1.00  0.00    -0.103 A  
HETATM   14  C   UNL     1      -8.730   2.007  69.019  1.00  0.00    -0.121 A  
HETATM   15  C   UNL     1      -8.831   2.442  70.331  1.00  0.00    -0.076 A  
HETATM   16  C   UNL     1      -8.704   3.790  70.636  1.00  0.00    -0.121 A  
HETATM   17  O   UNL     1      -9.034   1.573  71.361  1.00  0.00    -0.057 OA 
HETATM   18  C   UNL     1      -8.448   4.737  69.626  1.00  0.00    -0.093 A  
HETATM   19  H   UNL     1      -9.104   1.870  72.260  1.00  0.00     0.000 HD 
HETATM   20  C   UNL     1      -8.248   6.177  70.066  1.00  0.00    -0.124 C  
HETATM   21  C   UNL     1      -7.437   7.072  69.099  1.00  0.00    -0.095 C  
HETATM   22  C   UNL     1      -8.136   6.946  67.724  1.00  0.00    -0.114 C  
ENDROOT
BRANCH  21  23
HETATM   23  C   UNL     1      -5.950   6.665  69.073  1.00  0.00    -0.022 C  
BRANCH  23  24
HETATM   24  C   UNL     1      -5.128   7.029  70.296  1.00  0.00    -0.019 C  
BRANCH  24  25
HETATM   25  C   UNL     1      -5.829   8.128  71.108  1.00  0.00    -0.034 C  
BRANCH  25  26
HETATM   26  C   UNL     1      -5.862   7.881  72.626  1.00  0.00    -0.042 C  
BRANCH  26  27
HETATM   27  C   UNL     1      -7.007   8.591  73.348  1.00  0.00    -0.068 C  
BRANCH  27  28
HETATM   28  C   UNL     1      -8.201   8.829  72.421  1.00  0.00     0.044 C  
BRANCH  28  29
HETATM   29  C   UNL     1      -9.180   7.654  72.381  1.00  0.00    -0.201 C  
BRANCH  29  30
HETATM   30  C   UNL     1      -9.936   7.393  73.693  1.00  0.00    -0.379 C  
BRANCH  30  31
HETATM   31  C   UNL     1     -10.652   6.053  73.778  1.00  0.00    -0.248 C  
BRANCH  31  32
HETATM   32  S   UNL     1     -11.557   5.655  72.246  1.00  0.00    -0.110 S  
HETATM   33  O   UNL     1     -12.497   4.530  72.565  1.00  0.00     0.947 OA 
BRANCH  32  34
HETATM   34  C   UNL     1     -12.554   7.177  72.153  1.00  0.00    -0.125 C  
BRANCH  34  35
HETATM   35  C   UNL     1     -11.763   8.341  71.565  1.00  0.00    -0.337 C  
BRANCH  35  36
HETATM   36  C   UNL     1     -12.028   8.500  70.069  1.00  0.00     0.566 C  
BRANCH  36  37
HETATM   37  C   UNL     1     -11.038   9.435  69.376  1.00  0.00    -0.076 C  
HETATM   38  F   UNL     1      -9.934   9.558  70.168  1.00  0.00    -0.197 F  
HETATM   39  C   UNL     1     -11.613  10.815  69.023  1.00  0.00    -0.299 C  
HETATM   40  F   UNL     1     -10.607   8.800  68.246  1.00  0.00    -0.242 F  
HETATM   41  F   UNL     1     -12.939  10.903  69.264  1.00  0.00    -0.099 F  
HETATM   42  F   UNL     1     -11.002  11.793  69.733  1.00  0.00    -0.229 F  
HETATM   43  F   UNL     1     -11.434  11.116  67.713  1.00  0.00    -0.317 F  
ENDBRANCH  36  37
ENDBRANCH  35  36
ENDBRANCH  34  35
ENDBRANCH  32  34
ENDBRANCH  31  32
ENDBRANCH  30  31
ENDBRANCH  29  30
ENDBRANCH  28  29
ENDBRANCH  27  28
ENDBRANCH  26  27
ENDBRANCH  25  26
ENDBRANCH  24  25
ENDBRANCH  23  24
ENDBRANCH  21  23
TORSDOF 14
ENDMDL
MODEL      276
REMARK 921   NORMALIZED FREE ENERGY PREDICTED BY IDOCK:   -0.18 KCAL/MOL
REMARK 922        TOTAL FREE ENERGY PREDICTED BY IDOCK:   -3.62 KCAL/MOL
REMARK 923 INTER-LIGAND FREE ENERGY PREDICTED BY IDOCK:   -3.80 KCAL/MOL
REMARK 924 INTRA-LIGAND FREE ENERGY PREDICTED BY IDOCK:    0.18 KCAL/MOL
REMARK 927      BINDING AFFINITY PREDICTED BY RF-SCORE:    0.00 PKD
ROOT
HETATM    1  C   UNL     1      -7.426  14.280  69.863  1.00  0.00     0.343 C  
HETATM    2  C   UNL     1      -6.551  13.201  69.553  1.00  0.00    -0.034 C  
HETATM    3  C   UNL     1      -6.652  14.152  68.392  1.00  0.00    -0.106 C  
HETATM    4  C   UNL     1      -7.535  15.877  69.002  1.00  0.00    -0.194 C  
HETATM    5  O   UNL     1      -7.687  17.226  68.548  1.00  0.00    -0.239 OA 
HETATM    6  C   UNL     1      -6.216  15.642  69.305  1.00  0.00    -0.127 C  
HETATM    7  C   UNL     1      -5.998  16.104  67.535  1.00  0.00    -0.190 C  
HETATM    8  C   UNL     1      -5.326  16.259  70.323  1.00  0.00    -0.180 C  
HETATM    9  H   UNL     1      -8.100  18.033  68.833  1.00  0.00     0.000 HD 
HETATM   10  C   UNL     1      -7.472  15.813  66.571  1.00  0.00     0.185 C  
HETATM   11  C   UNL     1      -8.707  14.725  67.040  1.00  0.00    -0.258 C  
HETATM   12  C   UNL     1     -10.057  14.773  66.315  1.00  0.00    -0.299 A  
HETATM   13  C   UNL     1     -10.155  15.352  65.036  1.00  0.00    -0.210 A  
HETATM   14  C   UNL     1     -11.316  15.229  64.265  1.00  0.00    -0.114 A  
HETATM   15  C   UNL     1     -12.400  14.531  64.772  1.00  0.00    -0.391 A  
HETATM   16  C   UNL     1     -12.332  13.941  66.026  1.00  0.00    -0.511 A  
HETATM   17  O   UNL     1     -13.553  14.379  64.060  1.00  0.00     1.488 OA 
HETATM   18  C   UNL     1     -11.157  14.019  66.797  1.00  0.00    -0.311 A  
HETATM   19  H   UNL     1     -14.296  13.901  64.407  1.00  0.00     0.000 HD 
HETATM   20  C   UNL     1     -11.150  13.277  68.123  1.00  0.00    -0.286 C  
HETATM   21  C   UNL     1      -9.757  12.891  68.674  1.00  0.00    -0.047 C  
HETATM   22  C   UNL     1      -8.939  14.204  68.706  1.00  0.00    -0.065 C  
ENDROOT
BRANCH  21  23
HETATM   23  C   UNL     1      -9.107  11.781  67.822  1.00  0.00    -0.178 C  
BRANCH  23  24
HETATM   24  C   UNL     1      -9.473  11.756  66.350  1.00  0.00    -0.234 C  
BRANCH  24  25
HETATM   25  C   UNL     1     -10.405  10.573  66.048  1.00  0.00    -0.279 C  
BRANCH  25  26
HETATM   26  C   UNL     1     -10.462   9.503  67.153  1.00  0.00    -0.322 C  
BRANCH  26  27
HETATM   27  C   UNL     1     -10.011   8.115  66.698  1.00  0.00    -0.339 C  
BRANCH  27  28
HETATM   28  C   UNL     1      -8.836   8.191  65.722  1.00  0.00    -0.173 C  
BRANCH  28  29
HETATM   29  C   UNL     1      -7.476   8.281  66.417  1.00  0.00    -0.080 C  
BRANCH  29  30
HETATM   30  C   UNL     1      -6.336   7.528  65.714  1.00  0.00    -0.042 C  
BRANCH  30  31
HETATM   31  C   UNL     1      -6.296   6.026  65.962  1.00  0.00    -0.042 C  
BRANCH  31  32
HETATM   32  S   UNL     1      -6.661   5.603  67.697  1.00  0.00    -0.055 S  
HETATM   33  O   UNL     1      -8.076   5.106  67.745  1.00  0.00    -0.098 OA 
BRANCH  32  34
HETATM   34  C   UNL     1      -5.576   4.146  67.823  1.00  0.00    -0.021 C  
BRANCH  34  35
HETATM   35  C   UNL     1      -6.301   2.861  67.439  1.00  0.00    -0.036 C  
BRANCH  35  36
HETATM   36  C   UNL     1      -6.230   1.820  68.556  1.00  0.00    -0.025 C  
BRANCH  36  37
HETATM   37  C   UNL     1      -6.641   2.369  69.921  1.00  0.00    -0.033 C  
HETATM   38  F   UNL     1      -6.049   1.608  70.886  1.00  0.00    -0.015 F  
HETATM   39  C   UNL     1      -8.159   2.446  70.140  1.00  0.00    -0.041 C  
HETATM   40  F   UNL     1      -6.081   3.609  70.042  1.00  0.00    -0.020 F  
HETATM   41  F   UNL     1      -8.861   2.146  69.026  1.00  0.00    -0.091 F  
HETATM   42  F   UNL     1      -8.554   1.594  71.115  1.00  0.00    -0.056 F  
HETATM   43  F   UNL     1      -8.550   3.686  70.525  1.00  0.00    -0.079 F  
ENDBRANCH  36  37
ENDBRANCH  35  36
ENDBRANCH  34  35
ENDBRANCH  32  34
ENDBRANCH  31  32
ENDBRANCH  30  31
ENDBRANCH  29  30
ENDBRANCH  28  29
ENDBRANCH  27  28
ENDBRANCH  26  27
ENDBRANCH  25  26
ENDBRANCH  24  25
ENDBRANCH  23  24
ENDBRANCH  21  23
TORSDOF 14
ENDMDL
MODEL      277
REMARK 921   NORMALIZED FREE ENERGY PREDICTED BY IDOCK:    0.04 KCAL/MOL
REMARK 922        TOTAL FREE ENERGY PREDICTED BY IDOCK:   -3.21 KCAL/MOL
REMARK 923 INTER-LIGAND FREE ENERGY PREDICTED BY IDOCK:   -1.95 KCAL/MOL
REMARK 924 INTRA-LIGAND FREE ENERGY PREDICTED BY IDOCK:   -1.26 KCAL/MOL
REMARK 927      BINDING AFFINITY PREDICTED BY RF-SCORE:    0.00 PKD
ROOT
HETATM    1  C   UNL     1      -9.415  13.522  65.624  1.00  0.00     0.099 C  
HETATM    2  C   UNL     1      -8.779  12.254  65.737  1.00  0.00     0.452 C  
HETATM    3  C   UNL     1     -10.235  12.151  66.101  1.00  0.00    -0.254 C  
HETATM    4  C   UNL     1     -11.201  13.840  65.519  1.00  0.00    -0.299 C  
HETATM    5  O   UNL     1     -12.543  14.290  65.298  1.00  0.00    -0.466 OA 
HETATM    6  C   UNL     1     -10.881  12.883  64.588  1.00  0.00    -0.365 C  
HETATM    7  C   UNL     1     -12.330  12.033  65.345  1.00  0.00     0.198 C  
HETATM    8  C   UNL     1     -10.786  12.959  63.106  1.00  0.00     0.538 C  
HETATM    9  H   UNL     1     -12.995  15.079  65.026  1.00  0.00     0.000 HD 
HETATM   10  C   UNL     1     -12.627  12.566  67.023  1.00  0.00     1.164 C  
HETATM   11  C   UNL     1     -11.433  13.294  68.008  1.00  0.00    -0.344 C  
HETATM   12  C   UNL     1     -11.860  13.990  69.306  1.00  0.00    -0.389 A  
HETATM   13  C   UNL     1     -13.092  13.672  69.908  1.00  0.00     0.721 A  
HETATM   14  C   UNL     1     -13.418  14.130  71.189  1.00  0.00    -0.293 A  
HETATM   15  C   UNL     1     -12.516  14.922  71.881  1.00  0.00    -0.333 A  
HETATM   16  C   UNL     1     -11.289  15.245  71.318  1.00  0.00    -0.416 A  
HETATM   17  O   UNL     1     -12.784  15.390  73.133  1.00  0.00    -0.385 OA 
HETATM   18  C   UNL     1     -10.928  14.758  70.048  1.00  0.00    -0.189 A  
HETATM   19  H   UNL     1     -12.166  15.932  73.608  1.00  0.00     0.000 HD 
HETATM   20  C   UNL     1      -9.535  15.100  69.548  1.00  0.00    -0.151 C  
HETATM   21  C   UNL     1      -8.946  14.146  68.482  1.00  0.00    -0.174 C  
HETATM   22  C   UNL     1     -10.000  14.078  67.351  1.00  0.00    -0.243 C  
ENDROOT
BRANCH  21  23
HETATM   23  C   UNL     1      -8.606  12.770  69.090  1.00  0.00     0.681 C  
BRANCH  23  24
HETATM   24  C   UNL     1      -7.763  11.842  68.234  1.00  0.00    -0.127 C  
BRANCH  24  25
HETATM   25  C   UNL     1      -6.341  11.727  68.804  1.00  0.00    -0.061 C  
BRANCH  25  26
HETATM   26  C   UNL     1      -6.243  11.930  70.326  1.00  0.00    -0.027 C  
BRANCH  26  27
HETATM   27  C   UNL     1      -5.239  11.004  71.013  1.00  0.00    -0.113 C  
BRANCH  27  28
HETATM   28  C   UNL     1      -5.183   9.630  70.344  1.00  0.00    -0.032 C  
BRANCH  28  29
HETATM   29  C   UNL     1      -6.203   8.640  70.909  1.00  0.00    -0.039 C  
BRANCH  29  30
HETATM   30  C   UNL     1      -6.685   8.946  72.336  1.00  0.00     0.072 C  
BRANCH  30  31
HETATM   31  C   UNL     1      -7.556   7.874  72.975  1.00  0.00    -0.120 C  
BRANCH  31  32
HETATM   32  S   UNL     1      -7.165   6.205  72.355  1.00  0.00    -0.086 S  
HETATM   33  O   UNL     1      -7.026   5.309  73.550  1.00  0.00    -0.077 OA 
BRANCH  32  34
HETATM   34  C   UNL     1      -8.781   5.843  71.598  1.00  0.00    -0.136 C  
BRANCH  34  35
HETATM   35  C   UNL     1      -9.014   6.659  70.332  1.00  0.00    -0.152 C  
BRANCH  35  36
HETATM   36  C   UNL     1      -9.090   5.767  69.094  1.00  0.00    -0.126 C  
BRANCH  36  37
HETATM   37  C   UNL     1      -8.112   6.173  67.994  1.00  0.00    -0.114 C  
HETATM   38  F   UNL     1      -8.680   5.888  66.786  1.00  0.00    -0.115 F  
HETATM   39  C   UNL     1      -6.725   5.524  68.110  1.00  0.00    -0.054 C  
HETATM   40  F   UNL     1      -8.003   7.534  68.033  1.00  0.00    -0.113 F  
HETATM   41  F   UNL     1      -6.575   4.818  69.252  1.00  0.00    -0.035 F  
HETATM   42  F   UNL     1      -6.491   4.683  67.075  1.00  0.00    -0.037 F  
HETATM   43  F   UNL     1      -5.733   6.449  68.091  1.00  0.00    -0.010 F  
ENDBRANCH  36  37
ENDBRANCH  35  36
ENDBRANCH  34  35
ENDBRANCH  32  34
ENDBRANCH  31  32
ENDBRANCH  30  31
ENDBRANCH  29  30
ENDBRANCH  28  29
ENDBRANCH  27  28
ENDBRANCH  26  27
ENDBRANCH  25  26
ENDBRANCH  24  25
ENDBRANCH  23  24
ENDBRANCH  21  23
TORSDOF 14
ENDMDL
MODEL      278
REMARK 921   NORMALIZED FREE ENERGY PREDICTED BY IDOCK:    0.17 KCAL/MOL
REMARK 922        TOTAL FREE ENERGY PREDICTED BY IDOCK:   -2.97 KCAL/MOL
REMARK 923 INTER-LIGAND FREE ENERGY PREDICTED BY IDOCK:   -4.19 KCAL/MOL
REMARK 924 INTRA-LIGAND FREE ENERGY PREDICTED BY IDOCK:    1.22 KCAL/MOL
REMARK 927      BINDING AFFINITY PREDICTED BY RF-SCORE:    0.00 PKD
ROOT
HETATM    1  C   UNL     1     -11.520  12.883  69.404  1.00  0.00    -0.323 C  
HETATM    2  C   UNL     1     -10.343  13.346  70.058  1.00  0.00     1.480 C  
HETATM    3  C   UNL     1     -10.048  12.987  68.627  1.00  0.00    -0.143 C  
HETATM    4  C   UNL     1     -11.792  12.755  67.611  1.00  0.00    -0.339 C  
HETATM    5  O   UNL     1     -12.247  12.700  66.255  1.00  0.00    -0.562 OA 
HETATM    6  C   UNL     1     -11.324  14.018  67.885  1.00  0.00    -0.317 C  
HETATM    7  C   UNL     1     -10.187  13.616  66.493  1.00  0.00    -0.284 C  
HETATM    8  C   UNL     1     -12.018  15.333  67.891  1.00  0.00    -0.018 C  
HETATM    9  H   UNL     1     -13.063  12.592  65.780  1.00  0.00     0.000 HD 
HETATM   10  C   UNL     1      -9.958  11.857  66.290  1.00  0.00    -0.245 C  
HETATM   11  C   UNL     1     -10.246  10.718  67.534  1.00  0.00    -0.231 C  
HETATM   12  C   UNL     1     -10.319   9.228  67.178  1.00  0.00    -0.330 A  
HETATM   13  C   UNL     1      -9.737   8.755  65.987  1.00  0.00    -0.276 A  
HETATM   14  C   UNL     1      -9.604   7.385  65.733  1.00  0.00     0.356 A  
HETATM   15  C   UNL     1     -10.064   6.471  66.668  1.00  0.00    -0.137 A  
HETATM   16  C   UNL     1     -10.634   6.906  67.855  1.00  0.00    -0.286 A  
HETATM   17  O   UNL     1      -9.954   5.126  66.470  1.00  0.00    -0.168 OA 
HETATM   18  C   UNL     1     -10.736   8.280  68.145  1.00  0.00    -0.093 A  
HETATM   19  H   UNL     1     -10.269   4.499  67.110  1.00  0.00     0.000 HD 
HETATM   20  C   UNL     1     -11.304   8.658  69.503  1.00  0.00     0.252 C  
HETATM   21  C   UNL     1     -10.905  10.055  70.036  1.00  0.00    -0.352 C  
HETATM   22  C   UNL     1     -11.281  11.056  68.917  1.00  0.00    -0.326 C  
ENDROOT
BRANCH  21  23
HETATM   23  C   UNL     1      -9.413  10.100  70.426  1.00  0.00     0.232 C  
BRANCH  23  24
HETATM   24  C   UNL     1      -8.415   9.872  69.305  1.00  0.00    -0.158 C  
BRANCH  24  25
HETATM   25  C   UNL     1      -7.010   9.628  69.878  1.00  0.00    -0.081 C  
BRANCH  25  26
HETATM   26  C   UNL     1      -5.899   9.508  68.820  1.00  0.00    -0.039 C  
BRANCH  26  27
HETATM   27  C   UNL     1      -6.032   8.285  67.914  1.00  0.00    -0.047 C  
BRANCH  27  28
HETATM   28  C   UNL     1      -6.295   7.010  68.717  1.00  0.00    -0.028 C  
BRANCH  28  29
HETATM   29  C   UNL     1      -5.223   6.727  69.771  1.00  0.00    -0.014 C  
BRANCH  29  30
HETATM   30  C   UNL     1      -5.733   6.683  71.220  1.00  0.00    -0.028 C  
BRANCH  30  31
HETATM   31  C   UNL     1      -6.413   5.386  71.634  1.00  0.00    -0.040 C  
BRANCH  31  32
HETATM   32  S   UNL     1      -7.590   4.791  70.375  1.00  0.00    -0.055 S  
HETATM   33  O   UNL     1      -6.803   4.007  69.366  1.00  0.00    -0.043 OA 
BRANCH  32  34
HETATM   34  C   UNL     1      -8.473   3.588  71.419  1.00  0.00    -0.068 C  
BRANCH  34  35
HETATM   35  C   UNL     1      -9.107   4.249  72.638  1.00  0.00    -0.127 C  
BRANCH  35  36
HETATM   36  C   UNL     1      -9.688   5.620  72.296  1.00  0.00    -0.177 C  
BRANCH  36  37
HETATM   37  C   UNL     1     -11.133   5.559  71.804  1.00  0.00    -0.145 C  
HETATM   38  F   UNL     1     -11.125   5.230  70.480  1.00  0.00    -0.270 F  
HETATM   39  C   UNL     1     -11.936   6.847  72.041  1.00  0.00    -0.306 C  
HETATM   40  F   UNL     1     -11.731   4.507  72.438  1.00  0.00     0.083 F  
HETATM   41  F   UNL     1     -11.256   7.756  72.773  1.00  0.00    -0.333 F  
HETATM   42  F   UNL     1     -12.272   7.435  70.868  1.00  0.00    -0.327 F  
HETATM   43  F   UNL     1     -13.096   6.604  72.701  1.00  0.00     0.124 F  
ENDBRANCH  36  37
ENDBRANCH  35  36
ENDBRANCH  34  35
ENDBRANCH  32  34
ENDBRANCH  31  32
ENDBRANCH  30  31
ENDBRANCH  29  30
ENDBRANCH  28  29
ENDBRANCH  27  28
ENDBRANCH  26  27
ENDBRANCH  25  26
ENDBRANCH  24  25
ENDBRANCH  23  24
ENDBRANCH  21  23
TORSDOF 14
ENDMDL
MODEL      279
REMARK 921   NORMALIZED FREE ENERGY PREDICTED BY IDOCK:    0.23 KCAL/MOL
REMARK 922        TOTAL FREE ENERGY PREDICTED BY IDOCK:   -2.87 KCAL/MOL
REMARK 923 INTER-LIGAND FREE ENERGY PREDICTED BY IDOCK:   -1.96 KCAL/MOL
REMARK 924 INTRA-LIGAND FREE ENERGY PREDICTED BY IDOCK:   -0.92 KCAL/MOL
REMARK 927      BINDING AFFINITY PREDICTED BY RF-SCORE:    0.00 PKD
ROOT
HETATM    1  C   UNL     1      -9.436  13.381  65.641  1.00  0.00     0.100 C  
HETATM    2  C   UNL     1      -8.836  12.114  65.887  1.00  0.00     0.174 C  
HETATM    3  C   UNL     1     -10.225  12.164  66.463  1.00  0.00    -0.230 C  
HETATM    4  C   UNL     1     -11.206  13.785  65.732  1.00  0.00    -0.297 C  
HETATM    5  O   UNL     1     -12.548  14.272  65.624  1.00  0.00    -0.461 OA 
HETATM    6  C   UNL     1     -11.061  12.665  64.950  1.00  0.00    -0.331 C  
HETATM    7  C   UNL     1     -12.411  12.047  66.040  1.00  0.00     0.984 C  
HETATM    8  C   UNL     1     -11.184  12.483  63.479  1.00  0.00    -0.525 C  
HETATM    9  H   UNL     1     -13.007  15.030  65.282  1.00  0.00     0.000 HD 
HETATM   10  C   UNL     1     -12.438  12.875  67.622  1.00  0.00     0.518 C  
HETATM   11  C   UNL     1     -11.085  13.686  68.286  1.00  0.00    -0.281 C  
HETATM   12  C   UNL     1     -11.290  14.617  69.487  1.00  0.00    -0.314 A  
HETATM   13  C   UNL     1     -12.430  14.483  70.302  1.00  0.00    -0.405 A  
HETATM   14  C   UNL     1     -12.547  15.171  71.514  1.00  0.00    -0.425 A  
HETATM   15  C   UNL     1     -11.524  16.012  71.922  1.00  0.00    -0.315 A  
HETATM   16  C   UNL     1     -10.383  16.159  71.145  1.00  0.00     1.253 A  
HETATM   17  O   UNL     1     -11.587  16.702  73.096  1.00  0.00    -0.228 OA 
HETATM   18  C   UNL     1     -10.232  15.442  69.943  1.00  0.00    -0.279 A  
HETATM   19  H   UNL     1     -10.886  17.279  73.376  1.00  0.00     0.000 HD 
HETATM   20  C   UNL     1      -8.917  15.609  69.201  1.00  0.00    -0.257 C  
HETATM   21  C   UNL     1      -8.527  14.453  68.249  1.00  0.00    -0.165 C  
HETATM   22  C   UNL     1      -9.739  14.258  67.307  1.00  0.00    -0.234 C  
ENDROOT
BRANCH  21  23
HETATM   23  C   UNL     1      -8.149  13.182  69.038  1.00  0.00     0.323 C  
BRANCH  23  24
HETATM   24  C   UNL     1      -7.124  12.267  68.394  1.00  0.00    -0.094 C  
BRANCH  24  25
HETATM   25  C   UNL     1      -6.027  11.894  69.403  1.00  0.00    -0.084 C  
BRANCH  25  26
HETATM   26  C   UNL     1      -6.536  11.613  70.828  1.00  0.00     0.917 C  
BRANCH  26  27
HETATM   27  C   UNL     1      -5.853  10.427  71.510  1.00  0.00     0.241 C  
BRANCH  27  28
HETATM   28  C   UNL     1      -6.083   9.123  70.745  1.00  0.00    -0.049 C  
BRANCH  28  29
HETATM   29  C   UNL     1      -7.563   8.787  70.552  1.00  0.00    -0.085 C  
BRANCH  29  30
HETATM   30  C   UNL     1      -8.531   9.580  71.444  1.00  0.00     0.566 C  
BRANCH  30  31
HETATM   31  C   UNL     1      -9.969   9.083  71.449  1.00  0.00    -0.318 C  
BRANCH  31  32
HETATM   32  S   UNL     1     -10.081   7.295  71.783  1.00  0.00    -0.178 S  
HETATM   33  O   UNL     1     -11.264   7.084  72.682  1.00  0.00    -0.266 OA 
BRANCH  32  34
HETATM   34  C   UNL     1     -10.577   6.767  70.112  1.00  0.00    -0.218 C  
BRANCH  34  35
HETATM   35  C   UNL     1      -9.442   6.064  69.376  1.00  0.00    -0.155 C  
BRANCH  35  36
HETATM   36  C   UNL     1      -9.744   4.582  69.162  1.00  0.00    -0.250 C  
BRANCH  36  37
HETATM   37  C   UNL     1      -8.960   3.663  70.097  1.00  0.00    -0.111 C  
HETATM   38  F   UNL     1      -9.199   4.053  71.383  1.00  0.00    -0.142 F  
HETATM   39  C   UNL     1      -7.452   3.611  69.814  1.00  0.00    -0.045 C  
HETATM   40  F   UNL     1      -9.506   2.415  69.988  1.00  0.00    -0.180 F  
HETATM   41  F   UNL     1      -7.111   4.280  68.692  1.00  0.00    -0.049 F  
HETATM   42  F   UNL     1      -6.744   4.141  70.839  1.00  0.00    -0.028 F  
HETATM   43  F   UNL     1      -7.013   2.337  69.656  1.00  0.00    -0.033 F  
ENDBRANCH  36  37
ENDBRANCH  35  36
ENDBRANCH  34  35
ENDBRANCH  32  34
ENDBRANCH  31  32
ENDBRANCH  30  31
ENDBRANCH  29  30
ENDBRANCH  28  29
ENDBRANCH  27  28
ENDBRANCH  26  27
ENDBRANCH  25  26
ENDBRANCH  24  25
ENDBRANCH  23  24
ENDBRANCH  21  23
TORSDOF 14
ENDMDL
MODEL      280
REMARK 921   NORMALIZED FREE ENERGY PREDICTED BY IDOCK:    0.41 KCAL/MOL
REMARK 922        TOTAL FREE ENERGY PREDICTED BY IDOCK:   -2.55 KCAL/MOL
REMARK 923 INTER-LIGAND FREE ENERGY PREDICTED BY IDOCK:   -4.12 KCAL/MOL
REMARK 924 INTRA-LIGAND FREE ENERGY PREDICTED BY IDOCK:    1.57 KCAL/MOL
REMARK 927      BINDING AFFINITY PREDICTED BY RF-SCORE:    0.00 PKD
ROOT
HETATM    1  C   UNL     1      -6.811  12.824  67.926  1.00  0.00    -0.114 C  
HETATM    2  C   UNL     1      -6.603  12.222  66.653  1.00  0.00     0.424 C  
HETATM    3  C   UNL     1      -8.072  12.310  66.964  1.00  0.00    -0.141 C  
HETATM    4  C   UNL     1      -8.357  13.547  68.551  1.00  0.00    -0.097 C  
HETATM    5  O   UNL     1      -9.425  14.271  69.172  1.00  0.00    -0.397 OA 
HETATM    6  C   UNL     1      -8.107  14.077  67.309  1.00  0.00    -0.174 C  
HETATM    7  C   UNL     1      -9.873  13.623  67.045  1.00  0.00    -0.251 C  
HETATM    8  C   UNL     1      -7.645  15.431  66.903  1.00  0.00    -0.111 C  
HETATM    9  H   UNL     1      -9.559  14.849  69.913  1.00  0.00     0.000 HD 
HETATM   10  C   UNL     1     -10.398  12.296  68.119  1.00  0.00    -0.221 C  
HETATM   11  C   UNL     1      -9.318  11.195  68.858  1.00  0.00    -0.117 C  
HETATM   12  C   UNL     1      -9.828  10.297  69.991  1.00  0.00    -0.082 A  
HETATM   13  C   UNL     1     -11.206  10.046  70.131  1.00  0.00    -0.367 A  
HETATM   14  C   UNL     1     -11.685   9.076  71.018  1.00  0.00    -0.353 A  
HETATM   15  C   UNL     1     -10.787   8.350  71.785  1.00  0.00    -0.284 A  
HETATM   16  C   UNL     1      -9.423   8.568  71.663  1.00  0.00    -0.316 A  
HETATM   17  O   UNL     1     -11.203   7.391  72.660  1.00  0.00    -0.294 OA 
HETATM   18  C   UNL     1      -8.921   9.511  70.745  1.00  0.00    -0.152 A  
HETATM   19  H   UNL     1     -10.589   6.893  73.186  1.00  0.00     0.000 HD 
HETATM   20  C   UNL     1      -7.411   9.624  70.628  1.00  0.00    -0.106 C  
HETATM   21  C   UNL     1      -6.879  10.197  69.293  1.00  0.00    -0.063 C  
HETATM   22  C   UNL     1      -7.609  11.547  69.094  1.00  0.00    -0.003 C  
ENDROOT
BRANCH  21  23
HETATM   23  C   UNL     1      -7.093   9.204  68.133  1.00  0.00    -0.078 C  
BRANCH  23  24
HETATM   24  C   UNL     1      -7.730   7.874  68.490  1.00  0.00    -0.114 C  
BRANCH  24  25
HETATM   25  C   UNL     1      -6.736   6.724  68.268  1.00  0.00    -0.068 C  
BRANCH  25  26
HETATM   26  C   UNL     1      -6.768   5.632  69.352  1.00  0.00    -0.059 C  
BRANCH  26  27
HETATM   27  C   UNL     1      -7.944   5.750  70.320  1.00  0.00    -0.104 C  
BRANCH  27  28
HETATM   28  C   UNL     1      -9.251   5.271  69.686  1.00  0.00    -0.159 C  
BRANCH  28  29
HETATM   29  C   UNL     1      -9.712   6.143  68.516  1.00  0.00    -0.141 C  
BRANCH  29  30
HETATM   30  C   UNL     1     -10.139   5.370  67.258  1.00  0.00    -0.229 C  
BRANCH  30  31
HETATM   31  C   UNL     1     -10.346   3.875  67.451  1.00  0.00     0.855 C  
BRANCH  31  32
HETATM   32  S   UNL     1      -8.783   2.942  67.348  1.00  0.00    -0.135 S  
HETATM   33  O   UNL     1      -8.491   2.412  68.721  1.00  0.00    -0.061 OA 
BRANCH  32  34
HETATM   34  C   UNL     1      -9.401   1.546  66.355  1.00  0.00     0.131 C  
BRANCH  34  35
HETATM   35  C   UNL     1      -9.377   1.854  64.862  1.00  0.00    -0.081 C  
BRANCH  35  36
HETATM   36  C   UNL     1      -9.755   3.308  64.582  1.00  0.00    -0.149 C  
BRANCH  36  37
HETATM   37  C   UNL     1      -8.729   4.046  63.726  1.00  0.00    -0.110 C  
HETATM   38  F   UNL     1      -9.255   4.224  62.480  1.00  0.00    -0.101 F  
HETATM   39  C   UNL     1      -7.358   3.358  63.647  1.00  0.00    -0.054 C  
HETATM   40  F   UNL     1      -8.598   5.302  64.248  1.00  0.00    -0.135 F  
HETATM   41  F   UNL     1      -7.265   2.291  64.469  1.00  0.00    -0.048 F  
HETATM   42  F   UNL     1      -7.099   2.930  62.389  1.00  0.00    -0.031 F  
HETATM   43  F   UNL     1      -6.351   4.200  63.987  1.00  0.00    -0.029 F  
ENDBRANCH  36  37
ENDBRANCH  35  36
ENDBRANCH  34  35
ENDBRANCH  32  34
ENDBRANCH  31  32
ENDBRANCH  30  31
ENDBRANCH  29  30
ENDBRANCH  28  29
ENDBRANCH  27  28
ENDBRANCH  26  27
ENDBRANCH  25  26
ENDBRANCH  24  25
ENDBRANCH  23  24
ENDBRANCH  21  23
TORSDOF 14
ENDMDL
MODEL      281
REMARK 921   NORMALIZED FREE ENERGY PREDICTED BY IDOCK:    0.50 KCAL/MOL
REMARK 922        TOTAL FREE ENERGY PREDICTED BY IDOCK:   -2.39 KCAL/MOL
REMARK 923 INTER-LIGAND FREE ENERGY PREDICTED BY IDOCK:   -4.24 KCAL/MOL
REMARK 924 INTRA-LIGAND FREE ENERGY PREDICTED BY IDOCK:    1.85 KCAL/MOL
REMARK 927      BINDING AFFINITY PREDICTED BY RF-SCORE:    0.00 PKD
ROOT
HETATM    1  C   UNL     1     -10.901  15.747  66.203  1.00  0.00    -0.240 C  
HETATM    2  C   UNL     1     -12.224  15.838  65.685  1.00  0.00     1.169 C  
HETATM    3  C   UNL     1     -12.250  15.499  67.151  1.00  0.00     0.878 C  
HETATM    4  C   UNL     1     -10.408  15.805  67.951  1.00  0.00    -0.261 C  
HETATM    5  O   UNL     1      -9.808  15.955  69.242  1.00  0.00    -0.228 OA 
HETATM    6  C   UNL     1     -11.230  16.877  67.702  1.00  0.00     0.055 C  
HETATM    7  C   UNL     1     -12.053  16.270  69.234  1.00  0.00     0.195 C  
HETATM    8  C   UNL     1     -10.928  18.327  67.574  1.00  0.00    -0.140 C  
HETATM    9  H   UNL     1      -8.947  16.099  69.616  1.00  0.00     0.000 HD 
HETATM   10  C   UNL     1     -11.769  14.529  69.512  1.00  0.00    -0.361 C  
HETATM   11  C   UNL     1     -11.321  13.436  68.275  1.00  0.00    -0.330 C  
HETATM   12  C   UNL     1     -10.805  12.045  68.660  1.00  0.00    -0.273 A  
HETATM   13  C   UNL     1     -11.099  11.506  69.926  1.00  0.00    -0.079 A  
HETATM   14  C   UNL     1     -10.824  10.168  70.232  1.00  0.00    -0.370 A  
HETATM   15  C   UNL     1     -10.239   9.356  69.274  1.00  0.00    -0.202 A  
HETATM   16  C   UNL     1      -9.944   9.856  68.014  1.00  0.00    -0.179 A  
HETATM   17  O   UNL     1      -9.954   8.046  69.522  1.00  0.00    -0.179 OA 
HETATM   18  C   UNL     1     -10.253  11.187  67.676  1.00  0.00    -0.208 A  
HETATM   19  H   UNL     1      -9.553   7.488  68.866  1.00  0.00     0.000 HD 
HETATM   20  C   UNL     1      -9.965  11.621  66.249  1.00  0.00    -0.247 C  
HETATM   21  C   UNL     1     -10.787  12.825  65.730  1.00  0.00    -0.299 C  
HETATM   22  C   UNL     1     -10.577  13.955  66.765  1.00  0.00    -0.277 C  
ENDROOT
BRANCH  21  23
HETATM   23  C   UNL     1     -12.268  12.445  65.525  1.00  0.00    -0.356 C  
BRANCH  23  24
HETATM   24  C   UNL     1     -12.715  12.215  64.094  1.00  0.00    -0.416 C  
BRANCH  24  25
HETATM   25  C   UNL     1     -11.642  12.705  63.109  1.00  0.00    -0.232 C  
BRANCH  25  26
HETATM   26  C   UNL     1     -10.194  12.511  63.591  1.00  0.00    -0.310 C  
BRANCH  26  27
HETATM   27  C   UNL     1      -9.366  11.576  62.710  1.00  0.00    -0.222 C  
BRANCH  27  28
HETATM   28  C   UNL     1      -9.797  10.117  62.868  1.00  0.00     0.072 C  
BRANCH  28  29
HETATM   29  C   UNL     1      -8.806   9.277  63.678  1.00  0.00    -0.146 C  
BRANCH  29  30
HETATM   30  C   UNL     1      -7.338   9.716  63.565  1.00  0.00    -0.113 C  
BRANCH  30  31
HETATM   31  C   UNL     1      -6.566   9.116  62.399  1.00  0.00    -0.093 C  
BRANCH  31  32
HETATM   32  S   UNL     1      -6.325   7.318  62.583  1.00  0.00    -0.054 S  
HETATM   33  O   UNL     1      -5.349   7.113  63.704  1.00  0.00    -0.031 OA 
BRANCH  32  34
HETATM   34  C   UNL     1      -7.979   6.918  63.231  1.00  0.00    -0.066 C  
BRANCH  34  35
HETATM   35  C   UNL     1      -7.926   6.469  64.688  1.00  0.00    -0.116 C  
BRANCH  35  36
HETATM   36  C   UNL     1      -8.522   5.074  64.867  1.00  0.00    -0.147 C  
BRANCH  36  37
HETATM   37  C   UNL     1      -7.510   4.042  65.359  1.00  0.00    -0.081 C  
HETATM   38  F   UNL     1      -6.269   4.608  65.331  1.00  0.00    -0.029 F  
HETATM   39  C   UNL     1      -7.523   2.720  64.577  1.00  0.00    -0.074 C  
HETATM   40  F   UNL     1      -7.776   3.813  66.679  1.00  0.00    -0.083 F  
HETATM   41  F   UNL     1      -8.532   2.656  63.682  1.00  0.00    -0.083 F  
HETATM   42  F   UNL     1      -6.364   2.541  63.901  1.00  0.00    -0.016 F  
HETATM   43  F   UNL     1      -7.663   1.649  65.399  1.00  0.00    -0.064 F  
ENDBRANCH  36  37
ENDBRANCH  35  36
ENDBRANCH  34  35
ENDBRANCH  32  34
ENDBRANCH  31  32
ENDBRANCH  30  31
ENDBRANCH  29  30
ENDBRANCH  28  29
ENDBRANCH  27  28
ENDBRANCH  26  27
ENDBRANCH  25  26
ENDBRANCH  24  25
ENDBRANCH  23  24
ENDBRANCH  21  23
TORSDOF 14
ENDMDL
MODEL      282
REMARK 921   NORMALIZED FREE ENERGY PREDICTED BY IDOCK:    0.55 KCAL/MOL
REMARK 922        TOTAL FREE ENERGY PREDICTED BY IDOCK:   -2.28 KCAL/MOL
REMARK 923 INTER-LIGAND FREE ENERGY PREDICTED BY IDOCK:   -0.63 KCAL/MOL
REMARK 924 INTRA-LIGAND FREE ENERGY PREDICTED BY IDOCK:   -1.65 KCAL/MOL
REMARK 927      BINDING AFFINITY PREDICTED BY RF-SCORE:    0.00 PKD
ROOT
HETATM    1  C   UNL     1      -9.969  12.014  65.838  1.00  0.00    -0.260 C  
HETATM    2  C   UNL     1      -9.097  13.136  65.762  1.00  0.00     0.422 C  
HETATM    3  C   UNL     1      -8.968  12.280  64.532  1.00  0.00     1.005 C  
HETATM    4  C   UNL     1     -10.507  10.956  64.462  1.00  0.00    -0.323 C  
HETATM    5  O   UNL     1     -11.142  10.094  63.511  1.00  0.00     0.973 OA 
HETATM    6  C   UNL     1     -10.717  12.265  64.104  1.00  0.00    -0.412 C  
HETATM    7  C   UNL     1      -9.862  11.711  62.570  1.00  0.00     0.408 C  
HETATM    8  C   UNL     1     -11.973  13.052  63.982  1.00  0.00    -0.523 C  
HETATM    9  H   UNL     1     -11.862   9.476  63.478  1.00  0.00     0.000 HD 
HETATM   10  C   UNL     1      -8.801  10.304  62.855  1.00  0.00    -0.229 C  
HETATM   11  C   UNL     1      -8.186   9.882  64.395  1.00  0.00    -0.164 C  
HETATM   12  C   UNL     1      -7.548   8.502  64.591  1.00  0.00    -0.102 A  
HETATM   13  C   UNL     1      -7.072   7.777  63.481  1.00  0.00    -0.075 A  
HETATM   14  C   UNL     1      -6.305   6.618  63.641  1.00  0.00    -0.041 A  
HETATM   15  C   UNL     1      -6.013   6.164  64.917  1.00  0.00    -0.026 A  
HETATM   16  C   UNL     1      -6.460   6.860  66.031  1.00  0.00    -0.051 A  
HETATM   17  O   UNL     1      -5.266   5.042  65.126  1.00  0.00    -0.012 OA 
HETATM   18  C   UNL     1      -7.197   8.052  65.888  1.00  0.00    -0.065 A  
HETATM   19  H   UNL     1      -5.066   4.730  66.000  1.00  0.00     0.000 HD 
HETATM   20  C   UNL     1      -7.576   8.785  67.163  1.00  0.00    -0.088 C  
HETATM   21  C   UNL     1      -7.858  10.300  67.013  1.00  0.00    -0.107 C  
HETATM   22  C   UNL     1      -8.926  10.420  65.899  1.00  0.00    -0.182 C  
ENDROOT
BRANCH  21  23
HETATM   23  C   UNL     1      -6.563  11.082  66.712  1.00  0.00    -0.124 C  
BRANCH  23  24
HETATM   24  C   UNL     1      -6.297  12.304  67.571  1.00  0.00    -0.139 C  
BRANCH  24  25
HETATM   25  C   UNL     1      -7.389  12.458  68.641  1.00  0.00    -0.102 C  
BRANCH  25  26
HETATM   26  C   UNL     1      -7.067  11.785  69.986  1.00  0.00     0.666 C  
BRANCH  26  27
HETATM   27  C   UNL     1      -6.203  10.530  69.863  1.00  0.00    -0.090 C  
BRANCH  27  28
HETATM   28  C   UNL     1      -5.227  10.396  71.032  1.00  0.00    -0.083 C  
BRANCH  28  29
HETATM   29  C   UNL     1      -5.290   9.032  71.721  1.00  0.00    -0.052 C  
BRANCH  29  30
HETATM   30  C   UNL     1      -6.609   8.732  72.450  1.00  0.00    -0.019 C  
BRANCH  30  31
HETATM   31  C   UNL     1      -7.205   7.358  72.181  1.00  0.00    -0.068 C  
BRANCH  31  32
HETATM   32  S   UNL     1      -8.661   7.438  71.086  1.00  0.00    -0.122 S  
HETATM   33  O   UNL     1      -8.855   8.878  70.710  1.00  0.00    -0.168 OA 
BRANCH  32  34
HETATM   34  C   UNL     1      -7.926   6.602  69.645  1.00  0.00    -0.124 C  
BRANCH  34  35
HETATM   35  C   UNL     1      -7.834   5.093  69.847  1.00  0.00    -0.075 C  
BRANCH  35  36
HETATM   36  C   UNL     1      -9.161   4.403  69.535  1.00  0.00    -0.196 C  
BRANCH  36  37
HETATM   37  C   UNL     1      -9.587   4.542  68.075  1.00  0.00    -0.154 C  
HETATM   38  F   UNL     1     -10.951   4.551  68.023  1.00  0.00     0.360 F  
HETATM   39  C   UNL     1      -9.013   3.465  67.143  1.00  0.00    -0.154 C  
HETATM   40  F   UNL     1      -9.199   5.784  67.658  1.00  0.00    -0.110 F  
HETATM   41  F   UNL     1      -8.116   2.667  67.762  1.00  0.00    -0.065 F  
HETATM   42  F   UNL     1      -9.994   2.672  66.651  1.00  0.00     0.148 F  
HETATM   43  F   UNL     1      -8.379   4.009  66.074  1.00  0.00    -0.106 F  
ENDBRANCH  36  37
ENDBRANCH  35  36
ENDBRANCH  34  35
ENDBRANCH  32  34
ENDBRANCH  31  32
ENDBRANCH  30  31
ENDBRANCH  29  30
ENDBRANCH  28  29
ENDBRANCH  27  28
ENDBRANCH  26  27
ENDBRANCH  25  26
ENDBRANCH  24  25
ENDBRANCH  23  24
ENDBRANCH  21  23
TORSDOF 14
ENDMDL
MODEL      283
REMARK 921   NORMALIZED FREE ENERGY PREDICTED BY IDOCK:    0.98 KCAL/MOL
REMARK 922        TOTAL FREE ENERGY PREDICTED BY IDOCK:   -1.51 KCAL/MOL
REMARK 923 INTER-LIGAND FREE ENERGY PREDICTED BY IDOCK:   -0.07 KCAL/MOL
REMARK 924 INTRA-LIGAND FREE ENERGY PREDICTED BY IDOCK:   -1.45 KCAL/MOL
REMARK 927      BINDING AFFINITY PREDICTED BY RF-SCORE:    0.00 PKD
ROOT
HETATM    1  C   UNL     1      -8.814   5.711  65.632  1.00  0.00    -0.150 C  
HETATM    2  C   UNL     1      -7.714   5.797  66.531  1.00  0.00    -0.100 C  
HETATM    3  C   UNL     1      -8.926   6.474  67.110  1.00  0.00    -0.113 C  
HETATM    4  C   UNL     1     -10.570   5.966  66.030  1.00  0.00     0.287 C  
HETATM    5  O   UNL     1     -11.995   5.999  66.160  1.00  0.00     0.532 OA 
HETATM    6  C   UNL     1     -10.049   5.076  66.938  1.00  0.00    -0.261 C  
HETATM    7  C   UNL     1     -10.890   6.200  68.130  1.00  0.00    -0.389 C  
HETATM    8  C   UNL     1     -10.235   3.608  67.080  1.00  0.00     0.792 C  
HETATM    9  H   UNL     1     -12.763   5.762  65.655  1.00  0.00     0.000 HD 
HETATM   10  C   UNL     1     -11.099   7.849  67.476  1.00  0.00     0.212 C  
HETATM   11  C   UNL     1     -10.154   8.485  66.199  1.00  0.00    -0.053 C  
HETATM   12  C   UNL     1     -10.606   9.777  65.509  1.00  0.00     0.475 A  
HETATM   13  C   UNL     1     -11.492  10.656  66.160  1.00  0.00     0.796 A  
HETATM   14  C   UNL     1     -11.760  11.931  65.651  1.00  0.00    -0.214 A  
HETATM   15  C   UNL     1     -11.151  12.339  64.475  1.00  0.00    -0.321 A  
HETATM   16  C   UNL     1     -10.267  11.499  63.814  1.00  0.00    -0.429 A  
HETATM   17  O   UNL     1     -11.377  13.573  63.941  1.00  0.00    -0.571 OA 
HETATM   18  C   UNL     1      -9.953  10.229  64.335  1.00  0.00    -0.331 A  
HETATM   19  H   UNL     1     -10.960  13.852  63.135  1.00  0.00     0.000 HD 
HETATM   20  C   UNL     1      -8.916   9.412  63.583  1.00  0.00    -0.151 C  
HETATM   21  C   UNL     1      -8.176   8.333  64.410  1.00  0.00    -0.130 C  
HETATM   22  C   UNL     1      -9.283   7.467  65.056  1.00  0.00     0.824 C  
ENDROOT
BRANCH  21  23
HETATM   23  C   UNL     1      -7.218   8.974  65.435  1.00  0.00    -0.084 C  
BRANCH  23  24
HETATM   24  C   UNL     1      -6.875  10.436  65.218  1.00  0.00    -0.102 C  
BRANCH  24  25
HETATM   25  C   UNL     1      -5.662  10.836  66.071  1.00  0.00    -0.140 C  
BRANCH  25  26
HETATM   26  C   UNL     1      -5.806  10.532  67.572  1.00  0.00    -0.044 C  
BRANCH  26  27
HETATM   27  C   UNL     1      -5.521  11.728  68.480  1.00  0.00    -0.045 C  
BRANCH  27  28
HETATM   28  C   UNL     1      -6.741  12.105  69.322  1.00  0.00    -0.084 C  
BRANCH  28  29
HETATM   29  C   UNL     1      -6.735  11.473  70.715  1.00  0.00     1.414 C  
BRANCH  29  30
HETATM   30  C   UNL     1      -5.512  10.594  71.024  1.00  0.00    -0.088 C  
BRANCH  30  31
HETATM   31  C   UNL     1      -5.567   9.180  70.463  1.00  0.00    -0.031 C  
BRANCH  31  32
HETATM   32  S   UNL     1      -7.276   8.621  70.164  1.00  0.00    -0.055 S  
HETATM   33  O   UNL     1      -7.197   7.390  69.310  1.00  0.00    -0.076 OA 
BRANCH  32  34
HETATM   34  C   UNL     1      -7.652   8.074  71.860  1.00  0.00    -0.089 C  
BRANCH  34  35
HETATM   35  C   UNL     1      -8.777   7.046  71.890  1.00  0.00    -0.127 C  
BRANCH  35  36
HETATM   36  C   UNL     1      -9.878   7.447  72.871  1.00  0.00    -0.253 C  
BRANCH  36  37
HETATM   37  C   UNL     1     -11.241   7.632  72.208  1.00  0.00    -0.293 C  
HETATM   38  F   UNL     1     -11.309   6.806  71.125  1.00  0.00    -0.276 F  
HETATM   39  C   UNL     1     -11.559   9.081  71.810  1.00  0.00    -0.374 C  
HETATM   40  F   UNL     1     -12.182   7.164  73.082  1.00  0.00     0.191 F  
HETATM   41  F   UNL     1     -10.630   9.957  72.250  1.00  0.00     0.494 F  
HETATM   42  F   UNL     1     -11.641   9.211  70.465  1.00  0.00    -0.276 F  
HETATM   43  F   UNL     1     -12.751   9.492  72.313  1.00  0.00    -0.432 F  
ENDBRANCH  36  37
ENDBRANCH  35  36
ENDBRANCH  34  35
ENDBRANCH  32  34
ENDBRANCH  31  32
ENDBRANCH  30  31
ENDBRANCH  29  30
ENDBRANCH  28  29
ENDBRANCH  27  28
ENDBRANCH  26  27
ENDBRANCH  25  26
ENDBRANCH  24  25
ENDBRANCH  23  24
ENDBRANCH  21  23
TORSDOF 14
ENDMDL
MODEL      284
REMARK 921   NORMALIZED FREE ENERGY PREDICTED BY IDOCK:    0.99 KCAL/MOL
REMARK 922        TOTAL FREE ENERGY PREDICTED BY IDOCK:   -1.50 KCAL/MOL
REMARK 923 INTER-LIGAND FREE ENERGY PREDICTED BY IDOCK:   -3.57 KCAL/MOL
REMARK 924 INTRA-LIGAND FREE ENERGY PREDICTED BY IDOCK:    2.07 KCAL/MOL
REMARK 927      BINDING AFFINITY PREDICTED BY RF-SCORE:    0.00 PKD
ROOT
HETATM    1  C   UNL     1      -9.128   6.508  65.702  1.00  0.00     0.061 C  
HETATM    2  C   UNL     1      -8.380   5.304  65.580  1.00  0.00    -0.126 C  
HETATM    3  C   UNL     1      -8.861   5.488  66.994  1.00  0.00    -0.110 C  
HETATM    4  C   UNL     1     -10.269   6.952  67.046  1.00  0.00    -0.248 C  
HETATM    5  O   UNL     1     -11.291   7.430  67.928  1.00  0.00    -0.390 OA 
HETATM    6  C   UNL     1     -10.605   5.699  66.595  1.00  0.00    -0.361 C  
HETATM    7  C   UNL     1     -10.585   5.328  68.399  1.00  0.00    -0.077 C  
HETATM    8  C   UNL     1     -11.757   5.234  65.778  1.00  0.00     1.627 C  
HETATM    9  H   UNL     1     -11.949   8.114  67.953  1.00  0.00     0.000 HD 
HETATM   10  C   UNL     1      -9.536   6.449  69.311  1.00  0.00    -0.140 C  
HETATM   11  C   UNL     1      -8.271   7.351  68.594  1.00  0.00    -0.125 C  
HETATM   12  C   UNL     1      -7.636   8.502  69.384  1.00  0.00    -0.090 A  
HETATM   13  C   UNL     1      -7.753   8.548  70.786  1.00  0.00    -0.087 A  
HETATM   14  C   UNL     1      -7.018   9.462  71.550  1.00  0.00     0.156 A  
HETATM   15  C   UNL     1      -6.163  10.349  70.916  1.00  0.00     0.034 A  
HETATM   16  C   UNL     1      -6.020  10.323  69.536  1.00  0.00    -0.043 A  
HETATM   17  O   UNL     1      -5.423  11.256  71.615  1.00  0.00    -0.344 OA 
HETATM   18  C   UNL     1      -6.720   9.382  68.756  1.00  0.00    -0.052 A  
HETATM   19  H   UNL     1      -4.837  11.864  71.181  1.00  0.00     0.000 HD 
HETATM   20  C   UNL     1      -6.440   9.379  67.263  1.00  0.00    -0.070 C  
HETATM   21  C   UNL     1      -6.737   8.053  66.523  1.00  0.00    -0.062 C  
HETATM   22  C   UNL     1      -8.203   7.698  66.870  1.00  0.00    -0.120 C  
ENDROOT
BRANCH  21  23
HETATM   23  C   UNL     1      -5.728   6.955  66.916  1.00  0.00    -0.018 C  
BRANCH  23  24
HETATM   24  C   UNL     1      -5.631   6.624  68.394  1.00  0.00    -0.016 C  
BRANCH  24  25
HETATM   25  C   UNL     1      -6.091   5.181  68.654  1.00  0.00    -0.029 C  
BRANCH  25  26
HETATM   26  C   UNL     1      -5.127   4.345  69.512  1.00  0.00     0.000 C  
BRANCH  26  27
HETATM   27  C   UNL     1      -5.230   4.622  71.012  1.00  0.00    -0.004 C  
BRANCH  27  28
HETATM   28  C   UNL     1      -6.476   5.439  71.354  1.00  0.00    -0.036 C  
BRANCH  28  29
HETATM   29  C   UNL     1      -7.772   4.628  71.278  1.00  0.00    -0.081 C  
BRANCH  29  30
HETATM   30  C   UNL     1      -7.599   3.168  70.829  1.00  0.00    -0.040 C  
BRANCH  30  31
HETATM   31  C   UNL     1      -7.017   2.229  71.875  1.00  0.00    -0.026 C  
BRANCH  31  32
HETATM   32  S   UNL     1      -8.010   2.196  73.403  1.00  0.00    -0.047 S  
HETATM   33  O   UNL     1      -7.321   3.080  74.400  1.00  0.00    -0.045 OA 
BRANCH  32  34
HETATM   34  C   UNL     1      -9.450   3.117  72.775  1.00  0.00    -0.103 C  
BRANCH  34  35
HETATM   35  C   UNL     1     -10.229   3.791  73.899  1.00  0.00    -0.214 C  
BRANCH  35  36
HETATM   36  C   UNL     1     -11.529   4.411  73.388  1.00  0.00    -0.297 C  
BRANCH  36  37
HETATM   37  C   UNL     1     -11.310   5.662  72.539  1.00  0.00    -0.294 C  
HETATM   38  F   UNL     1     -10.791   5.281  71.336  1.00  0.00    -0.297 F  
HETATM   39  C   UNL     1     -10.425   6.728  73.202  1.00  0.00    -0.270 C  
HETATM   40  F   UNL     1     -12.542   6.179  72.257  1.00  0.00    -0.354 F  
HETATM   41  F   UNL     1     -10.115   6.426  74.481  1.00  0.00    -0.267 F  
HETATM   42  F   UNL     1      -9.263   6.887  72.525  1.00  0.00    -0.136 F  
HETATM   43  F   UNL     1     -11.030   7.942  73.224  1.00  0.00    -0.424 F  
ENDBRANCH  36  37
ENDBRANCH  35  36
ENDBRANCH  34  35
ENDBRANCH  32  34
ENDBRANCH  31  32
ENDBRANCH  30  31
ENDBRANCH  29  30
ENDBRANCH  28  29
ENDBRANCH  27  28
ENDBRANCH  26  27
ENDBRANCH  25  26
ENDBRANCH  24  25
ENDBRANCH  23  24
ENDBRANCH  21  23
TORSDOF 14
ENDMDL
MODEL      285
REMARK 921   NORMALIZED FREE ENERGY PREDICTED BY IDOCK:    1.25 KCAL/MOL
REMARK 922        TOTAL FREE ENERGY PREDICTED BY IDOCK:   -1.02 KCAL/MOL
REMARK 923 INTER-LIGAND FREE ENERGY PREDICTED BY IDOCK:   -3.62 KCAL/MOL
REMARK 924 INTRA-LIGAND FREE ENERGY PREDICTED BY IDOCK:    2.61 KCAL/MOL
REMARK 927      BINDING AFFINITY PREDICTED BY RF-SCORE:    0.00 PKD
ROOT
HETATM    1  C   UNL     1      -8.554  15.888  66.759  1.00  0.00    -0.301 C  
HETATM    2  C   UNL     1      -9.788  16.187  67.402  1.00  0.00    -0.238 C  
HETATM    3  C   UNL     1      -8.654  16.218  68.391  1.00  0.00    -0.200 C  
HETATM    4  C   UNL     1      -6.884  16.227  67.393  1.00  0.00    -0.178 C  
HETATM    5  O   UNL     1      -5.506  16.517  67.650  1.00  0.00    -0.120 OA 
HETATM    6  C   UNL     1      -7.620  17.383  67.486  1.00  0.00    -0.201 C  
HETATM    7  C   UNL     1      -6.927  17.379  69.192  1.00  0.00    -0.209 C  
HETATM    8  C   UNL     1      -7.566  18.638  66.690  1.00  0.00    -0.259 C  
HETATM    9  H   UNL     1      -4.679  16.522  67.183  1.00  0.00     0.000 HD 
HETATM   10  C   UNL     1      -6.489  15.738  69.743  1.00  0.00    -0.168 C  
HETATM   11  C   UNL     1      -7.144  14.309  69.067  1.00  0.00    -0.116 C  
HETATM   12  C   UNL     1      -6.486  12.962  69.389  1.00  0.00    -0.091 A  
HETATM   13  C   UNL     1      -5.671  12.826  70.528  1.00  0.00    -0.168 A  
HETATM   14  C   UNL     1      -5.226  11.573  70.962  1.00  0.00    -0.118 A  
HETATM   15  C   UNL     1      -5.585  10.438  70.253  1.00  0.00    -0.066 A  
HETATM   16  C   UNL     1      -6.395  10.538  69.131  1.00  0.00    -0.051 A  
HETATM   17  O   UNL     1      -5.181   9.194  70.637  1.00  0.00    -0.023 OA 
HETATM   18  C   UNL     1      -6.886  11.787  68.704  1.00  0.00    -0.081 A  
HETATM   19  H   UNL     1      -5.427   8.416  70.151  1.00  0.00     0.000 HD 
HETATM   20  C   UNL     1      -7.828  11.789  67.513  1.00  0.00    -0.148 C  
HETATM   21  C   UNL     1      -8.777  13.006  67.403  1.00  0.00    -0.205 C  
HETATM   22  C   UNL     1      -7.867  14.255  67.462  1.00  0.00    -0.209 C  
ENDROOT
BRANCH  21  23
HETATM   23  C   UNL     1      -9.855  12.975  68.506  1.00  0.00    -0.153 C  
BRANCH  23  24
HETATM   24  C   UNL     1     -11.098  12.156  68.215  1.00  0.00    -0.288 C  
BRANCH  24  25
HETATM   25  C   UNL     1     -10.878  11.263  66.984  1.00  0.00    -0.332 C  
BRANCH  25  26
HETATM   26  C   UNL     1     -11.420   9.831  67.125  1.00  0.00     1.050 C  
BRANCH  26  27
HETATM   27  C   UNL     1     -10.689   8.801  66.265  1.00  0.00     0.639 C  
BRANCH  27  28
HETATM   28  C   UNL     1     -10.334   7.545  67.062  1.00  0.00    -0.395 C  
BRANCH  28  29
HETATM   29  C   UNL     1      -8.950   6.986  66.726  1.00  0.00    -0.145 C  
BRANCH  29  30
HETATM   30  C   UNL     1      -8.196   6.361  67.910  1.00  0.00    -0.115 C  
BRANCH  30  31
HETATM   31  C   UNL     1      -9.075   5.753  68.994  1.00  0.00    -0.116 C  
BRANCH  31  32
HETATM   32  S   UNL     1      -8.632   4.021  69.352  1.00  0.00    -0.081 S  
HETATM   33  O   UNL     1      -9.878   3.334  69.830  1.00  0.00    -0.077 OA 
BRANCH  32  34
HETATM   34  C   UNL     1      -8.350   3.484  67.634  1.00  0.00    -0.089 C  
BRANCH  34  35
HETATM   35  C   UNL     1      -8.302   4.664  66.669  1.00  0.00    -0.106 C  
BRANCH  35  36
HETATM   36  C   UNL     1      -7.852   4.231  65.275  1.00  0.00    -0.086 C  
BRANCH  36  37
HETATM   37  C   UNL     1      -9.009   3.823  64.365  1.00  0.00    -0.124 C  
HETATM   38  F   UNL     1     -10.107   4.556  64.709  1.00  0.00    -0.178 F  
HETATM   39  C   UNL     1      -9.329   2.321  64.383  1.00  0.00    -0.132 C  
HETATM   40  F   UNL     1      -8.686   4.222  63.099  1.00  0.00    -0.094 F  
HETATM   41  F   UNL     1      -8.431   1.607  65.097  1.00  0.00    -0.079 F  
HETATM   42  F   UNL     1     -10.552   2.089  64.914  1.00  0.00     0.517 F  
HETATM   43  F   UNL     1      -9.341   1.793  63.133  1.00  0.00    -0.088 F  
ENDBRANCH  36  37
ENDBRANCH  35  36
ENDBRANCH  34  35
ENDBRANCH  32  34
ENDBRANCH  31  32
ENDBRANCH  30  31
ENDBRANCH  29  30
ENDBRANCH  28  29
ENDBRANCH  27  28
ENDBRANCH  26  27
ENDBRANCH  25  26
ENDBRANCH  24  25
ENDBRANCH  23  24
ENDBRANCH  21  23
TORSDOF 14
ENDMDL
MODEL      286
REMARK 921   NORMALIZED FREE ENERGY PREDICTED BY IDOCK:    1.67 KCAL/MOL
REMARK 922        TOTAL FREE ENERGY PREDICTED BY IDOCK:   -0.26 KCAL/MOL
REMARK 923 INTER-LIGAND FREE ENERGY PREDICTED BY IDOCK:   -2.09 KCAL/MOL
REMARK 924 INTRA-LIGAND FREE ENERGY PREDICTED BY IDOCK:    1.83 KCAL/MOL
REMARK 927      BINDING AFFINITY PREDICTED BY RF-SCORE:    0.00 PKD
ROOT
HETATM    1  C   UNL     1      -9.521   9.097  68.587  1.00  0.00    -0.145 C  
HETATM    2  C   UNL     1      -8.532  10.004  68.112  1.00  0.00    -0.114 C  
HETATM    3  C   UNL     1      -8.382   8.663  67.448  1.00  0.00    -0.116 C  
HETATM    4  C   UNL     1     -10.040   7.542  67.802  1.00  0.00    -0.185 C  
HETATM    5  O   UNL     1     -10.672   6.366  67.286  1.00  0.00    -0.262 OA 
HETATM    6  C   UNL     1     -10.077   8.534  66.853  1.00  0.00    -0.364 C  
HETATM    7  C   UNL     1      -9.148   7.278  65.877  1.00  0.00    -0.064 C  
HETATM    8  C   UNL     1     -11.226   9.231  66.218  1.00  0.00     1.647 C  
HETATM    9  H   UNL     1     -11.447   5.842  67.451  1.00  0.00     0.000 HD 
HETATM   10  C   UNL     1      -8.272   6.122  66.919  1.00  0.00    -0.106 C  
HETATM   11  C   UNL     1      -7.847   6.450  68.544  1.00  0.00    -0.105 C  
HETATM   12  C   UNL     1      -7.379   5.297  69.439  1.00  0.00    -0.061 A  
HETATM   13  C   UNL     1      -6.883   4.111  68.866  1.00  0.00    -0.047 A  
HETATM   14  C   UNL     1      -6.260   3.129  69.644  1.00  0.00    -0.028 A  
HETATM   15  C   UNL     1      -6.136   3.319  71.011  1.00  0.00    -0.018 A  
HETATM   16  C   UNL     1      -6.606   4.481  71.605  1.00  0.00    -0.026 A  
HETATM   17  O   UNL     1      -5.533   2.394  71.812  1.00  0.00    -0.007 OA 
HETATM   18  C   UNL     1      -7.198   5.498  70.831  1.00  0.00    -0.078 A  
HETATM   19  H   UNL     1      -5.448   2.524  72.749  1.00  0.00     0.000 HD 
HETATM   20  C   UNL     1      -7.612   6.766  71.558  1.00  0.00    -0.088 C  
HETATM   21  C   UNL     1      -7.718   8.040  70.686  1.00  0.00    -0.089 C  
HETATM   22  C   UNL     1      -8.661   7.672  69.516  1.00  0.00    -0.132 C  
ENDROOT
BRANCH  21  23
HETATM   23  C   UNL     1      -6.326   8.521  70.228  1.00  0.00    -0.035 C  
BRANCH  23  24
HETATM   24  C   UNL     1      -5.940   9.938  70.610  1.00  0.00    -0.087 C  
BRANCH  24  25
HETATM   25  C   UNL     1      -6.953  10.944  70.041  1.00  0.00    -0.036 C  
BRANCH  25  26
HETATM   26  C   UNL     1      -6.404  12.369  69.854  1.00  0.00    -0.048 C  
BRANCH  26  27
HETATM   27  C   UNL     1      -7.487  13.439  69.717  1.00  0.00     0.821 C  
BRANCH  27  28
HETATM   28  C   UNL     1      -8.183  13.371  68.357  1.00  0.00    -0.139 C  
BRANCH  28  29
HETATM   29  C   UNL     1      -9.683  13.665  68.428  1.00  0.00    -0.217 C  
BRANCH  29  30
HETATM   30  C   UNL     1     -10.432  12.947  69.562  1.00  0.00     0.509 C  
BRANCH  30  31
HETATM   31  C   UNL     1     -11.179  11.686  69.153  1.00  0.00    -0.263 C  
BRANCH  31  32
HETATM   32  S   UNL     1     -12.075  10.931  70.550  1.00  0.00    -0.398 S  
HETATM   33  O   UNL     1     -13.093   9.993  69.969  1.00  0.00     0.121 OA 
BRANCH  32  34
HETATM   34  C   UNL     1     -10.710   9.909  71.189  1.00  0.00    -0.080 C  
BRANCH  34  35
HETATM   35  C   UNL     1     -11.179   8.514  71.588  1.00  0.00    -0.361 C  
BRANCH  35  36
HETATM   36  C   UNL     1     -11.138   7.548  70.405  1.00  0.00    -0.277 C  
BRANCH  36  37
HETATM   37  C   UNL     1     -11.507   6.115  70.781  1.00  0.00    -0.251 C  
HETATM   38  F   UNL     1     -12.867   6.020  70.835  1.00  0.00     0.360 F  
HETATM   39  C   UNL     1     -10.873   5.622  72.091  1.00  0.00    -0.245 C  
HETATM   40  F   UNL     1     -11.128   5.314  69.741  1.00  0.00    -0.328 F  
HETATM   41  F   UNL     1      -9.986   6.501  72.602  1.00  0.00    -0.169 F  
HETATM   42  F   UNL     1     -11.817   5.396  73.035  1.00  0.00    -0.339 F  
HETATM   43  F   UNL     1     -10.208   4.452  71.919  1.00  0.00    -0.235 F  
ENDBRANCH  36  37
ENDBRANCH  35  36
ENDBRANCH  34  35
ENDBRANCH  32  34
ENDBRANCH  31  32
ENDBRANCH  30  31
ENDBRANCH  29  30
ENDBRANCH  28  29
ENDBRANCH  27  28
ENDBRANCH  26  27
ENDBRANCH  25  26
ENDBRANCH  24  25
ENDBRANCH  23  24
ENDBRANCH  21  23
TORSDOF 14
ENDMDL
MODEL      287
REMARK 921   NORMALIZED FREE ENERGY PREDICTED BY IDOCK:    2.13 KCAL/MOL
REMARK 922        TOTAL FREE ENERGY PREDICTED BY IDOCK:    0.58 KCAL/MOL
REMARK 923 INTER-LIGAND FREE ENERGY PREDICTED BY IDOCK:    2.20 KCAL/MOL
REMARK 924 INTRA-LIGAND FREE ENERGY PREDICTED BY IDOCK:   -1.62 KCAL/MOL
REMARK 927      BINDING AFFINITY PREDICTED BY RF-SCORE:    0.00 PKD
ROOT
HETATM    1  C   UNL     1      -9.485  10.279  66.192  1.00  0.00    -0.229 C  
HETATM    2  C   UNL     1      -9.332  10.780  64.868  1.00  0.00    -0.261 C  
HETATM    3  C   UNL     1      -7.991  10.608  65.528  1.00  0.00    -0.116 C  
HETATM    4  C   UNL     1      -8.203   9.499  67.217  1.00  0.00    -0.114 C  
HETATM    5  O   UNL     1      -7.383   8.753  68.124  1.00  0.00    -0.085 OA 
HETATM    6  C   UNL     1      -8.206   8.881  65.990  1.00  0.00    -0.117 C  
HETATM    7  C   UNL     1      -6.393   9.173  66.128  1.00  0.00    -0.064 C  
HETATM    8  C   UNL     1      -8.688   7.536  65.579  1.00  0.00    -0.062 C  
HETATM    9  H   UNL     1      -7.482   8.234  68.913  1.00  0.00     0.000 HD 
HETATM   10  C   UNL     1      -6.007  10.546  67.203  1.00  0.00    -0.054 C  
HETATM   11  C   UNL     1      -7.120  11.788  67.585  1.00  0.00    -0.107 C  
HETATM   12  C   UNL     1      -6.805  12.741  68.743  1.00  0.00    -0.096 A  
HETATM   13  C   UNL     1      -5.480  12.897  69.193  1.00  0.00    -0.071 A  
HETATM   14  C   UNL     1      -5.131  13.903  70.100  1.00  0.00    -0.091 A  
HETATM   15  C   UNL     1      -6.109  14.760  70.578  1.00  0.00    -0.142 A  
HETATM   16  C   UNL     1      -7.422  14.638  70.148  1.00  0.00     0.352 A  
HETATM   17  O   UNL     1      -5.819  15.759  71.460  1.00  0.00     0.424 OA 
HETATM   18  C   UNL     1      -7.783  13.659  69.203  1.00  0.00     0.182 A  
HETATM   19  H   UNL     1      -6.489  16.347  71.788  1.00  0.00     0.000 HD 
HETATM   20  C   UNL     1      -9.228  13.651  68.734  1.00  0.00     0.046 C  
HETATM   21  C   UNL     1      -9.487  13.004  67.353  1.00  0.00    -0.210 C  
HETATM   22  C   UNL     1      -8.863  11.591  67.427  1.00  0.00    -0.157 C  
ENDROOT
BRANCH  21  23
HETATM   23  C   UNL     1      -8.914  13.871  66.213  1.00  0.00     0.081 C  
BRANCH  23  24
HETATM   24  C   UNL     1      -8.417  15.252  66.599  1.00  0.00    -0.264 C  
BRANCH  24  25
HETATM   25  C   UNL     1      -9.204  16.337  65.847  1.00  0.00    -0.268 C  
BRANCH  25  26
HETATM   26  C   UNL     1     -10.195  15.799  64.800  1.00  0.00     0.260 C  
BRANCH  26  27
HETATM   27  C   UNL     1     -11.594  16.408  64.898  1.00  0.00     0.187 C  
BRANCH  27  28
HETATM   28  C   UNL     1     -11.610  17.652  65.788  1.00  0.00     2.036 C  
BRANCH  28  29
HETATM   29  C   UNL     1     -10.915  18.859  65.156  1.00  0.00     0.926 C  
BRANCH  29  30
HETATM   30  C   UNL     1     -10.496  19.959  66.144  1.00  0.00    -0.581 C  
BRANCH  30  31
HETATM   31  C   UNL     1     -10.927  19.738  67.587  1.00  0.00    -0.096 C  
BRANCH  31  32
HETATM   32  S   UNL     1      -9.884  18.511  68.440  1.00  0.00    -0.387 S  
HETATM   33  O   UNL     1      -8.470  19.012  68.380  1.00  0.00    -0.322 OA 
BRANCH  32  34
HETATM   34  C   UNL     1     -10.488  18.815  70.131  1.00  0.00     1.563 C  
BRANCH  34  35
HETATM   35  C   UNL     1     -10.464  17.548  70.981  1.00  0.00     2.307 C  
BRANCH  35  36
HETATM   36  C   UNL     1     -11.390  16.474  70.413  1.00  0.00    -0.076 C  
BRANCH  36  37
HETATM   37  C   UNL     1     -11.870  15.473  71.462  1.00  0.00    -0.406 C  
HETATM   38  F   UNL     1     -11.171  14.312  71.302  1.00  0.00    -0.122 F  
HETATM   39  C   UNL     1     -13.382  15.208  71.437  1.00  0.00    -0.467 C  
HETATM   40  F   UNL     1     -11.495  15.958  72.683  1.00  0.00    -0.498 F  
HETATM   41  F   UNL     1     -14.038  16.019  70.580  1.00  0.00     0.145 F  
HETATM   42  F   UNL     1     -13.647  13.930  71.076  1.00  0.00    -0.331 F  
HETATM   43  F   UNL     1     -13.947  15.392  72.657  1.00  0.00    -0.513 F  
ENDBRANCH  36  37
ENDBRANCH  35  36
ENDBRANCH  34  35
ENDBRANCH  32  34
ENDBRANCH  31  32
ENDBRANCH  30  31
ENDBRANCH  29  30
ENDBRANCH  28  29
ENDBRANCH  27  28
ENDBRANCH  26  27
ENDBRANCH  25  26
ENDBRANCH  24  25
ENDBRANCH  23  24
ENDBRANCH  21  23
TORSDOF 14
ENDMDL
MODEL      288
REMARK 921   NORMALIZED FREE ENERGY PREDICTED BY IDOCK:    3.37 KCAL/MOL
REMARK 922        TOTAL FREE ENERGY PREDICTED BY IDOCK:    2.83 KCAL/MOL
REMARK 923 INTER-LIGAND FREE ENERGY PREDICTED BY IDOCK:    3.45 KCAL/MOL
REMARK 924 INTRA-LIGAND FREE ENERGY PREDICTED BY IDOCK:   -0.61 KCAL/MOL
REMARK 927      BINDING AFFINITY PREDICTED BY RF-SCORE:    0.00 PKD
ROOT
HETATM    1  C   UNL     1     -11.243  12.007  70.359  1.00  0.00     0.667 C  
HETATM    2  C   UNL     1      -9.966  12.612  70.530  1.00  0.00     4.955 C  
HETATM    3  C   UNL     1     -10.143  12.138  69.113  1.00  0.00     0.220 C  
HETATM    4  C   UNL     1     -12.097  11.690  68.787  1.00  0.00    -0.159 C  
HETATM    5  O   UNL     1     -12.981  11.473  67.681  1.00  0.00     2.331 OA 
HETATM    6  C   UNL     1     -11.692  13.002  68.797  1.00  0.00    -0.363 C  
HETATM    7  C   UNL     1     -11.065  12.549  67.124  1.00  0.00    -0.321 C  
HETATM    8  C   UNL     1     -12.467  14.260  68.957  1.00  0.00     0.025 C  
HETATM    9  H   UNL     1     -13.895  11.263  67.528  1.00  0.00     0.000 HD 
HETATM   10  C   UNL     1     -10.746  10.799  66.971  1.00  0.00    -0.320 C  
HETATM   11  C   UNL     1     -10.478   9.767  68.308  1.00  0.00    -0.255 C  
HETATM   12  C   UNL     1     -10.520   8.249  68.099  1.00  0.00    -0.226 A  
HETATM   13  C   UNL     1     -10.337   7.706  66.814  1.00  0.00    -0.343 A  
HETATM   14  C   UNL     1     -10.164   6.331  66.620  1.00  0.00    -0.226 A  
HETATM   15  C   UNL     1     -10.184   5.480  67.714  1.00  0.00    -0.188 A  
HETATM   16  C   UNL     1     -10.354   5.986  68.995  1.00  0.00    -0.283 A  
HETATM   17  O   UNL     1     -10.016   4.134  67.579  1.00  0.00    -0.133 OA 
HETATM   18  C   UNL     1     -10.486   7.371  69.211  1.00  0.00    -0.222 A  
HETATM   19  H   UNL     1     -10.030   3.550  68.328  1.00  0.00     0.000 HD 
HETATM   20  C   UNL     1     -10.590   7.837  70.653  1.00  0.00    -0.222 C  
HETATM   21  C   UNL     1     -10.173   9.303  70.921  1.00  0.00    -0.371 C  
HETATM   22  C   UNL     1     -11.006  10.163  69.941  1.00  0.00    -0.344 C  
ENDROOT
BRANCH  21  23
HETATM   23  C   UNL     1      -8.650   9.489  70.762  1.00  0.00    -0.096 C  
BRANCH  23  24
HETATM   24  C   UNL     1      -8.102   9.404  69.349  1.00  0.00    -0.105 C  
BRANCH  24  25
HETATM   25  C   UNL     1      -6.576   9.228  69.373  1.00  0.00    -0.044 C  
BRANCH  25  26
HETATM   26  C   UNL     1      -6.009   8.398  68.209  1.00  0.00    -0.046 C  
BRANCH  26  27
HETATM   27  C   UNL     1      -6.545   6.967  68.147  1.00  0.00    -0.055 C  
BRANCH  27  28
HETATM   28  C   UNL     1      -6.793   6.393  69.542  1.00  0.00    -0.065 C  
BRANCH  28  29
HETATM   29  C   UNL     1      -5.611   6.583  70.495  1.00  0.00    -0.019 C  
BRANCH  29  30
HETATM   30  C   UNL     1      -5.842   7.601  71.623  1.00  0.00    -0.035 C  
BRANCH  30  31
HETATM   31  C   UNL     1      -6.787   7.148  72.727  1.00  0.00    -0.068 C  
BRANCH  31  32
HETATM   32  S   UNL     1      -6.342   5.508  73.386  1.00  0.00    -0.067 S  
HETATM   33  O   UNL     1      -5.212   5.709  74.352  1.00  0.00    -0.026 OA 
BRANCH  32  34
HETATM   34  C   UNL     1      -7.847   5.228  74.374  1.00  0.00    -0.095 C  
BRANCH  34  35
HETATM   35  C   UNL     1      -9.113   5.356  73.533  1.00  0.00    -0.128 C  
BRANCH  35  36
HETATM   36  C   UNL     1      -9.260   4.189  72.559  1.00  0.00    -0.146 C  
BRANCH  36  37
HETATM   37  C   UNL     1     -10.710   3.761  72.342  1.00  0.00     0.109 C  
HETATM   38  F   UNL     1     -11.523   4.793  72.710  1.00  0.00    -0.278 F  
HETATM   39  C   UNL     1     -11.105   2.469  73.072  1.00  0.00    -0.015 C  
HETATM   40  F   UNL     1     -10.891   3.618  70.995  1.00  0.00     0.552 F  
HETATM   41  F   UNL     1     -10.052   1.864  73.663  1.00  0.00    -0.104 F  
HETATM   42  F   UNL     1     -12.028   2.713  74.031  1.00  0.00    -0.056 F  
HETATM   43  F   UNL     1     -11.653   1.560  72.227  1.00  0.00     0.012 F  
ENDBRANCH  36  37
ENDBRANCH  35  36
ENDBRANCH  34  35
ENDBRANCH  32  34
ENDBRANCH  31  32
ENDBRANCH  30  31
ENDBRANCH  29  30
ENDBRANCH  28  29
ENDBRANCH  27  28
ENDBRANCH  26  27
ENDBRANCH  25  26
ENDBRANCH  24  25
ENDBRANCH  23  24
ENDBRANCH  21  23
TORSDOF 14
ENDMDL
MODEL      289
REMARK 921   NORMALIZED FREE ENERGY PREDICTED BY IDOCK:    4.22 KCAL/MOL
REMARK 922        TOTAL FREE ENERGY PREDICTED BY IDOCK:    4.39 KCAL/MOL
REMARK 923 INTER-LIGAND FREE ENERGY PREDICTED BY IDOCK:    0.28 KCAL/MOL
REMARK 924 INTRA-LIGAND FREE ENERGY PREDICTED BY IDOCK:    4.11 KCAL/MOL
REMARK 927      BINDING AFFINITY PREDICTED BY RF-SCORE:    0.00 PKD
ROOT
HETATM    1  C   UNL     1      -8.370  14.561  69.956  1.00  0.00     0.834 C  
HETATM    2  C   UNL     1      -8.144  13.376  69.202  1.00  0.00     0.414 C  
HETATM    3  C   UNL     1      -6.940  14.277  69.148  1.00  0.00    -0.118 C  
HETATM    4  C   UNL     1      -7.112  15.725  70.563  1.00  0.00     0.982 C  
HETATM    5  O   UNL     1      -6.281  16.681  71.230  1.00  0.00     1.147 OA 
HETATM    6  C   UNL     1      -6.734  14.456  70.928  1.00  0.00     0.446 C  
HETATM    7  C   UNL     1      -5.127  15.011  70.220  1.00  0.00    -0.110 C  
HETATM    8  C   UNL     1      -6.741  13.782  72.253  1.00  0.00     2.955 C  
HETATM    9  H   UNL     1      -6.361  17.357  71.892  1.00  0.00     0.000 HD 
HETATM   10  C   UNL     1      -5.331  16.312  69.013  1.00  0.00    -0.110 C  
HETATM   11  C   UNL     1      -6.797  16.606  68.181  1.00  0.00    -0.149 C  
HETATM   12  C   UNL     1      -6.963  17.919  67.406  1.00  0.00    -0.200 A  
HETATM   13  C   UNL     1      -5.832  18.654  67.006  1.00  0.00    -0.162 A  
HETATM   14  C   UNL     1      -5.938  19.737  66.127  1.00  0.00    -0.183 A  
HETATM   15  C   UNL     1      -7.184  20.104  65.644  1.00  0.00    -0.280 A  
HETATM   16  C   UNL     1      -8.317  19.394  66.012  1.00  0.00    -0.230 A  
HETATM   17  O   UNL     1      -7.340  21.149  64.782  1.00  0.00    -0.178 OA 
HETATM   18  C   UNL     1      -8.223  18.275  66.863  1.00  0.00    -0.260 A  
HETATM   19  H   UNL     1      -8.194  21.401  64.451  1.00  0.00     0.000 HD 
HETATM   20  C   UNL     1      -9.507  17.515  67.147  1.00  0.00    -0.259 C  
HETATM   21  C   UNL     1      -9.336  16.038  67.577  1.00  0.00    -0.217 C  
HETATM   22  C   UNL     1      -8.361  16.059  68.778  1.00  0.00    -0.216 C  
ENDROOT
BRANCH  21  23
HETATM   23  C   UNL     1      -8.846  15.167  66.401  1.00  0.00    -0.277 C  
BRANCH  23  24
HETATM   24  C   UNL     1      -8.774  13.672  66.652  1.00  0.00    -0.018 C  
BRANCH  24  25
HETATM   25  C   UNL     1      -9.925  12.950  65.935  1.00  0.00    -0.273 C  
BRANCH  25  26
HETATM   26  C   UNL     1     -10.822  13.863  65.082  1.00  0.00    -0.364 C  
BRANCH  26  27
HETATM   27  C   UNL     1     -11.653  13.119  64.037  1.00  0.00    -0.481 C  
BRANCH  27  28
HETATM   28  C   UNL     1     -12.116  11.753  64.548  1.00  0.00    -0.156 C  
BRANCH  28  29
HETATM   29  C   UNL     1     -11.795  11.519  66.026  1.00  0.00     0.384 C  
BRANCH  29  30
HETATM   30  C   UNL     1     -10.445  10.839  66.298  1.00  0.00    -0.287 C  
BRANCH  30  31
HETATM   31  C   UNL     1     -10.393   9.348  65.997  1.00  0.00    -0.011 C  
BRANCH  31  32
HETATM   32  S   UNL     1      -9.177   8.475  67.037  1.00  0.00    -0.160 S  
HETATM   33  O   UNL     1      -8.029   9.414  67.261  1.00  0.00    -0.105 OA 
BRANCH  32  34
HETATM   34  C   UNL     1     -10.152   8.444  68.575  1.00  0.00    -0.197 C  
BRANCH  34  35
HETATM   35  C   UNL     1     -11.219   7.354  68.551  1.00  0.00     0.261 C  
BRANCH  35  36
HETATM   36  C   UNL     1     -11.334   6.652  69.903  1.00  0.00    -0.422 C  
BRANCH  36  37
HETATM   37  C   UNL     1     -11.923   7.539  70.998  1.00  0.00    -0.290 C  
HETATM   38  F   UNL     1     -12.097   8.793  70.489  1.00  0.00    -0.218 F  
HETATM   39  C   UNL     1     -11.094   7.584  72.290  1.00  0.00    -0.273 C  
HETATM   40  F   UNL     1     -13.182   7.075  71.259  1.00  0.00    -0.411 F  
HETATM   41  F   UNL     1     -10.062   6.714  72.275  1.00  0.00    -0.174 F  
HETATM   42  F   UNL     1     -10.585   8.820  72.500  1.00  0.00    -0.389 F  
HETATM   43  F   UNL     1     -11.843   7.282  73.380  1.00  0.00     0.032 F  
ENDBRANCH  36  37
ENDBRANCH  35  36
ENDBRANCH  34  35
ENDBRANCH  32  34
ENDBRANCH  31  32
ENDBRANCH  30  31
ENDBRANCH  29  30
ENDBRANCH  28  29
ENDBRANCH  27  28
ENDBRANCH  26  27
ENDBRANCH  25  26
ENDBRANCH  24  25
ENDBRANCH  23  24
ENDBRANCH  21  23
TORSDOF 14
ENDMDL
MODEL      290
REMARK 921   NORMALIZED FREE ENERGY PREDICTED BY IDOCK:    4.35 KCAL/MOL
REMARK 922        TOTAL FREE ENERGY PREDICTED BY IDOCK:    4.63 KCAL/MOL
REMARK 923 INTER-LIGAND FREE ENERGY PREDICTED BY IDOCK:    2.70 KCAL/MOL
REMARK 924 INTRA-LIGAND FREE ENERGY PREDICTED BY IDOCK:    1.93 KCAL/MOL
REMARK 927      BINDING AFFINITY PREDICTED BY RF-SCORE:    0.00 PKD
ROOT
HETATM    1  C   UNL     1      -9.033   6.019  66.374  1.00  0.00    -0.150 C  
HETATM    2  C   UNL     1      -7.924   5.842  67.249  1.00  0.00    -0.102 C  
HETATM    3  C   UNL     1      -9.141   6.280  68.018  1.00  0.00    -0.112 C  
HETATM    4  C   UNL     1     -10.787   6.101  66.841  1.00  0.00    -0.335 C  
HETATM    5  O   UNL     1     -12.212   6.063  66.983  1.00  0.00     1.534 OA 
HETATM    6  C   UNL     1     -10.240   4.983  67.423  1.00  0.00    -0.201 C  
HETATM    7  C   UNL     1     -11.088   5.662  68.911  1.00  0.00     0.021 C  
HETATM    8  C   UNL     1     -10.399   3.541  67.101  1.00  0.00     1.343 C  
HETATM    9  H   UNL     1     -12.981   5.979  66.433  1.00  0.00     0.000 HD 
HETATM   10  C   UNL     1     -11.334   7.428  68.805  1.00  0.00     0.371 C  
HETATM   11  C   UNL     1     -10.414   8.449  67.787  1.00  0.00    -0.284 C  
HETATM   12  C   UNL     1     -10.897   9.883  67.536  1.00  0.00    -0.307 A  
HETATM   13  C   UNL     1     -11.791  10.496  68.434  1.00  0.00     0.056 A  
HETATM   14  C   UNL     1     -12.088  11.861  68.351  1.00  0.00    -0.086 A  
HETATM   15  C   UNL     1     -11.500  12.628  67.357  1.00  0.00    -0.337 A  
HETATM   16  C   UNL     1     -10.608  12.054  66.462  1.00  0.00    -0.269 A  
HETATM   17  O   UNL     1     -11.753  13.962  67.236  1.00  0.00    -0.342 OA 
HETATM   18  C   UNL     1     -10.266  10.692  66.559  1.00  0.00    -0.288 A  
HETATM   19  H   UNL     1     -11.351  14.488  66.555  1.00  0.00     0.000 HD 
HETATM   20  C   UNL     1      -9.223  10.172  65.584  1.00  0.00    -0.232 C  
HETATM   21  C   UNL     1      -8.455   8.904  66.029  1.00  0.00    -0.138 C  
HETATM   22  C   UNL     1      -9.539   7.857  66.378  1.00  0.00    -0.251 C  
ENDROOT
BRANCH  21  23
HETATM   23  C   UNL     1      -7.497   9.212  67.198  1.00  0.00    -0.087 C  
BRANCH  23  24
HETATM   24  C   UNL     1      -7.022  10.648  67.322  1.00  0.00    -0.084 C  
BRANCH  24  25
HETATM   25  C   UNL     1      -5.702  10.712  68.105  1.00  0.00    -0.042 C  
BRANCH  25  26
HETATM   26  C   UNL     1      -5.833  10.413  69.609  1.00  0.00    -0.045 C  
BRANCH  26  27
HETATM   27  C   UNL     1      -5.134  11.431  70.509  1.00  0.00    -0.096 C  
BRANCH  27  28
HETATM   28  C   UNL     1      -6.110  12.095  71.481  1.00  0.00     1.510 C  
BRANCH  28  29
HETATM   29  C   UNL     1      -6.150  11.420  72.854  1.00  0.00     3.053 C  
BRANCH  29  30
HETATM   30  C   UNL     1      -5.144  10.274  73.045  1.00  0.00     0.115 C  
BRANCH  30  31
HETATM   31  C   UNL     1      -5.401   9.034  72.200  1.00  0.00    -0.060 C  
BRANCH  31  32
HETATM   32  S   UNL     1      -7.018   9.092  71.362  1.00  0.00     0.048 S  
HETATM   33  O   UNL     1      -7.209   7.772  70.673  1.00  0.00    -0.059 OA 
BRANCH  32  34
HETATM   34  C   UNL     1      -8.064   9.075  72.852  1.00  0.00     0.774 C  
BRANCH  34  35
HETATM   35  C   UNL     1      -8.488   7.661  73.235  1.00  0.00    -0.208 C  
BRANCH  35  36
HETATM   36  C   UNL     1      -9.973   7.595  73.589  1.00  0.00    -0.288 C  
BRANCH  36  37
HETATM   37  C   UNL     1     -10.782   6.708  72.645  1.00  0.00    -0.235 C  
HETATM   38  F   UNL     1     -12.007   7.280  72.461  1.00  0.00    -0.285 F  
HETATM   39  C   UNL     1     -10.923   5.252  73.111  1.00  0.00    -0.305 C  
HETATM   40  F   UNL     1     -10.171   6.757  71.423  1.00  0.00    -0.199 F  
HETATM   41  F   UNL     1     -10.181   4.983  74.207  1.00  0.00    -0.182 F  
HETATM   42  F   UNL     1     -12.211   4.957  73.405  1.00  0.00    -0.271 F  
HETATM   43  F   UNL     1     -10.532   4.376  72.152  1.00  0.00    -0.245 F  
ENDBRANCH  36  37
ENDBRANCH  35  36
ENDBRANCH  34  35
ENDBRANCH  32  34
ENDBRANCH  31  32
ENDBRANCH  30  31
ENDBRANCH  29  30
ENDBRANCH  28  29
ENDBRANCH  27  28
ENDBRANCH  26  27
ENDBRANCH  25  26
ENDBRANCH  24  25
ENDBRANCH  23  24
ENDBRANCH  21  23
TORSDOF 14
ENDMDL
MODEL      291
REMARK 921   NORMALIZED FREE ENERGY PREDICTED BY IDOCK:    4.50 KCAL/MOL
REMARK 922        TOTAL FREE ENERGY PREDICTED BY IDOCK:    4.90 KCAL/MOL
REMARK 923 INTER-LIGAND FREE ENERGY PREDICTED BY IDOCK:    0.93 KCAL/MOL
REMARK 924 INTRA-LIGAND FREE ENERGY PREDICTED BY IDOCK:    3.97 KCAL/MOL
REMARK 927      BINDING AFFINITY PREDICTED BY RF-SCORE:    0.00 PKD
ROOT
HETATM    1  C   UNL     1      -8.375  14.303  69.698  1.00  0.00     0.600 C  
HETATM    2  C   UNL     1      -8.175  13.153  68.882  1.00  0.00     0.223 C  
HETATM    3  C   UNL     1      -6.975  14.058  68.827  1.00  0.00    -0.106 C  
HETATM    4  C   UNL     1      -7.097  15.440  70.311  1.00  0.00     0.245 C  
HETATM    5  O   UNL     1      -6.243  16.366  70.991  1.00  0.00     0.668 OA 
HETATM    6  C   UNL     1      -6.706  14.157  70.605  1.00  0.00     0.301 C  
HETATM    7  C   UNL     1      -5.125  14.746  69.865  1.00  0.00    -0.093 C  
HETATM    8  C   UNL     1      -6.665  13.423  71.897  1.00  0.00     3.310 C  
HETATM    9  H   UNL     1      -6.299  17.012  71.684  1.00  0.00     0.000 HD 
HETATM   10  C   UNL     1      -5.372  16.100  68.727  1.00  0.00    -0.111 C  
HETATM   11  C   UNL     1      -6.867  16.428  67.962  1.00  0.00    -0.147 C  
HETATM   12  C   UNL     1      -7.061  17.774  67.253  1.00  0.00    -0.201 A  
HETATM   13  C   UNL     1      -5.945  18.529  66.847  1.00  0.00    -0.171 A  
HETATM   14  C   UNL     1      -6.083  19.651  66.022  1.00  0.00    -0.191 A  
HETATM   15  C   UNL     1      -7.345  20.037  65.601  1.00  0.00    -0.291 A  
HETATM   16  C   UNL     1      -8.465  19.308  65.977  1.00  0.00    -0.174 A  
HETATM   17  O   UNL     1      -7.533  21.119  64.793  1.00  0.00    -0.038 OA 
HETATM   18  C   UNL     1      -8.340  18.153  66.772  1.00  0.00    -0.270 A  
HETATM   19  H   UNL     1      -8.398  21.384  64.505  1.00  0.00     0.000 HD 
HETATM   20  C   UNL     1      -9.612  17.378  67.068  1.00  0.00    -0.273 C  
HETATM   21  C   UNL     1      -9.426  15.883  67.423  1.00  0.00    -0.220 C  
HETATM   22  C   UNL     1      -8.408  15.852  68.588  1.00  0.00    -0.195 C  
ENDROOT
BRANCH  21  23
HETATM   23  C   UNL     1      -8.978  15.067  66.193  1.00  0.00    -0.158 C  
BRANCH  23  24
HETATM   24  C   UNL     1      -8.851  13.568  66.387  1.00  0.00     0.108 C  
BRANCH  24  25
HETATM   25  C   UNL     1     -10.010  12.835  65.694  1.00  0.00    -0.249 C  
BRANCH  25  26
HETATM   26  C   UNL     1     -10.962  13.747  64.901  1.00  0.00    -0.378 C  
BRANCH  26  27
HETATM   27  C   UNL     1     -11.812  13.010  63.866  1.00  0.00    -0.542 C  
BRANCH  27  28
HETATM   28  C   UNL     1     -12.216  11.617  64.352  1.00  0.00    -0.029 C  
BRANCH  28  29
HETATM   29  C   UNL     1     -11.854  11.358  65.816  1.00  0.00     0.584 C  
BRANCH  29  30
HETATM   30  C   UNL     1     -10.473  10.724  66.041  1.00  0.00    -0.273 C  
BRANCH  30  31
HETATM   31  C   UNL     1     -10.458   9.204  66.122  1.00  0.00     0.182 C  
BRANCH  31  32
HETATM   32  S   UNL     1      -9.077   8.580  67.136  1.00  0.00    -0.144 S  
HETATM   33  O   UNL     1      -7.925   9.523  66.946  1.00  0.00    -0.108 OA 
BRANCH  32  34
HETATM   34  C   UNL     1      -9.797   8.936  68.770  1.00  0.00    -0.173 C  
BRANCH  34  35
HETATM   35  C   UNL     1      -9.240   8.016  69.851  1.00  0.00    -0.152 C  
BRANCH  35  36
HETATM   36  C   UNL     1      -8.190   7.059  69.288  1.00  0.00    -0.125 C  
BRANCH  36  37
HETATM   37  C   UNL     1      -8.240   5.668  69.916  1.00  0.00    -0.109 C  
HETATM   38  F   UNL     1      -9.164   5.682  70.920  1.00  0.00    -0.150 F  
HETATM   39  C   UNL     1      -6.886   5.157  70.429  1.00  0.00    -0.044 C  
HETATM   40  F   UNL     1      -8.741   4.817  68.972  1.00  0.00    -0.086 F  
HETATM   41  F   UNL     1      -5.863   5.976  70.101  1.00  0.00    -0.015 F  
HETATM   42  F   UNL     1      -6.891   5.028  71.776  1.00  0.00    -0.044 F  
HETATM   43  F   UNL     1      -6.584   3.935  69.922  1.00  0.00    -0.030 F  
ENDBRANCH  36  37
ENDBRANCH  35  36
ENDBRANCH  34  35
ENDBRANCH  32  34
ENDBRANCH  31  32
ENDBRANCH  30  31
ENDBRANCH  29  30
ENDBRANCH  28  29
ENDBRANCH  27  28
ENDBRANCH  26  27
ENDBRANCH  25  26
ENDBRANCH  24  25
ENDBRANCH  23  24
ENDBRANCH  21  23
TORSDOF 14
ENDMDL
MODEL      292
REMARK 921   NORMALIZED FREE ENERGY PREDICTED BY IDOCK:    4.56 KCAL/MOL
REMARK 922        TOTAL FREE ENERGY PREDICTED BY IDOCK:    5.01 KCAL/MOL
REMARK 923 INTER-LIGAND FREE ENERGY PREDICTED BY IDOCK:    1.86 KCAL/MOL
REMARK 924 INTRA-LIGAND FREE ENERGY PREDICTED BY IDOCK:    3.14 KCAL/MOL
REMARK 927      BINDING AFFINITY PREDICTED BY RF-SCORE:    0.00 PKD
ROOT
HETATM    1  C   UNL     1      -8.369  14.562  69.956  1.00  0.00     0.834 C  
HETATM    2  C   UNL     1      -8.143  13.376  69.202  1.00  0.00     0.414 C  
HETATM    3  C   UNL     1      -6.940  14.277  69.145  1.00  0.00    -0.118 C  
HETATM    4  C   UNL     1      -7.110  15.727  70.558  1.00  0.00     0.982 C  
HETATM    5  O   UNL     1      -6.278  16.684  71.222  1.00  0.00     1.147 OA 
HETATM    6  C   UNL     1      -6.730  14.458  70.924  1.00  0.00     0.446 C  
HETATM    7  C   UNL     1      -5.125  15.014  70.211  1.00  0.00    -0.110 C  
HETATM    8  C   UNL     1      -6.733  13.786  72.250  1.00  0.00     2.955 C  
HETATM    9  H   UNL     1      -6.357  17.361  71.883  1.00  0.00     0.000 HD 
HETATM   10  C   UNL     1      -5.333  16.313  69.004  1.00  0.00    -0.110 C  
HETATM   11  C   UNL     1      -6.800  16.605  68.174  1.00  0.00    -0.149 C  
HETATM   12  C   UNL     1      -6.970  17.917  67.398  1.00  0.00    -0.200 A  
HETATM   13  C   UNL     1      -5.839  18.653  66.995  1.00  0.00    -0.162 A  
HETATM   14  C   UNL     1      -5.948  19.735  66.115  1.00  0.00    -0.183 A  
HETATM   15  C   UNL     1      -7.196  20.100  65.635  1.00  0.00    -0.280 A  
HETATM   16  C   UNL     1      -8.328  19.390  66.006  1.00  0.00    -0.230 A  
HETATM   17  O   UNL     1      -7.355  21.144  64.772  1.00  0.00    -0.178 OA 
HETATM   18  C   UNL     1      -8.231  18.272  66.858  1.00  0.00    -0.260 A  
HETATM   19  H   UNL     1      -8.209  21.395  64.443  1.00  0.00     0.000 HD 
HETATM   20  C   UNL     1      -9.513  17.511  67.146  1.00  0.00    -0.259 C  
HETATM   21  C   UNL     1      -9.341  16.035  67.577  1.00  0.00    -0.217 C  
HETATM   22  C   UNL     1      -8.363  16.058  68.775  1.00  0.00    -0.216 C  
ENDROOT
BRANCH  21  23
HETATM   23  C   UNL     1      -8.854  15.163  66.402  1.00  0.00    -0.277 C  
BRANCH  23  24
HETATM   24  C   UNL     1      -8.776  13.669  66.655  1.00  0.00    -0.018 C  
BRANCH  24  25
HETATM   25  C   UNL     1      -9.930  12.942  65.948  1.00  0.00    -0.273 C  
BRANCH  25  26
HETATM   26  C   UNL     1     -10.835  13.851  65.099  1.00  0.00    -0.364 C  
BRANCH  26  27
HETATM   27  C   UNL     1     -11.674  13.102  64.064  1.00  0.00    -0.496 C  
BRANCH  27  28
HETATM   28  C   UNL     1     -12.128  11.736  64.582  1.00  0.00    -0.104 C  
BRANCH  28  29
HETATM   29  C   UNL     1     -11.790  11.505  66.056  1.00  0.00     0.384 C  
BRANCH  29  30
HETATM   30  C   UNL     1     -10.435  10.826  66.313  1.00  0.00    -0.287 C  
BRANCH  30  31
HETATM   31  C   UNL     1     -10.386   9.334  66.015  1.00  0.00     0.061 C  
BRANCH  31  32
HETATM   32  S   UNL     1      -9.153   8.466  67.039  1.00  0.00    -0.150 S  
HETATM   33  O   UNL     1      -8.001   9.407  67.241  1.00  0.00    -0.105 OA 
BRANCH  32  34
HETATM   34  C   UNL     1     -10.103   8.440  68.593  1.00  0.00    -0.193 C  
BRANCH  34  35
HETATM   35  C   UNL     1     -10.223   9.829  69.210  1.00  0.00    -0.216 C  
BRANCH  35  36
HETATM   36  C   UNL     1     -11.617  10.069  69.787  1.00  0.00    -0.193 C  
BRANCH  36  37
HETATM   37  C   UNL     1     -12.116  11.499  69.591  1.00  0.00    -0.296 C  
HETATM   38  F   UNL     1     -11.111  12.233  69.031  1.00  0.00    -0.245 F  
HETATM   39  C   UNL     1     -12.632  12.170  70.873  1.00  0.00    -0.247 C  
HETATM   40  F   UNL     1     -13.105  11.456  68.649  1.00  0.00     0.877 F  
HETATM   41  F   UNL     1     -12.683  11.319  71.920  1.00  0.00    -0.466 F  
HETATM   42  F   UNL     1     -11.844  13.211  71.229  1.00  0.00    -0.204 F  
HETATM   43  F   UNL     1     -13.884  12.667  70.713  1.00  0.00     0.573 F  
ENDBRANCH  36  37
ENDBRANCH  35  36
ENDBRANCH  34  35
ENDBRANCH  32  34
ENDBRANCH  31  32
ENDBRANCH  30  31
ENDBRANCH  29  30
ENDBRANCH  28  29
ENDBRANCH  27  28
ENDBRANCH  26  27
ENDBRANCH  25  26
ENDBRANCH  24  25
ENDBRANCH  23  24
ENDBRANCH  21  23
TORSDOF 14
ENDMDL
MODEL      293
REMARK 921   NORMALIZED FREE ENERGY PREDICTED BY IDOCK:    4.83 KCAL/MOL
REMARK 922        TOTAL FREE ENERGY PREDICTED BY IDOCK:    5.49 KCAL/MOL
REMARK 923 INTER-LIGAND FREE ENERGY PREDICTED BY IDOCK:    2.07 KCAL/MOL
REMARK 924 INTRA-LIGAND FREE ENERGY PREDICTED BY IDOCK:    3.42 KCAL/MOL
REMARK 927      BINDING AFFINITY PREDICTED BY RF-SCORE:    0.00 PKD
ROOT
HETATM    1  C   UNL     1      -8.400  14.549  69.966  1.00  0.00     0.834 C  
HETATM    2  C   UNL     1      -8.292  13.327  69.244  1.00  0.00     0.731 C  
HETATM    3  C   UNL     1      -7.014  14.115  69.146  1.00  0.00    -0.111 C  
HETATM    4  C   UNL     1      -7.033  15.612  70.519  1.00  0.00     0.716 C  
HETATM    5  O   UNL     1      -6.109  16.509  71.145  1.00  0.00     0.680 OA 
HETATM    6  C   UNL     1      -6.764  14.326  70.917  1.00  0.00     0.486 C  
HETATM    7  C   UNL     1      -5.126  14.714  70.169  1.00  0.00    -0.091 C  
HETATM    8  C   UNL     1      -6.808  13.693  72.262  1.00  0.00     3.810 C  
HETATM    9  H   UNL     1      -6.118  17.209  71.787  1.00  0.00     0.000 HD 
HETATM   10  C   UNL     1      -5.233  15.992  68.927  1.00  0.00    -0.107 C  
HETATM   11  C   UNL     1      -6.681  16.393  68.107  1.00  0.00    -0.138 C  
HETATM   12  C   UNL     1      -6.743  17.692  67.295  1.00  0.00    -0.184 A  
HETATM   13  C   UNL     1      -5.557  18.311  66.858  1.00  0.00    -0.159 A  
HETATM   14  C   UNL     1      -5.581  19.374  65.948  1.00  0.00    -0.174 A  
HETATM   15  C   UNL     1      -6.798  19.837  65.472  1.00  0.00    -0.298 A  
HETATM   16  C   UNL     1      -7.983  19.241  65.877  1.00  0.00    -0.159 A  
HETATM   17  O   UNL     1      -6.875  20.866  64.581  1.00  0.00    -0.530 OA 
HETATM   18  C   UNL     1      -7.975  18.144  66.760  1.00  0.00    -0.262 A  
HETATM   19  H   UNL     1      -7.708  21.184  64.255  1.00  0.00     0.000 HD 
HETATM   20  C   UNL     1      -9.316  17.510  67.085  1.00  0.00    -0.250 C  
HETATM   21  C   UNL     1      -9.270  16.037  67.557  1.00  0.00    -0.214 C  
HETATM   22  C   UNL     1      -8.277  16.005  68.742  1.00  0.00    -0.211 C  
ENDROOT
BRANCH  21  23
HETATM   23  C   UNL     1      -8.880  15.092  66.401  1.00  0.00    -0.238 C  
BRANCH  23  24
HETATM   24  C   UNL     1      -9.027  13.605  66.665  1.00  0.00    -0.138 C  
BRANCH  24  25
HETATM   25  C   UNL     1     -10.254  13.046  65.928  1.00  0.00    -0.298 C  
BRANCH  25  26
HETATM   26  C   UNL     1     -10.974  14.060  65.022  1.00  0.00    -0.379 C  
BRANCH  26  27
HETATM   27  C   UNL     1     -12.488  13.862  64.948  1.00  0.00    -0.420 C  
BRANCH  27  28
HETATM   28  C   UNL     1     -13.074  13.457  66.301  1.00  0.00     0.835 C  
BRANCH  28  29
HETATM   29  C   UNL     1     -12.054  13.501  67.441  1.00  0.00    -0.360 C  
BRANCH  29  30
HETATM   30  C   UNL     1     -11.353  12.166  67.737  1.00  0.00    -0.371 C  
BRANCH  30  31
HETATM   31  C   UNL     1     -12.200  11.130  68.462  1.00  0.00     0.134 C  
BRANCH  31  32
HETATM   32  S   UNL     1     -11.194  10.010  69.489  1.00  0.00    -0.174 S  
HETATM   33  O   UNL     1     -12.125   9.333  70.452  1.00  0.00    -0.094 OA 
BRANCH  32  34
HETATM   34  C   UNL     1     -10.786   8.796  68.195  1.00  0.00     0.022 C  
BRANCH  34  35
HETATM   35  C   UNL     1      -9.679   7.844  68.635  1.00  0.00    -0.162 C  
BRANCH  35  36
HETATM   36  C   UNL     1      -9.116   8.232  70.001  1.00  0.00    -0.150 C  
BRANCH  36  37
HETATM   37  C   UNL     1      -7.597   8.100  70.089  1.00  0.00    -0.077 C  
HETATM   38  F   UNL     1      -7.248   6.845  69.684  1.00  0.00    -0.070 F  
HETATM   39  C   UNL     1      -7.015   8.406  71.477  1.00  0.00    -0.075 C  
HETATM   40  F   UNL     1      -7.064   8.944  69.156  1.00  0.00    -0.058 F  
HETATM   41  F   UNL     1      -7.943   8.877  72.338  1.00  0.00    -0.129 F  
HETATM   42  F   UNL     1      -6.467   7.299  72.032  1.00  0.00    -0.043 F  
HETATM   43  F   UNL     1      -6.031   9.338  71.417  1.00  0.00    -0.055 F  
ENDBRANCH  36  37
ENDBRANCH  35  36
ENDBRANCH  34  35
ENDBRANCH  32  34
ENDBRANCH  31  32
ENDBRANCH  30  31
ENDBRANCH  29  30
ENDBRANCH  28  29
ENDBRANCH  27  28
ENDBRANCH  26  27
ENDBRANCH  25  26
ENDBRANCH  24  25
ENDBRANCH  23  24
ENDBRANCH  21  23
TORSDOF 14
ENDMDL
MODEL      294
REMARK 921   NORMALIZED FREE ENERGY PREDICTED BY IDOCK:    5.09 KCAL/MOL
REMARK 922        TOTAL FREE ENERGY PREDICTED BY IDOCK:    5.96 KCAL/MOL
REMARK 923 INTER-LIGAND FREE ENERGY PREDICTED BY IDOCK:    4.39 KCAL/MOL
REMARK 924 INTRA-LIGAND FREE ENERGY PREDICTED BY IDOCK:    1.57 KCAL/MOL
REMARK 927      BINDING AFFINITY PREDICTED BY RF-SCORE:    0.00 PKD
ROOT
HETATM    1  C   UNL     1      -8.178  19.552  69.492  1.00  0.00     0.220 C  
HETATM    2  C   UNL     1      -8.969  19.699  70.665  1.00  0.00     1.917 C  
HETATM    3  C   UNL     1      -7.844  18.728  70.903  1.00  0.00     3.958 C  
HETATM    4  C   UNL     1      -6.497  18.868  69.389  1.00  0.00    -0.269 C  
HETATM    5  O   UNL     1      -5.144  18.488  69.115  1.00  0.00    -0.186 OA 
HETATM    6  C   UNL     1      -6.513  19.821  70.378  1.00  0.00    -0.195 C  
HETATM    7  C   UNL     1      -5.668  18.483  71.321  1.00  0.00     0.199 C  
HETATM    8  C   UNL     1      -5.945  21.195  70.416  1.00  0.00     1.084 C  
HETATM    9  H   UNL     1      -4.514  18.553  68.408  1.00  0.00     0.000 HD 
HETATM   10  C   UNL     1      -6.055  16.859  70.687  1.00  0.00     0.554 C  
HETATM   11  C   UNL     1      -7.444  16.518  69.748  1.00  0.00     0.426 C  
HETATM   12  C   UNL     1      -7.528  15.182  68.999  1.00  0.00    -0.161 A  
HETATM   13  C   UNL     1      -6.735  14.092  69.404  1.00  0.00    -0.116 A  
HETATM   14  C   UNL     1      -6.935  12.810  68.880  1.00  0.00    -0.084 A  
HETATM   15  C   UNL     1      -7.928  12.606  67.936  1.00  0.00    -0.156 A  
HETATM   16  C   UNL     1      -8.733  13.659  67.523  1.00  0.00    -0.198 A  
HETATM   17  O   UNL     1      -8.166  11.376  67.399  1.00  0.00    -0.134 OA 
HETATM   18  C   UNL     1      -8.573  14.946  68.071  1.00  0.00    -0.160 A  
HETATM   19  H   UNL     1      -8.846  11.235  66.751  1.00  0.00     0.000 HD 
HETATM   20  C   UNL     1      -9.550  16.016  67.615  1.00  0.00    -0.218 C  
HETATM   21  C   UNL     1      -9.745  17.209  68.582  1.00  0.00    -0.293 C  
HETATM   22  C   UNL     1      -8.327  17.758  68.863  1.00  0.00    -0.135 C  
ENDROOT
BRANCH  21  23
HETATM   23  C   UNL     1     -10.503  16.778  69.854  1.00  0.00    -0.048 C  
BRANCH  23  24
HETATM   24  C   UNL     1     -11.684  15.846  69.655  1.00  0.00    -0.322 C  
BRANCH  24  25
HETATM   25  C   UNL     1     -12.818  16.198  70.629  1.00  0.00     0.680 C  
BRANCH  25  26
HETATM   26  C   UNL     1     -13.585  14.986  71.185  1.00  0.00    -0.493 C  
BRANCH  26  27
HETATM   27  C   UNL     1     -12.790  14.154  72.192  1.00  0.00    -0.417 C  
BRANCH  27  28
HETATM   28  C   UNL     1     -13.067  12.658  72.037  1.00  0.00    -0.471 C  
BRANCH  28  29
HETATM   29  C   UNL     1     -12.064  11.947  71.127  1.00  0.00     0.015 C  
BRANCH  29  30
HETATM   30  C   UNL     1     -12.562  10.628  70.517  1.00  0.00    -0.433 C  
BRANCH  30  31
HETATM   31  C   UNL     1     -12.700  10.621  69.001  1.00  0.00     1.078 C  
BRANCH  31  32
HETATM   32  S   UNL     1     -11.111  10.305  68.164  1.00  0.00    -0.228 S  
HETATM   33  O   UNL     1     -11.424   9.658  66.847  1.00  0.00     0.460 OA 
BRANCH  32  34
HETATM   34  C   UNL     1     -10.671  12.038  67.819  1.00  0.00    -0.210 C  
BRANCH  34  35
HETATM   35  C   UNL     1     -11.881  12.859  67.388  1.00  0.00    -0.418 C  
BRANCH  35  36
HETATM   36  C   UNL     1     -11.473  14.049  66.520  1.00  0.00    -0.368 C  
BRANCH  36  37
HETATM   37  C   UNL     1     -12.253  14.139  65.211  1.00  0.00    -0.434 C  
HETATM   38  F   UNL     1     -12.078  12.973  64.524  1.00  0.00    -0.378 F  
HETATM   39  C   UNL     1     -11.885  15.347  64.337  1.00  0.00    -0.256 C  
HETATM   40  F   UNL     1     -13.580  14.175  65.533  1.00  0.00    -0.386 F  
HETATM   41  F   UNL     1     -11.034  16.195  64.955  1.00  0.00    -0.402 F  
HETATM   42  F   UNL     1     -11.303  14.954  63.180  1.00  0.00     1.288 F  
HETATM   43  F   UNL     1     -12.978  16.074  63.995  1.00  0.00     0.078 F  
ENDBRANCH  36  37
ENDBRANCH  35  36
ENDBRANCH  34  35
ENDBRANCH  32  34
ENDBRANCH  31  32
ENDBRANCH  30  31
ENDBRANCH  29  30
ENDBRANCH  28  29
ENDBRANCH  27  28
ENDBRANCH  26  27
ENDBRANCH  25  26
ENDBRANCH  24  25
ENDBRANCH  23  24
ENDBRANCH  21  23
TORSDOF 14
ENDMDL
MODEL      295
REMARK 921   NORMALIZED FREE ENERGY PREDICTED BY IDOCK:    7.91 KCAL/MOL
REMARK 922        TOTAL FREE ENERGY PREDICTED BY IDOCK:   11.09 KCAL/MOL
REMARK 923 INTER-LIGAND FREE ENERGY PREDICTED BY IDOCK:   11.87 KCAL/MOL
REMARK 924 INTRA-LIGAND FREE ENERGY PREDICTED BY IDOCK:   -0.78 KCAL/MOL
REMARK 927      BINDING AFFINITY PREDICTED BY RF-SCORE:    0.00 PKD
ROOT
HETATM    1  C   UNL     1     -12.524  13.168  70.389  1.00  0.00    -0.280 C  
HETATM    2  C   UNL     1     -11.971  13.251  71.698  1.00  0.00     0.793 C  
HETATM    3  C   UNL     1     -10.903  13.450  70.657  1.00  0.00     1.983 C  
HETATM    4  C   UNL     1     -11.770  13.763  68.846  1.00  0.00    -0.336 C  
HETATM    5  O   UNL     1     -11.412  14.271  67.556  1.00  0.00    -0.309 OA 
HETATM    6  C   UNL     1     -11.725  14.782  69.766  1.00  0.00    -0.354 C  
HETATM    7  C   UNL     1      -9.973  14.864  69.204  1.00  0.00    -0.213 C  
HETATM    8  C   UNL     1     -12.508  16.042  69.863  1.00  0.00     0.192 C  
HETATM    9  H   UNL     1     -11.817  14.417  66.710  1.00  0.00     0.000 HD 
HETATM   10  C   UNL     1      -9.399  13.307  68.544  1.00  0.00    -0.091 C  
HETATM   11  C   UNL     1     -10.127  11.802  68.907  1.00  0.00    -0.088 C  
HETATM   12  C   UNL     1      -9.765  10.575  68.061  1.00  0.00    -0.162 A  
HETATM   13  C   UNL     1      -8.570  10.555  67.317  1.00  0.00    -0.122 A  
HETATM   14  C   UNL     1      -8.110   9.384  66.705  1.00  0.00    -0.108 A  
HETATM   15  C   UNL     1      -8.850   8.218  66.822  1.00  0.00    -0.140 A  
HETATM   16  C   UNL     1     -10.027   8.203  67.556  1.00  0.00    -0.251 A  
HETATM   17  O   UNL     1      -8.443   7.050  66.248  1.00  0.00    -0.122 OA 
HETATM   18  C   UNL     1     -10.482   9.362  68.214  1.00  0.00    -0.260 A  
HETATM   19  H   UNL     1      -8.949   6.251  66.328  1.00  0.00     0.000 HD 
HETATM   20  C   UNL     1     -11.739   9.229  69.056  1.00  0.00     0.791 C  
HETATM   21  C   UNL     1     -11.911  10.277  70.182  1.00  0.00    -0.313 C  
HETATM   22  C   UNL     1     -11.780  11.657  69.495  1.00  0.00    -0.410 C  
ENDROOT
BRANCH  21  23
HETATM   23  C   UNL     1     -10.889  10.053  71.315  1.00  0.00     0.043 C  
BRANCH  23  24
HETATM   24  C   UNL     1     -11.359   9.223  72.495  1.00  0.00     0.612 C  
BRANCH  24  25
HETATM   25  C   UNL     1     -12.869   9.403  72.713  1.00  0.00     0.022 C  
BRANCH  25  26
HETATM   26  C   UNL     1     -13.648   8.092  72.915  1.00  0.00     0.420 C  
BRANCH  26  27
HETATM   27  C   UNL     1     -12.760   6.863  73.106  1.00  0.00     1.809 C  
BRANCH  27  28
HETATM   28  C   UNL     1     -13.394   5.606  72.510  1.00  0.00     1.008 C  
BRANCH  28  29
HETATM   29  C   UNL     1     -12.743   4.310  72.998  1.00  0.00     1.101 C  
BRANCH  29  30
HETATM   30  C   UNL     1     -11.299   4.088  72.521  1.00  0.00     0.413 C  
BRANCH  30  31
HETATM   31  C   UNL     1     -11.120   3.006  71.466  1.00  0.00     2.253 C  
BRANCH  31  32
HETATM   32  S   UNL     1     -10.950   3.699  69.788  1.00  0.00     5.082 S  
HETATM   33  O   UNL     1     -10.992   5.193  69.918  1.00  0.00    -0.035 OA 
BRANCH  32  34
HETATM   34  C   UNL     1      -9.211   3.233  69.510  1.00  0.00    -0.155 C  
BRANCH  34  35
HETATM   35  C   UNL     1      -8.589   4.015  68.358  1.00  0.00    -0.113 C  
BRANCH  35  36
HETATM   36  C   UNL     1      -9.586   4.224  67.219  1.00  0.00    -0.224 C  
BRANCH  36  37
HETATM   37  C   UNL     1      -8.935   4.219  65.837  1.00  0.00    -0.124 C  
HETATM   38  F   UNL     1      -9.321   5.348  65.175  1.00  0.00    -0.140 F  
HETATM   39  C   UNL     1      -9.237   2.967  65.001  1.00  0.00    -0.148 C  
HETATM   40  F   UNL     1      -7.588   4.349  66.025  1.00  0.00    -0.081 F  
HETATM   41  F   UNL     1      -9.911   2.027  65.698  1.00  0.00     0.134 F  
HETATM   42  F   UNL     1      -9.976   3.275  63.909  1.00  0.00    -0.134 F  
HETATM   43  F   UNL     1      -8.102   2.377  64.549  1.00  0.00    -0.074 F  
ENDBRANCH  36  37
ENDBRANCH  35  36
ENDBRANCH  34  35
ENDBRANCH  32  34
ENDBRANCH  31  32
ENDBRANCH  30  31
ENDBRANCH  29  30
ENDBRANCH  28  29
ENDBRANCH  27  28
ENDBRANCH  26  27
ENDBRANCH  25  26
ENDBRANCH  24  25
ENDBRANCH  23  24
ENDBRANCH  21  23
TORSDOF 14
ENDMDL
MODEL      296
REMARK 921   NORMALIZED FREE ENERGY PREDICTED BY IDOCK:    9.38 KCAL/MOL
REMARK 922        TOTAL FREE ENERGY PREDICTED BY IDOCK:   13.76 KCAL/MOL
REMARK 923 INTER-LIGAND FREE ENERGY PREDICTED BY IDOCK:    9.88 KCAL/MOL
REMARK 924 INTRA-LIGAND FREE ENERGY PREDICTED BY IDOCK:    3.88 KCAL/MOL
REMARK 927      BINDING AFFINITY PREDICTED BY RF-SCORE:    0.00 PKD
ROOT
HETATM    1  C   UNL     1      -6.935   9.294  69.464  1.00  0.00    -0.052 C  
HETATM    2  C   UNL     1      -7.069   7.877  69.414  1.00  0.00    -0.064 C  
HETATM    3  C   UNL     1      -8.061   8.536  68.495  1.00  0.00    -0.122 C  
HETATM    4  C   UNL     1      -7.566  10.491  68.251  1.00  0.00    -0.096 C  
HETATM    5  O   UNL     1      -7.865  11.573  67.362  1.00  0.00    -0.128 OA 
HETATM    6  C   UNL     1      -6.869   9.522  67.573  1.00  0.00    -0.083 C  
HETATM    7  C   UNL     1      -8.385   9.531  66.526  1.00  0.00    -0.119 C  
HETATM    8  C   UNL     1      -5.538   9.562  66.911  1.00  0.00    -0.047 C  
HETATM    9  H   UNL     1      -7.633  12.487  67.248  1.00  0.00     0.000 HD 
HETATM   10  C   UNL     1      -9.819  10.114  67.415  1.00  0.00    -0.225 C  
HETATM   11  C   UNL     1      -9.941  10.103  69.122  1.00  0.00    -0.221 C  
HETATM   12  C   UNL     1     -11.067  10.898  69.794  1.00  0.00    -0.328 A  
HETATM   13  C   UNL     1     -12.216  11.254  69.064  1.00  0.00    -0.211 A  
HETATM   14  C   UNL     1     -13.343  11.793  69.694  1.00  0.00     2.161 A  
HETATM   15  C   UNL     1     -13.328  11.992  71.066  1.00  0.00     0.471 A  
HETATM   16  C   UNL     1     -12.213  11.644  71.814  1.00  0.00     0.457 A  
HETATM   17  O   UNL     1     -14.401  12.511  71.727  1.00  0.00     0.825 OA 
HETATM   18  C   UNL     1     -11.087  11.061  71.202  1.00  0.00     1.378 A  
HETATM   19  H   UNL     1     -14.391  12.648  72.667  1.00  0.00     0.000 HD 
HETATM   20  C   UNL     1      -9.946  10.642  72.113  1.00  0.00     7.897 C  
HETATM   21  C   UNL     1      -9.011   9.538  71.562  1.00  0.00     0.620 C  
HETATM   22  C   UNL     1      -8.534  10.043  70.179  1.00  0.00    -0.054 C  
ENDROOT
BRANCH  21  23
HETATM   23  C   UNL     1      -9.730   8.174  71.504  1.00  0.00    -0.230 C  
BRANCH  23  24
HETATM   24  C   UNL     1      -9.755   7.369  72.790  1.00  0.00    -0.220 C  
BRANCH  24  25
HETATM   25  C   UNL     1     -10.320   5.963  72.534  1.00  0.00    -0.227 C  
BRANCH  25  26
HETATM   26  C   UNL     1     -10.341   5.541  71.054  1.00  0.00    -0.307 C  
BRANCH  26  27
HETATM   27  C   UNL     1     -10.025   4.064  70.825  1.00  0.00    -0.158 C  
BRANCH  27  28
HETATM   28  C   UNL     1      -9.556   3.799  69.393  1.00  0.00    -0.219 C  
BRANCH  28  29
HETATM   29  C   UNL     1      -8.948   5.030  68.718  1.00  0.00    -0.126 C  
BRANCH  29  30
HETATM   30  C   UNL     1      -7.424   5.164  68.863  1.00  0.00    -0.069 C  
BRANCH  30  31
HETATM   31  C   UNL     1      -6.662   3.852  68.980  1.00  0.00    -0.045 C  
BRANCH  31  32
HETATM   32  S   UNL     1      -7.615   2.440  68.332  1.00  0.00    -0.054 S  
HETATM   33  O   UNL     1      -8.993   2.942  68.014  1.00  0.00    -0.118 OA 
BRANCH  32  34
HETATM   34  C   UNL     1      -6.733   2.258  66.750  1.00  0.00    -0.039 C  
BRANCH  34  35
HETATM   35  C   UNL     1      -5.650   3.317  66.576  1.00  0.00    -0.021 C  
BRANCH  35  36
HETATM   36  C   UNL     1      -5.786   4.045  65.239  1.00  0.00    -0.022 C  
BRANCH  36  37
HETATM   37  C   UNL     1      -6.649   5.303  65.320  1.00  0.00    -0.040 C  
HETATM   38  F   UNL     1      -7.947   4.924  65.501  1.00  0.00    -0.093 F  
HETATM   39  C   UNL     1      -6.517   6.238  64.109  1.00  0.00    -0.030 C  
HETATM   40  F   UNL     1      -6.298   5.959  66.466  1.00  0.00    -0.033 F  
HETATM   41  F   UNL     1      -5.549   5.847  63.253  1.00  0.00    -0.016 F  
HETATM   42  F   UNL     1      -7.677   6.303  63.415  1.00  0.00    -0.072 F  
HETATM   43  F   UNL     1      -6.216   7.507  64.483  1.00  0.00    -0.039 F  
ENDBRANCH  36  37
ENDBRANCH  35  36
ENDBRANCH  34  35
ENDBRANCH  32  34
ENDBRANCH  31  32
ENDBRANCH  30  31
ENDBRANCH  29  30
ENDBRANCH  28  29
ENDBRANCH  27  28
ENDBRANCH  26  27
ENDBRANCH  25  26
ENDBRANCH  24  25
ENDBRANCH  23  24
ENDBRANCH  21  23
TORSDOF 14
ENDMDL
MODEL      297
REMARK 921   NORMALIZED FREE ENERGY PREDICTED BY IDOCK:   11.33 KCAL/MOL
REMARK 922        TOTAL FREE ENERGY PREDICTED BY IDOCK:   17.31 KCAL/MOL
REMARK 923 INTER-LIGAND FREE ENERGY PREDICTED BY IDOCK:   16.96 KCAL/MOL
REMARK 924 INTRA-LIGAND FREE ENERGY PREDICTED BY IDOCK:    0.35 KCAL/MOL
REMARK 927      BINDING AFFINITY PREDICTED BY RF-SCORE:    0.00 PKD
ROOT
HETATM    1  C   UNL     1      -6.879  12.128  68.137  1.00  0.00    -0.075 C  
HETATM    2  C   UNL     1      -7.234  10.778  68.413  1.00  0.00    -0.085 C  
HETATM    3  C   UNL     1      -8.040  11.314  67.261  1.00  0.00    -0.140 C  
HETATM    4  C   UNL     1      -7.222  13.056  66.612  1.00  0.00     1.043 C  
HETATM    5  O   UNL     1      -7.280  13.909  65.464  1.00  0.00     5.083 OA 
HETATM    6  C   UNL     1      -6.643  11.860  66.265  1.00  0.00     0.567 C  
HETATM    7  C   UNL     1      -8.060  11.814  65.088  1.00  0.00     1.233 C  
HETATM    8  C   UNL     1      -5.280  11.549  65.761  1.00  0.00     0.335 C  
HETATM    9  H   UNL     1      -6.898  14.724  65.160  1.00  0.00     0.000 HD 
HETATM   10  C   UNL     1      -9.442  12.794  65.652  1.00  0.00     0.037 C  
HETATM   11  C   UNL     1      -9.684  13.231  67.288  1.00  0.00    -0.231 C  
HETATM   12  C   UNL     1     -10.713  14.317  67.625  1.00  0.00    -0.259 A  
HETATM   13  C   UNL     1     -11.736  14.632  66.711  1.00  0.00    -0.355 A  
HETATM   14  C   UNL     1     -12.804  15.463  67.068  1.00  0.00     2.318 A  
HETATM   15  C   UNL     1     -12.854  15.998  68.345  1.00  0.00     2.176 A  
HETATM   16  C   UNL     1     -11.865  15.700  69.272  1.00  0.00    -0.378 A  
HETATM   17  O   UNL     1     -13.875  16.809  68.744  1.00  0.00     3.771 OA 
HETATM   18  C   UNL     1     -10.807  14.832  68.942  1.00  0.00    -0.259 A  
HETATM   19  H   UNL     1     -13.910  17.177  69.619  1.00  0.00     0.000 HD 
HETATM   20  C   UNL     1      -9.815  14.503  70.045  1.00  0.00     0.627 C  
HETATM   21  C   UNL     1      -9.033  13.178  69.878  1.00  0.00     2.802 C  
HETATM   22  C   UNL     1      -8.384  13.248  68.475  1.00  0.00    -0.075 C  
ENDROOT
BRANCH  21  23
HETATM   23  C   UNL     1      -9.955  11.957  70.071  1.00  0.00     2.052 C  
BRANCH  23  24
HETATM   24  C   UNL     1     -11.106  11.818  69.092  1.00  0.00    -0.294 C  
BRANCH  24  25
HETATM   25  C   UNL     1     -11.864  10.504  69.336  1.00  0.00    -0.271 C  
BRANCH  25  26
HETATM   26  C   UNL     1     -12.804  10.523  70.554  1.00  0.00    -0.339 C  
BRANCH  26  27
HETATM   27  C   UNL     1     -12.170   9.987  71.837  1.00  0.00    -0.269 C  
BRANCH  27  28
HETATM   28  C   UNL     1     -13.138   9.098  72.620  1.00  0.00    -0.345 C  
BRANCH  28  29
HETATM   29  C   UNL     1     -14.301   8.576  71.774  1.00  0.00    -0.522 C  
BRANCH  29  30
HETATM   30  C   UNL     1     -14.325   7.053  71.571  1.00  0.00    -0.435 C  
BRANCH  30  31
HETATM   31  C   UNL     1     -13.194   6.288  72.244  1.00  0.00     0.424 C  
BRANCH  31  32
HETATM   32  S   UNL     1     -11.740   6.109  71.159  1.00  0.00    -0.011 S  
HETATM   33  O   UNL     1     -11.772   7.248  70.182  1.00  0.00    -0.180 OA 
BRANCH  32  34
HETATM   34  C   UNL     1     -10.464   6.500  72.397  1.00  0.00    -0.205 C  
BRANCH  34  35
HETATM   35  C   UNL     1      -9.194   5.682  72.186  1.00  0.00    -0.156 C  
BRANCH  35  36
HETATM   36  C   UNL     1      -9.126   5.107  70.772  1.00  0.00    -0.171 C  
BRANCH  36  37
HETATM   37  C   UNL     1      -8.406   3.762  70.700  1.00  0.00    -0.068 C  
HETATM   38  F   UNL     1      -8.068   3.386  71.967  1.00  0.00    -0.059 F  
HETATM   39  C   UNL     1      -7.175   3.753  69.781  1.00  0.00    -0.042 C  
HETATM   40  F   UNL     1      -9.319   2.838  70.277  1.00  0.00    -0.169 F  
HETATM   41  F   UNL     1      -7.035   4.903  69.088  1.00  0.00    -0.046 F  
HETATM   42  F   UNL     1      -6.038   3.560  70.490  1.00  0.00    -0.016 F  
HETATM   43  F   UNL     1      -7.237   2.752  68.866  1.00  0.00    -0.046 F  
ENDBRANCH  36  37
ENDBRANCH  35  36
ENDBRANCH  34  35
ENDBRANCH  32  34
ENDBRANCH  31  32
ENDBRANCH  30  31
ENDBRANCH  29  30
ENDBRANCH  28  29
ENDBRANCH  27  28
ENDBRANCH  26  27
ENDBRANCH  25  26
ENDBRANCH  24  25
ENDBRANCH  23  24
ENDBRANCH  21  23
TORSDOF 14
ENDMDL
MODEL      298
REMARK 921   NORMALIZED FREE ENERGY PREDICTED BY IDOCK:   11.76 KCAL/MOL
REMARK 922        TOTAL FREE ENERGY PREDICTED BY IDOCK:   18.09 KCAL/MOL
REMARK 923 INTER-LIGAND FREE ENERGY PREDICTED BY IDOCK:   18.75 KCAL/MOL
REMARK 924 INTRA-LIGAND FREE ENERGY PREDICTED BY IDOCK:   -0.66 KCAL/MOL
REMARK 927      BINDING AFFINITY PREDICTED BY RF-SCORE:    0.00 PKD
ROOT
HETATM    1  C   UNL     1      -6.759  12.383  68.695  1.00  0.00    -0.083 C  
HETATM    2  C   UNL     1      -6.923  10.970  68.672  1.00  0.00    -0.075 C  
HETATM    3  C   UNL     1      -7.813  11.623  67.650  1.00  0.00    -0.135 C  
HETATM    4  C   UNL     1      -7.249  13.559  67.399  1.00  0.00    -0.098 C  
HETATM    5  O   UNL     1      -7.440  14.621  66.458  1.00  0.00    -0.094 OA 
HETATM    6  C   UNL     1      -6.519  12.554  66.812  1.00  0.00     0.502 C  
HETATM    7  C   UNL     1      -7.934  12.567  65.634  1.00  0.00     2.069 C  
HETATM    8  C   UNL     1      -5.134  12.546  66.272  1.00  0.00     1.479 C  
HETATM    9  H   UNL     1      -7.177  15.526  66.340  1.00  0.00     0.000 HD 
HETATM   10  C   UNL     1      -9.428  13.207  66.374  1.00  0.00    -0.226 C  
HETATM   11  C   UNL     1      -9.701  13.249  68.063  1.00  0.00    -0.223 C  
HETATM   12  C   UNL     1     -10.862  14.088  68.609  1.00  0.00    -0.272 A  
HETATM   13  C   UNL     1     -11.933  14.448  67.770  1.00  0.00    -0.368 A  
HETATM   14  C   UNL     1     -13.098  15.030  68.281  1.00  0.00     2.497 A  
HETATM   15  C   UNL     1     -13.200  15.269  69.642  1.00  0.00     0.750 A  
HETATM   16  C   UNL     1     -12.165  14.918  70.497  1.00  0.00    -0.388 A  
HETATM   17  O   UNL     1     -14.315  15.831  70.191  1.00  0.00     0.319 OA 
HETATM   18  C   UNL     1     -11.004  14.293  70.005  1.00  0.00     0.013 A  
HETATM   19  H   UNL     1     -14.386  15.995  71.123  1.00  0.00     0.000 HD 
HETATM   20  C   UNL     1      -9.959  13.875  71.026  1.00  0.00     4.504 C  
HETATM   21  C   UNL     1      -9.007  12.735  70.590  1.00  0.00     7.732 C  
HETATM   22  C   UNL     1      -8.396  13.189  69.244  1.00  0.00     0.768 C  
ENDROOT
BRANCH  21  23
HETATM   23  C   UNL     1      -9.752  11.387  70.506  1.00  0.00     3.512 C  
BRANCH  23  24
HETATM   24  C   UNL     1     -11.123  11.411  69.857  1.00  0.00    -0.134 C  
BRANCH  24  25
HETATM   25  C   UNL     1     -11.618   9.981  69.589  1.00  0.00    -0.156 C  
BRANCH  25  26
HETATM   26  C   UNL     1     -12.049   9.207  70.846  1.00  0.00    -0.270 C  
BRANCH  26  27
HETATM   27  C   UNL     1     -10.974   9.131  71.930  1.00  0.00    -0.372 C  
BRANCH  27  28
HETATM   28  C   UNL     1     -11.053   7.821  72.716  1.00  0.00    -0.457 C  
BRANCH  28  29
HETATM   29  C   UNL     1     -11.975   6.783  72.074  1.00  0.00    -0.355 C  
BRANCH  29  30
HETATM   30  C   UNL     1     -11.280   5.492  71.616  1.00  0.00    -0.135 C  
BRANCH  30  31
HETATM   31  C   UNL     1      -9.800   5.628  71.291  1.00  0.00    -0.175 C  
BRANCH  31  32
HETATM   32  S   UNL     1      -9.515   6.135  69.564  1.00  0.00    -0.140 S  
HETATM   33  O   UNL     1     -10.856   6.437  68.962  1.00  0.00    -0.261 OA 
BRANCH  32  34
HETATM   34  C   UNL     1      -8.712   7.733  69.911  1.00  0.00    -0.142 C  
BRANCH  34  35
HETATM   35  C   UNL     1      -7.723   8.123  68.818  1.00  0.00    -0.107 C  
BRANCH  35  36
HETATM   36  C   UNL     1      -7.577   7.018  67.772  1.00  0.00    -0.111 C  
BRANCH  36  37
HETATM   37  C   UNL     1      -8.068   7.430  66.385  1.00  0.00    -0.118 C  
HETATM   38  F   UNL     1      -8.842   6.422  65.886  1.00  0.00    -0.148 F  
HETATM   39  C   UNL     1      -6.948   7.796  65.401  1.00  0.00    -0.055 C  
HETATM   40  F   UNL     1      -8.915   8.489  66.555  1.00  0.00    -0.138 F  
HETATM   41  F   UNL     1      -5.731   7.826  65.986  1.00  0.00    -0.033 F  
HETATM   42  F   UNL     1      -6.889   6.912  64.377  1.00  0.00    -0.042 F  
HETATM   43  F   UNL     1      -7.144   9.019  64.847  1.00  0.00    -0.086 F  
ENDBRANCH  36  37
ENDBRANCH  35  36
ENDBRANCH  34  35
ENDBRANCH  32  34
ENDBRANCH  31  32
ENDBRANCH  30  31
ENDBRANCH  29  30
ENDBRANCH  28  29
ENDBRANCH  27  28
ENDBRANCH  26  27
ENDBRANCH  25  26
ENDBRANCH  24  25
ENDBRANCH  23  24
ENDBRANCH  21  23
TORSDOF 14
ENDMDL
MODEL      299
REMARK 921   NORMALIZED FREE ENERGY PREDICTED BY IDOCK:   12.82 KCAL/MOL
REMARK 922        TOTAL FREE ENERGY PREDICTED BY IDOCK:   20.02 KCAL/MOL
REMARK 923 INTER-LIGAND FREE ENERGY PREDICTED BY IDOCK:   19.88 KCAL/MOL
REMARK 924 INTRA-LIGAND FREE ENERGY PREDICTED BY IDOCK:    0.14 KCAL/MOL
REMARK 927      BINDING AFFINITY PREDICTED BY RF-SCORE:    0.00 PKD
ROOT
HETATM    1  C   UNL     1      -6.739  12.323  68.692  1.00  0.00    -0.083 C  
HETATM    2  C   UNL     1      -6.908  10.910  68.673  1.00  0.00    -0.062 C  
HETATM    3  C   UNL     1      -7.804  11.565  67.658  1.00  0.00    -0.125 C  
HETATM    4  C   UNL     1      -7.237  13.498  67.398  1.00  0.00    -0.098 C  
HETATM    5  O   UNL     1      -7.433  14.559  66.457  1.00  0.00    -0.026 OA 
HETATM    6  C   UNL     1      -6.515  12.490  66.807  1.00  0.00     0.502 C  
HETATM    7  C   UNL     1      -7.940  12.506  65.641  1.00  0.00     2.069 C  
HETATM    8  C   UNL     1      -5.134  12.476  66.255  1.00  0.00     1.479 C  
HETATM    9  H   UNL     1      -7.167  15.463  66.335  1.00  0.00     0.000 HD 
HETATM   10  C   UNL     1      -9.425  13.152  66.393  1.00  0.00    -0.226 C  
HETATM   11  C   UNL     1      -9.684  13.197  68.084  1.00  0.00    -0.228 C  
HETATM   12  C   UNL     1     -10.838  14.041  68.639  1.00  0.00    -0.272 A  
HETATM   13  C   UNL     1     -11.915  14.403  67.808  1.00  0.00    -0.368 A  
HETATM   14  C   UNL     1     -13.073  14.990  68.328  1.00  0.00     2.497 A  
HETATM   15  C   UNL     1     -13.163  15.232  69.689  1.00  0.00     0.750 A  
HETATM   16  C   UNL     1     -12.122  14.879  70.536  1.00  0.00    -0.378 A  
HETATM   17  O   UNL     1     -14.271  15.798  70.246  1.00  0.00    -0.073 OA 
HETATM   18  C   UNL     1     -10.967  14.249  70.035  1.00  0.00     0.013 A  
HETATM   19  H   UNL     1     -14.333  15.964  71.179  1.00  0.00     0.000 HD 
HETATM   20  C   UNL     1      -9.915  13.829  71.047  1.00  0.00     5.020 C  
HETATM   21  C   UNL     1      -8.970  12.686  70.606  1.00  0.00     7.806 C  
HETATM   22  C   UNL     1      -8.369  13.135  69.253  1.00  0.00     0.768 C  
ENDROOT
BRANCH  21  23
HETATM   23  C   UNL     1      -9.720  11.340  70.530  1.00  0.00     3.141 C  
BRANCH  23  24
HETATM   24  C   UNL     1     -10.879  11.266  69.554  1.00  0.00    -0.207 C  
BRANCH  24  25
HETATM   25  C   UNL     1     -10.838   9.945  68.770  1.00  0.00    -0.240 C  
BRANCH  25  26
HETATM   26  C   UNL     1     -10.544   8.701  69.624  1.00  0.00    -0.219 C  
BRANCH  26  27
HETATM   27  C   UNL     1      -9.074   8.548  70.015  1.00  0.00    -0.147 C  
BRANCH  27  28
HETATM   28  C   UNL     1      -8.669   7.079  70.138  1.00  0.00    -0.141 C  
BRANCH  28  29
HETATM   29  C   UNL     1      -9.828   6.109  69.902  1.00  0.00    -0.205 C  
BRANCH  29  30
HETATM   30  C   UNL     1      -9.654   5.168  68.699  1.00  0.00    -0.194 C  
BRANCH  30  31
HETATM   31  C   UNL     1      -8.512   5.519  67.757  1.00  0.00    -0.098 C  
BRANCH  31  32
HETATM   32  S   UNL     1      -9.105   6.229  66.186  1.00  0.00    -0.104 S  
HETATM   33  O   UNL     1     -10.414   6.905  66.470  1.00  0.00    -0.163 OA 
BRANCH  32  34
HETATM   34  C   UNL     1      -7.850   7.538  66.022  1.00  0.00    -0.101 C  
BRANCH  34  35
HETATM   35  C   UNL     1      -6.656   7.082  65.190  1.00  0.00    -0.047 C  
BRANCH  35  36
HETATM   36  C   UNL     1      -6.315   5.616  65.453  1.00  0.00    -0.038 C  
BRANCH  36  37
HETATM   37  C   UNL     1      -6.496   4.723  64.227  1.00  0.00    -0.038 C  
HETATM   38  F   UNL     1      -7.186   5.424  63.281  1.00  0.00    -0.042 F  
HETATM   39  C   UNL     1      -7.182   3.380  64.519  1.00  0.00    -0.062 C  
HETATM   40  F   UNL     1      -5.255   4.515  63.693  1.00  0.00    -0.008 F  
HETATM   41  F   UNL     1      -7.374   3.170  65.839  1.00  0.00    -0.066 F  
HETATM   42  F   UNL     1      -8.390   3.307  63.912  1.00  0.00    -0.087 F  
HETATM   43  F   UNL     1      -6.452   2.332  64.060  1.00  0.00    -0.019 F  
ENDBRANCH  36  37
ENDBRANCH  35  36
ENDBRANCH  34  35
ENDBRANCH  32  34
ENDBRANCH  31  32
ENDBRANCH  30  31
ENDBRANCH  29  30
ENDBRANCH  28  29
ENDBRANCH  27  28
ENDBRANCH  26  27
ENDBRANCH  25  26
ENDBRANCH  24  25
ENDBRANCH  23  24
ENDBRANCH  21  23
TORSDOF 14
ENDMDL
MODEL      300
REMARK 921   NORMALIZED FREE ENERGY PREDICTED BY IDOCK:   14.56 KCAL/MOL
REMARK 922        TOTAL FREE ENERGY PREDICTED BY IDOCK:   23.18 KCAL/MOL
REMARK 923 INTER-LIGAND FREE ENERGY PREDICTED BY IDOCK:   18.94 KCAL/MOL
REMARK 924 INTRA-LIGAND FREE ENERGY PREDICTED BY IDOCK:    4.24 KCAL/MOL
REMARK 927      BINDING AFFINITY PREDICTED BY RF-SCORE:    0.00 PKD
ROOT
HETATM    1  C   UNL     1      -7.747  14.022  71.990  1.00  0.00     6.289 C  
HETATM    2  C   UNL     1      -7.381  12.665  71.769  1.00  0.00     8.423 C  
HETATM    3  C   UNL     1      -6.759  13.557  70.730  1.00  0.00     1.001 C  
HETATM    4  C   UNL     1      -6.928  15.496  71.312  1.00  0.00     2.038 C  
HETATM    5  O   UNL     1      -6.357  16.770  70.991  1.00  0.00     1.057 OA 
HETATM    6  C   UNL     1      -5.967  14.695  71.880  1.00  0.00     0.261 C  
HETATM    7  C   UNL     1      -5.127  15.007  70.271  1.00  0.00    -0.110 C  
HETATM    8  C   UNL     1      -5.190  14.849  73.138  1.00  0.00     0.010 C  
HETATM    9  H   UNL     1      -6.436  17.676  71.263  1.00  0.00     0.000 HD 
HETATM   10  C   UNL     1      -6.282  15.406  68.969  1.00  0.00    -0.105 C  
HETATM   11  C   UNL     1      -7.941  14.990  69.018  1.00  0.00    -0.180 C  
HETATM   12  C   UNL     1      -8.902  15.637  68.014  1.00  0.00    -0.169 A  
HETATM   13  C   UNL     1      -8.409  16.196  66.820  1.00  0.00    -0.299 A  
HETATM   14  C   UNL     1      -9.269  16.605  65.795  1.00  0.00    -0.032 A  
HETATM   15  C   UNL     1     -10.638  16.469  65.959  1.00  0.00    -0.253 A  
HETATM   16  C   UNL     1     -11.155  15.914  67.120  1.00  0.00    -0.148 A  
HETATM   17  O   UNL     1     -11.518  16.849  64.989  1.00  0.00    -0.071 OA 
HETATM   18  C   UNL     1     -10.302  15.458  68.144  1.00  0.00    -0.239 A  
HETATM   19  H   UNL     1     -12.457  16.756  65.101  1.00  0.00     0.000 HD 
HETATM   20  C   UNL     1     -10.957  14.794  69.343  1.00  0.00    -0.282 C  
HETATM   21  C   UNL     1     -10.061  13.825  70.151  1.00  0.00     1.757 C  
HETATM   22  C   UNL     1      -8.792  14.631  70.517  1.00  0.00     1.897 C  
ENDROOT
BRANCH  21  23
HETATM   23  C   UNL     1      -9.764  12.539  69.351  1.00  0.00     0.963 C  
BRANCH  23  24
HETATM   24  C   UNL     1      -9.811  12.658  67.839  1.00  0.00    -0.218 C  
BRANCH  24  25
HETATM   25  C   UNL     1     -10.875  11.715  67.258  1.00  0.00    -0.302 C  
BRANCH  25  26
HETATM   26  C   UNL     1     -11.183  10.483  68.127  1.00  0.00    -0.357 C  
BRANCH  26  27
HETATM   27  C   UNL     1     -10.433   9.220  67.703  1.00  0.00    -0.325 C  
BRANCH  27  28
HETATM   28  C   UNL     1      -9.229   9.545  66.818  1.00  0.00    -0.184 C  
BRANCH  28  29
HETATM   29  C   UNL     1      -8.197  10.443  67.504  1.00  0.00    -0.114 C  
BRANCH  29  30
HETATM   30  C   UNL     1      -6.734  10.014  67.314  1.00  0.00    -0.074 C  
BRANCH  30  31
HETATM   31  C   UNL     1      -6.435   8.555  67.626  1.00  0.00    -0.057 C  
BRANCH  31  32
HETATM   32  S   UNL     1      -7.686   7.814  68.726  1.00  0.00    -0.115 S  
HETATM   33  O   UNL     1      -8.571   6.951  67.874  1.00  0.00    -0.122 OA 
BRANCH  32  34
HETATM   34  C   UNL     1      -6.574   6.701  69.643  1.00  0.00    -0.048 C  
BRANCH  34  35
HETATM   35  C   UNL     1      -6.545   5.301  69.040  1.00  0.00    -0.051 C  
BRANCH  35  36
HETATM   36  C   UNL     1      -6.903   4.236  70.075  1.00  0.00    -0.038 C  
BRANCH  36  37
HETATM   37  C   UNL     1      -7.932   4.709  71.099  1.00  0.00    -0.087 C  
HETATM   38  F   UNL     1      -7.293   4.924  72.285  1.00  0.00    -0.072 F  
HETATM   39  C   UNL     1      -9.123   3.757  71.286  1.00  0.00    -0.116 C  
HETATM   40  F   UNL     1      -8.369   5.939  70.694  1.00  0.00    -0.114 F  
HETATM   41  F   UNL     1      -9.115   2.737  70.402  1.00  0.00    -0.128 F  
HETATM   42  F   UNL     1      -9.129   3.222  72.529  1.00  0.00    -0.096 F  
HETATM   43  F   UNL     1     -10.309   4.397  71.132  1.00  0.00    -0.248 F  
ENDBRANCH  36  37
ENDBRANCH  35  36
ENDBRANCH  34  35
ENDBRANCH  32  34
ENDBRANCH  31  32
ENDBRANCH  30  31
ENDBRANCH  29  30
ENDBRANCH  28  29
ENDBRANCH  27  28
ENDBRANCH  26  27
ENDBRANCH  25  26
ENDBRANCH  24  25
ENDBRANCH  23  24
ENDBRANCH  21  23
TORSDOF 14
ENDMDL
MODEL      301
REMARK 921   NORMALIZED FREE ENERGY PREDICTED BY IDOCK:   15.74 KCAL/MOL
REMARK 922        TOTAL FREE ENERGY PREDICTED BY IDOCK:   25.34 KCAL/MOL
REMARK 923 INTER-LIGAND FREE ENERGY PREDICTED BY IDOCK:   16.64 KCAL/MOL
REMARK 924 INTRA-LIGAND FREE ENERGY PREDICTED BY IDOCK:    8.69 KCAL/MOL
REMARK 927      BINDING AFFINITY PREDICTED BY RF-SCORE:    0.00 PKD
ROOT
HETATM    1  C   UNL     1      -7.455  10.894  66.805  1.00  0.00    -0.134 C  
HETATM    2  C   UNL     1      -7.663   9.979  65.735  1.00  0.00    -0.122 C  
HETATM    3  C   UNL     1      -8.952  10.661  66.107  1.00  0.00    -0.184 C  
HETATM    4  C   UNL     1      -8.556  12.250  67.309  1.00  0.00    -0.183 C  
HETATM    5  O   UNL     1      -9.211  13.434  67.777  1.00  0.00    -0.194 OA 
HETATM    6  C   UNL     1      -8.345  12.350  65.955  1.00  0.00     0.637 C  
HETATM    7  C   UNL     1     -10.180  12.515  65.945  1.00  0.00    -0.280 C  
HETATM    8  C   UNL     1      -7.532  13.311  65.164  1.00  0.00     8.066 C  
HETATM    9  H   UNL     1      -9.026  14.177  68.339  1.00  0.00     0.000 HD 
HETATM   10  C   UNL     1     -10.937  11.757  67.373  1.00  0.00    -0.314 C  
HETATM   11  C   UNL     1     -10.178  10.544  68.312  1.00  0.00    -0.185 C  
HETATM   12  C   UNL     1     -10.770  10.181  69.679  1.00  0.00    -0.295 A  
HETATM   13  C   UNL     1     -12.112  10.485  69.974  1.00  0.00    -0.351 A  
HETATM   14  C   UNL     1     -12.738   9.988  71.123  1.00  0.00    -0.484 A  
HETATM   15  C   UNL     1     -12.021   9.187  71.997  1.00  0.00    -0.350 A  
HETATM   16  C   UNL     1     -10.699   8.863  71.730  1.00  0.00    -0.432 A  
HETATM   17  O   UNL     1     -12.586   8.675  73.128  1.00  0.00    -0.528 OA 
HETATM   18  C   UNL     1     -10.067   9.320  70.558  1.00  0.00    -0.313 A  
HETATM   19  H   UNL     1     -12.095   8.126  73.728  1.00  0.00     0.000 HD 
HETATM   20  C   UNL     1      -8.643   8.850  70.314  1.00  0.00    -0.178 C  
HETATM   21  C   UNL     1      -8.170   8.864  68.840  1.00  0.00    -0.117 C  
HETATM   22  C   UNL     1      -8.435  10.300  68.328  1.00  0.00    -0.121 C  
ENDROOT
BRANCH  21  23
HETATM   23  C   UNL     1      -8.883   7.774  68.014  1.00  0.00    -0.124 C  
BRANCH  23  24
HETATM   24  C   UNL     1      -8.465   7.647  66.560  1.00  0.00    -0.133 C  
BRANCH  24  25
HETATM   25  C   UNL     1      -9.551   6.923  65.750  1.00  0.00     0.349 C  
BRANCH  25  26
HETATM   26  C   UNL     1     -10.936   7.592  65.794  1.00  0.00     3.710 C  
BRANCH  26  27
HETATM   27  C   UNL     1     -10.907   9.100  65.546  1.00  0.00     2.469 C  
BRANCH  27  28
HETATM   28  C   UNL     1     -10.875   9.429  64.053  1.00  0.00     5.593 C  
BRANCH  28  29
HETATM   29  C   UNL     1     -11.888  10.502  63.647  1.00  0.00     3.155 C  
BRANCH  29  30
HETATM   30  C   UNL     1     -11.374  11.947  63.737  1.00  0.00    -0.532 C  
BRANCH  30  31
HETATM   31  C   UNL     1     -12.437  13.027  63.592  1.00  0.00    -0.315 C  
BRANCH  31  32
HETATM   32  S   UNL     1     -11.812  14.677  64.049  1.00  0.00     0.042 S  
HETATM   33  O   UNL     1     -13.005  15.539  64.343  1.00  0.00    -0.094 OA 
BRANCH  32  34
HETATM   34  C   UNL     1     -11.073  14.221  65.650  1.00  0.00    -0.316 C  
BRANCH  34  35
HETATM   35  C   UNL     1     -11.992  14.560  66.819  1.00  0.00    -0.364 C  
BRANCH  35  36
HETATM   36  C   UNL     1     -11.205  14.754  68.114  1.00  0.00    -0.307 C  
BRANCH  36  37
HETATM   37  C   UNL     1     -11.554  16.048  68.846  1.00  0.00    -0.354 C  
HETATM   38  F   UNL     1     -12.913  16.150  68.917  1.00  0.00     0.467 F  
HETATM   39  C   UNL     1     -10.945  17.312  68.221  1.00  0.00    -0.188 C  
HETATM   40  F   UNL     1     -11.131  15.908  70.137  1.00  0.00    -0.254 F  
HETATM   41  F   UNL     1     -10.090  17.034  67.214  1.00  0.00    -0.264 F  
HETATM   42  F   UNL     1     -11.909  18.125  67.727  1.00  0.00     0.528 F  
HETATM   43  F   UNL     1     -10.252  18.041  69.131  1.00  0.00    -0.363 F  
ENDBRANCH  36  37
ENDBRANCH  35  36
ENDBRANCH  34  35
ENDBRANCH  32  34
ENDBRANCH  31  32
ENDBRANCH  30  31
ENDBRANCH  29  30
ENDBRANCH  28  29
ENDBRANCH  27  28
ENDBRANCH  26  27
ENDBRANCH  25  26
ENDBRANCH  24  25
ENDBRANCH  23  24
ENDBRANCH  21  23
TORSDOF 14
ENDMDL
MODEL      302
REMARK 921   NORMALIZED FREE ENERGY PREDICTED BY IDOCK:   15.83 KCAL/MOL
REMARK 922        TOTAL FREE ENERGY PREDICTED BY IDOCK:   25.49 KCAL/MOL
REMARK 923 INTER-LIGAND FREE ENERGY PREDICTED BY IDOCK:   26.58 KCAL/MOL
REMARK 924 INTRA-LIGAND FREE ENERGY PREDICTED BY IDOCK:   -1.09 KCAL/MOL
REMARK 927      BINDING AFFINITY PREDICTED BY RF-SCORE:    0.00 PKD
ROOT
HETATM    1  C   UNL     1      -8.649  19.779  70.079  1.00  0.00     1.013 C  
HETATM    2  C   UNL     1      -9.900  19.469  70.682  1.00  0.00     1.410 C  
HETATM    3  C   UNL     1      -8.808  18.605  71.252  1.00  0.00     6.763 C  
HETATM    4  C   UNL     1      -6.999  19.354  70.710  1.00  0.00     0.890 C  
HETATM    5  O   UNL     1      -5.625  19.231  71.094  1.00  0.00    -0.234 OA 
HETATM    6  C   UNL     1      -7.706  19.949  71.726  1.00  0.00     2.167 C  
HETATM    7  C   UNL     1      -7.085  18.490  72.663  1.00  0.00     6.098 C  
HETATM    8  C   UNL     1      -7.585  21.299  72.336  1.00  0.00     5.170 C  
HETATM    9  H   UNL     1      -4.779  19.581  70.841  1.00  0.00     0.000 HD 
HETATM   10  C   UNL     1      -6.715  17.106  71.596  1.00  0.00     4.637 C  
HETATM   11  C   UNL     1      -7.381  16.916  70.032  1.00  0.00     1.095 C  
HETATM   12  C   UNL     1      -6.774  15.874  69.085  1.00  0.00    -0.164 A  
HETATM   13  C   UNL     1      -6.010  14.809  69.599  1.00  0.00    -0.114 A  
HETATM   14  C   UNL     1      -5.619  13.736  68.791  1.00  0.00    -0.084 A  
HETATM   15  C   UNL     1      -5.979  13.721  67.453  1.00  0.00     0.213 A  
HETATM   16  C   UNL     1      -6.738  14.752  66.919  1.00  0.00     0.987 A  
HETATM   17  O   UNL     1      -5.626  12.696  66.626  1.00  0.00    -0.403 OA 
HETATM   18  C   UNL     1      -7.177  15.819  67.727  1.00  0.00    -0.172 A  
HETATM   19  H   UNL     1      -5.872  12.686  65.709  1.00  0.00     0.000 HD 
HETATM   20  C   UNL     1      -8.068  16.860  67.071  1.00  0.00    -0.228 C  
HETATM   21  C   UNL     1      -8.978  17.668  68.027  1.00  0.00    -0.264 C  
HETATM   22  C   UNL     1      -8.037  18.260  69.103  1.00  0.00     0.037 C  
ENDROOT
BRANCH  21  23
HETATM   23  C   UNL     1     -10.101  16.785  68.609  1.00  0.00    -0.279 C  
BRANCH  23  24
HETATM   24  C   UNL     1     -10.494  15.567  67.794  1.00  0.00    -0.273 C  
BRANCH  24  25
HETATM   25  C   UNL     1     -11.957  15.186  68.068  1.00  0.00    -0.112 C  
BRANCH  25  26
HETATM   26  C   UNL     1     -12.152  13.786  68.675  1.00  0.00    -0.333 C  
BRANCH  26  27
HETATM   27  C   UNL     1     -11.429  13.578  70.005  1.00  0.00    -0.141 C  
BRANCH  27  28
HETATM   28  C   UNL     1     -11.295  12.095  70.353  1.00  0.00     0.469 C  
BRANCH  28  29
HETATM   29  C   UNL     1     -10.187  11.387  69.572  1.00  0.00     0.212 C  
BRANCH  29  30
HETATM   30  C   UNL     1     -10.347   9.863  69.455  1.00  0.00    -0.238 C  
BRANCH  30  31
HETATM   31  C   UNL     1     -10.808   9.358  68.095  1.00  0.00    -0.119 C  
BRANCH  31  32
HETATM   32  S   UNL     1      -9.416   9.084  66.951  1.00  0.00    -0.181 S  
HETATM   33  O   UNL     1      -9.969   8.400  65.735  1.00  0.00     0.059 OA 
BRANCH  32  34
HETATM   34  C   UNL     1      -9.127  10.825  66.501  1.00  0.00    -0.165 C  
BRANCH  34  35
HETATM   35  C   UNL     1     -10.389  11.668  66.645  1.00  0.00    -0.257 C  
BRANCH  35  36
HETATM   36  C   UNL     1     -10.396  12.841  65.665  1.00  0.00    -0.296 C  
BRANCH  36  37
HETATM   37  C   UNL     1     -11.678  12.933  64.841  1.00  0.00    -0.348 C  
HETATM   38  F   UNL     1     -12.676  13.396  65.648  1.00  0.00    -0.484 F  
HETATM   39  C   UNL     1     -12.091  11.619  64.163  1.00  0.00    -0.104 C  
HETATM   40  F   UNL     1     -11.486  13.909  63.904  1.00  0.00    -0.353 F  
HETATM   41  F   UNL     1     -11.162  10.648  64.303  1.00  0.00    -0.131 F  
HETATM   42  F   UNL     1     -13.253  11.150  64.674  1.00  0.00     1.331 F  
HETATM   43  F   UNL     1     -12.289  11.780  62.830  1.00  0.00    -0.498 F  
ENDBRANCH  36  37
ENDBRANCH  35  36
ENDBRANCH  34  35
ENDBRANCH  32  34
ENDBRANCH  31  32
ENDBRANCH  30  31
ENDBRANCH  29  30
ENDBRANCH  28  29
ENDBRANCH  27  28
ENDBRANCH  26  27
ENDBRANCH  25  26
ENDBRANCH  24  25
ENDBRANCH  23  24
ENDBRANCH  21  23
TORSDOF 14
ENDMDL
MODEL      303
REMARK 921   NORMALIZED FREE ENERGY PREDICTED BY IDOCK:   16.68 KCAL/MOL
REMARK 922        TOTAL FREE ENERGY PREDICTED BY IDOCK:   27.04 KCAL/MOL
REMARK 923 INTER-LIGAND FREE ENERGY PREDICTED BY IDOCK:    9.44 KCAL/MOL
REMARK 924 INTRA-LIGAND FREE ENERGY PREDICTED BY IDOCK:   17.60 KCAL/MOL
REMARK 927      BINDING AFFINITY PREDICTED BY RF-SCORE:    0.00 PKD
ROOT
HETATM    1  C   UNL     1      -7.945  15.046  65.717  1.00  0.00     2.898 C  
HETATM    2  C   UNL     1      -9.239  15.633  65.795  1.00  0.00    -0.247 C  
HETATM    3  C   UNL     1      -8.610  15.554  67.159  1.00  0.00    -0.240 C  
HETATM    4  C   UNL     1      -6.632  15.132  66.971  1.00  0.00     0.504 C  
HETATM    5  O   UNL     1      -5.440  15.188  67.762  1.00  0.00    -0.207 OA 
HETATM    6  C   UNL     1      -7.082  16.408  66.734  1.00  0.00    -0.233 C  
HETATM    7  C   UNL     1      -7.138  16.451  68.574  1.00  0.00    -0.157 C  
HETATM    8  C   UNL     1      -6.455  17.543  66.007  1.00  0.00    -0.227 C  
HETATM    9  H   UNL     1      -4.515  14.991  67.674  1.00  0.00     0.000 HD 
HETATM   10  C   UNL     1      -7.310  14.823  69.286  1.00  0.00    -0.168 C  
HETATM   11  C   UNL     1      -7.930  13.478  68.428  1.00  0.00    -0.142 C  
HETATM   12  C   UNL     1      -7.753  12.073  69.016  1.00  0.00     0.096 A  
HETATM   13  C   UNL     1      -7.503  11.906  70.391  1.00  0.00     2.607 A  
HETATM   14  C   UNL     1      -7.542  10.643  70.992  1.00  0.00     2.448 A  
HETATM   15  C   UNL     1      -7.822   9.528  70.218  1.00  0.00    -0.168 A  
HETATM   16  C   UNL     1      -8.081   9.661  68.862  1.00  0.00    -0.098 A  
HETATM   17  O   UNL     1      -7.875   8.276  70.756  1.00  0.00    -0.082 OA 
HETATM   18  C   UNL     1      -8.088  10.929  68.249  1.00  0.00    -0.124 A  
HETATM   19  H   UNL     1      -8.067   7.512  70.227  1.00  0.00     0.000 HD 
HETATM   20  C   UNL     1      -8.458  10.982  66.777  1.00  0.00    -0.148 C  
HETATM   21  C   UNL     1      -9.007  12.336  66.267  1.00  0.00    -0.068 C  
HETATM   22  C   UNL     1      -7.953  13.395  66.670  1.00  0.00     0.550 C  
ENDROOT
BRANCH  21  23
HETATM   23  C   UNL     1     -10.413  12.619  66.835  1.00  0.00    -0.246 C  
BRANCH  23  24
HETATM   24  C   UNL     1     -11.531  11.713  66.355  1.00  0.00    -0.238 C  
BRANCH  24  25
HETATM   25  C   UNL     1     -10.957  10.498  65.610  1.00  0.00     0.196 C  
BRANCH  25  26
HETATM   26  C   UNL     1     -11.443   9.136  66.135  1.00  0.00     3.443 C  
BRANCH  26  27
HETATM   27  C   UNL     1     -10.400   8.023  66.036  1.00  0.00     0.825 C  
BRANCH  27  28
HETATM   28  C   UNL     1     -10.103   7.400  67.401  1.00  0.00    -0.274 C  
BRANCH  28  29
HETATM   29  C   UNL     1      -8.609   7.193  67.660  1.00  0.00    -0.122 C  
BRANCH  29  30
HETATM   30  C   UNL     1      -8.145   7.524  69.087  1.00  0.00    -0.123 C  
BRANCH  30  31
HETATM   31  C   UNL     1      -9.188   7.316  70.176  1.00  0.00    -0.152 C  
BRANCH  31  32
HETATM   32  S   UNL     1      -8.627   6.144  71.455  1.00  0.00    -0.128 S  
HETATM   33  O   UNL     1      -9.758   5.193  71.712  1.00  0.00    -0.151 OA 
BRANCH  32  34
HETATM   34  C   UNL     1      -7.398   5.256  70.446  1.00  0.00    -0.063 C  
BRANCH  34  35
HETATM   35  C   UNL     1      -7.136   5.958  69.118  1.00  0.00    -0.069 C  
BRANCH  35  36
HETATM   36  C   UNL     1      -5.942   5.347  68.386  1.00  0.00    -0.021 C  
BRANCH  36  37
HETATM   37  C   UNL     1      -6.324   4.192  67.463  1.00  0.00    -0.037 C  
HETATM   38  F   UNL     1      -7.570   4.434  66.963  1.00  0.00    -0.080 F  
HETATM   39  C   UNL     1      -6.261   2.807  68.125  1.00  0.00    -0.028 C  
HETATM   40  F   UNL     1      -5.484   4.241  66.387  1.00  0.00    -0.011 F  
HETATM   41  F   UNL     1      -5.738   2.849  69.369  1.00  0.00    -0.018 F  
HETATM   42  F   UNL     1      -7.493   2.254  68.215  1.00  0.00    -0.046 F  
HETATM   43  F   UNL     1      -5.498   1.942  67.410  1.00  0.00    -0.014 F  
ENDBRANCH  36  37
ENDBRANCH  35  36
ENDBRANCH  34  35
ENDBRANCH  32  34
ENDBRANCH  31  32
ENDBRANCH  30  31
ENDBRANCH  29  30
ENDBRANCH  28  29
ENDBRANCH  27  28
ENDBRANCH  26  27
ENDBRANCH  25  26
ENDBRANCH  24  25
ENDBRANCH  23  24
ENDBRANCH  21  23
TORSDOF 14
ENDMDL
MODEL      304
REMARK 921   NORMALIZED FREE ENERGY PREDICTED BY IDOCK:   19.00 KCAL/MOL
REMARK 922        TOTAL FREE ENERGY PREDICTED BY IDOCK:   31.26 KCAL/MOL
REMARK 923 INTER-LIGAND FREE ENERGY PREDICTED BY IDOCK:   32.66 KCAL/MOL
REMARK 924 INTRA-LIGAND FREE ENERGY PREDICTED BY IDOCK:   -1.40 KCAL/MOL
REMARK 927      BINDING AFFINITY PREDICTED BY RF-SCORE:    0.00 PKD
ROOT
HETATM    1  C   UNL     1      -8.699  19.745  70.156  1.00  0.00     1.181 C  
HETATM    2  C   UNL     1      -9.997  19.347  70.582  1.00  0.00     1.472 C  
HETATM    3  C   UNL     1      -8.948  18.434  71.155  1.00  0.00     6.704 C  
HETATM    4  C   UNL     1      -7.112  19.266  70.901  1.00  0.00     1.464 C  
HETATM    5  O   UNL     1      -5.782  19.114  71.411  1.00  0.00    -0.176 OA 
HETATM    6  C   UNL     1      -7.935  19.723  71.902  1.00  0.00     2.972 C  
HETATM    7  C   UNL     1      -7.377  18.167  72.715  1.00  0.00     9.022 C  
HETATM    8  C   UNL     1      -7.912  20.989  72.680  1.00  0.00     4.592 C  
HETATM    9  H   UNL     1      -4.924  19.503  71.292  1.00  0.00     0.000 HD 
HETATM   10  C   UNL     1      -6.864  16.930  71.534  1.00  0.00     4.671 C  
HETATM   11  C   UNL     1      -7.360  16.926  69.896  1.00  0.00     0.795 C  
HETATM   12  C   UNL     1      -6.632  16.016  68.900  1.00  0.00    -0.130 A  
HETATM   13  C   UNL     1      -5.899  14.905  69.358  1.00  0.00    -0.102 A  
HETATM   14  C   UNL     1      -5.400  13.945  68.473  1.00  0.00    -0.096 A  
HETATM   15  C   UNL     1      -5.619  14.090  67.113  1.00  0.00     0.893 A  
HETATM   16  C   UNL     1      -6.345  15.170  66.630  1.00  0.00     1.820 A  
HETATM   17  O   UNL     1      -5.157  13.180  66.209  1.00  0.00     1.063 OA 
HETATM   18  C   UNL     1      -6.892  16.123  67.510  1.00  0.00    -0.194 A  
HETATM   19  H   UNL     1      -5.307  13.279  65.277  1.00  0.00     0.000 HD 
HETATM   20  C   UNL     1      -7.736  17.226  66.895  1.00  0.00    -0.250 C  
HETATM   21  C   UNL     1      -8.760  17.899  67.840  1.00  0.00    -0.252 C  
HETATM   22  C   UNL     1      -7.951  18.366  69.073  1.00  0.00    -0.115 C  
ENDROOT
BRANCH  21  23
HETATM   23  C   UNL     1      -9.915  16.937  68.190  1.00  0.00    -0.285 C  
BRANCH  23  24
HETATM   24  C   UNL     1     -10.130  15.769  67.245  1.00  0.00    -0.247 C  
BRANCH  24  25
HETATM   25  C   UNL     1     -11.574  15.253  67.349  1.00  0.00    -0.196 C  
BRANCH  25  26
HETATM   26  C   UNL     1     -11.701  13.797  67.829  1.00  0.00    -0.393 C  
BRANCH  26  27
HETATM   27  C   UNL     1     -11.161  13.557  69.239  1.00  0.00    -0.285 C  
BRANCH  27  28
HETATM   28  C   UNL     1     -10.787  12.091  69.461  1.00  0.00     0.035 C  
BRANCH  28  29
HETATM   29  C   UNL     1      -9.409  11.726  68.905  1.00  0.00     0.076 C  
BRANCH  29  30
HETATM   30  C   UNL     1      -9.261  10.268  68.442  1.00  0.00    -0.136 C  
BRANCH  30  31
HETATM   31  C   UNL     1      -9.284  10.057  66.935  1.00  0.00    -0.147 C  
BRANCH  31  32
HETATM   32  S   UNL     1      -7.636  10.261  66.184  1.00  0.00    -0.130 S  
HETATM   33  O   UNL     1      -6.637  10.284  67.303  1.00  0.00    -0.067 OA 
BRANCH  32  34
HETATM   34  C   UNL     1      -7.524   8.622  65.398  1.00  0.00    -0.086 C  
BRANCH  34  35
HETATM   35  C   UNL     1      -8.472   7.616  66.041  1.00  0.00    -0.149 C  
BRANCH  35  36
HETATM   36  C   UNL     1      -7.961   6.184  65.886  1.00  0.00    -0.112 C  
BRANCH  36  37
HETATM   37  C   UNL     1      -7.947   5.402  67.198  1.00  0.00    -0.101 C  
HETATM   38  F   UNL     1      -9.232   5.074  67.518  1.00  0.00    -0.112 F  
HETATM   39  C   UNL     1      -7.264   6.134  68.363  1.00  0.00    -0.084 C  
HETATM   40  F   UNL     1      -7.318   4.214  66.952  1.00  0.00    -0.068 F  
HETATM   41  F   UNL     1      -6.671   7.284  67.978  1.00  0.00    -0.049 F  
HETATM   42  F   UNL     1      -8.155   6.437  69.337  1.00  0.00    -0.108 F  
HETATM   43  F   UNL     1      -6.301   5.373  68.941  1.00  0.00    -0.028 F  
ENDBRANCH  36  37
ENDBRANCH  35  36
ENDBRANCH  34  35
ENDBRANCH  32  34
ENDBRANCH  31  32
ENDBRANCH  30  31
ENDBRANCH  29  30
ENDBRANCH  28  29
ENDBRANCH  27  28
ENDBRANCH  26  27
ENDBRANCH  25  26
ENDBRANCH  24  25
ENDBRANCH  23  24
ENDBRANCH  21  23
TORSDOF 14
ENDMDL
MODEL      305
REMARK 921   NORMALIZED FREE ENERGY PREDICTED BY IDOCK:   20.46 KCAL/MOL
REMARK 922        TOTAL FREE ENERGY PREDICTED BY IDOCK:   33.91 KCAL/MOL
REMARK 923 INTER-LIGAND FREE ENERGY PREDICTED BY IDOCK:   28.25 KCAL/MOL
REMARK 924 INTRA-LIGAND FREE ENERGY PREDICTED BY IDOCK:    5.65 KCAL/MOL
REMARK 927      BINDING AFFINITY PREDICTED BY RF-SCORE:    0.00 PKD
ROOT
HETATM    1  C   UNL     1      -9.460  11.390  69.506  1.00  0.00     0.636 C  
HETATM    2  C   UNL     1     -10.498  11.700  70.428  1.00  0.00     2.006 C  
HETATM    3  C   UNL     1      -9.155  11.759  71.103  1.00  0.00    10.227 C  
HETATM    4  C   UNL     1      -7.689  11.750  69.697  1.00  0.00     0.740 C  
HETATM    5  O   UNL     1      -6.293  12.052  69.597  1.00  0.00    -0.117 OA 
HETATM    6  C   UNL     1      -8.390  12.905  69.944  1.00  0.00     2.597 C  
HETATM    7  C   UNL     1      -7.294  12.945  71.424  1.00  0.00     6.351 C  
HETATM    8  C   UNL     1      -8.547  14.140  69.132  1.00  0.00     0.217 C  
HETATM    9  H   UNL     1      -5.607  12.048  68.940  1.00  0.00     0.000 HD 
HETATM   10  C   UNL     1      -6.718  11.320  71.886  1.00  0.00     4.163 C  
HETATM   11  C   UNL     1      -7.506   9.873  71.427  1.00  0.00     1.055 C  
HETATM   12  C   UNL     1      -6.776   8.536  71.605  1.00  0.00    -0.079 A  
HETATM   13  C   UNL     1      -5.702   8.431  72.509  1.00  0.00    -0.055 A  
HETATM   14  C   UNL     1      -5.151   7.190  72.847  1.00  0.00    -0.037 A  
HETATM   15  C   UNL     1      -5.665   6.037  72.275  1.00  0.00    -0.032 A  
HETATM   16  C   UNL     1      -6.729   6.107  71.387  1.00  0.00    -0.055 A  
HETATM   17  O   UNL     1      -5.166   4.804  72.575  1.00  0.00    -0.004 OA 
HETATM   18  C   UNL     1      -7.322   7.344  71.068  1.00  0.00    -0.073 A  
HETATM   19  H   UNL     1      -5.517   4.014  72.183  1.00  0.00     0.000 HD 
HETATM   20  C   UNL     1      -8.530   7.312  70.148  1.00  0.00    -0.138 C  
HETATM   21  C   UNL     1      -9.489   8.523  70.250  1.00  0.00    -0.176 C  
HETATM   22  C   UNL     1      -8.604   9.777  70.053  1.00  0.00    -0.229 C  
ENDROOT
BRANCH  21  23
HETATM   23  C   UNL     1     -10.258   8.515  71.587  1.00  0.00    -0.336 C  
BRANCH  23  24
HETATM   24  C   UNL     1     -11.222   9.664  71.818  1.00  0.00    -0.129 C  
BRANCH  24  25
HETATM   25  C   UNL     1     -12.663   9.227  71.514  1.00  0.00    -0.426 C  
BRANCH  25  26
HETATM   26  C   UNL     1     -13.486  10.248  70.709  1.00  0.00    -0.015 C  
BRANCH  26  27
HETATM   27  C   UNL     1     -12.774  10.777  69.464  1.00  0.00     0.229 C  
BRANCH  27  28
HETATM   28  C   UNL     1     -11.607   9.879  69.052  1.00  0.00     0.097 C  
BRANCH  28  29
HETATM   29  C   UNL     1     -11.409   9.801  67.537  1.00  0.00     0.353 C  
BRANCH  29  30
HETATM   30  C   UNL     1     -12.168  10.863  66.727  1.00  0.00     2.518 C  
BRANCH  30  31
HETATM   31  C   UNL     1     -11.538  11.239  65.393  1.00  0.00     0.352 C  
BRANCH  31  32
HETATM   32  S   UNL     1     -10.307  12.573  65.563  1.00  0.00    -0.283 S  
HETATM   33  O   UNL     1     -10.389  13.077  66.974  1.00  0.00    -0.244 OA 
BRANCH  32  34
HETATM   34  C   UNL     1      -8.812  11.538  65.450  1.00  0.00     0.091 C  
BRANCH  34  35
HETATM   35  C   UNL     1      -9.053  10.129  65.981  1.00  0.00    -0.185 C  
BRANCH  35  36
HETATM   36  C   UNL     1      -9.045   9.096  64.856  1.00  0.00    -0.190 C  
BRANCH  36  37
HETATM   37  C   UNL     1      -7.694   8.407  64.676  1.00  0.00    -0.112 C  
HETATM   38  F   UNL     1      -7.626   7.916  63.405  1.00  0.00    -0.099 F  
HETATM   39  C   UNL     1      -7.405   7.303  65.704  1.00  0.00    -0.075 C  
HETATM   40  F   UNL     1      -6.734   9.378  64.743  1.00  0.00    -0.078 F  
HETATM   41  F   UNL     1      -8.344   7.237  66.673  1.00  0.00    -0.109 F  
HETATM   42  F   UNL     1      -7.344   6.088  65.110  1.00  0.00    -0.064 F  
HETATM   43  F   UNL     1      -6.215   7.492  66.327  1.00  0.00    -0.037 F  
ENDBRANCH  36  37
ENDBRANCH  35  36
ENDBRANCH  34  35
ENDBRANCH  32  34
ENDBRANCH  31  32
ENDBRANCH  30  31
ENDBRANCH  29  30
ENDBRANCH  28  29
ENDBRANCH  27  28
ENDBRANCH  26  27
ENDBRANCH  25  26
ENDBRANCH  24  25
ENDBRANCH  23  24
ENDBRANCH  21  23
TORSDOF 14
ENDMDL
MODEL      306
REMARK 921   NORMALIZED FREE ENERGY PREDICTED BY IDOCK:   29.81 KCAL/MOL
REMARK 922        TOTAL FREE ENERGY PREDICTED BY IDOCK:   50.91 KCAL/MOL
REMARK 923 INTER-LIGAND FREE ENERGY PREDICTED BY IDOCK:   46.54 KCAL/MOL
REMARK 924 INTRA-LIGAND FREE ENERGY PREDICTED BY IDOCK:    4.37 KCAL/MOL
REMARK 927      BINDING AFFINITY PREDICTED BY RF-SCORE:    0.00 PKD
ROOT
HETATM    1  C   UNL     1      -8.830  12.408  69.652  1.00  0.00     1.970 C  
HETATM    2  C   UNL     1     -10.137  12.619  70.176  1.00  0.00     2.804 C  
HETATM    3  C   UNL     1      -9.096  12.841  71.240  1.00  0.00    14.001 C  
HETATM    4  C   UNL     1      -7.261  12.967  70.378  1.00  0.00     2.015 C  
HETATM    5  O   UNL     1      -5.945  13.421  70.713  1.00  0.00    -0.311 OA 
HETATM    6  C   UNL     1      -8.115  14.042  70.324  1.00  0.00     1.947 C  
HETATM    7  C   UNL     1      -7.567  14.234  72.072  1.00  0.00     4.927 C  
HETATM    8  C   UNL     1      -8.123  15.236  69.439  1.00  0.00    -0.230 C  
HETATM    9  H   UNL     1      -5.087  13.480  70.310  1.00  0.00     0.000 HD 
HETATM   10  C   UNL     1      -7.012  12.692  72.782  1.00  0.00     8.138 C  
HETATM   11  C   UNL     1      -7.462  11.157  72.176  1.00  0.00     8.500 C  
HETATM   12  C   UNL     1      -6.700   9.914  72.651  1.00  0.00     1.665 A  
HETATM   13  C   UNL     1      -5.971   9.948  73.855  1.00  0.00     0.621 A  
HETATM   14  C   UNL     1      -5.439   8.783  74.418  1.00  0.00    -0.114 A  
HETATM   15  C   UNL     1      -5.623   7.569  73.776  1.00  0.00    -0.049 A  
HETATM   16  C   UNL     1      -6.344   7.502  72.593  1.00  0.00    -0.058 A  
HETATM   17  O   UNL     1      -5.128   6.405  74.286  1.00  0.00    -0.038 OA 
HETATM   18  C   UNL     1      -6.922   8.658  72.034  1.00  0.00    -0.081 A  
HETATM   19  H   UNL     1      -5.254   5.573  73.846  1.00  0.00     0.000 HD 
HETATM   20  C   UNL     1      -7.758   8.474  70.779  1.00  0.00    -0.087 C  
HETATM   21  C   UNL     1      -8.813   9.572  70.504  1.00  0.00    -0.253 C  
HETATM   22  C   UNL     1      -8.042  10.912  70.531  1.00  0.00     2.241 C  
ENDROOT
BRANCH  21  23
HETATM   23  C   UNL     1      -9.969   9.505  71.523  1.00  0.00     0.081 C  
BRANCH  23  24
HETATM   24  C   UNL     1     -11.077  10.528  71.356  1.00  0.00     0.863 C  
BRANCH  24  25
HETATM   25  C   UNL     1     -12.335   9.868  70.770  1.00  0.00    -0.363 C  
BRANCH  25  26
HETATM   26  C   UNL     1     -12.839  10.500  69.461  1.00  0.00     0.544 C  
BRANCH  26  27
HETATM   27  C   UNL     1     -11.764  10.644  68.385  1.00  0.00    -0.168 C  
BRANCH  27  28
HETATM   28  C   UNL     1     -10.530   9.796  68.699  1.00  0.00    -0.233 C  
BRANCH  28  29
HETATM   29  C   UNL     1      -9.929   9.122  67.464  1.00  0.00    -0.258 C  
BRANCH  29  30
HETATM   30  C   UNL     1     -10.294   9.777  66.123  1.00  0.00    -0.215 C  
BRANCH  30  31
HETATM   31  C   UNL     1      -9.283   9.576  65.002  1.00  0.00    -0.236 C  
BRANCH  31  32
HETATM   32  S   UNL     1      -7.666  10.323  65.389  1.00  0.00    -0.138 S  
HETATM   33  O   UNL     1      -7.832  11.111  66.655  1.00  0.00    -0.146 OA 
BRANCH  32  34
HETATM   34  C   UNL     1      -6.789   8.787  65.825  1.00  0.00    -0.072 C  
BRANCH  34  35
HETATM   35  C   UNL     1      -7.733   7.734  66.396  1.00  0.00    -0.093 C  
BRANCH  35  36
HETATM   36  C   UNL     1      -8.121   6.698  65.343  1.00  0.00    -0.129 C  
BRANCH  36  37
HETATM   37  C   UNL     1      -7.261   5.436  65.390  1.00  0.00    -0.068 C  
HETATM   38  F   UNL     1      -6.051   5.718  64.826  1.00  0.00    -0.023 F  
HETATM   39  C   UNL     1      -7.901   4.210  64.723  1.00  0.00    -0.085 C  
HETATM   40  F   UNL     1      -6.997   5.176  66.705  1.00  0.00    -0.058 F  
HETATM   41  F   UNL     1      -9.177   4.433  64.340  1.00  0.00    -0.142 F  
HETATM   42  F   UNL     1      -7.204   3.831  63.627  1.00  0.00    -0.046 F  
HETATM   43  F   UNL     1      -7.927   3.139  65.557  1.00  0.00    -0.082 F  
ENDBRANCH  36  37
ENDBRANCH  35  36
ENDBRANCH  34  35
ENDBRANCH  32  34
ENDBRANCH  31  32
ENDBRANCH  30  31
ENDBRANCH  29  30
ENDBRANCH  28  29
ENDBRANCH  27  28
ENDBRANCH  26  27
ENDBRANCH  25  26
ENDBRANCH  24  25
ENDBRANCH  23  24
ENDBRANCH  21  23
TORSDOF 14
ENDMDL
MODEL      307
REMARK 921   NORMALIZED FREE ENERGY PREDICTED BY IDOCK:   31.82 KCAL/MOL
REMARK 922        TOTAL FREE ENERGY PREDICTED BY IDOCK:   54.58 KCAL/MOL
REMARK 923 INTER-LIGAND FREE ENERGY PREDICTED BY IDOCK:   48.23 KCAL/MOL
REMARK 924 INTRA-LIGAND FREE ENERGY PREDICTED BY IDOCK:    6.35 KCAL/MOL
REMARK 927      BINDING AFFINITY PREDICTED BY RF-SCORE:    0.00 PKD
ROOT
HETATM    1  C   UNL     1      -8.830  12.408  69.652  1.00  0.00     1.970 C  
HETATM    2  C   UNL     1     -10.137  12.619  70.176  1.00  0.00     2.804 C  
HETATM    3  C   UNL     1      -9.096  12.841  71.240  1.00  0.00    14.001 C  
HETATM    4  C   UNL     1      -7.261  12.967  70.378  1.00  0.00     2.015 C  
HETATM    5  O   UNL     1      -5.945  13.421  70.713  1.00  0.00    -0.311 OA 
HETATM    6  C   UNL     1      -8.115  14.042  70.324  1.00  0.00     1.947 C  
HETATM    7  C   UNL     1      -7.567  14.234  72.072  1.00  0.00     4.927 C  
HETATM    8  C   UNL     1      -8.123  15.236  69.439  1.00  0.00    -0.230 C  
HETATM    9  H   UNL     1      -5.087  13.480  70.310  1.00  0.00     0.000 HD 
HETATM   10  C   UNL     1      -7.012  12.692  72.782  1.00  0.00     8.138 C  
HETATM   11  C   UNL     1      -7.462  11.157  72.176  1.00  0.00     8.500 C  
HETATM   12  C   UNL     1      -6.700   9.914  72.651  1.00  0.00     1.665 A  
HETATM   13  C   UNL     1      -5.971   9.948  73.855  1.00  0.00     0.621 A  
HETATM   14  C   UNL     1      -5.439   8.783  74.418  1.00  0.00    -0.114 A  
HETATM   15  C   UNL     1      -5.623   7.569  73.776  1.00  0.00    -0.049 A  
HETATM   16  C   UNL     1      -6.344   7.502  72.593  1.00  0.00    -0.058 A  
HETATM   17  O   UNL     1      -5.128   6.405  74.286  1.00  0.00    -0.038 OA 
HETATM   18  C   UNL     1      -6.922   8.658  72.034  1.00  0.00    -0.081 A  
HETATM   19  H   UNL     1      -5.254   5.573  73.846  1.00  0.00     0.000 HD 
HETATM   20  C   UNL     1      -7.758   8.474  70.779  1.00  0.00    -0.087 C  
HETATM   21  C   UNL     1      -8.813   9.572  70.504  1.00  0.00    -0.253 C  
HETATM   22  C   UNL     1      -8.042  10.912  70.531  1.00  0.00     2.241 C  
ENDROOT
BRANCH  21  23
HETATM   23  C   UNL     1      -9.969   9.505  71.523  1.00  0.00     0.081 C  
BRANCH  23  24
HETATM   24  C   UNL     1     -11.077  10.528  71.356  1.00  0.00     0.863 C  
BRANCH  24  25
HETATM   25  C   UNL     1     -12.335   9.868  70.770  1.00  0.00    -0.363 C  
BRANCH  25  26
HETATM   26  C   UNL     1     -13.511  10.830  70.529  1.00  0.00     0.436 C  
BRANCH  26  27
HETATM   27  C   UNL     1     -13.140  12.076  69.724  1.00  0.00     1.213 C  
BRANCH  27  28
HETATM   28  C   UNL     1     -11.792  11.916  69.019  1.00  0.00    -0.368 C  
BRANCH  28  29
HETATM   29  C   UNL     1     -11.772  12.507  67.608  1.00  0.00    -0.423 C  
BRANCH  29  30
HETATM   30  C   UNL     1     -12.848  13.569  67.333  1.00  0.00     1.204 C  
BRANCH  30  31
HETATM   31  C   UNL     1     -12.499  14.588  66.258  1.00  0.00    -0.101 C  
BRANCH  31  32
HETATM   32  S   UNL     1     -11.045  15.593  66.705  1.00  0.00    -0.063 S  
HETATM   33  O   UNL     1     -10.695  15.260  68.126  1.00  0.00    -0.245 OA 
BRANCH  32  34
HETATM   34  C   UNL     1      -9.831  14.748  65.642  1.00  0.00    -0.327 C  
BRANCH  34  35
HETATM   35  C   UNL     1      -9.911  13.231  65.780  1.00  0.00    -0.261 C  
BRANCH  35  36
HETATM   36  C   UNL     1     -10.700  12.604  64.631  1.00  0.00    -0.353 C  
BRANCH  36  37
HETATM   37  C   UNL     1     -10.673  11.077  64.642  1.00  0.00    -0.248 C  
HETATM   38  F   UNL     1     -11.957  10.624  64.722  1.00  0.00     0.797 F  
HETATM   39  C   UNL     1      -9.809  10.468  65.756  1.00  0.00    -0.237 C  
HETATM   40  F   UNL     1     -10.221  10.673  63.417  1.00  0.00    -0.372 F  
HETATM   41  F   UNL     1      -9.112  11.399  66.441  1.00  0.00    -0.169 F  
HETATM   42  F   UNL     1     -10.569   9.788  66.646  1.00  0.00    -0.292 F  
HETATM   43  F   UNL     1      -8.903   9.585  65.265  1.00  0.00    -0.150 F  
ENDBRANCH  36  37
ENDBRANCH  35  36
ENDBRANCH  34  35
ENDBRANCH  32  34
ENDBRANCH  31  32
ENDBRANCH  30  31
ENDBRANCH  29  30
ENDBRANCH  28  29
ENDBRANCH  27  28
ENDBRANCH  26  27
ENDBRANCH  25  26
ENDBRANCH  24  25
ENDBRANCH  23  24
ENDBRANCH  21  23
TORSDOF 14
ENDMDL
MODEL      308
REMARK 921   NORMALIZED FREE ENERGY PREDICTED BY IDOCK:   32.86 KCAL/MOL
REMARK 922        TOTAL FREE ENERGY PREDICTED BY IDOCK:   56.47 KCAL/MOL
REMARK 923 INTER-LIGAND FREE ENERGY PREDICTED BY IDOCK:   44.10 KCAL/MOL
REMARK 924 INTRA-LIGAND FREE ENERGY PREDICTED BY IDOCK:   12.37 KCAL/MOL
REMARK 927      BINDING AFFINITY PREDICTED BY RF-SCORE:    0.00 PKD
ROOT
HETATM    1  C   UNL     1      -9.691  10.289  64.954  1.00  0.00    -0.385 C  
HETATM    2  C   UNL     1      -9.266  10.681  63.654  1.00  0.00    -0.283 C  
HETATM    3  C   UNL     1      -8.083  10.335  64.517  1.00  0.00    -0.150 C  
HETATM    4  C   UNL     1      -8.721   9.374  66.189  1.00  0.00    -0.147 C  
HETATM    5  O   UNL     1      -8.178   8.560  67.235  1.00  0.00    -0.107 OA 
HETATM    6  C   UNL     1      -8.649   8.694  64.997  1.00  0.00    -0.185 C  
HETATM    7  C   UNL     1      -6.852   8.700  65.402  1.00  0.00    -0.071 C  
HETATM    8  C   UNL     1      -9.283   7.422  64.562  1.00  0.00     1.437 C  
HETATM    9  H   UNL     1      -8.476   8.111  68.016  1.00  0.00     0.000 HD 
HETATM   10  C   UNL     1      -6.403  10.053  66.477  1.00  0.00    -0.072 C  
HETATM   11  C   UNL     1      -7.337  11.477  66.642  1.00  0.00    -0.069 C  
HETATM   12  C   UNL     1      -7.039  12.434  67.804  1.00  0.00    -0.120 A  
HETATM   13  C   UNL     1      -5.787  12.401  68.445  1.00  0.00    -0.056 A  
HETATM   14  C   UNL     1      -5.410  13.389  69.362  1.00  0.00    -0.076 A  
HETATM   15  C   UNL     1      -6.290  14.418  69.655  1.00  0.00    -0.140 A  
HETATM   16  C   UNL     1      -7.529  14.483  69.033  1.00  0.00    -0.131 A  
HETATM   17  O   UNL     1      -5.969  15.407  70.538  1.00  0.00    -0.118 OA 
HETATM   18  C   UNL     1      -7.906  13.521  68.077  1.00  0.00    -0.147 A  
HETATM   19  H   UNL     1      -6.572  16.112  70.740  1.00  0.00     0.000 HD 
HETATM   20  C   UNL     1      -9.248  13.718  67.393  1.00  0.00    -0.221 C  
HETATM   21  C   UNL     1      -9.408  13.042  66.010  1.00  0.00    -0.024 C  
HETATM   22  C   UNL     1      -9.046  11.553  66.226  1.00  0.00    -0.215 C  
ENDROOT
BRANCH  21  23
HETATM   23  C   UNL     1      -8.538  13.738  64.944  1.00  0.00     4.243 C  
BRANCH  23  24
HETATM   24  C   UNL     1      -8.347  15.236  65.100  1.00  0.00     4.293 C  
BRANCH  24  25
HETATM   25  C   UNL     1      -9.637  15.984  64.729  1.00  0.00     1.658 C  
BRANCH  25  26
HETATM   26  C   UNL     1     -10.859  15.078  64.496  1.00  0.00    -0.152 C  
BRANCH  26  27
HETATM   27  C   UNL     1     -11.976  15.267  65.522  1.00  0.00     0.224 C  
BRANCH  27  28
HETATM   28  C   UNL     1     -12.416  16.729  65.620  1.00  0.00     4.244 C  
BRANCH  28  29
HETATM   29  C   UNL     1     -12.652  17.383  64.258  1.00  0.00     7.077 C  
BRANCH  29  30
HETATM   30  C   UNL     1     -11.619  18.451  63.862  1.00  0.00     8.274 C  
BRANCH  30  31
HETATM   31  C   UNL     1     -10.710  18.927  64.986  1.00  0.00     1.293 C  
BRANCH  31  32
HETATM   32  S   UNL     1      -9.759  17.562  65.730  1.00  0.00     0.215 S  
HETATM   33  O   UNL     1      -8.827  17.043  64.675  1.00  0.00     3.280 OA 
BRANCH  32  34
HETATM   34  C   UNL     1      -8.762  18.561  66.881  1.00  0.00    -0.286 C  
BRANCH  34  35
HETATM   35  C   UNL     1      -8.231  17.731  68.044  1.00  0.00    -0.248 C  
BRANCH  35  36
HETATM   36  C   UNL     1      -9.357  16.994  68.768  1.00  0.00    -0.257 C  
BRANCH  36  37
HETATM   37  C   UNL     1      -9.526  17.426  70.223  1.00  0.00     2.290 C  
HETATM   38  F   UNL     1      -9.328  16.337  71.021  1.00  0.00     1.854 F  
HETATM   39  C   UNL     1     -10.876  18.091  70.531  1.00  0.00     2.133 C  
HETATM   40  F   UNL     1      -8.500  18.281  70.512  1.00  0.00     2.275 F  
HETATM   41  F   UNL     1     -11.616  18.303  69.423  1.00  0.00     1.966 F  
HETATM   42  F   UNL     1     -11.611  17.332  71.377  1.00  0.00     0.107 F  
HETATM   43  F   UNL     1     -10.717  19.298  71.131  1.00  0.00     0.893 F  
ENDBRANCH  36  37
ENDBRANCH  35  36
ENDBRANCH  34  35
ENDBRANCH  32  34
ENDBRANCH  31  32
ENDBRANCH  30  31
ENDBRANCH  29  30
ENDBRANCH  28  29
ENDBRANCH  27  28
ENDBRANCH  26  27
ENDBRANCH  25  26
ENDBRANCH  24  25
ENDBRANCH  23  24
ENDBRANCH  21  23
TORSDOF 14
ENDMDL
MODEL      309
REMARK 921   NORMALIZED FREE ENERGY PREDICTED BY IDOCK:   33.00 KCAL/MOL
REMARK 922        TOTAL FREE ENERGY PREDICTED BY IDOCK:   56.72 KCAL/MOL
REMARK 923 INTER-LIGAND FREE ENERGY PREDICTED BY IDOCK:   46.02 KCAL/MOL
REMARK 924 INTRA-LIGAND FREE ENERGY PREDICTED BY IDOCK:   10.70 KCAL/MOL
REMARK 927      BINDING AFFINITY PREDICTED BY RF-SCORE:    0.00 PKD
ROOT
HETATM    1  C   UNL     1      -6.250   8.399  70.215  1.00  0.00    -0.034 C  
HETATM    2  C   UNL     1      -5.896   8.945  71.480  1.00  0.00    -0.057 C  
HETATM    3  C   UNL     1      -7.311   9.310  71.123  1.00  0.00    -0.050 C  
HETATM    4  C   UNL     1      -7.929   8.176  69.555  1.00  0.00    -0.113 C  
HETATM    5  O   UNL     1      -9.154   7.802  68.915  1.00  0.00    -0.141 OA 
HETATM    6  C   UNL     1      -7.888   7.632  70.816  1.00  0.00    -0.096 C  
HETATM    7  C   UNL     1      -9.429   8.623  71.010  1.00  0.00    -0.261 C  
HETATM    8  C   UNL     1      -7.883   6.216  71.266  1.00  0.00    -0.111 C  
HETATM    9  H   UNL     1      -9.443   7.271  68.183  1.00  0.00     0.000 HD 
HETATM   10  C   UNL     1      -9.487  10.013  69.892  1.00  0.00    -0.221 C  
HETATM   11  C   UNL     1      -8.098  10.699  69.165  1.00  0.00    -0.143 C  
HETATM   12  C   UNL     1      -8.274  11.675  67.996  1.00  0.00    -0.146 A  
HETATM   13  C   UNL     1      -9.500  12.339  67.805  1.00  0.00    -0.197 A  
HETATM   14  C   UNL     1      -9.630  13.382  66.881  1.00  0.00    -0.257 A  
HETATM   15  C   UNL     1      -8.532  13.767  66.129  1.00  0.00     0.983 A  
HETATM   16  C   UNL     1      -7.307  13.139  66.300  1.00  0.00     2.256 A  
HETATM   17  O   UNL     1      -8.605  14.781  65.219  1.00  0.00     1.320 OA 
HETATM   18  C   UNL     1      -7.149  12.116  67.255  1.00  0.00    -0.144 A  
HETATM   19  H   UNL     1      -7.853  15.045  64.704  1.00  0.00     0.000 HD 
HETATM   20  C   UNL     1      -5.753  11.541  67.425  1.00  0.00    -0.077 C  
HETATM   21  C   UNL     1      -5.459  10.872  68.789  1.00  0.00    -0.040 C  
HETATM   22  C   UNL     1      -6.580   9.825  68.993  1.00  0.00    -0.049 C  
ENDROOT
BRANCH  21  23
HETATM   23  C   UNL     1      -5.382  11.919  69.920  1.00  0.00    -0.087 C  
BRANCH  23  24
HETATM   24  C   UNL     1      -6.059  13.250  69.656  1.00  0.00    -0.118 C  
BRANCH  24  25
HETATM   25  C   UNL     1      -7.136  13.526  70.717  1.00  0.00     1.988 C  
BRANCH  25  26
HETATM   26  C   UNL     1      -7.405  15.017  70.985  1.00  0.00     1.530 C  
BRANCH  26  27
HETATM   27  C   UNL     1      -6.677  15.569  72.211  1.00  0.00     3.290 C  
BRANCH  27  28
HETATM   28  C   UNL     1      -7.620  15.732  73.404  1.00  0.00    11.268 C  
BRANCH  28  29
HETATM   29  C   UNL     1      -8.608  14.574  73.557  1.00  0.00     9.528 C  
BRANCH  29  30
HETATM   30  C   UNL     1      -9.641  14.448  72.426  1.00  0.00     7.067 C  
BRANCH  30  31
HETATM   31  C   UNL     1      -9.063  14.199  71.040  1.00  0.00     4.986 C  
BRANCH  31  32
HETATM   32  S   UNL     1     -10.164  14.796  69.715  1.00  0.00     0.126 S  
HETATM   33  O   UNL     1     -11.264  13.786  69.563  1.00  0.00    -0.236 OA 
BRANCH  32  34
HETATM   34  C   UNL     1     -10.864  16.221  70.607  1.00  0.00    -0.030 C  
BRANCH  34  35
HETATM   35  C   UNL     1     -12.219  16.636  70.043  1.00  0.00     1.460 C  
BRANCH  35  36
HETATM   36  C   UNL     1     -12.069  17.634  68.897  1.00  0.00     3.691 C  
BRANCH  36  37
HETATM   37  C   UNL     1     -11.118  17.159  67.801  1.00  0.00    -0.065 C  
HETATM   38  F   UNL     1     -11.196  15.799  67.722  1.00  0.00    -0.324 F  
HETATM   39  C   UNL     1      -9.662  17.611  67.987  1.00  0.00    -0.301 C  
HETATM   40  F   UNL     1     -11.608  17.621  66.612  1.00  0.00     0.607 F  
HETATM   41  F   UNL     1      -9.513  18.472  69.017  1.00  0.00    -0.331 F  
HETATM   42  F   UNL     1      -8.848  16.554  68.215  1.00  0.00    -0.189 F  
HETATM   43  F   UNL     1      -9.184  18.238  66.883  1.00  0.00    -0.256 F  
ENDBRANCH  36  37
ENDBRANCH  35  36
ENDBRANCH  34  35
ENDBRANCH  32  34
ENDBRANCH  31  32
ENDBRANCH  30  31
ENDBRANCH  29  30
ENDBRANCH  28  29
ENDBRANCH  27  28
ENDBRANCH  26  27
ENDBRANCH  25  26
ENDBRANCH  24  25
ENDBRANCH  23  24
ENDBRANCH  21  23
TORSDOF 14
ENDMDL
MODEL      310
REMARK 921   NORMALIZED FREE ENERGY PREDICTED BY IDOCK:   33.89 KCAL/MOL
REMARK 922        TOTAL FREE ENERGY PREDICTED BY IDOCK:   58.33 KCAL/MOL
REMARK 923 INTER-LIGAND FREE ENERGY PREDICTED BY IDOCK:   40.93 KCAL/MOL
REMARK 924 INTRA-LIGAND FREE ENERGY PREDICTED BY IDOCK:   17.41 KCAL/MOL
REMARK 927      BINDING AFFINITY PREDICTED BY RF-SCORE:    0.00 PKD
ROOT
HETATM    1  C   UNL     1      -7.989  15.023  65.694  1.00  0.00     3.539 C  
HETATM    2  C   UNL     1      -9.097  15.917  65.682  1.00  0.00    -0.003 C  
HETATM    3  C   UNL     1      -8.649  15.646  67.093  1.00  0.00    -0.235 C  
HETATM    4  C   UNL     1      -6.831  14.740  67.066  1.00  0.00     0.574 C  
HETATM    5  O   UNL     1      -5.751  14.471  67.966  1.00  0.00    -0.124 OA 
HETATM    6  C   UNL     1      -6.922  16.094  66.854  1.00  0.00    -0.187 C  
HETATM    7  C   UNL     1      -7.152  16.103  68.681  1.00  0.00    -0.147 C  
HETATM    8  C   UNL     1      -5.959  17.051  66.246  1.00  0.00     0.046 C  
HETATM    9  H   UNL     1      -4.901  14.047  67.954  1.00  0.00     0.000 HD 
HETATM   10  C   UNL     1      -7.799  14.554  69.290  1.00  0.00    -0.023 C  
HETATM   11  C   UNL     1      -8.645  13.434  68.312  1.00  0.00    -0.169 C  
HETATM   12  C   UNL     1      -8.886  12.015  68.842  1.00  0.00     0.202 A  
HETATM   13  C   UNL     1      -8.827  11.755  70.224  1.00  0.00     3.961 A  
HETATM   14  C   UNL     1      -9.242  10.528  70.754  1.00  0.00     2.133 A  
HETATM   15  C   UNL     1      -9.712   9.541  69.902  1.00  0.00    -0.224 A  
HETATM   16  C   UNL     1      -9.789   9.770  68.536  1.00  0.00    -0.169 A  
HETATM   17  O   UNL     1     -10.131   8.330  70.369  1.00  0.00    -0.187 OA 
HETATM   18  C   UNL     1      -9.416  11.013  67.991  1.00  0.00    -0.169 A  
HETATM   19  H   UNL     1     -10.453   7.654  69.786  1.00  0.00     0.000 HD 
HETATM   20  C   UNL     1      -9.609  11.197  66.495  1.00  0.00    -0.222 C  
HETATM   21  C   UNL     1      -9.746  12.658  66.006  1.00  0.00    -0.232 C  
HETATM   22  C   UNL     1      -8.508  13.404  66.557  1.00  0.00     0.288 C  
ENDROOT
BRANCH  21  23
HETATM   23  C   UNL     1     -11.087  13.275  66.455  1.00  0.00    -0.313 C  
BRANCH  23  24
HETATM   24  C   UNL     1     -12.345  12.649  65.881  1.00  0.00    -0.247 C  
BRANCH  24  25
HETATM   25  C   UNL     1     -12.029  11.280  65.260  1.00  0.00     0.897 C  
BRANCH  25  26
HETATM   26  C   UNL     1     -12.880  10.119  65.803  1.00  0.00    11.197 C  
BRANCH  26  27
HETATM   27  C   UNL     1     -12.121   8.798  65.932  1.00  0.00     9.958 C  
BRANCH  27  28
HETATM   28  C   UNL     1     -12.072   8.311  67.381  1.00  0.00     5.224 C  
BRANCH  28  29
HETATM   29  C   UNL     1     -10.678   7.862  67.823  1.00  0.00    -0.189 C  
BRANCH  29  30
HETATM   30  C   UNL     1     -10.507   7.670  69.338  1.00  0.00    -0.220 C  
BRANCH  30  31
HETATM   31  C   UNL     1     -11.765   7.263  70.090  1.00  0.00    -0.057 C  
BRANCH  31  32
HETATM   32  S   UNL     1     -11.561   5.682  70.974  1.00  0.00     0.593 S  
HETATM   33  O   UNL     1     -12.775   4.849  70.682  1.00  0.00     6.447 OA 
BRANCH  32  34
HETATM   34  C   UNL     1     -10.199   5.015  69.965  1.00  0.00    -0.269 C  
BRANCH  34  35
HETATM   35  C   UNL     1      -8.954   5.892  70.039  1.00  0.00    -0.146 C  
BRANCH  35  36
HETATM   36  C   UNL     1      -7.751   5.216  69.382  1.00  0.00    -0.076 C  
BRANCH  36  37
HETATM   37  C   UNL     1      -7.776   3.693  69.496  1.00  0.00    -0.051 C  
HETATM   38  F   UNL     1      -6.534   3.269  69.869  1.00  0.00    -0.029 F  
HETATM   39  C   UNL     1      -8.240   2.971  68.223  1.00  0.00    -0.068 C  
HETATM   40  F   UNL     1      -8.597   3.380  70.543  1.00  0.00    -0.080 F  
HETATM   41  F   UNL     1      -8.681   3.824  67.273  1.00  0.00    -0.099 F  
HETATM   42  F   UNL     1      -7.237   2.240  67.683  1.00  0.00    -0.048 F  
HETATM   43  F   UNL     1      -9.257   2.109  68.474  1.00  0.00    -0.146 F  
ENDBRANCH  36  37
ENDBRANCH  35  36
ENDBRANCH  34  35
ENDBRANCH  32  34
ENDBRANCH  31  32
ENDBRANCH  30  31
ENDBRANCH  29  30
ENDBRANCH  28  29
ENDBRANCH  27  28
ENDBRANCH  26  27
ENDBRANCH  25  26
ENDBRANCH  24  25
ENDBRANCH  23  24
ENDBRANCH  21  23
TORSDOF 14
ENDMDL
MODEL      311
REMARK 921   NORMALIZED FREE ENERGY PREDICTED BY IDOCK:   35.66 KCAL/MOL
REMARK 922        TOTAL FREE ENERGY PREDICTED BY IDOCK:   61.55 KCAL/MOL
REMARK 923 INTER-LIGAND FREE ENERGY PREDICTED BY IDOCK:   51.20 KCAL/MOL
REMARK 924 INTRA-LIGAND FREE ENERGY PREDICTED BY IDOCK:   10.35 KCAL/MOL
REMARK 927      BINDING AFFINITY PREDICTED BY RF-SCORE:    0.00 PKD
ROOT
HETATM    1  C   UNL     1      -8.834  12.408  69.656  1.00  0.00     1.970 C  
HETATM    2  C   UNL     1     -10.137  12.623  70.185  1.00  0.00     2.804 C  
HETATM    3  C   UNL     1      -9.093  12.835  71.247  1.00  0.00    14.001 C  
HETATM    4  C   UNL     1      -7.260  12.957  70.380  1.00  0.00     2.110 C  
HETATM    5  O   UNL     1      -5.940  13.403  70.713  1.00  0.00    -0.311 OA 
HETATM    6  C   UNL     1      -8.109  14.035  70.334  1.00  0.00     2.291 C  
HETATM    7  C   UNL     1      -7.555  14.217  72.081  1.00  0.00     5.537 C  
HETATM    8  C   UNL     1      -8.114  15.233  69.453  1.00  0.00    -0.230 C  
HETATM    9  H   UNL     1      -5.083  13.460  70.308  1.00  0.00     0.000 HD 
HETATM   10  C   UNL     1      -7.005  12.669  72.782  1.00  0.00     8.138 C  
HETATM   11  C   UNL     1      -7.464  11.139  72.170  1.00  0.00     8.500 C  
HETATM   12  C   UNL     1      -6.707   9.891  72.638  1.00  0.00     1.665 A  
HETATM   13  C   UNL     1      -5.974   9.915  73.839  1.00  0.00     0.621 A  
HETATM   14  C   UNL     1      -5.446   8.745  74.396  1.00  0.00    -0.114 A  
HETATM   15  C   UNL     1      -5.638   7.535  73.749  1.00  0.00    -0.049 A  
HETATM   16  C   UNL     1      -6.362   7.477  72.568  1.00  0.00    -0.051 A  
HETATM   17  O   UNL     1      -5.147   6.367  74.253  1.00  0.00    -0.038 OA 
HETATM   18  C   UNL     1      -6.936   8.638  72.015  1.00  0.00    -0.081 A  
HETATM   19  H   UNL     1      -5.278   5.537  73.810  1.00  0.00     0.000 HD 
HETATM   20  C   UNL     1      -7.777   8.464  70.762  1.00  0.00    -0.083 C  
HETATM   21  C   UNL     1      -8.828   9.568  70.495  1.00  0.00    -0.253 C  
HETATM   22  C   UNL     1      -8.050  10.905  70.526  1.00  0.00     2.241 C  
ENDROOT
BRANCH  21  23
HETATM   23  C   UNL     1      -9.981   9.502  71.517  1.00  0.00     0.081 C  
BRANCH  23  24
HETATM   24  C   UNL     1     -11.086  10.529  71.357  1.00  0.00     0.863 C  
BRANCH  24  25
HETATM   25  C   UNL     1     -12.350   9.873  70.779  1.00  0.00    -0.363 C  
BRANCH  25  26
HETATM   26  C   UNL     1     -13.206  10.798  69.897  1.00  0.00     0.525 C  
BRANCH  26  27
HETATM   27  C   UNL     1     -12.423  11.499  68.787  1.00  0.00     0.427 C  
BRANCH  27  28
HETATM   28  C   UNL     1     -10.921  11.228  68.894  1.00  0.00    -0.274 C  
BRANCH  28  29
HETATM   29  C   UNL     1     -10.247  11.005  67.539  1.00  0.00    -0.219 C  
BRANCH  29  30
HETATM   30  C   UNL     1     -11.007  11.582  66.333  1.00  0.00    -0.336 C  
BRANCH  30  31
HETATM   31  C   UNL     1     -10.735  10.895  65.002  1.00  0.00    -0.146 C  
BRANCH  31  32
HETATM   32  S   UNL     1      -8.991  11.042  64.493  1.00  0.00     0.018 S  
HETATM   33  O   UNL     1      -8.326  11.985  65.452  1.00  0.00     0.641 OA 
BRANCH  32  34
HETATM   34  C   UNL     1      -8.464   9.358  64.945  1.00  0.00    -0.163 C  
BRANCH  34  35
HETATM   35  C   UNL     1      -8.927   8.974  66.347  1.00  0.00    -0.189 C  
BRANCH  35  36
HETATM   36  C   UNL     1     -10.383   8.510  66.350  1.00  0.00    -0.081 C  
BRANCH  36  37
HETATM   37  C   UNL     1     -10.842   7.968  67.702  1.00  0.00    -0.038 C  
HETATM   38  F   UNL     1     -10.030   8.481  68.670  1.00  0.00    -0.164 F  
HETATM   39  C   UNL     1     -10.889   6.435  67.786  1.00  0.00    -0.334 C  
HETATM   40  F   UNL     1     -12.079   8.493  67.948  1.00  0.00     1.992 F  
HETATM   41  F   UNL     1     -10.650   5.842  66.596  1.00  0.00    -0.253 F  
HETATM   42  F   UNL     1      -9.975   5.966  68.668  1.00  0.00    -0.135 F  
HETATM   43  F   UNL     1     -12.099   5.990  68.207  1.00  0.00     0.680 F  
ENDBRANCH  36  37
ENDBRANCH  35  36
ENDBRANCH  34  35
ENDBRANCH  32  34
ENDBRANCH  31  32
ENDBRANCH  30  31
ENDBRANCH  29  30
ENDBRANCH  28  29
ENDBRANCH  27  28
ENDBRANCH  26  27
ENDBRANCH  25  26
ENDBRANCH  24  25
ENDBRANCH  23  24
ENDBRANCH  21  23
TORSDOF 14
ENDMDL
MODEL      312
REMARK 921   NORMALIZED FREE ENERGY PREDICTED BY IDOCK:   37.73 KCAL/MOL
REMARK 922        TOTAL FREE ENERGY PREDICTED BY IDOCK:   65.31 KCAL/MOL
REMARK 923 INTER-LIGAND FREE ENERGY PREDICTED BY IDOCK:   62.93 KCAL/MOL
REMARK 924 INTRA-LIGAND FREE ENERGY PREDICTED BY IDOCK:    2.38 KCAL/MOL
REMARK 927      BINDING AFFINITY PREDICTED BY RF-SCORE:    0.00 PKD
ROOT
HETATM    1  C   UNL     1      -8.458  18.747  70.989  1.00  0.00     5.250 C  
HETATM    2  C   UNL     1      -9.770  18.325  71.343  1.00  0.00     5.670 C  
HETATM    3  C   UNL     1      -8.760  17.267  71.694  1.00  0.00    11.007 C  
HETATM    4  C   UNL     1      -6.890  18.053  71.591  1.00  0.00     4.650 C  
HETATM    5  O   UNL     1      -5.565  17.739  72.035  1.00  0.00     0.192 OA 
HETATM    6  C   UNL     1      -7.684  18.323  72.678  1.00  0.00    10.572 C  
HETATM    7  C   UNL     1      -7.192  16.609  73.136  1.00  0.00    11.574 C  
HETATM    8  C   UNL     1      -7.597  19.395  73.705  1.00  0.00     7.086 C  
HETATM    9  H   UNL     1      -4.691  18.107  71.987  1.00  0.00     0.000 HD 
HETATM   10  C   UNL     1      -6.745  15.628  71.713  1.00  0.00     2.722 C  
HETATM   11  C   UNL     1      -7.252  15.991  70.119  1.00  0.00     0.610 C  
HETATM   12  C   UNL     1      -6.573  15.281  68.941  1.00  0.00    -0.108 A  
HETATM   13  C   UNL     1      -5.889  14.068  69.144  1.00  0.00    -0.087 A  
HETATM   14  C   UNL     1      -5.440  13.295  68.068  1.00  0.00    -0.111 A  
HETATM   15  C   UNL     1      -5.662  13.734  66.773  1.00  0.00     2.092 A  
HETATM   16  C   UNL     1      -6.342  14.922  66.540  1.00  0.00     2.733 A  
HETATM   17  O   UNL     1      -5.248  13.016  65.690  1.00  0.00     3.126 OA 
HETATM   18  C   UNL     1      -6.837  15.691  67.610  1.00  0.00    -0.201 A  
HETATM   19  H   UNL     1      -5.400  13.316  64.802  1.00  0.00     0.000 HD 
HETATM   20  C   UNL     1      -7.635  16.934  67.256  1.00  0.00    -0.199 C  
HETATM   21  C   UNL     1      -8.621  17.436  68.338  1.00  0.00    -0.270 C  
HETATM   22  C   UNL     1      -7.782  17.596  69.628  1.00  0.00     0.687 C  
ENDROOT
BRANCH  21  23
HETATM   23  C   UNL     1      -9.815  16.473  68.496  1.00  0.00    -0.243 C  
BRANCH  23  24
HETATM   24  C   UNL     1     -10.058  15.504  67.353  1.00  0.00    -0.246 C  
BRANCH  24  25
HETATM   25  C   UNL     1     -11.512  15.010  67.366  1.00  0.00    -0.326 C  
BRANCH  25  26
HETATM   26  C   UNL     1     -11.674  13.499  67.611  1.00  0.00    -0.398 C  
BRANCH  26  27
HETATM   27  C   UNL     1     -11.177  13.034  68.980  1.00  0.00    -0.316 C  
BRANCH  27  28
HETATM   28  C   UNL     1     -10.804  11.551  68.974  1.00  0.00    -0.258 C  
BRANCH  28  29
HETATM   29  C   UNL     1     -11.398  10.772  70.150  1.00  0.00    -0.390 C  
BRANCH  29  30
HETATM   30  C   UNL     1     -11.310   9.243  70.027  1.00  0.00    -0.137 C  
BRANCH  30  31
HETATM   31  C   UNL     1     -10.244   8.580  70.887  1.00  0.00    -0.200 C  
BRANCH  31  32
HETATM   32  S   UNL     1     -10.833   8.239  72.578  1.00  0.00    -0.311 S  
HETATM   33  O   UNL     1     -11.858   7.148  72.479  1.00  0.00    -0.229 OA 
BRANCH  32  34
HETATM   34  C   UNL     1      -9.305   7.484  73.219  1.00  0.00    -0.219 C  
BRANCH  34  35
HETATM   35  C   UNL     1      -8.414   6.961  72.097  1.00  0.00    -0.114 C  
BRANCH  35  36
HETATM   36  C   UNL     1      -9.061   7.159  70.727  1.00  0.00    -0.153 C  
BRANCH  36  37
HETATM   37  C   UNL     1      -8.347   6.406  69.606  1.00  0.00    -0.126 C  
HETATM   38  F   UNL     1      -8.217   5.101  69.980  1.00  0.00    -0.078 F  
HETATM   39  C   UNL     1      -6.987   7.000  69.212  1.00  0.00    -0.074 C  
HETATM   40  F   UNL     1      -9.188   6.394  68.530  1.00  0.00    -0.126 F  
HETATM   41  F   UNL     1      -6.731   8.171  69.834  1.00  0.00    -0.041 F  
HETATM   42  F   UNL     1      -5.978   6.148  69.510  1.00  0.00    -0.020 F  
HETATM   43  F   UNL     1      -6.910   7.241  67.879  1.00  0.00    -0.059 F  
ENDBRANCH  36  37
ENDBRANCH  35  36
ENDBRANCH  34  35
ENDBRANCH  32  34
ENDBRANCH  31  32
ENDBRANCH  30  31
ENDBRANCH  29  30
ENDBRANCH  28  29
ENDBRANCH  27  28
ENDBRANCH  26  27
ENDBRANCH  25  26
ENDBRANCH  24  25
ENDBRANCH  23  24
ENDBRANCH  21  23
TORSDOF 14
ENDMDL
MODEL      313
REMARK 921   NORMALIZED FREE ENERGY PREDICTED BY IDOCK:   38.06 KCAL/MOL
REMARK 922        TOTAL FREE ENERGY PREDICTED BY IDOCK:   65.91 KCAL/MOL
REMARK 923 INTER-LIGAND FREE ENERGY PREDICTED BY IDOCK:   63.61 KCAL/MOL
REMARK 924 INTRA-LIGAND FREE ENERGY PREDICTED BY IDOCK:    2.30 KCAL/MOL
REMARK 927      BINDING AFFINITY PREDICTED BY RF-SCORE:    0.00 PKD
ROOT
HETATM    1  C   UNL     1      -8.458  18.747  70.989  1.00  0.00     5.250 C  
HETATM    2  C   UNL     1      -9.766  18.311  71.344  1.00  0.00     5.670 C  
HETATM    3  C   UNL     1      -8.745  17.261  71.689  1.00  0.00    11.007 C  
HETATM    4  C   UNL     1      -6.882  18.066  71.585  1.00  0.00     4.650 C  
HETATM    5  O   UNL     1      -5.554  17.763  72.026  1.00  0.00     0.192 OA 
HETATM    6  C   UNL     1      -7.677  18.325  72.675  1.00  0.00    10.572 C  
HETATM    7  C   UNL     1      -7.168  16.613  73.127  1.00  0.00    11.574 C  
HETATM    8  C   UNL     1      -7.599  19.393  73.706  1.00  0.00     7.086 C  
HETATM    9  H   UNL     1      -4.683  18.139  71.978  1.00  0.00     0.000 HD 
HETATM   10  C   UNL     1      -6.714  15.642  71.699  1.00  0.00     2.488 C  
HETATM   11  C   UNL     1      -7.227  16.006  70.108  1.00  0.00     0.610 C  
HETATM   12  C   UNL     1      -6.544  15.307  68.926  1.00  0.00    -0.108 A  
HETATM   13  C   UNL     1      -5.847  14.100  69.123  1.00  0.00    -0.087 A  
HETATM   14  C   UNL     1      -5.393  13.335  68.043  1.00  0.00    -0.109 A  
HETATM   15  C   UNL     1      -5.622  13.777  66.750  1.00  0.00     2.076 A  
HETATM   16  C   UNL     1      -6.313  14.958  66.523  1.00  0.00     2.733 A  
HETATM   17  O   UNL     1      -5.202  13.066  65.664  1.00  0.00     3.126 OA 
HETATM   18  C   UNL     1      -6.814  15.718  67.597  1.00  0.00    -0.198 A  
HETATM   19  H   UNL     1      -5.359  13.368  64.778  1.00  0.00     0.000 HD 
HETATM   20  C   UNL     1      -7.624  16.955  67.248  1.00  0.00    -0.199 C  
HETATM   21  C   UNL     1      -8.613  17.444  68.333  1.00  0.00    -0.270 C  
HETATM   22  C   UNL     1      -7.773  17.608  69.623  1.00  0.00     0.687 C  
ENDROOT
BRANCH  21  23
HETATM   23  C   UNL     1      -9.798  16.469  68.490  1.00  0.00    -0.243 C  
BRANCH  23  24
HETATM   24  C   UNL     1     -10.033  15.501  67.344  1.00  0.00    -0.234 C  
BRANCH  24  25
HETATM   25  C   UNL     1     -11.483  14.993  67.358  1.00  0.00    -0.326 C  
BRANCH  25  26
HETATM   26  C   UNL     1     -11.625  13.464  67.454  1.00  0.00    -0.394 C  
BRANCH  26  27
HETATM   27  C   UNL     1     -11.076  12.868  68.749  1.00  0.00    -0.305 C  
BRANCH  27  28
HETATM   28  C   UNL     1     -10.694  11.397  68.580  1.00  0.00    -0.235 C  
BRANCH  28  29
HETATM   29  C   UNL     1      -9.722  10.896  69.651  1.00  0.00     0.206 C  
BRANCH  29  30
HETATM   30  C   UNL     1      -9.547   9.370  69.706  1.00  0.00    -0.216 C  
BRANCH  30  31
HETATM   31  C   UNL     1      -8.248   8.841  69.115  1.00  0.00    -0.119 C  
BRANCH  31  32
HETATM   32  S   UNL     1      -7.038   8.390  70.401  1.00  0.00    -0.039 S  
HETATM   33  O   UNL     1      -7.566   7.171  71.100  1.00  0.00    -0.083 OA 
BRANCH  32  34
HETATM   34  C   UNL     1      -5.703   7.835  69.292  1.00  0.00    -0.030 C  
BRANCH  34  35
HETATM   35  C   UNL     1      -6.229   7.461  67.911  1.00  0.00    -0.043 C  
BRANCH  35  36
HETATM   36  C   UNL     1      -7.524   8.201  67.583  1.00  0.00    -0.094 C  
BRANCH  36  37
HETATM   37  C   UNL     1      -8.236   7.657  66.347  1.00  0.00    -0.124 C  
HETATM   38  F   UNL     1      -9.006   8.653  65.820  1.00  0.00    -0.179 F  
HETATM   39  C   UNL     1      -9.076   6.397  66.604  1.00  0.00    -0.146 C  
HETATM   40  F   UNL     1      -7.277   7.403  65.408  1.00  0.00    -0.062 F  
HETATM   41  F   UNL     1      -8.917   5.913  67.855  1.00  0.00    -0.115 F  
HETATM   42  F   UNL     1     -10.394   6.644  66.424  1.00  0.00    -0.231 F  
HETATM   43  F   UNL     1      -8.749   5.392  65.753  1.00  0.00    -0.127 F  
ENDBRANCH  36  37
ENDBRANCH  35  36
ENDBRANCH  34  35
ENDBRANCH  32  34
ENDBRANCH  31  32
ENDBRANCH  30  31
ENDBRANCH  29  30
ENDBRANCH  28  29
ENDBRANCH  27  28
ENDBRANCH  26  27
ENDBRANCH  25  26
ENDBRANCH  24  25
ENDBRANCH  23  24
ENDBRANCH  21  23
TORSDOF 14
ENDMDL
MODEL      314
REMARK 921   NORMALIZED FREE ENERGY PREDICTED BY IDOCK:   49.83 KCAL/MOL
REMARK 922        TOTAL FREE ENERGY PREDICTED BY IDOCK:   87.32 KCAL/MOL
REMARK 923 INTER-LIGAND FREE ENERGY PREDICTED BY IDOCK:   78.14 KCAL/MOL
REMARK 924 INTRA-LIGAND FREE ENERGY PREDICTED BY IDOCK:    9.18 KCAL/MOL
REMARK 927      BINDING AFFINITY PREDICTED BY RF-SCORE:    0.00 PKD
ROOT
HETATM    1  C   UNL     1      -7.992  15.020  65.693  1.00  0.00     3.539 C  
HETATM    2  C   UNL     1      -9.086  15.931  65.680  1.00  0.00    -0.003 C  
HETATM    3  C   UNL     1      -8.655  15.641  67.092  1.00  0.00    -0.235 C  
HETATM    4  C   UNL     1      -6.851  14.708  67.072  1.00  0.00     0.638 C  
HETATM    5  O   UNL     1      -5.782  14.414  67.979  1.00  0.00    -0.124 OA 
HETATM    6  C   UNL     1      -6.919  16.065  66.872  1.00  0.00    -0.139 C  
HETATM    7  C   UNL     1      -7.166  16.060  68.697  1.00  0.00    -0.146 C  
HETATM    8  C   UNL     1      -5.937  17.013  66.282  1.00  0.00     0.046 C  
HETATM    9  H   UNL     1      -4.939  13.978  67.970  1.00  0.00     0.000 HD 
HETATM   10  C   UNL     1      -7.841  14.515  69.286  1.00  0.00    -0.023 C  
HETATM   11  C   UNL     1      -8.695  13.417  68.290  1.00  0.00    -0.172 C  
HETATM   12  C   UNL     1      -8.961  11.997  68.803  1.00  0.00     0.077 A  
HETATM   13  C   UNL     1      -8.919  11.723  70.184  1.00  0.00     3.326 A  
HETATM   14  C   UNL     1      -9.357  10.498  70.698  1.00  0.00     1.655 A  
HETATM   15  C   UNL     1      -9.834   9.526  69.833  1.00  0.00    -0.226 A  
HETATM   16  C   UNL     1      -9.896   9.769  68.469  1.00  0.00    -0.169 A  
HETATM   17  O   UNL     1     -10.275   8.318  70.285  1.00  0.00    -0.191 OA 
HETATM   18  C   UNL     1      -9.499  11.012  67.938  1.00  0.00    -0.170 A  
HETATM   19  H   UNL     1     -10.602   7.651  69.693  1.00  0.00     0.000 HD 
HETATM   20  C   UNL     1      -9.676  11.212  66.443  1.00  0.00    -0.235 C  
HETATM   21  C   UNL     1      -9.787  12.680  65.967  1.00  0.00    -0.260 C  
HETATM   22  C   UNL     1      -8.543  13.402  66.536  1.00  0.00     0.182 C  
ENDROOT
BRANCH  21  23
HETATM   23  C   UNL     1     -11.122  13.312  66.410  1.00  0.00    -0.313 C  
BRANCH  23  24
HETATM   24  C   UNL     1     -12.384  12.716  65.813  1.00  0.00    -0.323 C  
BRANCH  24  25
HETATM   25  C   UNL     1     -12.085  11.349  65.178  1.00  0.00     0.813 C  
BRANCH  25  26
HETATM   26  C   UNL     1     -12.968  10.198  65.689  1.00  0.00    12.174 C  
BRANCH  26  27
HETATM   27  C   UNL     1     -12.238   8.862  65.814  1.00  0.00    11.444 C  
BRANCH  27  28
HETATM   28  C   UNL     1     -12.231   8.351  67.256  1.00  0.00     6.627 C  
BRANCH  28  29
HETATM   29  C   UNL     1     -12.972   9.272  68.228  1.00  0.00     8.684 C  
BRANCH  29  30
HETATM   30  C   UNL     1     -13.265   8.660  69.607  1.00  0.00     3.693 C  
BRANCH  30  31
HETATM   31  C   UNL     1     -12.265   7.616  70.083  1.00  0.00     0.511 C  
BRANCH  31  32
HETATM   32  S   UNL     1     -11.796   7.854  71.828  1.00  0.00    -0.309 S  
HETATM   33  O   UNL     1     -10.301   7.744  71.905  1.00  0.00    -0.197 OA 
BRANCH  32  34
HETATM   34  C   UNL     1     -12.210   9.623  71.951  1.00  0.00    -0.336 C  
BRANCH  34  35
HETATM   35  C   UNL     1     -13.669   9.892  71.598  1.00  0.00    -0.243 C  
BRANCH  35  36
HETATM   36  C   UNL     1     -14.069  11.331  71.921  1.00  0.00     0.920 C  
BRANCH  36  37
HETATM   37  C   UNL     1     -13.321  11.912  73.119  1.00  0.00     3.560 C  
HETATM   38  F   UNL     1     -14.176  12.719  73.811  1.00  0.00     3.154 F  
HETATM   39  C   UNL     1     -12.034  12.667  72.755  1.00  0.00     4.241 C  
HETATM   40  F   UNL     1     -13.039  10.874  73.961  1.00  0.00     6.259 F  
HETATM   41  F   UNL     1     -11.719  12.557  71.446  1.00  0.00     0.239 F  
HETATM   42  F   UNL     1     -12.144  13.985  73.040  1.00  0.00    -0.046 F  
HETATM   43  F   UNL     1     -10.965  12.206  73.452  1.00  0.00    10.215 F  
ENDBRANCH  36  37
ENDBRANCH  35  36
ENDBRANCH  34  35
ENDBRANCH  32  34
ENDBRANCH  31  32
ENDBRANCH  30  31
ENDBRANCH  29  30
ENDBRANCH  28  29
ENDBRANCH  27  28
ENDBRANCH  26  27
ENDBRANCH  25  26
ENDBRANCH  24  25
ENDBRANCH  23  24
ENDBRANCH  21  23
TORSDOF 14
ENDMDL
MODEL      315
REMARK 921   NORMALIZED FREE ENERGY PREDICTED BY IDOCK:   59.97 KCAL/MOL
REMARK 922        TOTAL FREE ENERGY PREDICTED BY IDOCK:  105.76 KCAL/MOL
REMARK 923 INTER-LIGAND FREE ENERGY PREDICTED BY IDOCK:   52.09 KCAL/MOL
REMARK 924 INTRA-LIGAND FREE ENERGY PREDICTED BY IDOCK:   53.68 KCAL/MOL
REMARK 927      BINDING AFFINITY PREDICTED BY RF-SCORE:    0.00 PKD
ROOT
HETATM    1  C   UNL     1      -8.834  12.408  69.656  1.00  0.00     1.970 C  
HETATM    2  C   UNL     1     -10.141  12.630  70.173  1.00  0.00     2.804 C  
HETATM    3  C   UNL     1      -9.104  12.850  71.241  1.00  0.00    13.643 C  
HETATM    4  C   UNL     1      -7.264  12.960  70.387  1.00  0.00     2.110 C  
HETATM    5  O   UNL     1      -5.946  13.406  70.725  1.00  0.00    -0.311 OA 
HETATM    6  C   UNL     1      -8.110  14.040  70.325  1.00  0.00     1.947 C  
HETATM    7  C   UNL     1      -7.569  14.236  72.074  1.00  0.00     4.927 C  
HETATM    8  C   UNL     1      -8.107  15.230  69.434  1.00  0.00    -0.230 C  
HETATM    9  H   UNL     1      -5.086  13.458  70.327  1.00  0.00     0.000 HD 
HETATM   10  C   UNL     1      -7.028  12.693  72.793  1.00  0.00     8.138 C  
HETATM   11  C   UNL     1      -7.485  11.159  72.191  1.00  0.00     8.500 C  
HETATM   12  C   UNL     1      -6.734   9.913  72.675  1.00  0.00     1.665 A  
HETATM   13  C   UNL     1      -6.010   9.947  73.882  1.00  0.00     0.621 A  
HETATM   14  C   UNL     1      -5.488   8.781  74.453  1.00  0.00    -0.114 A  
HETATM   15  C   UNL     1      -5.677   7.565  73.815  1.00  0.00    -0.052 A  
HETATM   16  C   UNL     1      -6.394   7.498  72.629  1.00  0.00    -0.058 A  
HETATM   17  O   UNL     1      -5.193   6.401  74.333  1.00  0.00    -0.039 OA 
HETATM   18  C   UNL     1      -6.961   8.656  72.062  1.00  0.00    -0.081 A  
HETATM   19  H   UNL     1      -5.322   5.567  73.896  1.00  0.00     0.000 HD 
HETATM   20  C   UNL     1      -7.793   8.472  70.805  1.00  0.00    -0.097 C  
HETATM   21  C   UNL     1      -8.840   9.575  70.520  1.00  0.00    -0.253 C  
HETATM   22  C   UNL     1      -8.059  10.911  70.545  1.00  0.00     2.241 C  
ENDROOT
BRANCH  21  23
HETATM   23  C   UNL     1     -10.000   9.521  71.534  1.00  0.00     0.081 C  
BRANCH  23  24
HETATM   24  C   UNL     1     -11.404   9.577  70.960  1.00  0.00    -0.423 C  
BRANCH  24  25
HETATM   25  C   UNL     1     -12.067   8.193  71.023  1.00  0.00    -0.223 C  
BRANCH  25  26
HETATM   26  C   UNL     1     -13.066   7.908  69.888  1.00  0.00     2.543 C  
BRANCH  26  27
HETATM   27  C   UNL     1     -12.505   8.159  68.489  1.00  0.00     5.319 C  
BRANCH  27  28
HETATM   28  C   UNL     1     -11.108   8.779  68.540  1.00  0.00     0.239 C  
BRANCH  28  29
HETATM   29  C   UNL     1     -10.033   7.905  67.891  1.00  0.00    -0.220 C  
BRANCH  29  30
HETATM   30  C   UNL     1     -10.543   6.952  66.798  1.00  0.00    -0.304 C  
BRANCH  30  31
HETATM   31  C   UNL     1      -9.701   5.703  66.577  1.00  0.00    -0.160 C  
BRANCH  31  32
HETATM   32  S   UNL     1      -8.012   6.099  66.018  1.00  0.00    -0.114 S  
HETATM   33  O   UNL     1      -7.971   7.572  65.736  1.00  0.00    -0.103 OA 
BRANCH  32  34
HETATM   34  C   UNL     1      -7.162   5.832  67.606  1.00  0.00    -0.076 C  
BRANCH  34  35
HETATM   35  C   UNL     1      -7.877   6.530  68.759  1.00  0.00    -0.110 C  
BRANCH  35  36
HETATM   36  C   UNL     1      -9.061   5.707  69.265  1.00  0.00    -0.128 C  
BRANCH  36  37
HETATM   37  C   UNL     1      -9.711   6.290  70.518  1.00  0.00    -0.173 C  
HETATM   38  F   UNL     1     -10.345   5.282  71.183  1.00  0.00    -0.255 F  
HETATM   39  C   UNL     1     -10.675   7.455  70.246  1.00  0.00    -0.237 C  
HETATM   40  F   UNL     1      -8.702   6.694  71.345  1.00  0.00    -0.126 F  
HETATM   41  F   UNL     1     -10.664   7.848  68.955  1.00  0.00    -0.222 F  
HETATM   42  F   UNL     1     -11.948   7.119  70.562  1.00  0.00    -0.336 F  
HETATM   43  F   UNL     1     -10.366   8.548  70.989  1.00  0.00    -0.213 F  
ENDBRANCH  36  37
ENDBRANCH  35  36
ENDBRANCH  34  35
ENDBRANCH  32  34
ENDBRANCH  31  32
ENDBRANCH  30  31
ENDBRANCH  29  30
ENDBRANCH  28  29
ENDBRANCH  27  28
ENDBRANCH  26  27
ENDBRANCH  25  26
ENDBRANCH  24  25
ENDBRANCH  23  24
ENDBRANCH  21  23
TORSDOF 14
ENDMDL
