MODEL        1
REMARK 921   NORMALIZED FREE ENERGY PREDICTED BY IDOCK:   -6.08 KCAL/MOL
REMARK 922        TOTAL FREE ENERGY PREDICTED BY IDOCK:  -10.51 KCAL/MOL
REMARK 923 INTER-LIGAND FREE ENERGY PREDICTED BY IDOCK:   -9.27 KCAL/MOL
REMARK 924 INTRA-LIGAND FREE ENERGY PREDICTED BY IDOCK:   -1.24 KCAL/MOL
REMARK 927      BINDING AFFINITY PREDICTED BY RF-SCORE:    0.00 PKD
ROOT
HETATM    1  C   UNL     1      -8.301  13.135  67.523  1.00  0.00    -0.185 C  
HETATM    2  C   UNL     1      -9.651  13.524  66.950  1.00  0.00    -0.258 C  
HETATM    3  C   UNL     1     -10.074  14.815  66.819  1.00  0.00    -0.256 C  
ENDROOT
BRANCH   2   4
HETATM    4  N   UNL     1     -10.366  12.422  66.467  1.00  0.00    -0.226 N  
HETATM    5  C   UNL     1     -10.062  11.873  65.230  1.00  0.00    -0.257 C  
HETATM    6  O   UNL     1     -10.654  10.926  64.719  1.00  0.00    -0.315 OA 
BRANCH   4   7
HETATM    7  C   UNL     1     -11.577  11.959  67.161  1.00  0.00    -0.290 C  
BRANCH   7   8
HETATM    8  C   UNL     1     -11.382  11.231  68.470  1.00  0.00    -0.341 A  
HETATM    9  H2  UNL     1     -10.391   9.512  66.702  1.00  0.00     0.000 HD 
HETATM   10  H1  UNL     1     -10.102   8.124  67.707  1.00  0.00     0.000 HD 
HETATM   11  N   UNL     1     -10.432   9.086  67.628  1.00  0.00    -0.259 NA 
HETATM   12  C   UNL     1     -10.898   9.817  68.587  1.00  0.00    -0.188 A  
HETATM   13  C   UNL     1     -11.892  11.713  69.631  1.00  0.00    -0.352 A  
HETATM   14  N   UNL     1     -12.056  11.047  70.836  1.00  0.00    -0.350 NA 
HETATM   15  C   UNL     1     -11.928   8.965  72.092  1.00  0.00    -0.419 C  
HETATM   16  N   UNL     1     -10.992   9.236  69.820  1.00  0.00    -0.224 NA 
HETATM   17  C   UNL     1     -11.625   9.817  70.879  1.00  0.00    -0.361 A  
ENDBRANCH   7   8
ENDBRANCH   4   7
ENDBRANCH   2   4
BRANCH   3  18
HETATM   18  C   UNL     1     -11.268  15.253  65.965  1.00  0.00    -0.231 C  
BRANCH  18  19
HETATM   19  C   UNL     1     -10.974  15.418  64.461  1.00  0.00    -0.203 C  
HETATM   20  H   UNL     1     -11.528  16.612  62.992  1.00  0.00     0.000 HD 
HETATM   21  O   UNL     1     -11.710  16.510  63.918  1.00  0.00    -1.148 OA 
ENDBRANCH  18  19
ENDBRANCH   3  18
BRANCH   3  22
HETATM   22  S   UNL     1      -9.153  16.082  67.647  1.00  0.00    -0.200 SA 
BRANCH  22  23
HETATM   23  S   UNL     1     -10.572  16.918  68.874  1.00  0.00    -0.337 SA 
BRANCH  23  24
HETATM   24  C   UNL     1     -11.004  15.627  70.097  1.00  0.00    -0.339 C  
BRANCH  24  25
HETATM   25  C   UNL     1     -12.027  15.954  71.182  1.00  0.00    -0.427 C  
HETATM   26  O   UNL     1     -11.533  15.436  72.439  1.00  0.00    -0.446 OA 
HETATM   27  C   UNL     1     -13.906  15.328  72.445  1.00  0.00    -0.641 C  
HETATM   28  C   UNL     1     -12.653  15.046  73.247  1.00  0.00    -0.485 C  
HETATM   29  C   UNL     1     -13.403  15.330  71.019  1.00  0.00    -0.537 C  
ENDBRANCH  24  25
ENDBRANCH  23  24
ENDBRANCH  22  23
ENDBRANCH   3  22
TORSDOF 9
ENDMDL
MODEL        2
REMARK 921   NORMALIZED FREE ENERGY PREDICTED BY IDOCK:   -6.02 KCAL/MOL
REMARK 922        TOTAL FREE ENERGY PREDICTED BY IDOCK:  -10.43 KCAL/MOL
REMARK 923 INTER-LIGAND FREE ENERGY PREDICTED BY IDOCK:   -9.30 KCAL/MOL
REMARK 924 INTRA-LIGAND FREE ENERGY PREDICTED BY IDOCK:   -1.14 KCAL/MOL
REMARK 927      BINDING AFFINITY PREDICTED BY RF-SCORE:    0.00 PKD
ROOT
HETATM    1  C   UNL     1      -9.650  11.086  66.156  1.00  0.00    -0.240 C  
HETATM    2  C   UNL     1     -10.724  12.088  66.538  1.00  0.00    -0.258 C  
HETATM    3  C   UNL     1     -11.126  12.313  67.824  1.00  0.00    -0.255 C  
ENDROOT
BRANCH   2   4
HETATM    4  N   UNL     1     -11.175  12.834  65.444  1.00  0.00    -0.285 N  
HETATM    5  C   UNL     1     -12.379  12.524  64.829  1.00  0.00    -0.474 C  
HETATM    6  O   UNL     1     -12.836  13.107  63.849  1.00  0.00    -0.653 OA 
BRANCH   4   7
HETATM    7  C   UNL     1     -10.292  13.819  64.800  1.00  0.00    -0.398 C  
BRANCH   7   8
HETATM    8  C   UNL     1     -10.212  15.188  65.436  1.00  0.00    -0.402 A  
HETATM    9  H2  UNL     1     -11.984  15.560  63.491  1.00  0.00     0.000 HD 
HETATM   10  H1  UNL     1     -12.203  17.283  63.561  1.00  0.00     0.000 HD 
HETATM   11  N   UNL     1     -11.743  16.450  63.929  1.00  0.00    -1.024 NA 
HETATM   12  C   UNL     1     -10.886  16.412  64.895  1.00  0.00    -0.250 A  
HETATM   13  C   UNL     1      -9.297  15.468  66.398  1.00  0.00    -0.298 A  
HETATM   14  N   UNL     1      -8.902  16.712  66.866  1.00  0.00    -0.199 NA 
HETATM   15  C   UNL     1      -9.019  19.136  66.675  1.00  0.00    -0.349 C  
HETATM   16  N   UNL     1     -10.531  17.606  65.456  1.00  0.00    -0.638 NA 
HETATM   17  C   UNL     1      -9.514  17.743  66.355  1.00  0.00    -0.264 A  
ENDBRANCH   7   8
ENDBRANCH   4   7
ENDBRANCH   2   4
BRANCH   3  18
HETATM   18  C   UNL     1     -11.957  13.518  68.273  1.00  0.00    -0.377 C  
BRANCH  18  19
HETATM   19  C   UNL     1     -11.306  14.395  69.361  1.00  0.00    -0.281 C  
HETATM   20  H   UNL     1     -11.613  14.822  71.262  1.00  0.00     0.000 HD 
HETATM   21  O   UNL     1     -12.014  14.282  70.592  1.00  0.00    -0.301 OA 
ENDBRANCH  18  19
ENDBRANCH   3  18
BRANCH   3  22
HETATM   22  S   UNL     1     -10.611  11.164  69.071  1.00  0.00    -0.205 SA 
BRANCH  22  23
HETATM   23  S   UNL     1     -12.359  10.828  70.098  1.00  0.00    -0.288 SA 
BRANCH  23  24
HETATM   24  C   UNL     1     -11.880   9.953  71.632  1.00  0.00    -0.296 C  
BRANCH  24  25
HETATM   25  C   UNL     1     -11.178   8.602  71.520  1.00  0.00    -0.290 C  
HETATM   26  O   UNL     1     -11.722   7.905  70.375  1.00  0.00    -0.163 OA 
HETATM   27  C   UNL     1     -11.112   6.309  72.026  1.00  0.00    -0.313 C  
HETATM   28  C   UNL     1     -11.694   6.494  70.641  1.00  0.00    -0.374 C  
HETATM   29  C   UNL     1     -11.371   7.645  72.685  1.00  0.00    -0.423 C  
ENDBRANCH  24  25
ENDBRANCH  23  24
ENDBRANCH  22  23
ENDBRANCH   3  22
TORSDOF 9
ENDMDL
MODEL        3
REMARK 921   NORMALIZED FREE ENERGY PREDICTED BY IDOCK:   -5.95 KCAL/MOL
REMARK 922        TOTAL FREE ENERGY PREDICTED BY IDOCK:  -10.32 KCAL/MOL
REMARK 923 INTER-LIGAND FREE ENERGY PREDICTED BY IDOCK:   -9.00 KCAL/MOL
REMARK 924 INTRA-LIGAND FREE ENERGY PREDICTED BY IDOCK:   -1.32 KCAL/MOL
REMARK 927      BINDING AFFINITY PREDICTED BY RF-SCORE:    0.00 PKD
ROOT
HETATM    1  C   UNL     1      -8.677  13.037  68.082  1.00  0.00    -0.190 C  
HETATM    2  C   UNL     1      -9.765  12.996  67.025  1.00  0.00    -0.235 C  
HETATM    3  C   UNL     1     -10.326  14.112  66.472  1.00  0.00    -0.284 C  
ENDROOT
BRANCH   2   4
HETATM    4  N   UNL     1     -10.051  11.694  66.600  1.00  0.00    -0.205 N  
HETATM    5  C   UNL     1      -9.371  11.140  65.524  1.00  0.00    -0.223 C  
HETATM    6  O   UNL     1      -9.577  10.019  65.068  1.00  0.00    -0.258 OA 
BRANCH   4   7
HETATM    7  C   UNL     1     -11.209  10.970  67.146  1.00  0.00    -0.217 C  
BRANCH   7   8
HETATM    8  C   UNL     1     -11.054  10.367  68.523  1.00  0.00    -0.318 A  
HETATM    9  H2  UNL     1     -10.129   8.440  66.943  1.00  0.00     0.000 HD 
HETATM   10  H1  UNL     1      -9.907   7.147  68.083  1.00  0.00     0.000 HD 
HETATM   11  N   UNL     1     -10.195   8.110  67.906  1.00  0.00    -0.207 NA 
HETATM   12  C   UNL     1     -10.633   8.952  68.783  1.00  0.00    -0.157 A  
HETATM   13  C   UNL     1     -11.549  10.983  69.625  1.00  0.00    -0.318 A  
HETATM   14  N   UNL     1     -11.748  10.447  70.888  1.00  0.00    -0.357 NA 
HETATM   15  C   UNL     1     -11.720   8.497  72.344  1.00  0.00    -0.429 C  
HETATM   16  N   UNL     1     -10.760   8.501  70.066  1.00  0.00    -0.232 NA 
HETATM   17  C   UNL     1     -11.373   9.211  71.056  1.00  0.00    -0.309 A  
ENDBRANCH   7   8
ENDBRANCH   4   7
ENDBRANCH   2   4
BRANCH   3  18
HETATM   18  C   UNL     1     -11.177  14.113  65.198  1.00  0.00    -0.337 C  
BRANCH  18  19
HETATM   19  C   UNL     1     -12.693  13.952  65.422  1.00  0.00    -0.490 C  
HETATM   20  H   UNL     1     -14.084  12.602  65.058  1.00  0.00     0.000 HD 
HETATM   21  O   UNL     1     -13.149  12.701  64.919  1.00  0.00    -0.850 OA 
ENDBRANCH  18  19
ENDBRANCH   3  18
BRANCH   3  22
HETATM   22  S   UNL     1     -10.008  15.675  67.244  1.00  0.00    -0.239 SA 
BRANCH  22  23
HETATM   23  S   UNL     1     -11.560  15.821  68.582  1.00  0.00    -0.347 SA 
BRANCH  23  24
HETATM   24  C   UNL     1     -10.889  15.267  70.193  1.00  0.00    -0.281 C  
BRANCH  24  25
HETATM   25  C   UNL     1     -11.864  14.909  71.311  1.00  0.00    -0.339 C  
HETATM   26  O   UNL     1     -13.177  14.738  70.728  1.00  0.00    -0.364 OA 
HETATM   27  C   UNL     1     -13.422  15.590  72.932  1.00  0.00    -0.641 C  
HETATM   28  C   UNL     1     -14.163  15.139  71.691  1.00  0.00    -0.567 C  
HETATM   29  C   UNL     1     -12.055  15.954  72.398  1.00  0.00    -0.605 C  
ENDBRANCH  24  25
ENDBRANCH  23  24
ENDBRANCH  22  23
ENDBRANCH   3  22
TORSDOF 9
ENDMDL
MODEL        4
REMARK 921   NORMALIZED FREE ENERGY PREDICTED BY IDOCK:   -5.88 KCAL/MOL
REMARK 922        TOTAL FREE ENERGY PREDICTED BY IDOCK:  -10.22 KCAL/MOL
REMARK 923 INTER-LIGAND FREE ENERGY PREDICTED BY IDOCK:   -9.25 KCAL/MOL
REMARK 924 INTRA-LIGAND FREE ENERGY PREDICTED BY IDOCK:   -0.97 KCAL/MOL
REMARK 927      BINDING AFFINITY PREDICTED BY RF-SCORE:    0.00 PKD
ROOT
HETATM    1  C   UNL     1     -10.893  13.030  68.665  1.00  0.00    -0.287 C  
HETATM    2  C   UNL     1     -10.554  12.360  67.346  1.00  0.00    -0.216 C  
HETATM    3  C   UNL     1      -9.931  11.149  67.251  1.00  0.00    -0.184 C  
ENDROOT
BRANCH   2   4
HETATM    4  N   UNL     1     -11.049  13.065  66.244  1.00  0.00    -0.284 N  
HETATM    5  C   UNL     1     -12.285  12.745  65.700  1.00  0.00    -0.444 C  
HETATM    6  O   UNL     1     -12.782  13.292  64.720  1.00  0.00    -0.641 OA 
BRANCH   4   7
HETATM    7  C   UNL     1     -10.187  14.011  65.517  1.00  0.00    -0.343 C  
BRANCH   7   8
HETATM    8  C   UNL     1     -10.243  15.459  65.946  1.00  0.00    -0.365 A  
HETATM    9  H2  UNL     1     -11.682  15.465  63.711  1.00  0.00     0.000 HD 
HETATM   10  H1  UNL     1     -11.949  17.168  63.487  1.00  0.00     0.000 HD 
HETATM   11  N   UNL     1     -11.536  16.418  64.044  1.00  0.00    -1.082 NA 
HETATM   12  C   UNL     1     -10.848  16.560  65.128  1.00  0.00    -0.233 A  
HETATM   13  C   UNL     1      -9.505  15.917  66.987  1.00  0.00    -0.222 A  
HETATM   14  N   UNL     1      -9.219  17.233  67.320  1.00  0.00    -0.229 NA 
HETATM   15  C   UNL     1      -9.359  19.596  66.753  1.00  0.00    -0.451 C  
HETATM   16  N   UNL     1     -10.617  17.837  65.553  1.00  0.00    -0.615 NA 
HETATM   17  C   UNL     1      -9.763  18.149  66.571  1.00  0.00    -0.344 A  
ENDBRANCH   7   8
ENDBRANCH   4   7
ENDBRANCH   2   4
BRANCH   3  18
HETATM   18  C   UNL     1      -9.864  10.308  65.972  1.00  0.00    -0.292 C  
BRANCH  18  19
HETATM   19  C   UNL     1      -8.461   9.784  65.604  1.00  0.00    -0.139 C  
HETATM   20  H   UNL     1      -7.533   8.046  65.517  1.00  0.00     0.000 HD 
HETATM   21  O   UNL     1      -8.397   8.369  65.744  1.00  0.00    -0.128 OA 
ENDBRANCH  18  19
ENDBRANCH   3  18
BRANCH   3  22
HETATM   22  S   UNL     1      -9.193  10.473  68.713  1.00  0.00    -0.183 SA 
BRANCH  22  23
HETATM   23  S   UNL     1     -10.300   8.768  69.008  1.00  0.00    -0.203 SA 
BRANCH  23  24
HETATM   24  C   UNL     1     -10.288   8.466  70.813  1.00  0.00    -0.195 C  
BRANCH  24  25
HETATM   25  C   UNL     1     -11.220   9.286  71.702  1.00  0.00    -0.379 C  
HETATM   26  O   UNL     1     -12.203   8.391  72.271  1.00  0.00    -0.351 OA 
HETATM   27  C   UNL     1     -13.199  10.525  71.958  1.00  0.00    -0.483 C  
HETATM   28  C   UNL     1     -13.431   9.113  72.451  1.00  0.00    -0.476 C  
HETATM   29  C   UNL     1     -12.033  10.366  71.009  1.00  0.00    -0.481 C  
ENDBRANCH  24  25
ENDBRANCH  23  24
ENDBRANCH  22  23
ENDBRANCH   3  22
TORSDOF 9
ENDMDL
MODEL        5
REMARK 921   NORMALIZED FREE ENERGY PREDICTED BY IDOCK:   -5.86 KCAL/MOL
REMARK 922        TOTAL FREE ENERGY PREDICTED BY IDOCK:  -10.19 KCAL/MOL
REMARK 923 INTER-LIGAND FREE ENERGY PREDICTED BY IDOCK:   -8.85 KCAL/MOL
REMARK 924 INTRA-LIGAND FREE ENERGY PREDICTED BY IDOCK:   -1.34 KCAL/MOL
REMARK 927      BINDING AFFINITY PREDICTED BY RF-SCORE:    0.00 PKD
ROOT
HETATM    1  C   UNL     1      -8.566  14.091  68.588  1.00  0.00    -0.100 C  
HETATM    2  C   UNL     1      -9.993  14.350  68.139  1.00  0.00    -0.223 C  
HETATM    3  C   UNL     1     -10.684  13.523  67.301  1.00  0.00    -0.267 C  
ENDROOT
BRANCH   2   4
HETATM    4  N   UNL     1     -10.557  15.466  68.765  1.00  0.00    -0.228 N  
HETATM    5  C   UNL     1     -10.908  15.418  70.107  1.00  0.00    -0.309 C  
HETATM    6  O   UNL     1     -11.432  16.340  70.727  1.00  0.00    -0.401 OA 
BRANCH   4   7
HETATM    7  C   UNL     1     -10.979  16.631  67.971  1.00  0.00    -0.311 C  
BRANCH   7   8
HETATM    8  C   UNL     1      -9.954  17.720  67.753  1.00  0.00    -0.322 A  
HETATM    9  H2  UNL     1      -9.406  16.012  65.792  1.00  0.00     0.000 HD 
HETATM   10  H1  UNL     1      -7.944  16.696  65.148  1.00  0.00     0.000 HD 
HETATM   11  N   UNL     1      -8.699  16.745  65.833  1.00  0.00    -0.512 NA 
HETATM   12  C   UNL     1      -8.845  17.647  66.747  1.00  0.00    -0.258 A  
HETATM   13  C   UNL     1      -9.798  18.732  68.641  1.00  0.00    -0.392 A  
HETATM   14  N   UNL     1      -8.742  19.625  68.744  1.00  0.00    -0.296 NA 
HETATM   15  C   UNL     1      -6.531  20.321  67.999  1.00  0.00    -0.312 C  
HETATM   16  N   UNL     1      -7.877  18.607  66.832  1.00  0.00    -0.230 NA 
HETATM   17  C   UNL     1      -7.801  19.511  67.850  1.00  0.00    -0.295 A  
ENDBRANCH   7   8
ENDBRANCH   4   7
ENDBRANCH   2   4
BRANCH   3  18
HETATM   18  C   UNL     1     -12.200  13.577  67.087  1.00  0.00    -0.328 C  
BRANCH  18  19
HETATM   19  C   UNL     1     -12.649  13.874  65.642  1.00  0.00    -0.517 C  
HETATM   20  H   UNL     1     -13.398  12.874  64.116  1.00  0.00     0.000 HD 
HETATM   21  O   UNL     1     -13.122  12.691  65.006  1.00  0.00    -0.808 OA 
ENDBRANCH  18  19
ENDBRANCH   3  18
BRANCH   3  22
HETATM   22  S   UNL     1      -9.782  12.264  66.439  1.00  0.00    -0.236 SA 
BRANCH  22  23
HETATM   23  S   UNL     1     -10.482  10.547  67.323  1.00  0.00    -0.267 SA 
BRANCH  23  24
HETATM   24  C   UNL     1     -10.505  10.881  69.123  1.00  0.00    -0.221 C  
BRANCH  24  25
HETATM   25  C   UNL     1     -11.846  10.884  69.852  1.00  0.00    -0.349 C  
HETATM   26  O   UNL     1     -12.124  12.237  70.279  1.00  0.00    -0.341 OA 
HETATM   27  C   UNL     1     -13.058  10.728  71.859  1.00  0.00    -0.557 C  
HETATM   28  C   UNL     1     -12.871  12.188  71.504  1.00  0.00    -0.289 C  
HETATM   29  C   UNL     1     -11.923  10.052  71.122  1.00  0.00    -0.484 C  
ENDBRANCH  24  25
ENDBRANCH  23  24
ENDBRANCH  22  23
ENDBRANCH   3  22
TORSDOF 9
ENDMDL
MODEL        6
REMARK 921   NORMALIZED FREE ENERGY PREDICTED BY IDOCK:   -5.84 KCAL/MOL
REMARK 922        TOTAL FREE ENERGY PREDICTED BY IDOCK:  -10.15 KCAL/MOL
REMARK 923 INTER-LIGAND FREE ENERGY PREDICTED BY IDOCK:   -8.47 KCAL/MOL
REMARK 924 INTRA-LIGAND FREE ENERGY PREDICTED BY IDOCK:   -1.68 KCAL/MOL
REMARK 927      BINDING AFFINITY PREDICTED BY RF-SCORE:    0.00 PKD
ROOT
HETATM    1  C   UNL     1     -11.491  16.047  68.513  1.00  0.00    -0.357 C  
HETATM    2  C   UNL     1     -10.555  15.424  67.494  1.00  0.00    -0.283 C  
HETATM    3  C   UNL     1      -9.330  14.909  67.807  1.00  0.00    -0.194 C  
ENDROOT
BRANCH   2   4
HETATM    4  N   UNL     1     -11.130  15.334  66.222  1.00  0.00    -0.311 N  
HETATM    5  C   UNL     1     -10.926  16.337  65.284  1.00  0.00    -0.236 C  
HETATM    6  O   UNL     1     -11.415  16.352  64.158  1.00  0.00    -0.951 OA 
BRANCH   4   7
HETATM    7  C   UNL     1     -12.122  14.289  65.926  1.00  0.00    -0.404 C  
BRANCH   7   8
HETATM    8  C   UNL     1     -11.596  12.969  65.413  1.00  0.00    -0.374 A  
HETATM    9  H2  UNL     1     -12.204  12.404  67.938  1.00  0.00     0.000 HD 
HETATM   10  H1  UNL     1     -11.559  10.797  68.088  1.00  0.00     0.000 HD 
HETATM   11  N   UNL     1     -11.717  11.619  67.504  1.00  0.00    -0.590 NA 
HETATM   12  C   UNL     1     -11.362  11.761  66.270  1.00  0.00    -0.287 A  
HETATM   13  C   UNL     1     -11.037  12.861  64.182  1.00  0.00    -0.399 A  
HETATM   14  N   UNL     1     -10.262  11.825  63.682  1.00  0.00    -0.386 NA 
HETATM   15  C   UNL     1      -9.106   9.719  64.077  1.00  0.00    -0.280 C  
HETATM   16  N   UNL     1     -10.675  10.728  65.699  1.00  0.00    -0.133 NA 
HETATM   17  C   UNL     1     -10.083  10.805  64.473  1.00  0.00    -0.350 A  
ENDBRANCH   7   8
ENDBRANCH   4   7
ENDBRANCH   2   4
BRANCH   3  18
HETATM   18  C   UNL     1      -8.511  14.000  66.885  1.00  0.00    -0.102 C  
BRANCH  18  19
HETATM   19  C   UNL     1      -7.724  12.882  67.597  1.00  0.00    -0.162 C  
HETATM   20  H   UNL     1      -7.127  11.044  67.201  1.00  0.00     0.000 HD 
HETATM   21  O   UNL     1      -7.612  11.733  66.763  1.00  0.00    -0.141 OA 
ENDBRANCH  18  19
ENDBRANCH   3  18
BRANCH   3  22
HETATM   22  S   UNL     1      -8.659  15.268  69.407  1.00  0.00    -0.177 SA 
BRANCH  22  23
HETATM   23  S   UNL     1      -7.011  16.403  68.941  1.00  0.00    -0.198 SA 
BRANCH  23  24
HETATM   24  C   UNL     1      -7.463  17.355  67.445  1.00  0.00    -0.182 C  
BRANCH  24  25
HETATM   25  C   UNL     1      -8.136  18.715  67.614  1.00  0.00    -0.247 C  
HETATM   26  O   UNL     1      -9.035  18.636  68.744  1.00  0.00    -0.320 OA 
HETATM   27  C   UNL     1      -9.936  20.152  67.152  1.00  0.00    -0.595 C  
HETATM   28  C   UNL     1     -10.151  19.507  68.505  1.00  0.00    -0.445 C  
HETATM   29  C   UNL     1      -9.004  19.184  66.459  1.00  0.00    -0.359 C  
ENDBRANCH  24  25
ENDBRANCH  23  24
ENDBRANCH  22  23
ENDBRANCH   3  22
TORSDOF 9
ENDMDL
MODEL        7
REMARK 921   NORMALIZED FREE ENERGY PREDICTED BY IDOCK:   -5.83 KCAL/MOL
REMARK 922        TOTAL FREE ENERGY PREDICTED BY IDOCK:  -10.14 KCAL/MOL
REMARK 923 INTER-LIGAND FREE ENERGY PREDICTED BY IDOCK:   -9.23 KCAL/MOL
REMARK 924 INTRA-LIGAND FREE ENERGY PREDICTED BY IDOCK:   -0.91 KCAL/MOL
REMARK 927      BINDING AFFINITY PREDICTED BY RF-SCORE:    0.00 PKD
ROOT
HETATM    1  C   UNL     1      -8.589  12.878  68.256  1.00  0.00    -0.170 C  
HETATM    2  C   UNL     1      -9.828  13.662  67.861  1.00  0.00    -0.237 C  
HETATM    3  C   UNL     1      -9.791  14.826  67.149  1.00  0.00    -0.232 C  
ENDROOT
BRANCH   2   4
HETATM    4  N   UNL     1     -11.012  13.003  68.208  1.00  0.00    -0.248 N  
HETATM    5  C   UNL     1     -11.196  11.667  67.882  1.00  0.00    -0.269 C  
HETATM    6  O   UNL     1     -12.212  11.020  68.123  1.00  0.00    -0.578 OA 
BRANCH   4   7
HETATM    7  C   UNL     1     -12.158  13.760  68.735  1.00  0.00    -0.309 C  
BRANCH   7   8
HETATM    8  C   UNL     1     -12.039  14.291  70.145  1.00  0.00    -0.403 A  
HETATM    9  H2  UNL     1     -13.137  11.900  70.521  1.00  0.00     0.000 HD 
HETATM   10  H1  UNL     1     -13.497  11.958  72.221  1.00  0.00     0.000 HD 
HETATM   11  N   UNL     1     -13.114  12.422  71.397  1.00  0.00    -0.290 NA 
HETATM   12  C   UNL     1     -12.602  13.608  71.356  1.00  0.00    -0.328 A  
HETATM   13  C   UNL     1     -11.649  15.566  70.390  1.00  0.00    -0.337 A  
HETATM   14  N   UNL     1     -11.764  16.285  71.570  1.00  0.00    -0.460 NA 
HETATM   15  C   UNL     1     -12.597  16.406  73.855  1.00  0.00    -0.550 C  
HETATM   16  N   UNL     1     -12.606  14.327  72.517  1.00  0.00    -0.268 NA 
HETATM   17  C   UNL     1     -12.269  15.646  72.588  1.00  0.00    -0.439 A  
ENDBRANCH   7   8
ENDBRANCH   4   7
ENDBRANCH   2   4
BRANCH   3  18
HETATM   18  C   UNL     1     -11.007  15.462  66.467  1.00  0.00    -0.271 C  
BRANCH  18  19
HETATM   19  C   UNL     1     -11.003  15.397  64.926  1.00  0.00    -0.437 C  
HETATM   20  H   UNL     1     -11.176  16.654  63.416  1.00  0.00     0.000 HD 
HETATM   21  O   UNL     1     -11.178  16.694  64.365  1.00  0.00    -1.033 OA 
ENDBRANCH  18  19
ENDBRANCH   3  18
BRANCH   3  22
HETATM   22  S   UNL     1      -8.227  15.635  66.952  1.00  0.00    -0.261 SA 
BRANCH  22  23
HETATM   23  S   UNL     1      -8.031  16.639  68.734  1.00  0.00    -0.238 SA 
BRANCH  23  24
HETATM   24  C   UNL     1      -9.243  18.010  68.674  1.00  0.00    -0.267 C  
BRANCH  24  25
HETATM   25  C   UNL     1      -8.851  19.308  67.972  1.00  0.00    -0.317 C  
HETATM   26  O   UNL     1      -8.976  19.104  66.545  1.00  0.00    -0.318 OA 
HETATM   27  C   UNL     1      -7.207  20.637  66.949  1.00  0.00    -0.350 C  
HETATM   28  C   UNL     1      -7.989  19.906  65.879  1.00  0.00    -0.276 C  
HETATM   29  C   UNL     1      -7.420  19.776  68.174  1.00  0.00    -0.343 C  
ENDBRANCH  24  25
ENDBRANCH  23  24
ENDBRANCH  22  23
ENDBRANCH   3  22
TORSDOF 9
ENDMDL
MODEL        8
REMARK 921   NORMALIZED FREE ENERGY PREDICTED BY IDOCK:   -5.82 KCAL/MOL
REMARK 922        TOTAL FREE ENERGY PREDICTED BY IDOCK:  -10.13 KCAL/MOL
REMARK 923 INTER-LIGAND FREE ENERGY PREDICTED BY IDOCK:   -9.61 KCAL/MOL
REMARK 924 INTRA-LIGAND FREE ENERGY PREDICTED BY IDOCK:   -0.52 KCAL/MOL
REMARK 927      BINDING AFFINITY PREDICTED BY RF-SCORE:    0.00 PKD
ROOT
HETATM    1  C   UNL     1      -9.567  10.899  65.227  1.00  0.00    -0.276 C  
HETATM    2  C   UNL     1     -10.647  11.592  66.037  1.00  0.00    -0.258 C  
HETATM    3  C   UNL     1     -11.024  11.198  67.288  1.00  0.00    -0.296 C  
ENDROOT
BRANCH   2   4
HETATM    4  N   UNL     1     -11.133  12.744  65.409  1.00  0.00    -0.279 N  
HETATM    5  C   UNL     1     -12.467  12.835  65.038  1.00  0.00    -0.506 C  
HETATM    6  O   UNL     1     -12.969  13.795  64.460  1.00  0.00    -0.602 OA 
BRANCH   4   7
HETATM    7  C   UNL     1     -10.204  13.787  64.945  1.00  0.00    -0.348 C  
BRANCH   7   8
HETATM    8  C   UNL     1     -10.241  15.111  65.672  1.00  0.00    -0.387 A  
HETATM    9  H2  UNL     1     -11.760  15.580  63.542  1.00  0.00     0.000 HD 
HETATM   10  H1  UNL     1     -12.031  17.291  63.692  1.00  0.00     0.000 HD 
HETATM   11  N   UNL     1     -11.600  16.443  64.062  1.00  0.00    -1.082 NA 
HETATM   12  C   UNL     1     -10.873  16.357  65.127  1.00  0.00    -0.275 A  
HETATM   13  C   UNL     1      -9.464  15.344  66.759  1.00  0.00    -0.241 A  
HETATM   14  N   UNL     1      -9.164  16.561  67.352  1.00  0.00    -0.215 NA 
HETATM   15  C   UNL     1      -9.320  18.990  67.302  1.00  0.00    -0.344 C  
HETATM   16  N   UNL     1     -10.623  17.517  65.804  1.00  0.00    -0.491 NA 
HETATM   17  C   UNL     1      -9.733  17.612  66.833  1.00  0.00    -0.292 A  
ENDBRANCH   7   8
ENDBRANCH   4   7
ENDBRANCH   2   4
BRANCH   3  18
HETATM   18  C   UNL     1     -11.863  12.048  68.248  1.00  0.00    -0.351 C  
BRANCH  18  19
HETATM   19  C   UNL     1     -11.157  13.300  68.804  1.00  0.00    -0.266 C  
HETATM   20  H   UNL     1     -11.559  15.218  69.031  1.00  0.00     0.000 HD 
HETATM   21  O   UNL     1     -11.994  14.446  68.688  1.00  0.00    -0.326 OA 
ENDBRANCH  18  19
ENDBRANCH   3  18
BRANCH   3  22
HETATM   22  S   UNL     1     -10.466   9.620  67.869  1.00  0.00    -0.256 SA 
BRANCH  22  23
HETATM   23  S   UNL     1      -9.262  10.140  69.450  1.00  0.00    -0.199 SA 
BRANCH  23  24
HETATM   24  C   UNL     1      -9.961   9.295  70.915  1.00  0.00    -0.297 C  
BRANCH  24  25
HETATM   25  C   UNL     1     -11.477   9.175  71.041  1.00  0.00    -0.306 C  
HETATM   26  O   UNL     1     -12.028  10.508  71.151  1.00  0.00    -0.352 OA 
HETATM   27  C   UNL     1     -13.388   9.012  72.398  1.00  0.00    -0.516 C  
HETATM   28  C   UNL     1     -13.205  10.453  71.970  1.00  0.00    -0.392 C  
HETATM   29  C   UNL     1     -11.995   8.439  72.265  1.00  0.00    -0.455 C  
ENDBRANCH  24  25
ENDBRANCH  23  24
ENDBRANCH  22  23
ENDBRANCH   3  22
TORSDOF 9
ENDMDL
MODEL        9
REMARK 921   NORMALIZED FREE ENERGY PREDICTED BY IDOCK:   -5.81 KCAL/MOL
REMARK 922        TOTAL FREE ENERGY PREDICTED BY IDOCK:  -10.11 KCAL/MOL
REMARK 923 INTER-LIGAND FREE ENERGY PREDICTED BY IDOCK:   -9.00 KCAL/MOL
REMARK 924 INTRA-LIGAND FREE ENERGY PREDICTED BY IDOCK:   -1.11 KCAL/MOL
REMARK 927      BINDING AFFINITY PREDICTED BY RF-SCORE:    0.00 PKD
ROOT
HETATM    1  C   UNL     1     -12.086  13.782  67.762  1.00  0.00    -0.325 C  
HETATM    2  C   UNL     1     -11.488  12.700  66.882  1.00  0.00    -0.343 C  
HETATM    3  C   UNL     1     -10.936  11.549  67.368  1.00  0.00    -0.265 C  
ENDROOT
BRANCH   2   4
HETATM    4  N   UNL     1     -11.666  12.958  65.518  1.00  0.00    -0.361 N  
HETATM    5  C   UNL     1     -12.783  12.477  64.851  1.00  0.00    -0.287 C  
HETATM    6  O   UNL     1     -13.004  12.633  63.653  1.00  0.00    -0.704 OA 
BRANCH   4   7
HETATM    7  C   UNL     1     -10.581  13.559  64.727  1.00  0.00    -0.417 C  
BRANCH   7   8
HETATM    8  C   UNL     1     -10.349  15.042  64.896  1.00  0.00    -0.317 A  
HETATM    9  H2  UNL     1      -8.537  13.986  66.529  1.00  0.00     0.000 HD 
HETATM   10  H1  UNL     1      -7.932  15.408  67.325  1.00  0.00     0.000 HD 
HETATM   11  N   UNL     1      -8.569  15.000  66.641  1.00  0.00    -0.250 NA 
HETATM   12  C   UNL     1      -9.413  15.642  65.902  1.00  0.00    -0.341 A  
HETATM   13  C   UNL     1     -11.176  15.956  64.332  1.00  0.00    -0.229 A  
HETATM   14  N   UNL     1     -11.279  17.309  64.618  1.00  0.00    -0.909 NA 
HETATM   15  C   UNL     1     -10.614  19.195  66.007  1.00  0.00    -0.524 C  
HETATM   16  N   UNL     1      -9.488  16.995  66.079  1.00  0.00    -0.488 NA 
HETATM   17  C   UNL     1     -10.448  17.776  65.506  1.00  0.00    -0.017 A  
ENDBRANCH   7   8
ENDBRANCH   4   7
ENDBRANCH   2   4
BRANCH   3  18
HETATM   18  C   UNL     1     -10.622  10.313  66.519  1.00  0.00    -0.202 C  
BRANCH  18  19
HETATM   19  C   UNL     1      -9.679   9.287  67.178  1.00  0.00    -0.172 C  
HETATM   20  H   UNL     1      -8.245   8.057  66.614  1.00  0.00     0.000 HD 
HETATM   21  O   UNL     1      -8.826   8.689  66.208  1.00  0.00    -0.138 OA 
ENDBRANCH  18  19
ENDBRANCH   3  18
BRANCH   3  22
HETATM   22  S   UNL     1     -10.606  11.452  69.106  1.00  0.00    -0.108 SA 
BRANCH  22  23
HETATM   23  S   UNL     1     -12.416  10.836  69.857  1.00  0.00    -0.106 SA 
BRANCH  23  24
HETATM   24  C   UNL     1     -12.691  11.819  71.377  1.00  0.00    -0.308 C  
BRANCH  24  25
HETATM   25  C   UNL     1     -13.118  13.278  71.241  1.00  0.00    -0.218 C  
HETATM   26  O   UNL     1     -11.927  14.099  71.252  1.00  0.00    -0.325 OA 
HETATM   27  C   UNL     1     -13.706  15.316  72.251  1.00  0.00    -0.614 C  
HETATM   28  C   UNL     1     -12.245  15.361  71.858  1.00  0.00    -0.379 C  
HETATM   29  C   UNL     1     -13.983  13.833  72.361  1.00  0.00    -0.651 C  
ENDBRANCH  24  25
ENDBRANCH  23  24
ENDBRANCH  22  23
ENDBRANCH   3  22
TORSDOF 9
ENDMDL
MODEL       10
REMARK 921   NORMALIZED FREE ENERGY PREDICTED BY IDOCK:   -5.78 KCAL/MOL
REMARK 922        TOTAL FREE ENERGY PREDICTED BY IDOCK:  -10.07 KCAL/MOL
REMARK 923 INTER-LIGAND FREE ENERGY PREDICTED BY IDOCK:   -8.73 KCAL/MOL
REMARK 924 INTRA-LIGAND FREE ENERGY PREDICTED BY IDOCK:   -1.34 KCAL/MOL
REMARK 927      BINDING AFFINITY PREDICTED BY RF-SCORE:    0.00 PKD
ROOT
HETATM    1  C   UNL     1     -10.491  15.979  65.375  1.00  0.00    -0.415 C  
HETATM    2  C   UNL     1      -9.831  14.835  66.122  1.00  0.00    -0.312 C  
HETATM    3  C   UNL     1      -8.703  14.976  66.878  1.00  0.00    -0.256 C  
ENDROOT
BRANCH   2   4
HETATM    4  N   UNL     1     -10.567  13.648  66.044  1.00  0.00    -0.285 N  
HETATM    5  C   UNL     1     -10.171  12.629  65.190  1.00  0.00    -0.280 C  
HETATM    6  O   UNL     1     -10.771  11.569  65.039  1.00  0.00    -0.285 OA 
BRANCH   4   7
HETATM    7  C   UNL     1     -11.879  13.541  66.702  1.00  0.00    -0.407 C  
BRANCH   7   8
HETATM    8  C   UNL     1     -11.889  13.537  68.213  1.00  0.00    -0.401 A  
HETATM    9  H2  UNL     1     -11.791  10.946  67.633  1.00  0.00     0.000 HD 
HETATM   10  H1  UNL     1     -11.998  10.240  69.208  1.00  0.00     0.000 HD 
HETATM   11  N   UNL     1     -11.927  11.081  68.635  1.00  0.00    -0.536 NA 
HETATM   12  C   UNL     1     -11.994  12.301  69.055  1.00  0.00    -0.248 A  
HETATM   13  C   UNL     1     -12.080  14.678  68.922  1.00  0.00    -0.216 A  
HETATM   14  N   UNL     1     -12.402  14.808  70.264  1.00  0.00    -0.331 NA 
HETATM   15  C   UNL     1     -13.012  13.742  72.366  1.00  0.00    -0.440 C  
HETATM   16  N   UNL     1     -12.217  12.486  70.390  1.00  0.00    -0.333 NA 
HETATM   17  C   UNL     1     -12.489  13.701  70.947  1.00  0.00    -0.371 A  
ENDBRANCH   7   8
ENDBRANCH   4   7
ENDBRANCH   2   4
BRANCH   3  18
HETATM   18  C   UNL     1      -8.201  13.939  67.888  1.00  0.00    -0.164 C  
BRANCH  18  19
HETATM   19  C   UNL     1      -7.165  12.937  67.339  1.00  0.00    -0.126 C  
HETATM   20  H   UNL     1      -5.220  12.885  67.018  1.00  0.00     0.000 HD 
HETATM   21  O   UNL     1      -5.858  13.502  67.355  1.00  0.00    -0.348 OA 
ENDBRANCH  18  19
ENDBRANCH   3  18
BRANCH   3  22
HETATM   22  S   UNL     1      -7.779  16.481  66.726  1.00  0.00    -0.284 SA 
BRANCH  22  23
HETATM   23  S   UNL     1      -7.413  16.965  68.688  1.00  0.00    -0.236 SA 
BRANCH  23  24
HETATM   24  C   UNL     1      -7.412  18.794  68.763  1.00  0.00    -0.306 C  
BRANCH  24  25
HETATM   25  C   UNL     1      -8.647  19.550  68.280  1.00  0.00    -0.340 C  
HETATM   26  O   UNL     1      -9.807  18.722  68.523  1.00  0.00    -0.356 OA 
HETATM   27  C   UNL     1     -10.190  20.024  66.573  1.00  0.00    -0.598 C  
HETATM   28  C   UNL     1     -10.782  18.985  67.502  1.00  0.00    -0.446 C  
HETATM   29  C   UNL     1      -8.702  19.870  66.796  1.00  0.00    -0.407 C  
ENDBRANCH  24  25
ENDBRANCH  23  24
ENDBRANCH  22  23
ENDBRANCH   3  22
TORSDOF 9
ENDMDL
MODEL       11
REMARK 921   NORMALIZED FREE ENERGY PREDICTED BY IDOCK:   -5.75 KCAL/MOL
REMARK 922        TOTAL FREE ENERGY PREDICTED BY IDOCK:  -10.01 KCAL/MOL
REMARK 923 INTER-LIGAND FREE ENERGY PREDICTED BY IDOCK:   -9.13 KCAL/MOL
REMARK 924 INTRA-LIGAND FREE ENERGY PREDICTED BY IDOCK:   -0.88 KCAL/MOL
REMARK 927      BINDING AFFINITY PREDICTED BY RF-SCORE:    0.00 PKD
ROOT
HETATM    1  C   UNL     1      -8.418  11.993  68.389  1.00  0.00    -0.147 C  
HETATM    2  C   UNL     1      -9.900  11.924  68.068  1.00  0.00    -0.190 C  
HETATM    3  C   UNL     1     -10.613  12.971  67.557  1.00  0.00    -0.230 C  
ENDROOT
BRANCH   2   4
HETATM    4  N   UNL     1     -10.429  10.641  68.248  1.00  0.00    -0.176 N  
HETATM    5  C   UNL     1     -10.323   9.690  67.244  1.00  0.00    -0.249 C  
HETATM    6  O   UNL     1     -10.781   8.552  67.306  1.00  0.00    -0.279 OA 
BRANCH   4   7
HETATM    7  C   UNL     1     -11.281  10.344  69.410  1.00  0.00    -0.259 C  
BRANCH   7   8
HETATM    8  C   UNL     1     -10.703   9.434  70.469  1.00  0.00    -0.335 A  
HETATM    9  H2  UNL     1     -13.303   9.380  71.019  1.00  0.00     0.000 HD 
HETATM   10  H1  UNL     1     -13.312   8.496  72.516  1.00  0.00     0.000 HD 
HETATM   11  N   UNL     1     -12.775   8.896  71.746  1.00  0.00    -0.342 NA 
HETATM   12  C   UNL     1     -11.492   8.848  71.601  1.00  0.00    -0.339 A  
HETATM   13  C   UNL     1      -9.363   9.298  70.631  1.00  0.00    -0.270 A  
HETATM   14  N   UNL     1      -8.682   8.752  71.708  1.00  0.00    -0.312 NA 
HETATM   15  C   UNL     1      -8.758   7.818  73.955  1.00  0.00    -0.316 C  
HETATM   16  N   UNL     1     -10.778   8.236  72.592  1.00  0.00    -0.346 NA 
HETATM   17  C   UNL     1      -9.417   8.265  72.668  1.00  0.00    -0.284 A  
ENDBRANCH   7   8
ENDBRANCH   4   7
ENDBRANCH   2   4
BRANCH   3  18
HETATM   18  C   UNL     1     -12.005  12.846  66.930  1.00  0.00    -0.402 C  
BRANCH  18  19
HETATM   19  C   UNL     1     -12.107  13.303  65.461  1.00  0.00    -0.435 C  
HETATM   20  H   UNL     1     -13.346  14.359  64.348  1.00  0.00     0.000 HD 
HETATM   21  O   UNL     1     -13.284  14.077  65.253  1.00  0.00    -0.782 OA 
ENDBRANCH  18  19
ENDBRANCH   3  18
BRANCH   3  22
HETATM   22  S   UNL     1      -9.862  14.576  67.567  1.00  0.00    -0.224 SA 
BRANCH  22  23
HETATM   23  S   UNL     1     -11.355  15.748  68.353  1.00  0.00    -0.361 SA 
BRANCH  23  24
HETATM   24  C   UNL     1     -11.014  15.862  70.148  1.00  0.00    -0.364 C  
BRANCH  24  25
HETATM   25  C   UNL     1     -12.168  15.676  71.130  1.00  0.00    -0.413 C  
HETATM   26  O   UNL     1     -11.793  16.284  72.387  1.00  0.00    -0.509 OA 
HETATM   27  C   UNL     1     -13.199  14.420  72.826  1.00  0.00    -0.611 C  
HETATM   28  C   UNL     1     -12.408  15.548  73.455  1.00  0.00    -0.521 C  
HETATM   29  C   UNL     1     -12.527  14.243  71.482  1.00  0.00    -0.435 C  
ENDBRANCH  24  25
ENDBRANCH  23  24
ENDBRANCH  22  23
ENDBRANCH   3  22
TORSDOF 9
ENDMDL
MODEL       12
REMARK 921   NORMALIZED FREE ENERGY PREDICTED BY IDOCK:   -5.73 KCAL/MOL
REMARK 922        TOTAL FREE ENERGY PREDICTED BY IDOCK:   -9.99 KCAL/MOL
REMARK 923 INTER-LIGAND FREE ENERGY PREDICTED BY IDOCK:   -9.07 KCAL/MOL
REMARK 924 INTRA-LIGAND FREE ENERGY PREDICTED BY IDOCK:   -0.92 KCAL/MOL
REMARK 927      BINDING AFFINITY PREDICTED BY RF-SCORE:    0.00 PKD
ROOT
HETATM    1  C   UNL     1     -11.735  12.517  67.896  1.00  0.00    -0.416 C  
HETATM    2  C   UNL     1     -11.059  12.014  66.633  1.00  0.00    -0.310 C  
HETATM    3  C   UNL     1     -10.385  10.829  66.557  1.00  0.00    -0.244 C  
ENDROOT
BRANCH   2   4
HETATM    4  N   UNL     1     -11.299  12.841  65.530  1.00  0.00    -0.301 N  
HETATM    5  C   UNL     1     -12.436  12.667  64.754  1.00  0.00    -0.484 C  
HETATM    6  O   UNL     1     -12.710  13.328  63.756  1.00  0.00    -0.686 OA 
BRANCH   4   7
HETATM    7  C   UNL     1     -10.259  13.766  65.054  1.00  0.00    -0.346 C  
BRANCH   7   8
HETATM    8  C   UNL     1     -10.261  15.160  65.638  1.00  0.00    -0.387 A  
HETATM    9  H2  UNL     1     -11.755  15.447  63.459  1.00  0.00     0.000 HD 
HETATM   10  H1  UNL     1     -11.977  17.171  63.427  1.00  0.00     0.000 HD 
HETATM   11  N   UNL     1     -11.573  16.355  63.888  1.00  0.00    -1.054 NA 
HETATM   12  C   UNL     1     -10.853  16.359  64.961  1.00  0.00    -0.273 A  
HETATM   13  C   UNL     1      -9.482  15.482  66.700  1.00  0.00    -0.259 A  
HETATM   14  N   UNL     1      -9.149  16.745  67.165  1.00  0.00    -0.208 NA 
HETATM   15  C   UNL     1      -9.232  19.159  66.860  1.00  0.00    -0.348 C  
HETATM   16  N   UNL     1     -10.573  17.576  65.515  1.00  0.00    -0.610 NA 
HETATM   17  C   UNL     1      -9.685  17.752  66.535  1.00  0.00    -0.320 A  
ENDBRANCH   7   8
ENDBRANCH   4   7
ENDBRANCH   2   4
BRANCH   3  18
HETATM   18  C   UNL     1      -9.977  10.148  65.247  1.00  0.00    -0.381 C  
BRANCH  18  19
HETATM   19  C   UNL     1      -8.476  10.231  64.904  1.00  0.00    -0.177 C  
HETATM   20  H   UNL     1      -7.364  10.574  63.312  1.00  0.00     0.000 HD 
HETATM   21  O   UNL     1      -8.288  10.522  63.523  1.00  0.00    -0.164 OA 
ENDBRANCH  18  19
ENDBRANCH   3  18
BRANCH   3  22
HETATM   22  S   UNL     1      -9.999   9.990  68.069  1.00  0.00    -0.156 SA 
BRANCH  22  23
HETATM   23  S   UNL     1     -10.199   8.017  67.534  1.00  0.00    -0.267 SA 
BRANCH  23  24
HETATM   24  C   UNL     1     -10.773   7.143  69.036  1.00  0.00    -0.184 C  
BRANCH  24  25
HETATM   25  C   UNL     1     -11.048   7.956  70.299  1.00  0.00    -0.229 C  
HETATM   26  O   UNL     1      -9.857   7.930  71.120  1.00  0.00    -0.165 OA 
HETATM   27  C   UNL     1     -11.762   8.039  72.535  1.00  0.00    -0.446 C  
HETATM   28  C   UNL     1     -10.250   7.985  72.500  1.00  0.00    -0.294 C  
HETATM   29  C   UNL     1     -12.155   7.440  71.203  1.00  0.00    -0.357 C  
ENDBRANCH  24  25
ENDBRANCH  23  24
ENDBRANCH  22  23
ENDBRANCH   3  22
TORSDOF 9
ENDMDL
MODEL       13
REMARK 921   NORMALIZED FREE ENERGY PREDICTED BY IDOCK:   -5.66 KCAL/MOL
REMARK 922        TOTAL FREE ENERGY PREDICTED BY IDOCK:   -9.88 KCAL/MOL
REMARK 923 INTER-LIGAND FREE ENERGY PREDICTED BY IDOCK:   -9.99 KCAL/MOL
REMARK 924 INTRA-LIGAND FREE ENERGY PREDICTED BY IDOCK:    0.11 KCAL/MOL
REMARK 927      BINDING AFFINITY PREDICTED BY RF-SCORE:    0.00 PKD
ROOT
HETATM    1  C   UNL     1      -9.363  14.272  67.690  1.00  0.00    -0.201 C  
HETATM    2  C   UNL     1     -10.466  14.268  66.647  1.00  0.00    -0.278 C  
HETATM    3  C   UNL     1     -11.203  13.163  66.330  1.00  0.00    -0.301 C  
ENDROOT
BRANCH   2   4
HETATM    4  N   UNL     1     -10.719  15.543  66.130  1.00  0.00    -0.314 N  
HETATM    5  C   UNL     1     -10.945  15.720  64.772  1.00  0.00    -0.393 C  
HETATM    6  O   UNL     1     -11.148  16.804  64.232  1.00  0.00    -1.106 OA 
BRANCH   4   7
HETATM    7  C   UNL     1     -10.546  16.736  66.973  1.00  0.00    -0.234 C  
BRANCH   7   8
HETATM    8  C   UNL     1      -9.379  17.640  66.652  1.00  0.00    -0.289 A  
HETATM    9  H2  UNL     1     -11.420  19.341  66.733  1.00  0.00     0.000 HD 
HETATM   10  H1  UNL     1     -10.664  20.801  66.170  1.00  0.00     0.000 HD 
HETATM   11  N   UNL     1     -10.578  19.811  66.401  1.00  0.00    -0.481 NA 
HETATM   12  C   UNL     1      -9.506  19.095  66.313  1.00  0.00    -0.326 A  
HETATM   13  C   UNL     1      -8.149  17.138  66.380  1.00  0.00    -0.302 A  
HETATM   14  N   UNL     1      -7.070  17.785  65.796  1.00  0.00    -0.457 NA 
HETATM   15  C   UNL     1      -6.182  19.776  64.713  1.00  0.00    -0.321 C  
HETATM   16  N   UNL     1      -8.386  19.711  65.830  1.00  0.00    -0.394 NA 
HETATM   17  C   UNL     1      -7.238  19.046  65.513  1.00  0.00    -0.078 A  
ENDBRANCH   7   8
ENDBRANCH   4   7
ENDBRANCH   2   4
BRANCH   3  18
HETATM   18  C   UNL     1     -12.512  13.195  65.535  1.00  0.00    -0.516 C  
BRANCH  18  19
HETATM   19  C   UNL     1     -12.476  12.457  64.182  1.00  0.00    -0.442 C  
HETATM   20  H   UNL     1     -12.532  12.925  62.267  1.00  0.00     0.000 HD 
HETATM   21  O   UNL     1     -12.555  13.380  63.100  1.00  0.00    -0.710 OA 
ENDBRANCH  18  19
ENDBRANCH   3  18
BRANCH   3  22
HETATM   22  S   UNL     1     -10.642  11.589  66.918  1.00  0.00    -0.259 SA 
BRANCH  22  23
HETATM   23  S   UNL     1     -11.794  11.318  68.597  1.00  0.00    -0.245 SA 
BRANCH  23  24
HETATM   24  C   UNL     1     -10.754  10.380  69.775  1.00  0.00    -0.278 C  
BRANCH  24  25
HETATM   25  C   UNL     1     -11.386   9.865  71.066  1.00  0.00    -0.386 C  
HETATM   26  O   UNL     1     -11.480   8.425  70.979  1.00  0.00    -0.263 OA 
HETATM   27  C   UNL     1     -13.303   9.235  72.269  1.00  0.00    -0.547 C  
HETATM   28  C   UNL     1     -12.639   7.995  71.708  1.00  0.00    -0.325 C  
HETATM   29  C   UNL     1     -12.803  10.331  71.353  1.00  0.00    -0.544 C  
ENDBRANCH  24  25
ENDBRANCH  23  24
ENDBRANCH  22  23
ENDBRANCH   3  22
TORSDOF 9
ENDMDL
MODEL       14
REMARK 921   NORMALIZED FREE ENERGY PREDICTED BY IDOCK:   -5.66 KCAL/MOL
REMARK 922        TOTAL FREE ENERGY PREDICTED BY IDOCK:   -9.87 KCAL/MOL
REMARK 923 INTER-LIGAND FREE ENERGY PREDICTED BY IDOCK:   -8.70 KCAL/MOL
REMARK 924 INTRA-LIGAND FREE ENERGY PREDICTED BY IDOCK:   -1.17 KCAL/MOL
REMARK 927      BINDING AFFINITY PREDICTED BY RF-SCORE:    0.00 PKD
ROOT
HETATM    1  C   UNL     1      -8.234  12.810  67.250  1.00  0.00    -0.181 C  
HETATM    2  C   UNL     1      -9.560  13.429  66.848  1.00  0.00    -0.257 C  
HETATM    3  C   UNL     1      -9.844  14.758  66.974  1.00  0.00    -0.239 C  
ENDROOT
BRANCH   2   4
HETATM    4  N   UNL     1     -10.415  12.509  66.231  1.00  0.00    -0.243 N  
HETATM    5  C   UNL     1     -10.181  12.095  64.927  1.00  0.00    -0.280 C  
HETATM    6  O   UNL     1     -10.895  11.316  64.302  1.00  0.00    -0.354 OA 
BRANCH   4   7
HETATM    7  C   UNL     1     -11.683  12.127  66.871  1.00  0.00    -0.301 C  
BRANCH   7   8
HETATM    8  C   UNL     1     -11.595  11.249  68.098  1.00  0.00    -0.359 A  
HETATM    9  H2  UNL     1     -12.364  13.582  69.113  1.00  0.00     0.000 HD 
HETATM   10  H1  UNL     1     -12.257  13.259  70.818  1.00  0.00     0.000 HD 
HETATM   11  N   UNL     1     -12.147  12.923  69.861  1.00  0.00    -0.296 NA 
HETATM   12  C   UNL     1     -11.757  11.743  69.504  1.00  0.00    -0.343 A  
HETATM   13  C   UNL     1     -11.091   9.992  68.034  1.00  0.00    -0.201 A  
HETATM   14  N   UNL     1     -10.677   9.181  69.080  1.00  0.00    -0.194 NA 
HETATM   15  C   UNL     1     -10.243   8.924  71.461  1.00  0.00    -0.398 C  
HETATM   16  N   UNL     1     -11.426  10.871  70.502  1.00  0.00    -0.291 NA 
HETATM   17  C   UNL     1     -10.833   9.664  70.280  1.00  0.00    -0.285 A  
ENDBRANCH   7   8
ENDBRANCH   4   7
ENDBRANCH   2   4
BRANCH   3  18
HETATM   18  C   UNL     1     -11.023  15.461  66.295  1.00  0.00    -0.278 C  
BRANCH  18  19
HETATM   19  C   UNL     1     -10.927  15.569  64.760  1.00  0.00    -0.399 C  
HETATM   20  H   UNL     1     -11.307  16.914  63.369  1.00  0.00     0.000 HD 
HETATM   21  O   UNL     1     -11.367  16.848  64.314  1.00  0.00    -1.202 OA 
ENDBRANCH  18  19
ENDBRANCH   3  18
BRANCH   3  22
HETATM   22  S   UNL     1      -8.748  15.756  67.946  1.00  0.00    -0.171 SA 
BRANCH  22  23
HETATM   23  S   UNL     1      -7.593  16.659  66.506  1.00  0.00    -0.264 SA 
BRANCH  23  24
HETATM   24  C   UNL     1      -7.253  18.349  67.121  1.00  0.00    -0.204 C  
BRANCH  24  25
HETATM   25  C   UNL     1      -8.412  19.335  67.242  1.00  0.00    -0.287 C  
HETATM   26  O   UNL     1      -8.865  19.331  68.616  1.00  0.00    -0.361 OA 
HETATM   27  C   UNL     1     -10.723  19.756  67.197  1.00  0.00    -0.547 C  
HETATM   28  C   UNL     1     -10.277  19.592  68.634  1.00  0.00    -0.384 C  
HETATM   29  C   UNL     1      -9.652  19.019  66.423  1.00  0.00    -0.386 C  
ENDBRANCH  24  25
ENDBRANCH  23  24
ENDBRANCH  22  23
ENDBRANCH   3  22
TORSDOF 9
ENDMDL
MODEL       15
REMARK 921   NORMALIZED FREE ENERGY PREDICTED BY IDOCK:   -5.63 KCAL/MOL
REMARK 922        TOTAL FREE ENERGY PREDICTED BY IDOCK:   -9.84 KCAL/MOL
REMARK 923 INTER-LIGAND FREE ENERGY PREDICTED BY IDOCK:   -8.98 KCAL/MOL
REMARK 924 INTRA-LIGAND FREE ENERGY PREDICTED BY IDOCK:   -0.85 KCAL/MOL
REMARK 927      BINDING AFFINITY PREDICTED BY RF-SCORE:    0.00 PKD
ROOT
HETATM    1  C   UNL     1      -8.200  13.373  67.883  1.00  0.00    -0.162 C  
HETATM    2  C   UNL     1      -9.370  13.548  66.932  1.00  0.00    -0.253 C  
HETATM    3  C   UNL     1      -9.646  14.715  66.278  1.00  0.00    -0.308 C  
ENDROOT
BRANCH   2   4
HETATM    4  N   UNL     1     -10.067  12.354  66.714  1.00  0.00    -0.212 N  
HETATM    5  C   UNL     1      -9.542  11.376  65.882  1.00  0.00    -0.227 C  
HETATM    6  O   UNL     1     -10.097  10.314  65.613  1.00  0.00    -0.273 OA 
BRANCH   4   7
HETATM    7  C   UNL     1     -11.450  12.202  67.190  1.00  0.00    -0.346 C  
BRANCH   7   8
HETATM    8  C   UNL     1     -11.718  12.543  68.638  1.00  0.00    -0.368 A  
HETATM    9  H2  UNL     1     -11.378   9.908  68.720  1.00  0.00     0.000 HD 
HETATM   10  H1  UNL     1     -11.811   9.564  70.368  1.00  0.00     0.000 HD 
HETATM   11  N   UNL     1     -11.690  10.255  69.627  1.00  0.00    -0.200 NA 
HETATM   12  C   UNL     1     -11.896  11.527  69.726  1.00  0.00    -0.357 A  
HETATM   13  C   UNL     1     -12.090  13.792  69.013  1.00  0.00    -0.322 A  
HETATM   14  N   UNL     1     -12.644  14.194  70.220  1.00  0.00    -0.339 NA 
HETATM   15  C   UNL     1     -13.543  13.582  72.398  1.00  0.00    -0.709 C  
HETATM   16  N   UNL     1     -12.354  11.990  70.927  1.00  0.00    -0.351 NA 
HETATM   17  C   UNL     1     -12.784  13.269  71.127  1.00  0.00    -0.320 A  
ENDBRANCH   7   8
ENDBRANCH   4   7
ENDBRANCH   2   4
BRANCH   3  18
HETATM   18  C   UNL     1     -10.604  14.835  65.089  1.00  0.00    -0.439 C  
BRANCH  18  19
HETATM   19  C   UNL     1     -11.072  16.268  64.766  1.00  0.00    -0.281 C  
HETATM   20  H   UNL     1     -12.456  17.132  63.657  1.00  0.00     0.000 HD 
HETATM   21  O   UNL     1     -12.167  16.249  63.856  1.00  0.00    -0.945 OA 
ENDBRANCH  18  19
ENDBRANCH   3  18
BRANCH   3  22
HETATM   22  S   UNL     1      -8.803  16.183  66.801  1.00  0.00    -0.272 SA 
BRANCH  22  23
HETATM   23  S   UNL     1     -10.035  16.883  68.289  1.00  0.00    -0.299 SA 
BRANCH  23  24
HETATM   24  C   UNL     1      -9.310  18.472  68.836  1.00  0.00    -0.218 C  
BRANCH  24  25
HETATM   25  C   UNL     1      -8.090  19.018  68.096  1.00  0.00    -0.312 C  
HETATM   26  O   UNL     1      -7.077  19.342  69.076  1.00  0.00    -0.333 OA 
HETATM   27  C   UNL     1      -6.890  20.852  67.251  1.00  0.00    -0.426 C  
HETATM   28  C   UNL     1      -6.313  20.458  68.594  1.00  0.00    -0.304 C  
HETATM   29  C   UNL     1      -8.298  20.302  67.312  1.00  0.00    -0.404 C  
ENDBRANCH  24  25
ENDBRANCH  23  24
ENDBRANCH  22  23
ENDBRANCH   3  22
TORSDOF 9
ENDMDL
MODEL       16
REMARK 921   NORMALIZED FREE ENERGY PREDICTED BY IDOCK:   -5.61 KCAL/MOL
REMARK 922        TOTAL FREE ENERGY PREDICTED BY IDOCK:   -9.80 KCAL/MOL
REMARK 923 INTER-LIGAND FREE ENERGY PREDICTED BY IDOCK:   -8.84 KCAL/MOL
REMARK 924 INTRA-LIGAND FREE ENERGY PREDICTED BY IDOCK:   -0.96 KCAL/MOL
REMARK 927      BINDING AFFINITY PREDICTED BY RF-SCORE:    0.00 PKD
ROOT
HETATM    1  C   UNL     1     -11.537  13.167  68.350  1.00  0.00    -0.372 C  
HETATM    2  C   UNL     1     -10.728  12.716  67.148  1.00  0.00    -0.241 C  
HETATM    3  C   UNL     1      -9.688  11.835  67.222  1.00  0.00    -0.178 C  
ENDROOT
BRANCH   2   4
HETATM    4  N   UNL     1     -11.237  13.214  65.943  1.00  0.00    -0.286 N  
HETATM    5  C   UNL     1     -12.514  12.872  65.523  1.00  0.00    -0.402 C  
HETATM    6  O   UNL     1     -13.027  13.240  64.470  1.00  0.00    -0.670 OA 
BRANCH   4   7
HETATM    7  C   UNL     1     -10.360  13.934  65.007  1.00  0.00    -0.396 C  
BRANCH   7   8
HETATM    8  C   UNL     1     -10.179  15.417  65.238  1.00  0.00    -0.390 A  
HETATM    9  H2  UNL     1      -8.512  14.349  67.011  1.00  0.00     0.000 HD 
HETATM   10  H1  UNL     1      -8.020  15.759  67.902  1.00  0.00     0.000 HD 
HETATM   11  N   UNL     1      -8.578  15.358  67.147  1.00  0.00    -0.193 NA 
HETATM   12  C   UNL     1      -9.360  16.005  66.347  1.00  0.00    -0.298 A  
HETATM   13  C   UNL     1     -10.968  16.331  64.620  1.00  0.00    -0.194 A  
HETATM   14  N   UNL     1     -11.129  17.672  64.931  1.00  0.00    -0.717 NA 
HETATM   15  C   UNL     1     -10.645  19.529  66.430  1.00  0.00    -0.571 C  
HETATM   16  N   UNL     1      -9.482  17.350  66.552  1.00  0.00    -0.265 NA 
HETATM   17  C   UNL     1     -10.399  18.129  65.910  1.00  0.00    -0.277 A  
ENDBRANCH   7   8
ENDBRANCH   4   7
ENDBRANCH   2   4
BRANCH   3  18
HETATM   18  C   UNL     1      -9.070  11.121  66.016  1.00  0.00    -0.217 C  
BRANCH  18  19
HETATM   19  C   UNL     1     -10.002  10.132  65.289  1.00  0.00    -0.311 C  
HETATM   20  H   UNL     1     -10.729   9.884  63.473  1.00  0.00     0.000 HD 
HETATM   21  O   UNL     1     -10.155  10.493  63.920  1.00  0.00    -0.327 OA 
ENDBRANCH  18  19
ENDBRANCH   3  18
BRANCH   3  22
HETATM   22  S   UNL     1      -9.039  11.445  68.824  1.00  0.00    -0.024 SA 
BRANCH  22  23
HETATM   23  S   UNL     1      -9.486   9.447  68.999  1.00  0.00    -0.164 SA 
BRANCH  23  24
HETATM   24  C   UNL     1     -10.127   9.222  70.698  1.00  0.00    -0.276 C  
BRANCH  24  25
HETATM   25  C   UNL     1     -11.635   9.274  70.929  1.00  0.00    -0.301 C  
HETATM   26  O   UNL     1     -12.026  10.661  71.050  1.00  0.00    -0.343 OA 
HETATM   27  C   UNL     1     -13.453   9.340  72.414  1.00  0.00    -0.526 C  
HETATM   28  C   UNL     1     -13.142  10.747  71.948  1.00  0.00    -0.451 C  
HETATM   29  C   UNL     1     -12.144   8.614  72.199  1.00  0.00    -0.451 C  
ENDBRANCH  24  25
ENDBRANCH  23  24
ENDBRANCH  22  23
ENDBRANCH   3  22
TORSDOF 9
ENDMDL
MODEL       17
REMARK 921   NORMALIZED FREE ENERGY PREDICTED BY IDOCK:   -5.59 KCAL/MOL
REMARK 922        TOTAL FREE ENERGY PREDICTED BY IDOCK:   -9.78 KCAL/MOL
REMARK 923 INTER-LIGAND FREE ENERGY PREDICTED BY IDOCK:   -9.09 KCAL/MOL
REMARK 924 INTRA-LIGAND FREE ENERGY PREDICTED BY IDOCK:   -0.68 KCAL/MOL
REMARK 927      BINDING AFFINITY PREDICTED BY RF-SCORE:    0.00 PKD
ROOT
HETATM    1  C   UNL     1     -11.810  14.497  67.641  1.00  0.00    -0.395 C  
HETATM    2  C   UNL     1     -11.178  14.165  66.302  1.00  0.00    -0.329 C  
HETATM    3  C   UNL     1     -11.081  12.896  65.805  1.00  0.00    -0.284 C  
ENDROOT
BRANCH   2   4
HETATM    4  N   UNL     1     -10.809  15.308  65.585  1.00  0.00    -0.348 N  
HETATM    5  C   UNL     1     -11.699  15.904  64.704  1.00  0.00    -0.117 C  
HETATM    6  O   UNL     1     -11.449  16.890  64.016  1.00  0.00    -1.130 OA 
BRANCH   4   7
HETATM    7  C   UNL     1      -9.413  15.773  65.594  1.00  0.00    -0.217 C  
BRANCH   7   8
HETATM    8  C   UNL     1      -9.007  16.703  66.714  1.00  0.00    -0.263 A  
HETATM    9  H2  UNL     1     -10.346  18.318  65.082  1.00  0.00     0.000 HD 
HETATM   10  H1  UNL     1     -10.051  19.863  65.821  1.00  0.00     0.000 HD 
HETATM   11  N   UNL     1      -9.906  18.853  65.831  1.00  0.00    -0.484 NA 
HETATM   12  C   UNL     1      -9.219  18.187  66.699  1.00  0.00    -0.290 A  
HETATM   13  C   UNL     1      -8.171  16.297  67.702  1.00  0.00    -0.153 A  
HETATM   14  N   UNL     1      -7.483  17.081  68.616  1.00  0.00    -0.218 NA 
HETATM   15  C   UNL     1      -6.854  19.302  69.389  1.00  0.00    -0.316 C  
HETATM   16  N   UNL     1      -8.596  18.905  67.680  1.00  0.00    -0.277 NA 
HETATM   17  C   UNL     1      -7.698  18.364  68.553  1.00  0.00    -0.303 A  
ENDBRANCH   7   8
ENDBRANCH   4   7
ENDBRANCH   2   4
BRANCH   3  18
HETATM   18  C   UNL     1     -10.750  12.560  64.348  1.00  0.00    -0.379 C  
BRANCH  18  19
HETATM   19  C   UNL     1     -11.907  12.763  63.349  1.00  0.00    -0.518 C  
HETATM   20  H   UNL     1     -13.805  12.247  63.196  1.00  0.00     0.000 HD 
HETATM   21  O   UNL     1     -13.092  12.121  63.811  1.00  0.00    -0.774 OA 
ENDBRANCH  18  19
ENDBRANCH   3  18
BRANCH   3  22
HETATM   22  S   UNL     1     -11.410  11.544  66.902  1.00  0.00    -0.175 SA 
BRANCH  22  23
HETATM   23  S   UNL     1      -9.720  11.513  68.071  1.00  0.00    -0.192 SA 
BRANCH  23  24
HETATM   24  C   UNL     1      -9.773   9.931  68.990  1.00  0.00    -0.193 C  
BRANCH  24  25
HETATM   25  C   UNL     1     -10.439   9.900  70.363  1.00  0.00    -0.285 C  
HETATM   26  O   UNL     1     -10.803   8.532  70.657  1.00  0.00    -0.215 OA 
HETATM   27  C   UNL     1     -12.391   9.981  71.666  1.00  0.00    -0.486 C  
HETATM   28  C   UNL     1     -11.993   8.535  71.460  1.00  0.00    -0.303 C  
HETATM   29  C   UNL     1     -11.733  10.685  70.501  1.00  0.00    -0.451 C  
ENDBRANCH  24  25
ENDBRANCH  23  24
ENDBRANCH  22  23
ENDBRANCH   3  22
TORSDOF 9
ENDMDL
MODEL       18
REMARK 921   NORMALIZED FREE ENERGY PREDICTED BY IDOCK:   -5.56 KCAL/MOL
REMARK 922        TOTAL FREE ENERGY PREDICTED BY IDOCK:   -9.73 KCAL/MOL
REMARK 923 INTER-LIGAND FREE ENERGY PREDICTED BY IDOCK:   -9.22 KCAL/MOL
REMARK 924 INTRA-LIGAND FREE ENERGY PREDICTED BY IDOCK:   -0.51 KCAL/MOL
REMARK 927      BINDING AFFINITY PREDICTED BY RF-SCORE:    0.00 PKD
ROOT
HETATM    1  C   UNL     1      -8.976  14.868  68.822  1.00  0.00    -0.188 C  
HETATM    2  C   UNL     1     -10.110  14.794  67.815  1.00  0.00    -0.224 C  
HETATM    3  C   UNL     1     -10.887  13.686  67.631  1.00  0.00    -0.256 C  
ENDROOT
BRANCH   2   4
HETATM    4  N   UNL     1     -10.343  16.018  67.179  1.00  0.00    -0.290 N  
HETATM    5  C   UNL     1     -10.030  16.185  65.838  1.00  0.00    -0.356 C  
HETATM    6  O   UNL     1     -10.175  17.230  65.209  1.00  0.00    -0.563 OA 
BRANCH   4   7
HETATM    7  C   UNL     1     -10.727  17.203  67.962  1.00  0.00    -0.372 C  
BRANCH   7   8
HETATM    8  C   UNL     1      -9.716  18.322  68.053  1.00  0.00    -0.324 A  
HETATM    9  H2  UNL     1     -11.701  19.448  66.691  1.00  0.00     0.000 HD 
HETATM   10  H1  UNL     1     -10.982  20.966  66.241  1.00  0.00     0.000 HD 
HETATM   11  N   UNL     1     -10.891  20.068  66.718  1.00  0.00    -0.265 NA 
HETATM   12  C   UNL     1      -9.849  19.641  67.352  1.00  0.00    -0.368 A  
HETATM   13  C   UNL     1      -8.475  18.115  68.560  1.00  0.00    -0.299 A  
HETATM   14  N   UNL     1      -7.359  18.931  68.451  1.00  0.00    -0.277 NA 
HETATM   15  C   UNL     1      -6.327  20.922  67.504  1.00  0.00    -0.382 C  
HETATM   16  N   UNL     1      -8.749  20.450  67.356  1.00  0.00    -0.343 NA 
HETATM   17  C   UNL     1      -7.529  20.061  67.824  1.00  0.00    -0.295 A  
ENDBRANCH   7   8
ENDBRANCH   4   7
ENDBRANCH   2   4
BRANCH   3  18
HETATM   18  C   UNL     1     -12.218  13.679  66.873  1.00  0.00    -0.398 C  
BRANCH  18  19
HETATM   19  C   UNL     1     -12.107  13.442  65.354  1.00  0.00    -0.421 C  
HETATM   20  H   UNL     1     -12.986  12.325  63.987  1.00  0.00     0.000 HD 
HETATM   21  O   UNL     1     -13.054  12.471  64.923  1.00  0.00    -0.833 OA 
ENDBRANCH  18  19
ENDBRANCH   3  18
BRANCH   3  22
HETATM   22  S   UNL     1     -10.353  12.162  68.361  1.00  0.00    -0.228 SA 
BRANCH  22  23
HETATM   23  S   UNL     1     -12.088  11.453  69.202  1.00  0.00    -0.181 SA 
BRANCH  23  24
HETATM   24  C   UNL     1     -12.228  12.272  70.832  1.00  0.00    -0.197 C  
BRANCH  24  25
HETATM   25  C   UNL     1     -13.013  13.577  70.934  1.00  0.00    -0.154 C  
HETATM   26  O   UNL     1     -12.115  14.669  70.625  1.00  0.00    -0.277 OA 
HETATM   27  C   UNL     1     -13.717  15.420  72.210  1.00  0.00    -0.629 C  
HETATM   28  C   UNL     1     -12.515  15.821  71.382  1.00  0.00    -0.455 C  
HETATM   29  C   UNL     1     -13.579  13.916  72.303  1.00  0.00    -0.642 C  
ENDBRANCH  24  25
ENDBRANCH  23  24
ENDBRANCH  22  23
ENDBRANCH   3  22
TORSDOF 9
ENDMDL
MODEL       19
REMARK 921   NORMALIZED FREE ENERGY PREDICTED BY IDOCK:   -5.53 KCAL/MOL
REMARK 922        TOTAL FREE ENERGY PREDICTED BY IDOCK:   -9.68 KCAL/MOL
REMARK 923 INTER-LIGAND FREE ENERGY PREDICTED BY IDOCK:   -8.70 KCAL/MOL
REMARK 924 INTRA-LIGAND FREE ENERGY PREDICTED BY IDOCK:   -0.98 KCAL/MOL
REMARK 927      BINDING AFFINITY PREDICTED BY RF-SCORE:    0.00 PKD
ROOT
HETATM    1  C   UNL     1      -9.158  13.796  68.534  1.00  0.00    -0.133 C  
HETATM    2  C   UNL     1     -10.475  13.268  67.995  1.00  0.00    -0.242 C  
HETATM    3  C   UNL     1     -10.741  13.118  66.664  1.00  0.00    -0.279 C  
ENDROOT
BRANCH   2   4
HETATM    4  N   UNL     1     -11.340  12.848  69.010  1.00  0.00    -0.276 N  
HETATM    5  C   UNL     1     -11.108  11.658  69.685  1.00  0.00    -0.108 C  
HETATM    6  O   UNL     1     -11.829  11.201  70.568  1.00  0.00    -0.337 OA 
BRANCH   4   7
HETATM    7  C   UNL     1     -12.614  13.546  69.239  1.00  0.00     0.341 C  
BRANCH   7   8
HETATM    8  C   UNL     1     -12.735  14.358  70.508  1.00  0.00    -0.401 A  
HETATM    9  H2  UNL     1     -11.156  15.876  69.001  1.00  0.00     0.000 HD 
HETATM   10  H1  UNL     1     -10.694  17.110  70.135  1.00  0.00     0.000 HD 
HETATM   11  N   UNL     1     -11.221  16.256  69.946  1.00  0.00    -0.341 NA 
HETATM   12  C   UNL     1     -11.961  15.611  70.786  1.00  0.00    -0.398 A  
HETATM   13  C   UNL     1     -13.354  13.863  71.608  1.00  0.00    -0.362 A  
HETATM   14  N   UNL     1     -13.299  14.340  72.909  1.00  0.00    -0.623 NA 
HETATM   15  C   UNL     1     -12.345  15.911  74.506  1.00  0.00    -0.752 C  
HETATM   16  N   UNL     1     -12.017  16.095  72.062  1.00  0.00    -0.517 NA 
HETATM   17  C   UNL     1     -12.605  15.427  73.095  1.00  0.00    -0.465 A  
ENDBRANCH   7   8
ENDBRANCH   4   7
ENDBRANCH   2   4
BRANCH   3  18
HETATM   18  C   UNL     1     -11.909  12.302  66.102  1.00  0.00    -0.398 C  
BRANCH  18  19
HETATM   19  C   UNL     1     -12.643  12.944  64.908  1.00  0.00    -0.458 C  
HETATM   20  H   UNL     1     -13.907  14.426  64.602  1.00  0.00     0.000 HD 
HETATM   21  O   UNL     1     -13.455  14.031  65.338  1.00  0.00    -0.679 OA 
ENDBRANCH  18  19
ENDBRANCH   3  18
BRANCH   3  22
HETATM   22  S   UNL     1      -9.635  13.870  65.502  1.00  0.00     0.147 SA 
BRANCH  22  23
HETATM   23  S   UNL     1     -10.219  15.839  65.560  1.00  0.00    -0.357 SA 
BRANCH  23  24
HETATM   24  C   UNL     1      -9.025  16.686  66.658  1.00  0.00    -0.255 C  
BRANCH  24  25
HETATM   25  C   UNL     1      -9.175  18.188  66.888  1.00  0.00    -0.278 C  
HETATM   26  O   UNL     1      -8.483  18.528  68.112  1.00  0.00    -0.280 OA 
HETATM   27  C   UNL     1     -10.346  19.979  67.856  1.00  0.00    -0.506 C  
HETATM   28  C   UNL     1      -9.165  19.626  68.735  1.00  0.00    -0.280 C  
HETATM   29  C   UNL     1     -10.591  18.699  67.088  1.00  0.00    -0.468 C  
ENDBRANCH  24  25
ENDBRANCH  23  24
ENDBRANCH  22  23
ENDBRANCH   3  22
TORSDOF 9
ENDMDL
MODEL       20
REMARK 921   NORMALIZED FREE ENERGY PREDICTED BY IDOCK:   -5.51 KCAL/MOL
REMARK 922        TOTAL FREE ENERGY PREDICTED BY IDOCK:   -9.65 KCAL/MOL
REMARK 923 INTER-LIGAND FREE ENERGY PREDICTED BY IDOCK:   -8.86 KCAL/MOL
REMARK 924 INTRA-LIGAND FREE ENERGY PREDICTED BY IDOCK:   -0.79 KCAL/MOL
REMARK 927      BINDING AFFINITY PREDICTED BY RF-SCORE:    0.00 PKD
ROOT
HETATM    1  C   UNL     1      -8.382  15.032  66.758  1.00  0.00    -0.189 C  
HETATM    2  C   UNL     1      -9.879  14.872  66.943  1.00  0.00    -0.240 C  
HETATM    3  C   UNL     1     -10.448  13.872  67.680  1.00  0.00    -0.245 C  
ENDROOT
BRANCH   2   4
HETATM    4  N   UNL     1     -10.606  15.923  66.373  1.00  0.00    -0.309 N  
HETATM    5  C   UNL     1     -10.725  16.030  64.995  1.00  0.00    -0.378 C  
HETATM    6  O   UNL     1     -11.319  16.932  64.411  1.00  0.00    -1.133 OA 
BRANCH   4   7
HETATM    7  C   UNL     1     -11.077  17.040  67.206  1.00  0.00     0.113 C  
BRANCH   7   8
HETATM    8  C   UNL     1     -10.089  18.146  67.494  1.00  0.00    -0.358 A  
HETATM    9  H2  UNL     1     -11.576  19.193  65.556  1.00  0.00     0.000 HD 
HETATM   10  H1  UNL     1     -10.703  20.657  65.216  1.00  0.00     0.000 HD 
HETATM   11  N   UNL     1     -10.782  19.799  65.762  1.00  0.00    -0.468 NA 
HETATM   12  C   UNL     1      -9.973  19.407  66.691  1.00  0.00    -0.390 A  
HETATM   13  C   UNL     1      -9.046  17.960  68.340  1.00  0.00    -0.289 A  
HETATM   14  N   UNL     1      -7.913  18.746  68.488  1.00  0.00    -0.335 NA 
HETATM   15  C   UNL     1      -6.584  20.638  67.725  1.00  0.00    -0.368 C  
HETATM   16  N   UNL     1      -8.887  20.196  66.942  1.00  0.00    -0.335 NA 
HETATM   17  C   UNL     1      -7.860  19.825  67.759  1.00  0.00    -0.291 A  
ENDBRANCH   7   8
ENDBRANCH   4   7
ENDBRANCH   2   4
BRANCH   3  18
HETATM   18  C   UNL     1     -11.906  13.864  68.149  1.00  0.00    -0.407 C  
BRANCH  18  19
HETATM   19  C   UNL     1     -12.106  14.005  69.671  1.00  0.00    -0.355 C  
HETATM   20  H   UNL     1     -11.557  15.246  71.103  1.00  0.00     0.000 HD 
HETATM   21  O   UNL     1     -11.434  15.159  70.165  1.00  0.00    -0.246 OA 
ENDBRANCH  18  19
ENDBRANCH   3  18
BRANCH   3  22
HETATM   22  S   UNL     1      -9.423  12.515  68.174  1.00  0.00    -0.207 SA 
BRANCH  22  23
HETATM   23  S   UNL     1     -10.678  10.908  67.919  1.00  0.00    -0.252 SA 
BRANCH  23  24
HETATM   24  C   UNL     1     -10.419   9.831  69.376  1.00  0.00    -0.223 C  
BRANCH  24  25
HETATM   25  C   UNL     1     -11.173  10.145  70.666  1.00  0.00    -0.340 C  
HETATM   26  O   UNL     1     -11.193   8.949  71.479  1.00  0.00    -0.275 OA 
HETATM   27  C   UNL     1     -13.186  10.180  71.876  1.00  0.00    -0.557 C  
HETATM   28  C   UNL     1     -12.409   8.933  72.242  1.00  0.00    -0.360 C  
HETATM   29  C   UNL     1     -12.633  10.537  70.514  1.00  0.00    -0.423 C  
ENDBRANCH  24  25
ENDBRANCH  23  24
ENDBRANCH  22  23
ENDBRANCH   3  22
TORSDOF 9
ENDMDL
MODEL       21
REMARK 921   NORMALIZED FREE ENERGY PREDICTED BY IDOCK:   -5.50 KCAL/MOL
REMARK 922        TOTAL FREE ENERGY PREDICTED BY IDOCK:   -9.63 KCAL/MOL
REMARK 923 INTER-LIGAND FREE ENERGY PREDICTED BY IDOCK:   -8.55 KCAL/MOL
REMARK 924 INTRA-LIGAND FREE ENERGY PREDICTED BY IDOCK:   -1.09 KCAL/MOL
REMARK 927      BINDING AFFINITY PREDICTED BY RF-SCORE:    0.00 PKD
ROOT
HETATM    1  C   UNL     1     -11.872  13.693  67.926  1.00  0.00    -0.402 C  
HETATM    2  C   UNL     1     -10.941  13.431  66.756  1.00  0.00    -0.288 C  
HETATM    3  C   UNL     1     -10.039  12.407  66.722  1.00  0.00    -0.214 C  
ENDROOT
BRANCH   2   4
HETATM    4  N   UNL     1     -11.187  14.284  65.674  1.00  0.00    -0.307 N  
HETATM    5  C   UNL     1     -12.352  14.160  64.931  1.00  0.00    -0.430 C  
HETATM    6  O   UNL     1     -12.634  14.845  63.952  1.00  0.00    -0.831 OA 
BRANCH   4   7
HETATM    7  C   UNL     1     -10.132  15.181  65.180  1.00  0.00    -0.296 C  
BRANCH   7   8
HETATM    8  C   UNL     1      -9.798  16.384  66.033  1.00  0.00    -0.362 A  
HETATM    9  H2  UNL     1      -8.162  14.524  66.995  1.00  0.00     0.000 HD 
HETATM   10  H1  UNL     1      -7.496  15.343  68.376  1.00  0.00     0.000 HD 
HETATM   11  N   UNL     1      -8.124  15.364  67.572  1.00  0.00    -0.154 NA 
HETATM   12  C   UNL     1      -8.876  16.352  67.214  1.00  0.00    -0.188 A  
HETATM   13  C   UNL     1     -10.523  17.527  65.957  1.00  0.00    -0.274 A  
HETATM   14  N   UNL     1     -10.540  18.591  66.846  1.00  0.00    -0.389 NA 
HETATM   15  C   UNL     1      -9.810  19.534  68.969  1.00  0.00    -0.491 C  
HETATM   16  N   UNL     1      -8.859  17.464  68.007  1.00  0.00    -0.245 NA 
HETATM   17  C   UNL     1      -9.725  18.507  67.860  1.00  0.00    -0.314 A  
ENDBRANCH   7   8
ENDBRANCH   4   7
ENDBRANCH   2   4
BRANCH   3  18
HETATM   18  C   UNL     1      -9.325  11.924  65.456  1.00  0.00    -0.089 C  
BRANCH  18  19
HETATM   19  C   UNL     1     -10.060  10.822  64.668  1.00  0.00    -0.344 C  
HETATM   20  H   UNL     1     -11.277  10.704  63.120  1.00  0.00     0.000 HD 
HETATM   21  O   UNL     1     -10.824  11.383  63.606  1.00  0.00    -0.380 OA 
ENDBRANCH  18  19
ENDBRANCH   3  18
BRANCH   3  22
HETATM   22  S   UNL     1      -9.706  11.538  68.230  1.00  0.00    -0.202 SA 
BRANCH  22  23
HETATM   23  S   UNL     1     -11.069  10.003  68.156  1.00  0.00    -0.128 SA 
BRANCH  23  24
HETATM   24  C   UNL     1     -10.862   9.070  69.716  1.00  0.00    -0.205 C  
BRANCH  24  25
HETATM   25  C   UNL     1     -11.557   9.580  70.976  1.00  0.00    -0.344 C  
HETATM   26  O   UNL     1     -12.568   8.617  71.355  1.00  0.00    -0.312 OA 
HETATM   27  C   UNL     1     -13.307  10.789  71.972  1.00  0.00    -0.403 C  
HETATM   28  C   UNL     1     -13.658   9.316  71.975  1.00  0.00    -0.452 C  
HETATM   29  C   UNL     1     -12.303  10.897  70.846  1.00  0.00    -0.501 C  
ENDBRANCH  24  25
ENDBRANCH  23  24
ENDBRANCH  22  23
ENDBRANCH   3  22
TORSDOF 9
ENDMDL
MODEL       22
REMARK 921   NORMALIZED FREE ENERGY PREDICTED BY IDOCK:   -5.49 KCAL/MOL
REMARK 922        TOTAL FREE ENERGY PREDICTED BY IDOCK:   -9.62 KCAL/MOL
REMARK 923 INTER-LIGAND FREE ENERGY PREDICTED BY IDOCK:   -8.42 KCAL/MOL
REMARK 924 INTRA-LIGAND FREE ENERGY PREDICTED BY IDOCK:   -1.20 KCAL/MOL
REMARK 927      BINDING AFFINITY PREDICTED BY RF-SCORE:    0.00 PKD
ROOT
HETATM    1  C   UNL     1      -8.659  13.197  67.605  1.00  0.00    -0.193 C  
HETATM    2  C   UNL     1      -9.856  13.199  66.671  1.00  0.00    -0.261 C  
HETATM    3  C   UNL     1     -10.275  12.100  65.976  1.00  0.00    -0.237 C  
ENDROOT
BRANCH   2   4
HETATM    4  N   UNL     1     -10.548  14.415  66.688  1.00  0.00    -0.279 N  
HETATM    5  C   UNL     1      -9.935  15.579  66.248  1.00  0.00    -0.293 C  
HETATM    6  O   UNL     1     -10.457  16.691  66.254  1.00  0.00    -0.306 OA 
BRANCH   4   7
HETATM    7  C   UNL     1     -11.852  14.520  67.360  1.00  0.00    -0.388 C  
BRANCH   7   8
HETATM    8  C   UNL     1     -11.847  14.519  68.872  1.00  0.00    -0.359 A  
HETATM    9  H2  UNL     1     -11.886  11.925  68.295  1.00  0.00     0.000 HD 
HETATM   10  H1  UNL     1     -12.112  11.233  69.873  1.00  0.00     0.000 HD 
HETATM   11  N   UNL     1     -12.005  12.068  69.298  1.00  0.00    -0.295 NA 
HETATM   12  C   UNL     1     -12.005  13.291  69.717  1.00  0.00    -0.324 A  
HETATM   13  C   UNL     1     -11.972  15.669  69.580  1.00  0.00    -0.345 A  
HETATM   14  N   UNL     1     -12.273  15.817  70.925  1.00  0.00    -0.412 NA 
HETATM   15  C   UNL     1     -12.914  14.786  73.035  1.00  0.00    -0.609 C  
HETATM   16  N   UNL     1     -12.205  13.489  71.053  1.00  0.00    -0.328 NA 
HETATM   17  C   UNL     1     -12.409  14.717  71.610  1.00  0.00    -0.351 A  
ENDBRANCH   7   8
ENDBRANCH   4   7
ENDBRANCH   2   4
BRANCH   3  18
HETATM   18  C   UNL     1     -11.639  11.978  65.291  1.00  0.00    -0.337 C  
BRANCH  18  19
HETATM   19  C   UNL     1     -11.677  12.432  63.818  1.00  0.00    -0.483 C  
HETATM   20  H   UNL     1     -12.993  12.505  62.351  1.00  0.00     0.000 HD 
HETATM   21  O   UNL     1     -12.970  12.224  63.258  1.00  0.00    -0.707 OA 
ENDBRANCH  18  19
ENDBRANCH   3  18
BRANCH   3  22
HETATM   22  S   UNL     1      -9.194  10.698  65.902  1.00  0.00    -0.191 SA 
BRANCH  22  23
HETATM   23  S   UNL     1     -10.124   9.367  67.161  1.00  0.00    -0.250 SA 
BRANCH  23  24
HETATM   24  C   UNL     1      -9.357   9.608  68.805  1.00  0.00    -0.148 C  
BRANCH  24  25
HETATM   25  C   UNL     1      -9.626   8.579  69.900  1.00  0.00    -0.171 C  
HETATM   26  O   UNL     1     -10.918   7.981  69.649  1.00  0.00    -0.210 OA 
HETATM   27  C   UNL     1     -10.546   8.047  71.994  1.00  0.00    -0.310 C  
HETATM   28  C   UNL     1     -11.516   7.634  70.908  1.00  0.00    -0.282 C  
HETATM   29  C   UNL     1      -9.713   9.114  71.319  1.00  0.00    -0.351 C  
ENDBRANCH  24  25
ENDBRANCH  23  24
ENDBRANCH  22  23
ENDBRANCH   3  22
TORSDOF 9
ENDMDL
MODEL       23
REMARK 921   NORMALIZED FREE ENERGY PREDICTED BY IDOCK:   -5.49 KCAL/MOL
REMARK 922        TOTAL FREE ENERGY PREDICTED BY IDOCK:   -9.62 KCAL/MOL
REMARK 923 INTER-LIGAND FREE ENERGY PREDICTED BY IDOCK:   -8.84 KCAL/MOL
REMARK 924 INTRA-LIGAND FREE ENERGY PREDICTED BY IDOCK:   -0.78 KCAL/MOL
REMARK 927      BINDING AFFINITY PREDICTED BY RF-SCORE:    0.00 PKD
ROOT
HETATM    1  C   UNL     1      -8.747  13.222  68.104  1.00  0.00    -0.179 C  
HETATM    2  C   UNL     1      -9.936  12.505  67.491  1.00  0.00    -0.201 C  
HETATM    3  C   UNL     1     -10.436  12.791  66.253  1.00  0.00    -0.257 C  
ENDROOT
BRANCH   2   4
HETATM    4  N   UNL     1     -10.390  11.445  68.283  1.00  0.00    -0.186 N  
HETATM    5  C   UNL     1      -9.608  10.312  68.459  1.00  0.00    -0.161 C  
HETATM    6  O   UNL     1      -9.940   9.327  69.113  1.00  0.00    -0.169 OA 
BRANCH   4   7
HETATM    7  C   UNL     1     -11.777  11.423  68.772  1.00  0.00    -0.339 C  
BRANCH   7   8
HETATM    8  C   UNL     1     -12.136  12.404  69.864  1.00  0.00    -0.317 A  
HETATM    9  H2  UNL     1     -12.605  10.058  71.021  1.00  0.00     0.000 HD 
HETATM   10  H1  UNL     1     -13.350  10.560  72.509  1.00  0.00     0.000 HD 
HETATM   11  N   UNL     1     -12.927  10.820  71.618  1.00  0.00    -0.464 NA 
HETATM   12  C   UNL     1     -12.759  12.021  71.173  1.00  0.00    -0.266 A  
HETATM   13  C   UNL     1     -12.171  13.740  69.631  1.00  0.00    -0.305 A  
HETATM   14  N   UNL     1     -12.747  14.730  70.413  1.00  0.00    -0.339 NA 
HETATM   15  C   UNL     1     -14.087  15.324  72.356  1.00  0.00    -0.622 C  
HETATM   16  N   UNL     1     -13.226  13.042  71.951  1.00  0.00    -0.445 NA 
HETATM   17  C   UNL     1     -13.282  14.340  71.535  1.00  0.00    -0.348 A  
ENDBRANCH   7   8
ENDBRANCH   4   7
ENDBRANCH   2   4
BRANCH   3  18
HETATM   18  C   UNL     1     -11.408  11.892  65.482  1.00  0.00    -0.334 C  
BRANCH  18  19
HETATM   19  C   UNL     1     -12.599  12.621  64.830  1.00  0.00    -0.454 C  
HETATM   20  H   UNL     1     -13.521  12.631  63.086  1.00  0.00     0.000 HD 
HETATM   21  O   UNL     1     -12.786  12.183  63.488  1.00  0.00    -0.768 OA 
ENDBRANCH  18  19
ENDBRANCH   3  18
BRANCH   3  22
HETATM   22  S   UNL     1      -9.889  14.276  65.455  1.00  0.00    -0.180 SA 
BRANCH  22  23
HETATM   23  S   UNL     1     -11.152  15.687  66.253  1.00  0.00    -0.039 SA 
BRANCH  23  24
HETATM   24  C   UNL     1     -10.102  16.777  67.283  1.00  0.00    -0.281 C  
BRANCH  24  25
HETATM   25  C   UNL     1     -10.435  18.265  67.354  1.00  0.00    -0.409 C  
HETATM   26  O   UNL     1     -10.430  18.793  66.008  1.00  0.00    -0.454 OA 
HETATM   27  C   UNL     1      -9.711  20.495  67.502  1.00  0.00    -0.554 C  
HETATM   28  C   UNL     1      -9.998  20.161  66.053  1.00  0.00    -0.374 C  
HETATM   29  C   UNL     1      -9.453  19.138  68.118  1.00  0.00    -0.400 C  
ENDBRANCH  24  25
ENDBRANCH  23  24
ENDBRANCH  22  23
ENDBRANCH   3  22
TORSDOF 9
ENDMDL
MODEL       24
REMARK 921   NORMALIZED FREE ENERGY PREDICTED BY IDOCK:   -5.48 KCAL/MOL
REMARK 922        TOTAL FREE ENERGY PREDICTED BY IDOCK:   -9.60 KCAL/MOL
REMARK 923 INTER-LIGAND FREE ENERGY PREDICTED BY IDOCK:   -8.60 KCAL/MOL
REMARK 924 INTRA-LIGAND FREE ENERGY PREDICTED BY IDOCK:   -1.00 KCAL/MOL
REMARK 927      BINDING AFFINITY PREDICTED BY RF-SCORE:    0.00 PKD
ROOT
HETATM    1  C   UNL     1      -8.454  12.645  67.964  1.00  0.00    -0.177 C  
HETATM    2  C   UNL     1      -9.451  12.646  66.820  1.00  0.00    -0.237 C  
HETATM    3  C   UNL     1      -9.762  13.756  66.088  1.00  0.00    -0.264 C  
ENDROOT
BRANCH   2   4
HETATM    4  N   UNL     1      -9.930  11.365  66.525  1.00  0.00    -0.206 N  
HETATM    5  C   UNL     1      -9.337  10.603  65.528  1.00  0.00    -0.205 C  
HETATM    6  O   UNL     1      -9.710   9.484  65.187  1.00  0.00    -0.277 OA 
BRANCH   4   7
HETATM    7  C   UNL     1     -11.190  10.887  67.117  1.00  0.00    -0.184 C  
BRANCH   7   8
HETATM    8  C   UNL     1     -11.098  10.189  68.454  1.00  0.00    -0.273 A  
HETATM    9  H2  UNL     1     -12.231  12.507  69.092  1.00  0.00     0.000 HD 
HETATM   10  H1  UNL     1     -12.230  12.416  70.828  1.00  0.00     0.000 HD 
HETATM   11  N   UNL     1     -11.998  11.981  69.934  1.00  0.00    -0.328 NA 
HETATM   12  C   UNL     1     -11.438  10.828  69.767  1.00  0.00    -0.311 A  
HETATM   13  C   UNL     1     -10.440   9.011  68.593  1.00  0.00    -0.200 A  
HETATM   14  N   UNL     1     -10.019   8.399  69.765  1.00  0.00    -0.188 NA 
HETATM   15  C   UNL     1      -9.760   8.501  72.183  1.00  0.00    -0.387 C  
HETATM   16  N   UNL     1     -11.088  10.139  70.893  1.00  0.00    -0.321 NA 
HETATM   17  C   UNL     1     -10.334   9.003  70.876  1.00  0.00    -0.256 A  
ENDBRANCH   7   8
ENDBRANCH   4   7
ENDBRANCH   2   4
BRANCH   3  18
HETATM   18  C   UNL     1     -10.502  13.730  64.747  1.00  0.00    -0.448 C  
BRANCH  18  19
HETATM   19  C   UNL     1     -12.034  13.877  64.840  1.00  0.00    -0.395 C  
HETATM   20  H   UNL     1     -13.480  14.727  63.802  1.00  0.00     0.000 HD 
HETATM   21  O   UNL     1     -12.536  14.636  63.745  1.00  0.00    -0.820 OA 
ENDBRANCH  18  19
ENDBRANCH   3  18
BRANCH   3  22
HETATM   22  S   UNL     1      -9.230  15.332  66.697  1.00  0.00    -0.295 SA 
BRANCH  22  23
HETATM   23  S   UNL     1     -10.809  15.892  67.887  1.00  0.00    -0.327 SA 
BRANCH  23  24
HETATM   24  C   UNL     1     -10.191  17.261  68.932  1.00  0.00    -0.349 C  
BRANCH  24  25
HETATM   25  C   UNL     1     -10.323  18.694  68.421  1.00  0.00    -0.311 C  
HETATM   26  O   UNL     1     -10.784  18.643  67.051  1.00  0.00    -0.408 OA 
HETATM   27  C   UNL     1      -9.382  20.542  67.318  1.00  0.00    -0.526 C  
HETATM   28  C   UNL     1     -10.235  19.763  66.340  1.00  0.00    -0.503 C  
HETATM   29  C   UNL     1      -9.042  19.510  68.370  1.00  0.00    -0.410 C  
ENDBRANCH  24  25
ENDBRANCH  23  24
ENDBRANCH  22  23
ENDBRANCH   3  22
TORSDOF 9
ENDMDL
MODEL       25
REMARK 921   NORMALIZED FREE ENERGY PREDICTED BY IDOCK:   -5.47 KCAL/MOL
REMARK 922        TOTAL FREE ENERGY PREDICTED BY IDOCK:   -9.59 KCAL/MOL
REMARK 923 INTER-LIGAND FREE ENERGY PREDICTED BY IDOCK:   -8.74 KCAL/MOL
REMARK 924 INTRA-LIGAND FREE ENERGY PREDICTED BY IDOCK:   -0.85 KCAL/MOL
REMARK 927      BINDING AFFINITY PREDICTED BY RF-SCORE:    0.00 PKD
ROOT
HETATM    1  C   UNL     1     -11.859  13.633  67.990  1.00  0.00    -0.397 C  
HETATM    2  C   UNL     1     -11.253  12.635  67.021  1.00  0.00    -0.300 C  
HETATM    3  C   UNL     1     -10.667  11.464  67.409  1.00  0.00    -0.232 C  
ENDROOT
BRANCH   2   4
HETATM    4  N   UNL     1     -11.461  12.992  65.684  1.00  0.00    -0.321 N  
HETATM    5  C   UNL     1     -12.612  12.592  65.020  1.00  0.00    -0.430 C  
HETATM    6  O   UNL     1     -12.862  12.837  63.843  1.00  0.00    -0.687 OA 
BRANCH   4   7
HETATM    7  C   UNL     1     -10.381  13.613  64.903  1.00  0.00    -0.388 C  
BRANCH   7   8
HETATM    8  C   UNL     1     -10.214  15.109  65.031  1.00  0.00    -0.332 A  
HETATM    9  H2  UNL     1      -8.282  14.178  66.601  1.00  0.00     0.000 HD 
HETATM   10  H1  UNL     1      -7.713  15.645  67.340  1.00  0.00     0.000 HD 
HETATM   11  N   UNL     1      -8.359  15.191  66.694  1.00  0.00    -0.200 NA 
HETATM   12  C   UNL     1      -9.265  15.775  65.981  1.00  0.00    -0.344 A  
HETATM   13  C   UNL     1     -11.109  15.970  64.486  1.00  0.00    -0.253 A  
HETATM   14  N   UNL     1     -11.265  17.322  64.749  1.00  0.00    -0.832 NA 
HETATM   15  C   UNL     1     -10.631  19.268  66.068  1.00  0.00    -0.550 C  
HETATM   16  N   UNL     1      -9.398  17.126  66.133  1.00  0.00    -0.452 NA 
HETATM   17  C   UNL     1     -10.419  17.848  65.589  1.00  0.00    -0.104 A  
ENDBRANCH   7   8
ENDBRANCH   4   7
ENDBRANCH   2   4
BRANCH   3  18
HETATM   18  C   UNL     1     -10.340  10.304  66.462  1.00  0.00    -0.276 C  
BRANCH  18  19
HETATM   19  C   UNL     1     -10.389   8.902  67.102  1.00  0.00    -0.281 C  
HETATM   20  H   UNL     1      -9.110   7.594  67.839  1.00  0.00     0.000 HD 
HETATM   21  O   UNL     1      -9.080   8.457  67.444  1.00  0.00    -0.135 OA 
ENDBRANCH  18  19
ENDBRANCH   3  18
BRANCH   3  22
HETATM   22  S   UNL     1     -10.303  11.243  69.129  1.00  0.00    -0.067 SA 
BRANCH  22  23
HETATM   23  S   UNL     1     -12.104  10.589  69.871  1.00  0.00    -0.205 SA 
BRANCH  23  24
HETATM   24  C   UNL     1     -11.728   9.794  71.476  1.00  0.00    -0.375 C  
BRANCH  24  25
HETATM   25  C   UNL     1     -11.067   8.418  71.478  1.00  0.00    -0.266 C  
HETATM   26  O   UNL     1     -11.251   7.828  70.170  1.00  0.00    -0.243 OA 
HETATM   27  C   UNL     1     -11.231   6.096  71.797  1.00  0.00    -0.338 C  
HETATM   28  C   UNL     1     -11.350   6.403  70.319  1.00  0.00    -0.403 C  
HETATM   29  C   UNL     1     -11.640   7.398  72.448  1.00  0.00    -0.327 C  
ENDBRANCH  24  25
ENDBRANCH  23  24
ENDBRANCH  22  23
ENDBRANCH   3  22
TORSDOF 9
ENDMDL
MODEL       26
REMARK 921   NORMALIZED FREE ENERGY PREDICTED BY IDOCK:   -5.46 KCAL/MOL
REMARK 922        TOTAL FREE ENERGY PREDICTED BY IDOCK:   -9.57 KCAL/MOL
REMARK 923 INTER-LIGAND FREE ENERGY PREDICTED BY IDOCK:   -8.49 KCAL/MOL
REMARK 924 INTRA-LIGAND FREE ENERGY PREDICTED BY IDOCK:   -1.08 KCAL/MOL
REMARK 927      BINDING AFFINITY PREDICTED BY RF-SCORE:    0.00 PKD
ROOT
HETATM    1  C   UNL     1      -8.688  12.777  67.788  1.00  0.00    -0.184 C  
HETATM    2  C   UNL     1     -10.042  12.510  67.156  1.00  0.00    -0.214 C  
HETATM    3  C   UNL     1     -10.953  13.488  66.878  1.00  0.00    -0.288 C  
ENDROOT
BRANCH   2   4
HETATM    4  N   UNL     1     -10.206  11.170  66.787  1.00  0.00    -0.224 N  
HETATM    5  C   UNL     1      -9.560  10.664  65.668  1.00  0.00    -0.218 C  
HETATM    6  O   UNL     1      -9.670   9.512  65.257  1.00  0.00    -0.293 OA 
BRANCH   4   7
HETATM    7  C   UNL     1     -11.219  10.335  67.450  1.00  0.00    -0.068 C  
BRANCH   7   8
HETATM    8  C   UNL     1     -10.899   9.842  68.842  1.00  0.00    -0.239 A  
HETATM    9  H2  UNL     1      -9.645   8.075  67.303  1.00  0.00     0.000 HD 
HETATM   10  H1  UNL     1      -9.123   6.911  68.483  1.00  0.00     0.000 HD 
HETATM   11  N   UNL     1      -9.609   7.784  68.280  1.00  0.00    -0.153 NA 
HETATM   12  C   UNL     1     -10.185   8.558  69.140  1.00  0.00    -0.211 A  
HETATM   13  C   UNL     1     -11.475  10.395  69.938  1.00  0.00    -0.297 A  
HETATM   14  N   UNL     1     -11.519   9.890  71.229  1.00  0.00    -0.375 NA 
HETATM   15  C   UNL     1     -11.040   8.058  72.759  1.00  0.00    -0.448 C  
HETATM   16  N   UNL     1     -10.175   8.152  70.444  1.00  0.00    -0.198 NA 
HETATM   17  C   UNL     1     -10.890   8.766  71.430  1.00  0.00    -0.289 A  
ENDBRANCH   7   8
ENDBRANCH   4   7
ENDBRANCH   2   4
BRANCH   3  18
HETATM   18  C   UNL     1     -12.169  13.304  65.963  1.00  0.00    -0.483 C  
BRANCH  18  19
HETATM   19  C   UNL     1     -11.907  13.555  64.465  1.00  0.00    -0.405 C  
HETATM   20  H   UNL     1     -12.486  14.835  63.081  1.00  0.00     0.000 HD 
HETATM   21  O   UNL     1     -12.647  14.680  64.004  1.00  0.00    -0.819 OA 
ENDBRANCH  18  19
ENDBRANCH   3  18
BRANCH   3  22
HETATM   22  S   UNL     1     -10.690  15.095  67.575  1.00  0.00    -0.291 SA 
BRANCH  22  23
HETATM   23  S   UNL     1      -9.623  16.040  66.095  1.00  0.00    -0.359 SA 
BRANCH  23  24
HETATM   24  C   UNL     1     -10.696  17.392  65.486  1.00  0.00    -0.078 C  
BRANCH  24  25
HETATM   25  C   UNL     1     -10.427  18.817  65.964  1.00  0.00    -0.432 C  
HETATM   26  O   UNL     1      -9.006  19.064  65.869  1.00  0.00    -0.448 OA 
HETATM   27  C   UNL     1      -9.877  20.297  67.703  1.00  0.00    -0.563 C  
HETATM   28  C   UNL     1      -8.626  19.972  66.914  1.00  0.00    -0.336 C  
HETATM   29  C   UNL     1     -10.778  19.118  67.411  1.00  0.00    -0.578 C  
ENDBRANCH  24  25
ENDBRANCH  23  24
ENDBRANCH  22  23
ENDBRANCH   3  22
TORSDOF 9
ENDMDL
MODEL       27
REMARK 921   NORMALIZED FREE ENERGY PREDICTED BY IDOCK:   -5.46 KCAL/MOL
REMARK 922        TOTAL FREE ENERGY PREDICTED BY IDOCK:   -9.57 KCAL/MOL
REMARK 923 INTER-LIGAND FREE ENERGY PREDICTED BY IDOCK:   -8.76 KCAL/MOL
REMARK 924 INTRA-LIGAND FREE ENERGY PREDICTED BY IDOCK:   -0.80 KCAL/MOL
REMARK 927      BINDING AFFINITY PREDICTED BY RF-SCORE:    0.00 PKD
ROOT
HETATM    1  C   UNL     1      -9.284  12.273  66.281  1.00  0.00    -0.171 C  
HETATM    2  C   UNL     1     -10.593  12.139  67.037  1.00  0.00    -0.228 C  
HETATM    3  C   UNL     1     -10.704  11.531  68.255  1.00  0.00    -0.211 C  
ENDROOT
BRANCH   2   4
HETATM    4  N   UNL     1     -11.649  12.802  66.403  1.00  0.00    -0.357 N  
HETATM    5  C   UNL     1     -12.085  12.396  65.150  1.00  0.00    -0.405 C  
HETATM    6  O   UNL     1     -12.984  12.937  64.512  1.00  0.00    -0.725 OA 
BRANCH   4   7
HETATM    7  C   UNL     1     -12.175  14.061  66.954  1.00  0.00    -0.380 C  
BRANCH   7   8
HETATM    8  C   UNL     1     -11.293  15.283  66.836  1.00  0.00    -0.209 A  
HETATM    9  H2  UNL     1     -11.793  15.183  69.445  1.00  0.00     0.000 HD 
HETATM   10  H1  UNL     1     -11.095  16.684  69.978  1.00  0.00     0.000 HD 
HETATM   11  N   UNL     1     -11.299  16.045  69.209  1.00  0.00    -0.347 NA 
HETATM   12  C   UNL     1     -10.994  16.221  67.966  1.00  0.00    -0.328 A  
HETATM   13  C   UNL     1     -10.925  15.775  65.627  1.00  0.00    -0.243 A  
HETATM   14  N   UNL     1     -10.380  17.017  65.339  1.00  0.00    -0.641 NA 
HETATM   15  C   UNL     1      -9.728  19.230  66.116  1.00  0.00    -0.388 C  
HETATM   16  N   UNL     1     -10.370  17.392  67.641  1.00  0.00    -0.342 NA 
HETATM   17  C   UNL     1     -10.149  17.796  66.357  1.00  0.00    -0.357 A  
ENDBRANCH   7   8
ENDBRANCH   4   7
ENDBRANCH   2   4
BRANCH   3  18
HETATM   18  C   UNL     1     -11.920  11.658  69.178  1.00  0.00    -0.378 C  
BRANCH  18  19
HETATM   19  C   UNL     1     -11.815  12.756  70.255  1.00  0.00    -0.212 C  
HETATM   20  H   UNL     1     -12.818  13.328  71.854  1.00  0.00     0.000 HD 
HETATM   21  O   UNL     1     -12.883  12.652  71.191  1.00  0.00    -0.324 OA 
ENDBRANCH  18  19
ENDBRANCH   3  18
BRANCH   3  22
HETATM   22  S   UNL     1      -9.333  10.573  68.838  1.00  0.00    -0.189 SA 
BRANCH  22  23
HETATM   23  S   UNL     1     -10.262   8.908  69.604  1.00  0.00    -0.212 SA 
BRANCH  23  24
HETATM   24  C   UNL     1     -10.535   9.257  71.380  1.00  0.00    -0.338 C  
BRANCH  24  25
HETATM   25  C   UNL     1     -11.831   8.781  72.031  1.00  0.00    -0.372 C  
HETATM   26  O   UNL     1     -11.911   7.345  71.881  1.00  0.00    -0.280 OA 
HETATM   27  C   UNL     1     -14.110   8.242  71.845  1.00  0.00    -0.499 C  
HETATM   28  C   UNL     1     -13.292   6.970  71.769  1.00  0.00    -0.244 C  
HETATM   29  C   UNL     1     -13.121   9.307  71.426  1.00  0.00    -0.387 C  
ENDBRANCH  24  25
ENDBRANCH  23  24
ENDBRANCH  22  23
ENDBRANCH   3  22
TORSDOF 9
ENDMDL
MODEL       28
REMARK 921   NORMALIZED FREE ENERGY PREDICTED BY IDOCK:   -5.45 KCAL/MOL
REMARK 922        TOTAL FREE ENERGY PREDICTED BY IDOCK:   -9.56 KCAL/MOL
REMARK 923 INTER-LIGAND FREE ENERGY PREDICTED BY IDOCK:   -8.22 KCAL/MOL
REMARK 924 INTRA-LIGAND FREE ENERGY PREDICTED BY IDOCK:   -1.33 KCAL/MOL
REMARK 927      BINDING AFFINITY PREDICTED BY RF-SCORE:    0.00 PKD
ROOT
HETATM    1  C   UNL     1      -8.597  13.693  68.222  1.00  0.00    -0.170 C  
HETATM    2  C   UNL     1      -9.481  13.095  67.143  1.00  0.00    -0.239 C  
HETATM    3  C   UNL     1      -9.561  11.756  66.886  1.00  0.00    -0.193 C  
ENDROOT
BRANCH   2   4
HETATM    4  N   UNL     1     -10.287  14.053  66.518  1.00  0.00    -0.280 N  
HETATM    5  C   UNL     1      -9.739  14.957  65.619  1.00  0.00    -0.291 C  
HETATM    6  O   UNL     1     -10.366  15.845  65.049  1.00  0.00    -0.508 OA 
BRANCH   4   7
HETATM    7  C   UNL     1     -11.678  14.254  66.954  1.00  0.00    -0.408 C  
BRANCH   7   8
HETATM    8  C   UNL     1     -11.891  14.702  68.381  1.00  0.00    -0.330 A  
HETATM    9  H2  UNL     1     -10.785  16.845  67.265  1.00  0.00     0.000 HD 
HETATM   10  H1  UNL     1     -10.533  17.857  68.655  1.00  0.00     0.000 HD 
HETATM   11  N   UNL     1     -10.870  16.973  68.273  1.00  0.00    -0.370 NA 
HETATM   12  C   UNL     1     -11.395  16.000  68.943  1.00  0.00    -0.370 A  
HETATM   13  C   UNL     1     -12.315  13.839  69.338  1.00  0.00    -0.173 A  
HETATM   14  N   UNL     1     -12.283  14.004  70.714  1.00  0.00    -0.350 NA 
HETATM   15  C   UNL     1     -11.597  15.340  72.630  1.00  0.00    -0.478 C  
HETATM   16  N   UNL     1     -11.474  16.152  70.298  1.00  0.00    -0.343 NA 
HETATM   17  C   UNL     1     -11.834  15.148  71.148  1.00  0.00    -0.343 A  
ENDBRANCH   7   8
ENDBRANCH   4   7
ENDBRANCH   2   4
BRANCH   3  18
HETATM   18  C   UNL     1     -10.659  11.100  66.043  1.00  0.00    -0.298 C  
BRANCH  18  19
HETATM   19  C   UNL     1     -10.356  10.998  64.535  1.00  0.00    -0.354 C  
HETATM   20  H   UNL     1      -9.418   9.759  63.319  1.00  0.00     0.000 HD 
HETATM   21  O   UNL     1      -9.604   9.823  64.249  1.00  0.00    -0.236 OA 
ENDBRANCH  18  19
ENDBRANCH   3  18
BRANCH   3  22
HETATM   22  S   UNL     1      -8.346  10.693  67.616  1.00  0.00    -0.115 SA 
BRANCH  22  23
HETATM   23  S   UNL     1      -9.504   9.413  68.730  1.00  0.00    -0.152 SA 
BRANCH  23  24
HETATM   24  C   UNL     1     -10.669  10.471  69.663  1.00  0.00    -0.259 C  
BRANCH  24  25
HETATM   25  C   UNL     1     -11.350   9.899  70.905  1.00  0.00    -0.370 C  
HETATM   26  O   UNL     1     -11.567   8.486  70.689  1.00  0.00    -0.270 OA 
HETATM   27  C   UNL     1     -13.319   9.332  72.052  1.00  0.00    -0.518 C  
HETATM   28  C   UNL     1     -12.763   8.094  71.380  1.00  0.00    -0.268 C  
HETATM   29  C   UNL     1     -12.723  10.458  71.237  1.00  0.00    -0.536 C  
ENDBRANCH  24  25
ENDBRANCH  23  24
ENDBRANCH  22  23
ENDBRANCH   3  22
TORSDOF 9
ENDMDL
MODEL       29
REMARK 921   NORMALIZED FREE ENERGY PREDICTED BY IDOCK:   -5.45 KCAL/MOL
REMARK 922        TOTAL FREE ENERGY PREDICTED BY IDOCK:   -9.55 KCAL/MOL
REMARK 923 INTER-LIGAND FREE ENERGY PREDICTED BY IDOCK:   -8.46 KCAL/MOL
REMARK 924 INTRA-LIGAND FREE ENERGY PREDICTED BY IDOCK:   -1.09 KCAL/MOL
REMARK 927      BINDING AFFINITY PREDICTED BY RF-SCORE:    0.00 PKD
ROOT
HETATM    1  C   UNL     1     -10.683  16.615  68.334  1.00  0.00    -0.353 C  
HETATM    2  C   UNL     1     -10.001  15.472  67.604  1.00  0.00    -0.233 C  
HETATM    3  C   UNL     1      -8.718  15.075  67.853  1.00  0.00    -0.155 C  
ENDROOT
BRANCH   2   4
HETATM    4  N   UNL     1     -10.864  14.801  66.732  1.00  0.00    -0.310 N  
HETATM    5  C   UNL     1     -10.721  14.935  65.359  1.00  0.00    -0.377 C  
HETATM    6  O   UNL     1     -11.450  14.405  64.524  1.00  0.00    -0.374 OA 
BRANCH   4   7
HETATM    7  C   UNL     1     -12.057  14.113  67.249  1.00  0.00    -0.372 C  
BRANCH   7   8
HETATM    8  C   UNL     1     -11.837  13.066  68.317  1.00  0.00    -0.381 A  
HETATM    9  H2  UNL     1     -11.268  11.740  66.085  1.00  0.00     0.000 HD 
HETATM   10  H1  UNL     1     -11.074  10.124  66.694  1.00  0.00     0.000 HD 
HETATM   11  N   UNL     1     -11.276  11.106  66.884  1.00  0.00    -0.345 NA 
HETATM   12  C   UNL     1     -11.541  11.623  68.038  1.00  0.00    -0.313 A  
HETATM   13  C   UNL     1     -12.160  13.299  69.613  1.00  0.00    -0.270 A  
HETATM   14  N   UNL     1     -12.294  12.378  70.641  1.00  0.00    -0.333 NA 
HETATM   15  C   UNL     1     -12.331  10.050  71.351  1.00  0.00    -0.512 C  
HETATM   16  N   UNL     1     -11.593  10.770  69.103  1.00  0.00    -0.297 NA 
HETATM   17  C   UNL     1     -12.034  11.137  70.341  1.00  0.00    -0.378 A  
ENDBRANCH   7   8
ENDBRANCH   4   7
ENDBRANCH   2   4
BRANCH   3  18
HETATM   18  C   UNL     1      -8.115  13.749  67.379  1.00  0.00    -0.188 C  
BRANCH  18  19
HETATM   19  C   UNL     1      -6.937  13.225  68.224  1.00  0.00    -0.107 C  
HETATM   20  H   UNL     1      -4.973  13.113  68.072  1.00  0.00     0.000 HD 
HETATM   21  O   UNL     1      -5.699  13.436  67.552  1.00  0.00    -0.299 OA 
ENDBRANCH  18  19
ENDBRANCH   3  18
BRANCH   3  22
HETATM   22  S   UNL     1      -7.692  16.135  68.835  1.00  0.00    -0.217 SA 
BRANCH  22  23
HETATM   23  S   UNL     1      -6.289  16.764  67.471  1.00  0.00    -0.178 SA 
BRANCH  23  24
HETATM   24  C   UNL     1      -6.986  18.263  66.687  1.00  0.00    -0.207 C  
BRANCH  24  25
HETATM   25  C   UNL     1      -8.392  18.713  67.080  1.00  0.00    -0.269 C  
HETATM   26  O   UNL     1      -9.271  18.478  65.956  1.00  0.00    -0.499 OA 
HETATM   27  C   UNL     1     -10.036  20.390  67.141  1.00  0.00    -0.568 C  
HETATM   28  C   UNL     1     -10.298  19.481  65.959  1.00  0.00    -0.511 C  
HETATM   29  C   UNL     1      -8.560  20.188  67.403  1.00  0.00    -0.413 C  
ENDBRANCH  24  25
ENDBRANCH  23  24
ENDBRANCH  22  23
ENDBRANCH   3  22
TORSDOF 9
ENDMDL
MODEL       30
REMARK 921   NORMALIZED FREE ENERGY PREDICTED BY IDOCK:   -5.44 KCAL/MOL
REMARK 922        TOTAL FREE ENERGY PREDICTED BY IDOCK:   -9.55 KCAL/MOL
REMARK 923 INTER-LIGAND FREE ENERGY PREDICTED BY IDOCK:   -8.00 KCAL/MOL
REMARK 924 INTRA-LIGAND FREE ENERGY PREDICTED BY IDOCK:   -1.54 KCAL/MOL
REMARK 927      BINDING AFFINITY PREDICTED BY RF-SCORE:    0.00 PKD
ROOT
HETATM    1  C   UNL     1     -11.707  14.708  65.915  1.00  0.00    -0.301 C  
HETATM    2  C   UNL     1     -10.587  13.875  66.511  1.00  0.00    -0.279 C  
HETATM    3  C   UNL     1      -9.669  14.363  67.397  1.00  0.00    -0.220 C  
ENDROOT
BRANCH   2   4
HETATM    4  N   UNL     1     -10.666  12.528  66.142  1.00  0.00    -0.257 N  
HETATM    5  C   UNL     1      -9.957  12.055  65.046  1.00  0.00    -0.233 C  
HETATM    6  O   UNL     1      -9.991  10.898  64.637  1.00  0.00    -0.258 OA 
BRANCH   4   7
HETATM    7  C   UNL     1     -11.654  11.640  66.774  1.00  0.00    -0.141 C  
BRANCH   7   8
HETATM    8  C   UNL     1     -11.287  11.049  68.115  1.00  0.00    -0.374 A  
HETATM    9  H2  UNL     1     -10.201   9.324  66.409  1.00  0.00     0.000 HD 
HETATM   10  H1  UNL     1      -9.676   8.067  67.489  1.00  0.00     0.000 HD 
HETATM   11  N   UNL     1     -10.129   8.973  67.364  1.00  0.00    -0.212 NA 
HETATM   12  C   UNL     1     -10.621   9.718  68.298  1.00  0.00    -0.229 A  
HETATM   13  C   UNL     1     -11.779  11.559  69.271  1.00  0.00    -0.330 A  
HETATM   14  N   UNL     1     -11.780  10.978  70.531  1.00  0.00    -0.334 NA 
HETATM   15  C   UNL     1     -11.312   9.036  71.922  1.00  0.00    -0.438 C  
HETATM   16  N   UNL     1     -10.564   9.232  69.574  1.00  0.00    -0.221 NA 
HETATM   17  C   UNL     1     -11.197   9.817  70.631  1.00  0.00    -0.334 A  
ENDBRANCH   7   8
ENDBRANCH   4   7
ENDBRANCH   2   4
BRANCH   3  18
HETATM   18  C   UNL     1      -8.742  13.493  68.251  1.00  0.00    -0.172 C  
BRANCH  18  19
HETATM   19  C   UNL     1      -7.346  13.237  67.651  1.00  0.00    -0.161 C  
HETATM   20  H   UNL     1      -6.369  11.734  66.826  1.00  0.00     0.000 HD 
HETATM   21  O   UNL     1      -7.230  11.892  67.196  1.00  0.00    -0.137 OA 
ENDBRANCH  18  19
ENDBRANCH   3  18
BRANCH   3  22
HETATM   22  S   UNL     1      -9.575  16.119  67.617  1.00  0.00    -0.223 SA 
BRANCH  22  23
HETATM   23  S   UNL     1     -10.298  16.356  69.525  1.00  0.00    -0.250 SA 
BRANCH  23  24
HETATM   24  C   UNL     1     -11.997  15.676  69.508  1.00  0.00    -0.345 C  
BRANCH  24  25
HETATM   25  C   UNL     1     -12.523  14.978  70.760  1.00  0.00    -0.352 C  
HETATM   26  O   UNL     1     -13.837  15.507  71.053  1.00  0.00    -0.545 OA 
HETATM   27  C   UNL     1     -12.771  14.929  73.095  1.00  0.00    -0.596 C  
HETATM   28  C   UNL     1     -14.033  15.489  72.475  1.00  0.00    -0.555 C  
HETATM   29  C   UNL     1     -11.725  15.192  72.035  1.00  0.00    -0.504 C  
ENDBRANCH  24  25
ENDBRANCH  23  24
ENDBRANCH  22  23
ENDBRANCH   3  22
TORSDOF 9
ENDMDL
MODEL       31
REMARK 921   NORMALIZED FREE ENERGY PREDICTED BY IDOCK:   -5.39 KCAL/MOL
REMARK 922        TOTAL FREE ENERGY PREDICTED BY IDOCK:   -9.46 KCAL/MOL
REMARK 923 INTER-LIGAND FREE ENERGY PREDICTED BY IDOCK:   -8.22 KCAL/MOL
REMARK 924 INTRA-LIGAND FREE ENERGY PREDICTED BY IDOCK:   -1.24 KCAL/MOL
REMARK 927      BINDING AFFINITY PREDICTED BY RF-SCORE:    0.00 PKD
ROOT
HETATM    1  C   UNL     1      -8.814  12.806  67.665  1.00  0.00    -0.189 C  
HETATM    2  C   UNL     1      -9.562  12.275  66.456  1.00  0.00    -0.238 C  
HETATM    3  C   UNL     1     -10.268  13.066  65.596  1.00  0.00    -0.287 C  
ENDROOT
BRANCH   2   4
HETATM    4  N   UNL     1      -9.355  10.906  66.256  1.00  0.00    -0.174 N  
HETATM    5  C   UNL     1      -8.217  10.453  65.603  1.00  0.00    -0.158 C  
HETATM    6  O   UNL     1      -7.970   9.275  65.362  1.00  0.00    -0.104 OA 
BRANCH   4   7
HETATM    7  C   UNL     1     -10.427   9.941  66.545  1.00  0.00    -0.143 C  
BRANCH   7   8
HETATM    8  C   UNL     1     -10.551   9.459  67.972  1.00  0.00    -0.278 A  
HETATM    9  H2  UNL     1     -12.238  11.512  67.910  1.00  0.00     0.000 HD 
HETATM   10  H1  UNL     1     -12.668  11.645  69.589  1.00  0.00     0.000 HD 
HETATM   11  N   UNL     1     -12.133  11.166  68.864  1.00  0.00    -0.519 NA 
HETATM   12  C   UNL     1     -11.336  10.163  69.037  1.00  0.00    -0.133 A  
HETATM   13  C   UNL     1      -9.735   8.495  68.465  1.00  0.00    -0.163 A  
HETATM   14  N   UNL     1      -9.520   8.151  69.792  1.00  0.00    -0.159 NA 
HETATM   15  C   UNL     1      -9.919   8.617  72.148  1.00  0.00    -0.386 C  
HETATM   16  N   UNL     1     -11.161   9.724  70.319  1.00  0.00    -0.270 NA 
HETATM   17  C   UNL     1     -10.222   8.801  70.677  1.00  0.00    -0.202 A  
ENDBRANCH   7   8
ENDBRANCH   4   7
ENDBRANCH   2   4
BRANCH   3  18
HETATM   18  C   UNL     1     -10.757  12.623  64.213  1.00  0.00    -0.409 C  
BRANCH  18  19
HETATM   19  C   UNL     1     -12.123  13.193  63.786  1.00  0.00    -0.495 C  
HETATM   20  H   UNL     1     -14.022  12.923  64.247  1.00  0.00     0.000 HD 
HETATM   21  O   UNL     1     -13.180  12.571  64.510  1.00  0.00    -0.832 OA 
ENDBRANCH  18  19
ENDBRANCH   3  18
BRANCH   3  22
HETATM   22  S   UNL     1     -10.602  14.737  66.083  1.00  0.00    -0.324 SA 
BRANCH  22  23
HETATM   23  S   UNL     1     -12.012  14.486  67.555  1.00  0.00    -0.243 SA 
BRANCH  23  24
HETATM   24  C   UNL     1     -11.305  15.242  69.064  1.00  0.00    -0.300 C  
BRANCH  24  25
HETATM   25  C   UNL     1     -12.216  15.472  70.268  1.00  0.00    -0.400 C  
HETATM   26  O   UNL     1     -11.498  16.281  71.228  1.00  0.00    -0.423 OA 
HETATM   27  C   UNL     1     -12.958  14.817  72.398  1.00  0.00    -0.445 C  
HETATM   28  C   UNL     1     -11.927  15.916  72.548  1.00  0.00    -0.517 C  
HETATM   29  C   UNL     1     -12.637  14.234  71.040  1.00  0.00    -0.428 C  
ENDBRANCH  24  25
ENDBRANCH  23  24
ENDBRANCH  22  23
ENDBRANCH   3  22
TORSDOF 9
ENDMDL
MODEL       32
REMARK 921   NORMALIZED FREE ENERGY PREDICTED BY IDOCK:   -5.36 KCAL/MOL
REMARK 922        TOTAL FREE ENERGY PREDICTED BY IDOCK:   -9.42 KCAL/MOL
REMARK 923 INTER-LIGAND FREE ENERGY PREDICTED BY IDOCK:   -8.44 KCAL/MOL
REMARK 924 INTRA-LIGAND FREE ENERGY PREDICTED BY IDOCK:   -0.98 KCAL/MOL
REMARK 927      BINDING AFFINITY PREDICTED BY RF-SCORE:    0.00 PKD
ROOT
HETATM    1  C   UNL     1      -8.332  12.465  68.238  1.00  0.00    -0.169 C  
HETATM    2  C   UNL     1      -9.351  12.207  67.144  1.00  0.00    -0.193 C  
HETATM    3  C   UNL     1     -10.104  13.188  66.565  1.00  0.00    -0.280 C  
ENDROOT
BRANCH   2   4
HETATM    4  N   UNL     1      -9.353  10.875  66.717  1.00  0.00    -0.164 N  
HETATM    5  C   UNL     1      -8.410  10.428  65.801  1.00  0.00    -0.158 C  
HETATM    6  O   UNL     1      -8.356   9.286  65.353  1.00  0.00    -0.124 OA 
BRANCH   4   7
HETATM    7  C   UNL     1     -10.469   9.983  67.066  1.00  0.00    -0.238 C  
BRANCH   7   8
HETATM    8  C   UNL     1     -10.606   9.591  68.519  1.00  0.00    -0.247 A  
HETATM    9  H2  UNL     1      -9.838   7.316  67.378  1.00  0.00     0.000 HD 
HETATM   10  H1  UNL     1     -10.001   6.203  68.704  1.00  0.00     0.000 HD 
HETATM   11  N   UNL     1     -10.087   7.158  68.355  1.00  0.00    -0.162 NA 
HETATM   12  C   UNL     1     -10.480   8.187  69.031  1.00  0.00    -0.198 A  
HETATM   13  C   UNL     1     -11.124  10.445  69.436  1.00  0.00    -0.254 A  
HETATM   14  N   UNL     1     -11.579  10.156  70.713  1.00  0.00    -0.331 NA 
HETATM   15  C   UNL     1     -12.089   8.483  72.407  1.00  0.00    -0.436 C  
HETATM   16  N   UNL     1     -10.852   7.973  70.327  1.00  0.00    -0.241 NA 
HETATM   17  C   UNL     1     -11.454   8.919  71.104  1.00  0.00    -0.301 A  
ENDBRANCH   7   8
ENDBRANCH   4   7
ENDBRANCH   2   4
BRANCH   3  18
HETATM   18  C   UNL     1     -10.892  13.019  65.262  1.00  0.00    -0.311 C  
BRANCH  18  19
HETATM   19  C   UNL     1     -12.386  12.679  65.438  1.00  0.00    -0.436 C  
HETATM   20  H   UNL     1     -14.114  13.625  65.344  1.00  0.00     0.000 HD 
HETATM   21  O   UNL     1     -13.194  13.834  65.236  1.00  0.00    -0.755 OA 
ENDBRANCH  18  19
ENDBRANCH   3  18
BRANCH   3  22
HETATM   22  S   UNL     1     -10.136  14.781  67.339  1.00  0.00    -0.231 SA 
BRANCH  22  23
HETATM   23  S   UNL     1     -11.618  14.552  68.743  1.00  0.00    -0.330 SA 
BRANCH  23  24
HETATM   24  C   UNL     1     -11.061  15.481  70.219  1.00  0.00    -0.328 C  
BRANCH  24  25
HETATM   25  C   UNL     1     -12.101  15.918  71.248  1.00  0.00    -0.438 C  
HETATM   26  O   UNL     1     -11.569  15.652  72.567  1.00  0.00    -0.439 OA 
HETATM   27  C   UNL     1     -13.929  15.391  72.625  1.00  0.00    -0.590 C  
HETATM   28  C   UNL     1     -12.658  15.330  73.445  1.00  0.00    -0.525 C  
HETATM   29  C   UNL     1     -13.432  15.187  71.211  1.00  0.00    -0.559 C  
ENDBRANCH  24  25
ENDBRANCH  23  24
ENDBRANCH  22  23
ENDBRANCH   3  22
TORSDOF 9
ENDMDL
MODEL       33
REMARK 921   NORMALIZED FREE ENERGY PREDICTED BY IDOCK:   -5.34 KCAL/MOL
REMARK 922        TOTAL FREE ENERGY PREDICTED BY IDOCK:   -9.39 KCAL/MOL
REMARK 923 INTER-LIGAND FREE ENERGY PREDICTED BY IDOCK:   -8.25 KCAL/MOL
REMARK 924 INTRA-LIGAND FREE ENERGY PREDICTED BY IDOCK:   -1.14 KCAL/MOL
REMARK 927      BINDING AFFINITY PREDICTED BY RF-SCORE:    0.00 PKD
ROOT
HETATM    1  C   UNL     1      -8.239  12.949  67.274  1.00  0.00    -0.176 C  
HETATM    2  C   UNL     1      -9.536  13.727  67.401  1.00  0.00    -0.229 C  
HETATM    3  C   UNL     1      -9.639  14.927  68.044  1.00  0.00    -0.207 C  
ENDROOT
BRANCH   2   4
HETATM    4  N   UNL     1     -10.587  13.136  66.691  1.00  0.00    -0.277 N  
HETATM    5  C   UNL     1     -10.611  13.178  65.304  1.00  0.00    -0.313 C  
HETATM    6  O   UNL     1     -11.506  12.711  64.605  1.00  0.00    -0.307 OA 
BRANCH   4   7
HETATM    7  C   UNL     1     -11.780  12.646  67.398  1.00  0.00    -0.369 C  
BRANCH   7   8
HETATM    8  C   UNL     1     -11.549  11.765  68.604  1.00  0.00    -0.367 A  
HETATM    9  H2  UNL     1     -10.595  10.282  66.616  1.00  0.00     0.000 HD 
HETATM   10  H1  UNL     1     -10.275   8.784  67.437  1.00  0.00     0.000 HD 
HETATM   11  N   UNL     1     -10.611   9.746  67.484  1.00  0.00    -0.263 NA 
HETATM   12  C   UNL     1     -11.056  10.351  68.535  1.00  0.00    -0.266 A  
HETATM   13  C   UNL     1     -12.032  12.098  69.827  1.00  0.00    -0.302 A  
HETATM   14  N   UNL     1     -12.163  11.289  70.945  1.00  0.00    -0.371 NA 
HETATM   15  C   UNL     1     -11.995   9.071  71.934  1.00  0.00    -0.445 C  
HETATM   16  N   UNL     1     -11.117   9.624  69.690  1.00  0.00    -0.223 NA 
HETATM   17  C   UNL     1     -11.726  10.067  70.827  1.00  0.00    -0.350 A  
ENDBRANCH   7   8
ENDBRANCH   4   7
ENDBRANCH   2   4
BRANCH   3  18
HETATM   18  C   UNL     1     -10.833  15.878  67.917  1.00  0.00    -0.327 C  
BRANCH  18  19
HETATM   19  C   UNL     1     -11.879  15.773  69.044  1.00  0.00    -0.355 C  
HETATM   20  H   UNL     1     -11.896  15.745  71.016  1.00  0.00     0.000 HD 
HETATM   21  O   UNL     1     -11.252  15.810  70.322  1.00  0.00    -0.303 OA 
ENDBRANCH  18  19
ENDBRANCH   3  18
BRANCH   3  22
HETATM   22  S   UNL     1      -8.281  15.450  69.055  1.00  0.00    -0.233 SA 
BRANCH  22  23
HETATM   23  S   UNL     1      -7.350  16.830  67.850  1.00  0.00    -0.163 SA 
BRANCH  23  24
HETATM   24  C   UNL     1      -7.683  18.463  68.605  1.00  0.00    -0.301 C  
BRANCH  24  25
HETATM   25  C   UNL     1      -8.627  19.426  67.889  1.00  0.00    -0.313 C  
HETATM   26  O   UNL     1      -9.966  19.196  68.386  1.00  0.00    -0.370 OA 
HETATM   27  C   UNL     1     -10.097  19.869  66.111  1.00  0.00    -0.611 C  
HETATM   28  C   UNL     1     -10.900  19.463  67.329  1.00  0.00    -0.448 C  
HETATM   29  C   UNL     1      -8.739  19.262  66.382  1.00  0.00    -0.362 C  
ENDBRANCH  24  25
ENDBRANCH  23  24
ENDBRANCH  22  23
ENDBRANCH   3  22
TORSDOF 9
ENDMDL
MODEL       34
REMARK 921   NORMALIZED FREE ENERGY PREDICTED BY IDOCK:   -5.26 KCAL/MOL
REMARK 922        TOTAL FREE ENERGY PREDICTED BY IDOCK:   -9.27 KCAL/MOL
REMARK 923 INTER-LIGAND FREE ENERGY PREDICTED BY IDOCK:   -8.63 KCAL/MOL
REMARK 924 INTRA-LIGAND FREE ENERGY PREDICTED BY IDOCK:   -0.64 KCAL/MOL
REMARK 927      BINDING AFFINITY PREDICTED BY RF-SCORE:    0.00 PKD
ROOT
HETATM    1  C   UNL     1     -11.096  14.012  68.570  1.00  0.00    -0.279 C  
HETATM    2  C   UNL     1     -10.506  13.006  67.599  1.00  0.00    -0.225 C  
HETATM    3  C   UNL     1     -10.754  13.014  66.257  1.00  0.00    -0.276 C  
ENDROOT
BRANCH   2   4
HETATM    4  N   UNL     1      -9.593  12.140  68.213  1.00  0.00    -0.211 N  
HETATM    5  C   UNL     1      -8.275  12.528  68.404  1.00  0.00    -0.136 C  
HETATM    6  O   UNL     1      -7.404  11.823  68.907  1.00  0.00    -0.112 OA 
BRANCH   4   7
HETATM    7  C   UNL     1      -9.958  10.740  68.477  1.00  0.00    -0.178 C  
BRANCH   7   8
HETATM    8  C   UNL     1     -10.796  10.468  69.705  1.00  0.00    -0.320 A  
HETATM    9  H2  UNL     1      -8.497   9.275  70.301  1.00  0.00     0.000 HD 
HETATM   10  H1  UNL     1      -8.916   8.457  71.777  1.00  0.00     0.000 HD 
HETATM   11  N   UNL     1      -9.203   9.061  71.006  1.00  0.00    -0.248 NA 
HETATM   12  C   UNL     1     -10.374   9.581  70.837  1.00  0.00    -0.302 A  
HETATM   13  C   UNL     1     -12.112  10.794  69.749  1.00  0.00    -0.318 A  
HETATM   14  N   UNL     1     -13.070  10.364  70.655  1.00  0.00    -0.321 NA 
HETATM   15  C   UNL     1     -13.656   8.929  72.533  1.00  0.00    -0.467 C  
HETATM   16  N   UNL     1     -11.332   9.263  71.756  1.00  0.00    -0.385 NA 
HETATM   17  C   UNL     1     -12.650   9.587  71.613  1.00  0.00    -0.388 A  
ENDBRANCH   7   8
ENDBRANCH   4   7
ENDBRANCH   2   4
BRANCH   3  18
HETATM   18  C   UNL     1      -9.940  12.232  65.221  1.00  0.00    -0.250 C  
BRANCH  18  19
HETATM   19  C   UNL     1     -10.539  12.204  63.801  1.00  0.00    -0.439 C  
HETATM   20  H   UNL     1     -10.125  11.369  62.062  1.00  0.00     0.000 HD 
HETATM   21  O   UNL     1      -9.756  11.386  62.937  1.00  0.00    -0.359 OA 
ENDBRANCH  18  19
ENDBRANCH   3  18
BRANCH   3  22
HETATM   22  S   UNL     1     -12.072  14.036  65.658  1.00  0.00    -0.439 SA 
BRANCH  22  23
HETATM   23  S   UNL     1     -11.052  15.613  64.824  1.00  0.00    -0.329 SA 
BRANCH  23  24
HETATM   24  C   UNL     1     -10.349  16.556  66.227  1.00  0.00    -0.320 C  
BRANCH  24  25
HETATM   25  C   UNL     1     -10.279  18.078  66.128  1.00  0.00    -0.363 C  
HETATM   26  O   UNL     1      -8.903  18.451  65.888  1.00  0.00    -0.491 OA 
HETATM   27  C   UNL     1      -9.949  20.159  67.166  1.00  0.00    -0.595 C  
HETATM   28  C   UNL     1      -8.659  19.725  66.502  1.00  0.00    -0.354 C  
HETATM   29  C   UNL     1     -10.680  18.851  67.373  1.00  0.00    -0.519 C  
ENDBRANCH  24  25
ENDBRANCH  23  24
ENDBRANCH  22  23
ENDBRANCH   3  22
TORSDOF 9
ENDMDL
MODEL       35
REMARK 921   NORMALIZED FREE ENERGY PREDICTED BY IDOCK:   -5.22 KCAL/MOL
REMARK 922        TOTAL FREE ENERGY PREDICTED BY IDOCK:   -9.21 KCAL/MOL
REMARK 923 INTER-LIGAND FREE ENERGY PREDICTED BY IDOCK:   -8.44 KCAL/MOL
REMARK 924 INTRA-LIGAND FREE ENERGY PREDICTED BY IDOCK:   -0.78 KCAL/MOL
REMARK 927      BINDING AFFINITY PREDICTED BY RF-SCORE:    0.00 PKD
ROOT
HETATM    1  C   UNL     1      -9.208  12.333  66.372  1.00  0.00    -0.203 C  
HETATM    2  C   UNL     1     -10.549  11.951  66.973  1.00  0.00    -0.227 C  
HETATM    3  C   UNL     1     -10.685  11.155  68.074  1.00  0.00    -0.211 C  
ENDROOT
BRANCH   2   4
HETATM    4  N   UNL     1     -11.621  12.593  66.344  1.00  0.00    -0.363 N  
HETATM    5  C   UNL     1     -12.033  12.200  65.079  1.00  0.00    -0.281 C  
HETATM    6  O   UNL     1     -12.944  12.725  64.445  1.00  0.00    -0.723 OA 
BRANCH   4   7
HETATM    7  C   UNL     1     -12.191  13.822  66.917  1.00  0.00    -0.366 C  
BRANCH   7   8
HETATM    8  C   UNL     1     -11.333  15.065  66.869  1.00  0.00    -0.302 A  
HETATM    9  H2  UNL     1     -12.071  14.974  69.420  1.00  0.00     0.000 HD 
HETATM   10  H1  UNL     1     -11.464  16.496  70.001  1.00  0.00     0.000 HD 
HETATM   11  N   UNL     1     -11.580  15.846  69.223  1.00  0.00    -0.371 NA 
HETATM   12  C   UNL     1     -11.164  16.020  68.012  1.00  0.00    -0.303 A  
HETATM   13  C   UNL     1     -10.865  15.556  65.694  1.00  0.00    -0.346 A  
HETATM   14  N   UNL     1     -10.327  16.809  65.444  1.00  0.00    -0.632 NA 
HETATM   15  C   UNL     1      -9.805  19.045  66.256  1.00  0.00    -0.417 C  
HETATM   16  N   UNL     1     -10.541  17.203  67.734  1.00  0.00    -0.364 NA 
HETATM   17  C   UNL     1     -10.211  17.603  66.472  1.00  0.00    -0.355 A  
ENDBRANCH   7   8
ENDBRANCH   4   7
ENDBRANCH   2   4
BRANCH   3  18
HETATM   18  C   UNL     1     -11.976  11.014  68.886  1.00  0.00    -0.332 C  
BRANCH  18  19
HETATM   19  C   UNL     1     -11.857  11.388  70.377  1.00  0.00    -0.335 C  
HETATM   20  H   UNL     1     -12.089  12.995  71.498  1.00  0.00     0.000 HD 
HETATM   21  O   UNL     1     -12.162  12.765  70.579  1.00  0.00    -0.368 OA 
ENDBRANCH  18  19
ENDBRANCH   3  18
BRANCH   3  22
HETATM   22  S   UNL     1      -9.262  10.263  68.639  1.00  0.00    -0.167 SA 
BRANCH  22  23
HETATM   23  S   UNL     1     -10.049   8.411  69.055  1.00  0.00    -0.206 SA 
BRANCH  23  24
HETATM   24  C   UNL     1      -9.508   8.005  70.756  1.00  0.00    -0.161 C  
BRANCH  24  25
HETATM   25  C   UNL     1     -10.500   7.333  71.702  1.00  0.00    -0.198 C  
HETATM   26  O   UNL     1     -10.084   7.608  73.060  1.00  0.00    -0.248 OA 
HETATM   27  C   UNL     1     -11.121   5.471  72.993  1.00  0.00    -0.350 C  
HETATM   28  C   UNL     1     -10.451   6.493  73.887  1.00  0.00    -0.308 C  
HETATM   29  C   UNL     1     -10.586   5.819  71.621  1.00  0.00    -0.302 C  
ENDBRANCH  24  25
ENDBRANCH  23  24
ENDBRANCH  22  23
ENDBRANCH   3  22
TORSDOF 9
ENDMDL
MODEL       36
REMARK 921   NORMALIZED FREE ENERGY PREDICTED BY IDOCK:   -5.21 KCAL/MOL
REMARK 922        TOTAL FREE ENERGY PREDICTED BY IDOCK:   -9.20 KCAL/MOL
REMARK 923 INTER-LIGAND FREE ENERGY PREDICTED BY IDOCK:   -7.99 KCAL/MOL
REMARK 924 INTRA-LIGAND FREE ENERGY PREDICTED BY IDOCK:   -1.20 KCAL/MOL
REMARK 927      BINDING AFFINITY PREDICTED BY RF-SCORE:    0.00 PKD
ROOT
HETATM    1  C   UNL     1      -9.383  13.005  66.729  1.00  0.00    -0.244 C  
HETATM    2  C   UNL     1     -10.704  12.493  67.274  1.00  0.00    -0.233 C  
HETATM    3  C   UNL     1     -10.817  11.390  68.070  1.00  0.00    -0.217 C  
ENDROOT
BRANCH   2   4
HETATM    4  N   UNL     1     -11.775  13.339  66.964  1.00  0.00    -0.368 N  
HETATM    5  C   UNL     1     -12.306  13.361  65.683  1.00  0.00    -0.470 C  
HETATM    6  O   UNL     1     -13.225  14.090  65.319  1.00  0.00    -0.782 OA 
BRANCH   4   7
HETATM    7  C   UNL     1     -12.217  14.361  67.925  1.00  0.00    -0.143 C  
BRANCH   7   8
HETATM    8  C   UNL     1     -11.329  15.571  68.099  1.00  0.00    -0.348 A  
HETATM    9  H2  UNL     1     -11.826  14.857  70.610  1.00  0.00     0.000 HD 
HETATM   10  H1  UNL     1     -11.118  16.184  71.483  1.00  0.00     0.000 HD 
HETATM   11  N   UNL     1     -11.327  15.747  70.585  1.00  0.00    -0.357 NA 
HETATM   12  C   UNL     1     -11.022  16.212  69.418  1.00  0.00    -0.333 A  
HETATM   13  C   UNL     1     -10.959  16.334  67.040  1.00  0.00    -0.086 A  
HETATM   14  N   UNL     1     -10.407  17.606  67.054  1.00  0.00    -0.332 NA 
HETATM   15  C   UNL     1      -9.741  19.567  68.333  1.00  0.00    -0.498 C  
HETATM   16  N   UNL     1     -10.391  17.423  69.379  1.00  0.00    -0.232 NA 
HETATM   17  C   UNL     1     -10.170  18.120  68.228  1.00  0.00    -0.389 A  
ENDBRANCH   7   8
ENDBRANCH   4   7
ENDBRANCH   2   4
BRANCH   3  18
HETATM   18  C   UNL     1     -12.064  11.036  68.887  1.00  0.00    -0.239 C  
BRANCH  18  19
HETATM   19  C   UNL     1     -11.899  11.148  70.416  1.00  0.00    -0.369 C  
HETATM   20  H   UNL     1     -12.238  12.489  71.822  1.00  0.00     0.000 HD 
HETATM   21  O   UNL     1     -12.339  12.420  70.880  1.00  0.00    -0.377 OA 
ENDBRANCH  18  19
ENDBRANCH   3  18
BRANCH   3  22
HETATM   22  S   UNL     1      -9.414  10.317  68.213  1.00  0.00    -0.145 SA 
BRANCH  22  23
HETATM   23  S   UNL     1     -10.050   8.637  67.216  1.00  0.00    -0.269 SA 
BRANCH  23  24
HETATM   24  C   UNL     1      -9.117   8.604  65.641  1.00  0.00    -0.164 C  
BRANCH  24  25
HETATM   25  C   UNL     1      -8.948   9.904  64.859  1.00  0.00    -0.207 C  
HETATM   26  O   UNL     1     -10.261  10.465  64.628  1.00  0.00    -0.346 OA 
HETATM   27  C   UNL     1      -8.854  11.027  62.798  1.00  0.00    -0.297 C  
HETATM   28  C   UNL     1     -10.246  11.168  63.376  1.00  0.00    -0.380 C  
HETATM   29  C   UNL     1      -8.329   9.782  63.477  1.00  0.00    -0.168 C  
ENDBRANCH  24  25
ENDBRANCH  23  24
ENDBRANCH  22  23
ENDBRANCH   3  22
TORSDOF 9
ENDMDL
MODEL       37
REMARK 921   NORMALIZED FREE ENERGY PREDICTED BY IDOCK:   -5.20 KCAL/MOL
REMARK 922        TOTAL FREE ENERGY PREDICTED BY IDOCK:   -9.18 KCAL/MOL
REMARK 923 INTER-LIGAND FREE ENERGY PREDICTED BY IDOCK:   -8.15 KCAL/MOL
REMARK 924 INTRA-LIGAND FREE ENERGY PREDICTED BY IDOCK:   -1.03 KCAL/MOL
REMARK 927      BINDING AFFINITY PREDICTED BY RF-SCORE:    0.00 PKD
ROOT
HETATM    1  C   UNL     1     -11.486  15.398  64.685  1.00  0.00    -0.339 C  
HETATM    2  C   UNL     1     -10.494  14.410  65.270  1.00  0.00    -0.390 C  
HETATM    3  C   UNL     1      -9.475  14.767  66.107  1.00  0.00    -0.292 C  
ENDROOT
BRANCH   2   4
HETATM    4  N   UNL     1     -10.804  13.084  64.949  1.00  0.00    -0.308 N  
HETATM    5  C   UNL     1     -10.289  12.499  63.802  1.00  0.00    -0.388 C  
HETATM    6  O   UNL     1     -10.531  11.353  63.431  1.00  0.00    -0.369 OA 
BRANCH   4   7
HETATM    7  C   UNL     1     -11.839  12.359  65.703  1.00  0.00    -0.409 C  
BRANCH   7   8
HETATM    8  C   UNL     1     -11.463  11.861  67.079  1.00  0.00    -0.384 A  
HETATM    9  H2  UNL     1     -10.313  10.072  65.485  1.00  0.00     0.000 HD 
HETATM   10  H1  UNL     1      -9.758   8.899  66.642  1.00  0.00     0.000 HD 
HETATM   11  N   UNL     1     -10.238   9.781  66.460  1.00  0.00    -0.232 NA 
HETATM   12  C   UNL     1     -10.759  10.565  67.346  1.00  0.00    -0.281 A  
HETATM   13  C   UNL     1     -11.978  12.424  68.200  1.00  0.00    -0.214 A  
HETATM   14  N   UNL     1     -11.971  11.920  69.492  1.00  0.00    -0.306 NA 
HETATM   15  C   UNL     1     -11.454  10.080  71.000  1.00  0.00    -0.463 C  
HETATM   16  N   UNL     1     -10.695  10.159  68.648  1.00  0.00    -0.211 NA 
HETATM   17  C   UNL     1     -11.353  10.786  69.665  1.00  0.00    -0.294 A  
ENDBRANCH   7   8
ENDBRANCH   4   7
ENDBRANCH   2   4
BRANCH   3  18
HETATM   18  C   UNL     1      -8.669  13.781  66.959  1.00  0.00    -0.212 C  
BRANCH  18  19
HETATM   19  C   UNL     1      -8.764  13.999  68.482  1.00  0.00    -0.156 C  
HETATM   20  H   UNL     1      -7.576  14.577  69.946  1.00  0.00     0.000 HD 
HETATM   21  O   UNL     1      -7.517  14.443  69.008  1.00  0.00    -0.126 OA 
ENDBRANCH  18  19
ENDBRANCH   3  18
BRANCH   3  22
HETATM   22  S   UNL     1      -9.090  16.489  66.265  1.00  0.00    -0.314 SA 
BRANCH  22  23
HETATM   23  S   UNL     1     -10.505  17.128  67.610  1.00  0.00    -0.344 SA 
BRANCH  23  24
HETATM   24  C   UNL     1     -10.666  18.933  67.351  1.00  0.00    -0.444 C  
BRANCH  24  25
HETATM   25  C   UNL     1      -9.461  19.827  67.636  1.00  0.00    -0.352 C  
HETATM   26  O   UNL     1      -8.750  20.034  66.393  1.00  0.00    -0.334 OA 
HETATM   27  C   UNL     1      -7.187  20.043  68.182  1.00  0.00    -0.320 C  
HETATM   28  C   UNL     1      -7.352  20.178  66.683  1.00  0.00    -0.268 C  
HETATM   29  C   UNL     1      -8.420  19.269  68.591  1.00  0.00    -0.403 C  
ENDBRANCH  24  25
ENDBRANCH  23  24
ENDBRANCH  22  23
ENDBRANCH   3  22
TORSDOF 9
ENDMDL
MODEL       38
REMARK 921   NORMALIZED FREE ENERGY PREDICTED BY IDOCK:   -5.18 KCAL/MOL
REMARK 922        TOTAL FREE ENERGY PREDICTED BY IDOCK:   -9.15 KCAL/MOL
REMARK 923 INTER-LIGAND FREE ENERGY PREDICTED BY IDOCK:   -8.41 KCAL/MOL
REMARK 924 INTRA-LIGAND FREE ENERGY PREDICTED BY IDOCK:   -0.73 KCAL/MOL
REMARK 927      BINDING AFFINITY PREDICTED BY RF-SCORE:    0.00 PKD
ROOT
HETATM    1  C   UNL     1      -9.356  14.644  66.323  1.00  0.00    -0.293 C  
HETATM    2  C   UNL     1     -10.590  14.229  67.102  1.00  0.00    -0.279 C  
HETATM    3  C   UNL     1     -10.904  14.717  68.339  1.00  0.00    -0.245 C  
ENDROOT
BRANCH   2   4
HETATM    4  N   UNL     1     -11.427  13.380  66.370  1.00  0.00    -0.317 N  
HETATM    5  C   UNL     1     -12.444  13.902  65.583  1.00  0.00    -0.505 C  
HETATM    6  O   UNL     1     -13.239  13.231  64.931  1.00  0.00    -0.703 OA 
BRANCH   4   7
HETATM    7  C   UNL     1     -11.379  11.925  66.579  1.00  0.00    -0.341 C  
BRANCH   7   8
HETATM    8  C   UNL     1     -11.054  11.443  67.974  1.00  0.00    -0.317 A  
HETATM    9  H2  UNL     1      -8.654  11.589  66.842  1.00  0.00     0.000 HD 
HETATM   10  H1  UNL     1      -7.658  10.867  68.069  1.00  0.00     0.000 HD 
HETATM   11  N   UNL     1      -8.587  11.154  67.762  1.00  0.00    -0.129 NA 
HETATM   12  C   UNL     1      -9.688  11.020  68.426  1.00  0.00    -0.180 A  
HETATM   13  C   UNL     1     -12.031  11.098  68.849  1.00  0.00    -0.298 A  
HETATM   14  N   UNL     1     -11.909  10.381  70.029  1.00  0.00    -0.276 NA 
HETATM   15  C   UNL     1     -10.499   9.093  71.541  1.00  0.00    -0.422 C  
HETATM   16  N   UNL     1      -9.609  10.401  69.641  1.00  0.00    -0.165 NA 
HETATM   17  C   UNL     1     -10.701  10.030  70.369  1.00  0.00    -0.307 A  
ENDBRANCH   7   8
ENDBRANCH   4   7
ENDBRANCH   2   4
BRANCH   3  18
HETATM   18  C   UNL     1     -12.276  14.572  69.004  1.00  0.00    -0.215 C  
BRANCH  18  19
HETATM   19  C   UNL     1     -12.293  14.797  70.529  1.00  0.00    -0.337 C  
HETATM   20  H   UNL     1     -13.360  15.816  71.838  1.00  0.00     0.000 HD 
HETATM   21  O   UNL     1     -13.349  15.678  70.899  1.00  0.00    -0.556 OA 
ENDBRANCH  18  19
ENDBRANCH   3  18
BRANCH   3  22
HETATM   22  S   UNL     1      -9.661  15.625  69.217  1.00  0.00    -0.284 SA 
BRANCH  22  23
HETATM   23  S   UNL     1     -10.275  17.567  68.951  1.00  0.00    -0.309 SA 
BRANCH  23  24
HETATM   24  C   UNL     1      -9.033  18.342  67.853  1.00  0.00    -0.276 C  
BRANCH  24  25
HETATM   25  C   UNL     1      -8.169  19.474  68.403  1.00  0.00    -0.344 C  
HETATM   26  O   UNL     1      -7.708  20.272  67.288  1.00  0.00    -0.293 OA 
HETATM   27  C   UNL     1      -6.049  20.299  68.989  1.00  0.00    -0.365 C  
HETATM   28  C   UNL     1      -6.413  20.802  67.608  1.00  0.00    -0.314 C  
HETATM   29  C   UNL     1      -6.903  19.059  69.134  1.00  0.00    -0.342 C  
ENDBRANCH  24  25
ENDBRANCH  23  24
ENDBRANCH  22  23
ENDBRANCH   3  22
TORSDOF 9
ENDMDL
MODEL       39
REMARK 921   NORMALIZED FREE ENERGY PREDICTED BY IDOCK:   -5.18 KCAL/MOL
REMARK 922        TOTAL FREE ENERGY PREDICTED BY IDOCK:   -9.14 KCAL/MOL
REMARK 923 INTER-LIGAND FREE ENERGY PREDICTED BY IDOCK:   -7.91 KCAL/MOL
REMARK 924 INTRA-LIGAND FREE ENERGY PREDICTED BY IDOCK:   -1.22 KCAL/MOL
REMARK 927      BINDING AFFINITY PREDICTED BY RF-SCORE:    0.00 PKD
ROOT
HETATM    1  C   UNL     1     -11.012  11.449  64.167  1.00  0.00    -0.411 C  
HETATM    2  C   UNL     1     -10.466  12.154  65.395  1.00  0.00    -0.270 C  
HETATM    3  C   UNL     1      -9.480  11.639  66.187  1.00  0.00    -0.224 C  
ENDROOT
BRANCH   2   4
HETATM    4  N   UNL     1     -11.002  13.436  65.560  1.00  0.00    -0.281 N  
HETATM    5  C   UNL     1     -10.333  14.548  65.067  1.00  0.00    -0.413 C  
HETATM    6  O   UNL     1     -10.717  15.708  65.191  1.00  0.00    -0.397 OA 
BRANCH   4   7
HETATM    7  C   UNL     1     -12.167  13.649  66.433  1.00  0.00    -0.423 C  
BRANCH   7   8
HETATM    8  C   UNL     1     -11.890  13.915  67.895  1.00  0.00    -0.413 A  
HETATM    9  H2  UNL     1     -12.289  11.287  67.853  1.00  0.00     0.000 HD 
HETATM   10  H1  UNL     1     -12.295  10.921  69.552  1.00  0.00     0.000 HD 
HETATM   11  N   UNL     1     -12.211  11.620  68.814  1.00  0.00    -0.395 NA 
HETATM   12  C   UNL     1     -12.014  12.887  68.979  1.00  0.00    -0.251 A  
HETATM   13  C   UNL     1     -11.771  15.178  68.373  1.00  0.00    -0.316 A  
HETATM   14  N   UNL     1     -11.809  15.600  69.694  1.00  0.00    -0.355 NA 
HETATM   15  C   UNL     1     -12.159  15.051  72.040  1.00  0.00    -0.454 C  
HETATM   16  N   UNL     1     -11.950  13.342  70.265  1.00  0.00    -0.330 NA 
HETATM   17  C   UNL     1     -11.927  14.666  70.595  1.00  0.00    -0.315 A  
ENDBRANCH   7   8
ENDBRANCH   4   7
ENDBRANCH   2   4
BRANCH   3  18
HETATM   18  C   UNL     1      -8.692  12.446  67.224  1.00  0.00    -0.191 C  
BRANCH  18  19
HETATM   19  C   UNL     1      -7.209  12.052  67.374  1.00  0.00    -0.144 C  
HETATM   20  H   UNL     1      -5.451  12.942  67.293  1.00  0.00     0.000 HD 
HETATM   21  O   UNL     1      -6.365  13.185  67.201  1.00  0.00    -0.257 OA 
ENDBRANCH  18  19
ENDBRANCH   3  18
BRANCH   3  22
HETATM   22  S   UNL     1      -9.041   9.936  65.971  1.00  0.00    -0.168 SA 
BRANCH  22  23
HETATM   23  S   UNL     1     -10.204   9.006  67.385  1.00  0.00    -0.264 SA 
BRANCH  23  24
HETATM   24  C   UNL     1      -9.381   9.307  68.992  1.00  0.00    -0.151 C  
BRANCH  24  25
HETATM   25  C   UNL     1      -9.776   8.451  70.193  1.00  0.00    -0.173 C  
HETATM   26  O   UNL     1     -10.954   7.690  69.836  1.00  0.00    -0.250 OA 
HETATM   27  C   UNL     1     -11.032   8.181  72.159  1.00  0.00    -0.372 C  
HETATM   28  C   UNL     1     -11.750   7.497  71.015  1.00  0.00    -0.292 C  
HETATM   29  C   UNL     1     -10.166   9.201  71.455  1.00  0.00    -0.402 C  
ENDBRANCH  24  25
ENDBRANCH  23  24
ENDBRANCH  22  23
ENDBRANCH   3  22
TORSDOF 9
ENDMDL
MODEL       40
REMARK 921   NORMALIZED FREE ENERGY PREDICTED BY IDOCK:   -5.16 KCAL/MOL
REMARK 922        TOTAL FREE ENERGY PREDICTED BY IDOCK:   -9.12 KCAL/MOL
REMARK 923 INTER-LIGAND FREE ENERGY PREDICTED BY IDOCK:   -8.04 KCAL/MOL
REMARK 924 INTRA-LIGAND FREE ENERGY PREDICTED BY IDOCK:   -1.08 KCAL/MOL
REMARK 927      BINDING AFFINITY PREDICTED BY RF-SCORE:    0.00 PKD
ROOT
HETATM    1  C   UNL     1     -11.963  14.869  68.013  1.00  0.00    -0.216 C  
HETATM    2  C   UNL     1     -11.150  14.173  66.937  1.00  0.00    -0.307 C  
HETATM    3  C   UNL     1     -10.424  13.036  67.153  1.00  0.00    -0.243 C  
ENDROOT
BRANCH   2   4
HETATM    4  N   UNL     1     -11.316  14.758  65.677  1.00  0.00    -0.345 N  
HETATM    5  C   UNL     1     -12.404  14.424  64.884  1.00  0.00    -0.405 C  
HETATM    6  O   UNL     1     -12.612  14.868  63.758  1.00  0.00    -0.791 OA 
BRANCH   4   7
HETATM    7  C   UNL     1     -10.242  15.572  65.088  1.00  0.00    -0.299 C  
BRANCH   7   8
HETATM    8  C   UNL     1      -9.878  16.852  65.805  1.00  0.00    -0.166 A  
HETATM    9  H2  UNL     1      -7.863  15.241  66.445  1.00  0.00     0.000 HD 
HETATM   10  H1  UNL     1      -7.018  16.208  67.616  1.00  0.00     0.000 HD 
HETATM   11  N   UNL     1      -7.803  16.113  66.971  1.00  0.00    -0.199 NA 
HETATM   12  C   UNL     1      -8.726  16.991  66.754  1.00  0.00    -0.245 A  
HETATM   13  C   UNL     1     -10.733  17.903  65.853  1.00  0.00    -0.114 A  
HETATM   14  N   UNL     1     -10.685  19.009  66.688  1.00  0.00    -0.389 NA 
HETATM   15  C   UNL     1      -9.633  20.149  68.565  1.00  0.00    -0.206 C  
HETATM   16  N   UNL     1      -8.671  18.143  67.486  1.00  0.00    -0.247 NA 
HETATM   17  C   UNL     1      -9.667  19.075  67.499  1.00  0.00    -0.314 A  
ENDBRANCH   7   8
ENDBRANCH   4   7
ENDBRANCH   2   4
BRANCH   3  18
HETATM   18  C   UNL     1      -9.865  12.142  66.043  1.00  0.00    -0.260 C  
BRANCH  18  19
HETATM   19  C   UNL     1     -10.815  11.030  65.555  1.00  0.00    -0.088 C  
HETATM   20  H   UNL     1     -10.984   9.842  63.989  1.00  0.00     0.000 HD 
HETATM   21  O   UNL     1     -10.398  10.528  64.289  1.00  0.00    -0.332 OA 
ENDBRANCH  18  19
ENDBRANCH   3  18
BRANCH   3  22
HETATM   22  S   UNL     1     -10.152  12.527  68.828  1.00  0.00     0.035 SA 
BRANCH  22  23
HETATM   23  S   UNL     1     -11.917  11.580  69.286  1.00  0.00    -0.304 SA 
BRANCH  23  24
HETATM   24  C   UNL     1     -12.399  12.187  70.943  1.00  0.00    -0.273 C  
BRANCH  24  25
HETATM   25  C   UNL     1     -12.874  13.631  71.088  1.00  0.00    -0.323 C  
HETATM   26  O   UNL     1     -11.724  14.457  71.384  1.00  0.00    -0.277 OA 
HETATM   27  C   UNL     1     -13.631  15.385  72.455  1.00  0.00    -0.634 C  
HETATM   28  C   UNL     1     -12.145  15.548  72.216  1.00  0.00    -0.430 C  
HETATM   29  C   UNL     1     -13.853  13.908  72.216  1.00  0.00    -0.669 C  
ENDBRANCH  24  25
ENDBRANCH  23  24
ENDBRANCH  22  23
ENDBRANCH   3  22
TORSDOF 9
ENDMDL
MODEL       41
REMARK 921   NORMALIZED FREE ENERGY PREDICTED BY IDOCK:   -5.16 KCAL/MOL
REMARK 922        TOTAL FREE ENERGY PREDICTED BY IDOCK:   -9.11 KCAL/MOL
REMARK 923 INTER-LIGAND FREE ENERGY PREDICTED BY IDOCK:   -9.24 KCAL/MOL
REMARK 924 INTRA-LIGAND FREE ENERGY PREDICTED BY IDOCK:    0.13 KCAL/MOL
REMARK 927      BINDING AFFINITY PREDICTED BY RF-SCORE:    0.00 PKD
ROOT
HETATM    1  C   UNL     1     -12.553  13.025  65.146  1.00  0.00    -0.530 C  
HETATM    2  C   UNL     1     -11.411  13.584  65.975  1.00  0.00    -0.312 C  
HETATM    3  C   UNL     1     -10.823  12.908  67.006  1.00  0.00    -0.260 C  
ENDROOT
BRANCH   2   4
HETATM    4  N   UNL     1     -10.952  14.816  65.495  1.00  0.00    -0.329 N  
HETATM    5  C   UNL     1     -11.692  15.527  64.561  1.00  0.00    -0.253 C  
HETATM    6  O   UNL     1     -11.352  16.599  64.068  1.00  0.00    -1.120 OA 
BRANCH   4   7
HETATM    7  C   UNL     1      -9.592  15.277  65.811  1.00  0.00    -0.324 C  
BRANCH   7   8
HETATM    8  C   UNL     1      -9.461  16.638  66.455  1.00  0.00    -0.305 A  
HETATM    9  H2  UNL     1     -11.353  15.486  67.923  1.00  0.00     0.000 HD 
HETATM   10  H1  UNL     1     -11.865  16.817  68.918  1.00  0.00     0.000 HD 
HETATM   11  N   UNL     1     -11.252  16.469  68.180  1.00  0.00    -0.307 NA 
HETATM   12  C   UNL     1     -10.361  17.151  67.538  1.00  0.00    -0.341 A  
HETATM   13  C   UNL     1      -8.685  17.607  65.909  1.00  0.00     0.118 A  
HETATM   14  N   UNL     1      -8.681  18.964  66.196  1.00  0.00    -0.471 NA 
HETATM   15  C   UNL     1      -9.679  20.837  67.389  1.00  0.00    -0.473 C  
HETATM   16  N   UNL     1     -10.252  18.476  67.851  1.00  0.00    -0.366 NA 
HETATM   17  C   UNL     1      -9.490  19.356  67.140  1.00  0.00    -0.320 A  
ENDBRANCH   7   8
ENDBRANCH   4   7
ENDBRANCH   2   4
BRANCH   3  18
HETATM   18  C   UNL     1      -9.485  13.294  67.643  1.00  0.00    -0.211 C  
BRANCH  18  19
HETATM   19  C   UNL     1      -8.371  12.235  67.522  1.00  0.00    -0.170 C  
HETATM   20  H   UNL     1      -7.431  10.970  68.708  1.00  0.00     0.000 HD 
HETATM   21  O   UNL     1      -8.116  11.623  68.783  1.00  0.00    -0.140 OA 
ENDBRANCH  18  19
ENDBRANCH   3  18
BRANCH   3  22
HETATM   22  S   UNL     1     -11.632  11.456  67.619  1.00  0.00    -0.175 SA 
BRANCH  22  23
HETATM   23  S   UNL     1     -11.645  11.790  69.646  1.00  0.00    -0.313 SA 
BRANCH  23  24
HETATM   24  C   UNL     1     -12.204  13.518  69.868  1.00  0.00    -0.292 C  
BRANCH  24  25
HETATM   25  C   UNL     1     -12.376  14.060  71.285  1.00  0.00    -0.355 C  
HETATM   26  O   UNL     1     -13.777  14.356  71.487  1.00  0.00    -0.371 OA 
HETATM   27  C   UNL     1     -12.478  15.892  72.752  1.00  0.00    -0.565 C  
HETATM   28  C   UNL     1     -13.886  15.470  72.386  1.00  0.00    -0.568 C  
HETATM   29  C   UNL     1     -11.655  15.359  71.600  1.00  0.00    -0.492 C  
ENDBRANCH  24  25
ENDBRANCH  23  24
ENDBRANCH  22  23
ENDBRANCH   3  22
TORSDOF 9
ENDMDL
MODEL       42
REMARK 921   NORMALIZED FREE ENERGY PREDICTED BY IDOCK:   -5.14 KCAL/MOL
REMARK 922        TOTAL FREE ENERGY PREDICTED BY IDOCK:   -9.09 KCAL/MOL
REMARK 923 INTER-LIGAND FREE ENERGY PREDICTED BY IDOCK:   -7.77 KCAL/MOL
REMARK 924 INTRA-LIGAND FREE ENERGY PREDICTED BY IDOCK:   -1.31 KCAL/MOL
REMARK 927      BINDING AFFINITY PREDICTED BY RF-SCORE:    0.00 PKD
ROOT
HETATM    1  C   UNL     1      -9.861  16.483  65.783  1.00  0.00    -0.275 C  
HETATM    2  C   UNL     1      -9.650  15.023  66.138  1.00  0.00    -0.314 C  
HETATM    3  C   UNL     1      -8.598  14.569  66.882  1.00  0.00    -0.179 C  
ENDROOT
BRANCH   2   4
HETATM    4  N   UNL     1     -10.708  14.210  65.716  1.00  0.00    -0.290 N  
HETATM    5  C   UNL     1     -10.687  13.623  64.459  1.00  0.00    -0.407 C  
HETATM    6  O   UNL     1     -11.583  12.920  64.000  1.00  0.00    -0.369 OA 
BRANCH   4   7
HETATM    7  C   UNL     1     -11.946  14.132  66.506  1.00  0.00    -0.442 C  
BRANCH   7   8
HETATM    8  C   UNL     1     -12.034  13.031  67.538  1.00  0.00    -0.360 A  
HETATM    9  H2  UNL     1     -11.913  15.220  69.040  1.00  0.00     0.000 HD 
HETATM   10  H1  UNL     1     -11.760  14.530  70.629  1.00  0.00     0.000 HD 
HETATM   11  N   UNL     1     -11.852  14.385  69.623  1.00  0.00    -0.302 NA 
HETATM   12  C   UNL     1     -11.899  13.245  69.016  1.00  0.00    -0.321 A  
HETATM   13  C   UNL     1     -11.970  11.724  67.184  1.00  0.00     0.107 A  
HETATM   14  N   UNL     1     -11.746  10.626  68.001  1.00  0.00    -0.471 NA 
HETATM   15  C   UNL     1     -11.202   9.758  70.210  1.00  0.00    -0.347 C  
HETATM   16  N   UNL     1     -11.776  12.125  69.788  1.00  0.00    -0.320 NA 
HETATM   17  C   UNL     1     -11.627  10.870  69.276  1.00  0.00    -0.318 A  
ENDBRANCH   7   8
ENDBRANCH   4   7
ENDBRANCH   2   4
BRANCH   3  18
HETATM   18  C   UNL     1      -8.526  13.179  67.522  1.00  0.00    -0.198 C  
BRANCH  18  19
HETATM   19  C   UNL     1      -7.413  12.263  66.977  1.00  0.00    -0.063 C  
HETATM   20  H   UNL     1      -7.281  10.578  65.961  1.00  0.00     0.000 HD 
HETATM   21  O   UNL     1      -7.967  11.142  66.297  1.00  0.00    -0.164 OA 
ENDBRANCH  18  19
ENDBRANCH   3  18
BRANCH   3  22
HETATM   22  S   UNL     1      -7.246  15.676  67.176  1.00  0.00    -0.145 SA 
BRANCH  22  23
HETATM   23  S   UNL     1      -7.793  16.569  68.943  1.00  0.00    -0.230 SA 
BRANCH  23  24
HETATM   24  C   UNL     1      -7.310  18.327  68.789  1.00  0.00    -0.284 C  
BRANCH  24  25
HETATM   25  C   UNL     1      -8.366  19.346  68.369  1.00  0.00    -0.350 C  
HETATM   26  O   UNL     1      -9.662  18.842  68.767  1.00  0.00    -0.375 OA 
HETATM   27  C   UNL     1      -9.913  20.117  66.779  1.00  0.00    -0.604 C  
HETATM   28  C   UNL     1     -10.642  19.297  67.822  1.00  0.00    -0.410 C  
HETATM   29  C   UNL     1      -8.493  19.608  66.878  1.00  0.00    -0.343 C  
ENDBRANCH  24  25
ENDBRANCH  23  24
ENDBRANCH  22  23
ENDBRANCH   3  22
TORSDOF 9
ENDMDL
MODEL       43
REMARK 921   NORMALIZED FREE ENERGY PREDICTED BY IDOCK:   -5.13 KCAL/MOL
REMARK 922        TOTAL FREE ENERGY PREDICTED BY IDOCK:   -9.06 KCAL/MOL
REMARK 923 INTER-LIGAND FREE ENERGY PREDICTED BY IDOCK:   -7.98 KCAL/MOL
REMARK 924 INTRA-LIGAND FREE ENERGY PREDICTED BY IDOCK:   -1.08 KCAL/MOL
REMARK 927      BINDING AFFINITY PREDICTED BY RF-SCORE:    0.00 PKD
ROOT
HETATM    1  C   UNL     1     -10.786  11.769  65.775  1.00  0.00    -0.341 C  
HETATM    2  C   UNL     1     -10.514  12.466  67.095  1.00  0.00    -0.219 C  
HETATM    3  C   UNL     1     -11.105  13.640  67.467  1.00  0.00    -0.277 C  
ENDROOT
BRANCH   2   4
HETATM    4  N   UNL     1      -9.680  11.720  67.934  1.00  0.00    -0.180 N  
HETATM    5  C   UNL     1      -8.417  12.188  68.268  1.00  0.00    -0.176 C  
HETATM    6  O   UNL     1      -7.611  11.586  68.974  1.00  0.00    -0.119 OA 
BRANCH   4   7
HETATM    7  C   UNL     1     -10.038  10.342  68.306  1.00  0.00    -0.153 C  
BRANCH   7   8
HETATM    8  C   UNL     1     -10.819  10.159  69.587  1.00  0.00    -0.299 A  
HETATM    9  H2  UNL     1      -8.775   8.490  69.913  1.00  0.00     0.000 HD 
HETATM   10  H1  UNL     1      -9.240   7.671  71.374  1.00  0.00     0.000 HD 
HETATM   11  N   UNL     1      -9.455   8.373  70.665  1.00  0.00    -0.163 NA 
HETATM   12  C   UNL     1     -10.503   9.127  70.628  1.00  0.00    -0.245 A  
HETATM   13  C   UNL     1     -12.032  10.737  69.765  1.00  0.00    -0.325 A  
HETATM   14  N   UNL     1     -12.987  10.445  70.728  1.00  0.00    -0.376 NA 
HETATM   15  C   UNL     1     -13.711   9.028  72.571  1.00  0.00    -0.499 C  
HETATM   16  N   UNL     1     -11.434   8.944  71.611  1.00  0.00    -0.313 NA 
HETATM   17  C   UNL     1     -12.664   9.534  71.602  1.00  0.00    -0.388 A  
ENDBRANCH   7   8
ENDBRANCH   4   7
ENDBRANCH   2   4
BRANCH   3  18
HETATM   18  C   UNL     1     -11.104  14.196  68.894  1.00  0.00    -0.288 C  
BRANCH  18  19
HETATM   19  C   UNL     1     -11.866  15.523  69.082  1.00  0.00    -0.354 C  
HETATM   20  H   UNL     1     -11.892  17.017  70.369  1.00  0.00     0.000 HD 
HETATM   21  O   UNL     1     -11.423  16.199  70.254  1.00  0.00    -0.346 OA 
ENDBRANCH  18  19
ENDBRANCH   3  18
BRANCH   3  22
HETATM   22  S   UNL     1     -11.980  14.561  66.231  1.00  0.00    -0.266 SA 
BRANCH  22  23
HETATM   23  S   UNL     1     -10.451  15.488  65.219  1.00  0.00    -0.402 SA 
BRANCH  23  24
HETATM   24  C   UNL     1      -9.327  16.150  66.503  1.00  0.00    -0.268 C  
BRANCH  24  25
HETATM   25  C   UNL     1      -9.309  17.655  66.759  1.00  0.00    -0.278 C  
HETATM   26  O   UNL     1      -9.330  17.869  68.190  1.00  0.00    -0.269 OA 
HETATM   27  C   UNL     1     -10.479  19.658  67.130  1.00  0.00    -0.595 C  
HETATM   28  C   UNL     1     -10.033  19.091  68.461  1.00  0.00    -0.421 C  
HETATM   29  C   UNL     1     -10.497  18.442  66.232  1.00  0.00    -0.421 C  
ENDBRANCH  24  25
ENDBRANCH  23  24
ENDBRANCH  22  23
ENDBRANCH   3  22
TORSDOF 9
ENDMDL
MODEL       44
REMARK 921   NORMALIZED FREE ENERGY PREDICTED BY IDOCK:   -5.08 KCAL/MOL
REMARK 922        TOTAL FREE ENERGY PREDICTED BY IDOCK:   -8.99 KCAL/MOL
REMARK 923 INTER-LIGAND FREE ENERGY PREDICTED BY IDOCK:   -8.21 KCAL/MOL
REMARK 924 INTRA-LIGAND FREE ENERGY PREDICTED BY IDOCK:   -0.78 KCAL/MOL
REMARK 927      BINDING AFFINITY PREDICTED BY RF-SCORE:    0.00 PKD
ROOT
HETATM    1  C   UNL     1      -9.666  14.847  66.184  1.00  0.00    -0.333 C  
HETATM    2  C   UNL     1     -10.670  14.225  67.136  1.00  0.00    -0.282 C  
HETATM    3  C   UNL     1     -10.799  14.592  68.445  1.00  0.00    -0.243 C  
ENDROOT
BRANCH   2   4
HETATM    4  N   UNL     1     -11.522  13.317  66.499  1.00  0.00    -0.323 N  
HETATM    5  C   UNL     1     -12.477  13.762  65.596  1.00  0.00    -0.503 C  
HETATM    6  O   UNL     1     -13.282  13.040  65.014  1.00  0.00    -0.739 OA 
BRANCH   4   7
HETATM    7  C   UNL     1     -11.563  11.909  66.924  1.00  0.00    -0.285 C  
BRANCH   7   8
HETATM    8  C   UNL     1     -10.398  11.036  66.519  1.00  0.00    -0.295 A  
HETATM    9  H2  UNL     1     -11.441  11.728  64.175  1.00  0.00     0.000 HD 
HETATM   10  H1  UNL     1     -10.517  10.735  63.088  1.00  0.00     0.000 HD 
HETATM   11  N   UNL     1     -10.709  11.029  64.046  1.00  0.00    -0.347 NA 
HETATM   12  C   UNL     1     -10.115  10.603  65.112  1.00  0.00    -0.307 A  
HETATM   13  C   UNL     1      -9.672  10.353  67.439  1.00  0.00    -0.163 A  
HETATM   14  N   UNL     1      -8.785   9.309  67.225  1.00  0.00    -0.127 NA 
HETATM   15  C   UNL     1      -7.775   7.726  65.676  1.00  0.00    -0.101 C  
HETATM   16  N   UNL     1      -9.163   9.638  64.947  1.00  0.00    -0.244 NA 
HETATM   17  C   UNL     1      -8.584   8.967  65.984  1.00  0.00    -0.142 A  
ENDBRANCH   7   8
ENDBRANCH   4   7
ENDBRANCH   2   4
BRANCH   3  18
HETATM   18  C   UNL     1     -11.992  14.225  69.334  1.00  0.00    -0.381 C  
BRANCH  18  19
HETATM   19  C   UNL     1     -12.042  14.945  70.696  1.00  0.00    -0.307 C  
HETATM   20  H   UNL     1     -13.402  15.789  71.847  1.00  0.00     0.000 HD 
HETATM   21  O   UNL     1     -13.372  15.346  71.008  1.00  0.00    -0.485 OA 
ENDBRANCH  18  19
ENDBRANCH   3  18
BRANCH   3  22
HETATM   22  S   UNL     1      -9.531  15.604  69.157  1.00  0.00    -0.270 SA 
BRANCH  22  23
HETATM   23  S   UNL     1     -10.174  17.498  68.686  1.00  0.00    -0.373 SA 
BRANCH  23  24
HETATM   24  C   UNL     1      -8.817  18.266  67.728  1.00  0.00    -0.263 C  
BRANCH  24  25
HETATM   25  C   UNL     1      -8.092  19.473  68.319  1.00  0.00    -0.334 C  
HETATM   26  O   UNL     1      -7.901  20.445  67.264  1.00  0.00    -0.311 OA 
HETATM   27  C   UNL     1      -6.083  20.597  68.786  1.00  0.00    -0.366 C  
HETATM   28  C   UNL     1      -6.682  21.161  67.515  1.00  0.00    -0.339 C  
HETATM   29  C   UNL     1      -6.699  19.219  68.869  1.00  0.00    -0.347 C  
ENDBRANCH  24  25
ENDBRANCH  23  24
ENDBRANCH  22  23
ENDBRANCH   3  22
TORSDOF 9
ENDMDL
MODEL       45
REMARK 921   NORMALIZED FREE ENERGY PREDICTED BY IDOCK:   -5.07 KCAL/MOL
REMARK 922        TOTAL FREE ENERGY PREDICTED BY IDOCK:   -8.98 KCAL/MOL
REMARK 923 INTER-LIGAND FREE ENERGY PREDICTED BY IDOCK:   -7.65 KCAL/MOL
REMARK 924 INTRA-LIGAND FREE ENERGY PREDICTED BY IDOCK:   -1.33 KCAL/MOL
REMARK 927      BINDING AFFINITY PREDICTED BY RF-SCORE:    0.00 PKD
ROOT
HETATM    1  C   UNL     1      -8.617  13.261  68.259  1.00  0.00    -0.169 C  
HETATM    2  C   UNL     1      -9.942  13.173  67.524  1.00  0.00    -0.223 C  
HETATM    3  C   UNL     1     -10.213  12.244  66.561  1.00  0.00    -0.214 C  
ENDROOT
BRANCH   2   4
HETATM    4  N   UNL     1     -10.891  14.073  68.021  1.00  0.00    -0.242 N  
HETATM    5  C   UNL     1     -11.484  13.860  69.257  1.00  0.00    -0.297 C  
HETATM    6  O   UNL     1     -12.344  14.582  69.754  1.00  0.00    -0.316 OA 
BRANCH   4   7
HETATM    7  C   UNL     1     -11.426  15.140  67.160  1.00  0.00    -0.250 C  
BRANCH   7   8
HETATM    8  C   UNL     1     -10.653  16.437  67.114  1.00  0.00    -0.276 A  
HETATM    9  H2  UNL     1     -11.694  16.301  64.673  1.00  0.00     0.000 HD 
HETATM   10  H1  UNL     1     -10.908  17.643  63.896  1.00  0.00     0.000 HD 
HETATM   11  N   UNL     1     -11.040  17.081  64.737  1.00  0.00    -0.906 NA 
HETATM   12  C   UNL     1     -10.459  17.262  65.877  1.00  0.00    -0.262 A  
HETATM   13  C   UNL     1      -9.844  16.815  68.135  1.00  0.00    -0.264 A  
HETATM   14  N   UNL     1      -8.866  17.798  68.134  1.00  0.00    -0.260 NA 
HETATM   15  C   UNL     1      -7.574  19.440  66.883  1.00  0.00    -0.261 C  
HETATM   16  N   UNL     1      -9.552  18.280  65.956  1.00  0.00    -0.515 NA 
HETATM   17  C   UNL     1      -8.734  18.478  67.030  1.00  0.00    -0.277 A  
ENDBRANCH   7   8
ENDBRANCH   4   7
ENDBRANCH   2   4
BRANCH   3  18
HETATM   18  C   UNL     1     -11.616  11.922  66.038  1.00  0.00    -0.296 C  
BRANCH  18  19
HETATM   19  C   UNL     1     -12.011  12.640  64.733  1.00  0.00    -0.402 C  
HETATM   20  H   UNL     1     -13.534  12.651  63.480  1.00  0.00     0.000 HD 
HETATM   21  O   UNL     1     -13.291  12.208  64.284  1.00  0.00    -0.761 OA 
ENDBRANCH  18  19
ENDBRANCH   3  18
BRANCH   3  22
HETATM   22  S   UNL     1      -8.861  11.305  65.905  1.00  0.00    -0.129 SA 
BRANCH  22  23
HETATM   23  S   UNL     1      -9.736   9.482  65.541  1.00  0.00    -0.204 SA 
BRANCH  23  24
HETATM   24  C   UNL     1      -9.088   8.348  66.823  1.00  0.00    -0.157 C  
BRANCH  24  25
HETATM   25  C   UNL     1      -9.575   8.510  68.262  1.00  0.00    -0.144 C  
HETATM   26  O   UNL     1     -10.843   9.203  68.233  1.00  0.00    -0.163 OA 
HETATM   27  C   UNL     1      -9.692   9.793  70.225  1.00  0.00    -0.279 C  
HETATM   28  C   UNL     1     -10.959   9.998  69.423  1.00  0.00    -0.244 C  
HETATM   29  C   UNL     1      -8.697   9.343  69.179  1.00  0.00    -0.142 C  
ENDBRANCH  24  25
ENDBRANCH  23  24
ENDBRANCH  22  23
ENDBRANCH   3  22
TORSDOF 9
ENDMDL
MODEL       46
REMARK 921   NORMALIZED FREE ENERGY PREDICTED BY IDOCK:   -5.07 KCAL/MOL
REMARK 922        TOTAL FREE ENERGY PREDICTED BY IDOCK:   -8.98 KCAL/MOL
REMARK 923 INTER-LIGAND FREE ENERGY PREDICTED BY IDOCK:   -8.02 KCAL/MOL
REMARK 924 INTRA-LIGAND FREE ENERGY PREDICTED BY IDOCK:   -0.96 KCAL/MOL
REMARK 927      BINDING AFFINITY PREDICTED BY RF-SCORE:    0.00 PKD
ROOT
HETATM    1  C   UNL     1      -8.555  13.623  67.348  1.00  0.00    -0.212 C  
HETATM    2  C   UNL     1      -9.646  13.407  66.316  1.00  0.00    -0.235 C  
HETATM    3  C   UNL     1      -9.876  12.212  65.697  1.00  0.00    -0.237 C  
ENDROOT
BRANCH   2   4
HETATM    4  N   UNL     1     -10.460  14.533  66.153  1.00  0.00    -0.289 N  
HETATM    5  C   UNL     1      -9.963  15.680  65.549  1.00  0.00    -0.329 C  
HETATM    6  O   UNL     1     -10.597  16.719  65.391  1.00  0.00    -0.563 OA 
BRANCH   4   7
HETATM    7  C   UNL     1     -11.780  14.597  66.798  1.00  0.00    -0.341 C  
BRANCH   7   8
HETATM    8  C   UNL     1     -11.817  14.451  68.302  1.00  0.00    -0.361 A  
HETATM    9  H2  UNL     1     -11.909  11.926  67.475  1.00  0.00     0.000 HD 
HETATM   10  H1  UNL     1     -12.196  11.092  68.973  1.00  0.00     0.000 HD 
HETATM   11  N   UNL     1     -12.051  11.976  68.484  1.00  0.00    -0.364 NA 
HETATM   12  C   UNL     1     -12.031  13.152  69.020  1.00  0.00    -0.285 A  
HETATM   13  C   UNL     1     -11.931  15.530  69.115  1.00  0.00    -0.309 A  
HETATM   14  N   UNL     1     -12.265  15.557  70.460  1.00  0.00    -0.379 NA 
HETATM   15  C   UNL     1     -12.991  14.346  72.444  1.00  0.00    -0.478 C  
HETATM   16  N   UNL     1     -12.262  13.226  70.364  1.00  0.00    -0.353 NA 
HETATM   17  C   UNL     1     -12.449  14.400  71.032  1.00  0.00    -0.355 A  
ENDBRANCH   7   8
ENDBRANCH   4   7
ENDBRANCH   2   4
BRANCH   3  18
HETATM   18  C   UNL     1     -11.145  11.876  64.907  1.00  0.00    -0.363 C  
BRANCH  18  19
HETATM   19  C   UNL     1     -11.320  12.649  63.585  1.00  0.00    -0.481 C  
HETATM   20  H   UNL     1     -12.769  13.581  62.624  1.00  0.00     0.000 HD 
HETATM   21  O   UNL     1     -12.661  13.104  63.438  1.00  0.00    -0.697 OA 
ENDBRANCH  18  19
ENDBRANCH   3  18
BRANCH   3  22
HETATM   22  S   UNL     1      -8.652  10.941  65.856  1.00  0.00    -0.162 SA 
BRANCH  22  23
HETATM   23  S   UNL     1      -9.314   9.905  67.502  1.00  0.00    -0.141 SA 
BRANCH  23  24
HETATM   24  C   UNL     1     -10.579   8.735  66.885  1.00  0.00    -0.193 C  
BRANCH  24  25
HETATM   25  C   UNL     1     -10.433   7.252  67.217  1.00  0.00    -0.310 C  
HETATM   26  O   UNL     1     -10.359   7.117  68.655  1.00  0.00    -0.177 OA 
HETATM   27  C   UNL     1      -9.051   5.404  67.656  1.00  0.00    -0.109 C  
HETATM   28  C   UNL     1      -9.525   5.991  68.968  1.00  0.00    -0.127 C  
HETATM   29  C   UNL     1      -9.181   6.567  66.697  1.00  0.00    -0.172 C  
ENDBRANCH  24  25
ENDBRANCH  23  24
ENDBRANCH  22  23
ENDBRANCH   3  22
TORSDOF 9
ENDMDL
MODEL       47
REMARK 921   NORMALIZED FREE ENERGY PREDICTED BY IDOCK:   -5.06 KCAL/MOL
REMARK 922        TOTAL FREE ENERGY PREDICTED BY IDOCK:   -8.97 KCAL/MOL
REMARK 923 INTER-LIGAND FREE ENERGY PREDICTED BY IDOCK:   -8.49 KCAL/MOL
REMARK 924 INTRA-LIGAND FREE ENERGY PREDICTED BY IDOCK:   -0.47 KCAL/MOL
REMARK 927      BINDING AFFINITY PREDICTED BY RF-SCORE:    0.00 PKD
ROOT
HETATM    1  C   UNL     1     -11.016  10.544  68.335  1.00  0.00    -0.310 C  
HETATM    2  C   UNL     1     -11.502  11.232  69.597  1.00  0.00    -0.309 C  
HETATM    3  C   UNL     1     -11.570  12.588  69.742  1.00  0.00    -0.221 C  
ENDROOT
BRANCH   2   4
HETATM    4  N   UNL     1     -11.979  10.327  70.551  1.00  0.00    -0.301 N  
HETATM    5  C   UNL     1     -13.331  10.275  70.859  1.00  0.00    -0.174 C  
HETATM    6  O   UNL     1     -13.830   9.533  71.701  1.00  0.00    -0.315 OA 
BRANCH   4   7
HETATM    7  C   UNL     1     -11.040   9.565  71.388  1.00  0.00    -0.368 C  
BRANCH   7   8
HETATM    8  C   UNL     1     -10.992   8.069  71.180  1.00  0.00    -0.271 A  
HETATM    9  H2  UNL     1     -10.707   8.292  73.813  1.00  0.00     0.000 HD 
HETATM   10  H1  UNL     1     -10.357   6.647  74.254  1.00  0.00     0.000 HD 
HETATM   11  N   UNL     1     -10.569   7.324  73.520  1.00  0.00    -0.383 NA 
HETATM   12  C   UNL     1     -10.680   7.074  72.257  1.00  0.00    -0.220 A  
HETATM   13  C   UNL     1     -10.962   7.529  69.936  1.00  0.00    -0.211 A  
HETATM   14  N   UNL     1     -10.632   6.231  69.574  1.00  0.00    -0.240 NA 
HETATM   15  C   UNL     1      -9.816   4.035  70.235  1.00  0.00    -0.205 C  
HETATM   16  N   UNL     1     -10.456   5.788  71.857  1.00  0.00    -0.214 NA 
HETATM   17  C   UNL     1     -10.360   5.412  70.550  1.00  0.00    -0.274 A  
ENDBRANCH   7   8
ENDBRANCH   4   7
ENDBRANCH   2   4
BRANCH   3  18
HETATM   18  C   UNL     1     -12.343  13.303  70.854  1.00  0.00    -0.413 C  
BRANCH  18  19
HETATM   19  C   UNL     1     -12.016  14.800  71.023  1.00  0.00    -0.331 C  
HETATM   20  H   UNL     1     -12.961  16.524  70.858  1.00  0.00     0.000 HD 
HETATM   21  O   UNL     1     -13.162  15.601  70.753  1.00  0.00    -0.517 OA 
ENDBRANCH  18  19
ENDBRANCH   3  18
BRANCH   3  22
HETATM   22  S   UNL     1     -10.754  13.597  68.535  1.00  0.00    -0.259 SA 
BRANCH  22  23
HETATM   23  S   UNL     1     -12.254  13.940  67.172  1.00  0.00    -0.220 SA 
BRANCH  23  24
HETATM   24  C   UNL     1     -11.447  14.705  65.718  1.00  0.00    -0.338 C  
BRANCH  24  25
HETATM   25  C   UNL     1     -11.200  13.848  64.479  1.00  0.00    -0.365 C  
HETATM   26  O   UNL     1     -12.482  13.443  63.948  1.00  0.00    -0.658 OA 
HETATM   27  C   UNL     1     -10.896  11.728  63.514  1.00  0.00    -0.496 C  
HETATM   28  C   UNL     1     -12.340  12.150  63.341  1.00  0.00    -0.538 C  
HETATM   29  C   UNL     1     -10.443  12.549  64.700  1.00  0.00    -0.344 C  
ENDBRANCH  24  25
ENDBRANCH  23  24
ENDBRANCH  22  23
ENDBRANCH   3  22
TORSDOF 9
ENDMDL
MODEL       48
REMARK 921   NORMALIZED FREE ENERGY PREDICTED BY IDOCK:   -5.06 KCAL/MOL
REMARK 922        TOTAL FREE ENERGY PREDICTED BY IDOCK:   -8.96 KCAL/MOL
REMARK 923 INTER-LIGAND FREE ENERGY PREDICTED BY IDOCK:   -8.36 KCAL/MOL
REMARK 924 INTRA-LIGAND FREE ENERGY PREDICTED BY IDOCK:   -0.60 KCAL/MOL
REMARK 927      BINDING AFFINITY PREDICTED BY RF-SCORE:    0.00 PKD
ROOT
HETATM    1  C   UNL     1     -10.328  15.281  69.518  1.00  0.00    -0.267 C  
HETATM    2  C   UNL     1      -9.843  15.265  68.080  1.00  0.00    -0.217 C  
HETATM    3  C   UNL     1     -10.612  14.862  67.027  1.00  0.00    -0.289 C  
ENDROOT
BRANCH   2   4
HETATM    4  N   UNL     1      -8.564  15.815  67.940  1.00  0.00    -0.158 N  
HETATM    5  C   UNL     1      -7.526  15.057  67.415  1.00  0.00    -0.205 C  
HETATM    6  O   UNL     1      -6.370  15.450  67.283  1.00  0.00    -0.305 OA 
BRANCH   4   7
HETATM    7  C   UNL     1      -8.247  17.123  68.533  1.00  0.00    -0.261 C  
BRANCH   7   8
HETATM    8  C   UNL     1      -7.810  18.217  67.586  1.00  0.00    -0.232 A  
HETATM    9  H2  UNL     1     -10.330  17.794  66.853  1.00  0.00     0.000 HD 
HETATM   10  H1  UNL     1     -10.436  18.782  65.427  1.00  0.00     0.000 HD 
HETATM   11  N   UNL     1      -9.873  18.435  66.204  1.00  0.00    -0.506 NA 
HETATM   12  C   UNL     1      -8.637  18.728  66.445  1.00  0.00    -0.284 A  
HETATM   13  C   UNL     1      -6.521  18.634  67.533  1.00  0.00    -0.197 A  
HETATM   14  N   UNL     1      -5.907  19.396  66.551  1.00  0.00    -0.165 NA 
HETATM   15  C   UNL     1      -6.046  20.484  64.377  1.00  0.00    -0.338 C  
HETATM   16  N   UNL     1      -8.011  19.553  65.555  1.00  0.00    -0.321 NA 
HETATM   17  C   UNL     1      -6.670  19.805  65.577  1.00  0.00    -0.287 A  
ENDBRANCH   7   8
ENDBRANCH   4   7
ENDBRANCH   2   4
BRANCH   3  18
HETATM   18  C   UNL     1     -10.277  15.132  65.556  1.00  0.00    -0.405 C  
BRANCH  18  19
HETATM   19  C   UNL     1     -11.478  15.086  64.591  1.00  0.00    -0.381 C  
HETATM   20  H   UNL     1     -12.430  16.330  63.392  1.00  0.00     0.000 HD 
HETATM   21  O   UNL     1     -11.690  16.359  63.988  1.00  0.00    -1.044 OA 
ENDBRANCH  18  19
ENDBRANCH   3  18
BRANCH   3  22
HETATM   22  S   UNL     1     -12.128  14.014  67.377  1.00  0.00    -0.269 SA 
BRANCH  22  23
HETATM   23  S   UNL     1     -11.583  12.045  67.160  1.00  0.00    -0.277 SA 
BRANCH  23  24
HETATM   24  C   UNL     1     -11.196  11.442  68.844  1.00  0.00    -0.248 C  
BRANCH  24  25
HETATM   25  C   UNL     1     -12.342  11.220  69.828  1.00  0.00    -0.209 C  
HETATM   26  O   UNL     1     -12.367  12.334  70.751  1.00  0.00    -0.377 OA 
HETATM   27  C   UNL     1     -13.110  10.383  71.884  1.00  0.00    -0.563 C  
HETATM   28  C   UNL     1     -12.838  11.865  72.023  1.00  0.00    -0.143 C  
HETATM   29  C   UNL     1     -12.243   9.987  70.710  1.00  0.00    -0.408 C  
ENDBRANCH  24  25
ENDBRANCH  23  24
ENDBRANCH  22  23
ENDBRANCH   3  22
TORSDOF 9
ENDMDL
MODEL       49
REMARK 921   NORMALIZED FREE ENERGY PREDICTED BY IDOCK:   -5.03 KCAL/MOL
REMARK 922        TOTAL FREE ENERGY PREDICTED BY IDOCK:   -8.92 KCAL/MOL
REMARK 923 INTER-LIGAND FREE ENERGY PREDICTED BY IDOCK:   -8.17 KCAL/MOL
REMARK 924 INTRA-LIGAND FREE ENERGY PREDICTED BY IDOCK:   -0.75 KCAL/MOL
REMARK 927      BINDING AFFINITY PREDICTED BY RF-SCORE:    0.00 PKD
ROOT
HETATM    1  C   UNL     1     -10.495  11.149  63.628  1.00  0.00    -0.438 C  
HETATM    2  C   UNL     1     -10.697  11.679  65.036  1.00  0.00    -0.296 C  
HETATM    3  C   UNL     1     -10.323  11.001  66.161  1.00  0.00    -0.251 C  
ENDROOT
BRANCH   2   4
HETATM    4  N   UNL     1     -11.206  12.982  65.051  1.00  0.00    -0.291 N  
HETATM    5  C   UNL     1     -12.572  13.204  65.149  1.00  0.00    -0.465 C  
HETATM    6  O   UNL     1     -13.104  14.311  65.141  1.00  0.00    -0.704 OA 
BRANCH   4   7
HETATM    7  C   UNL     1     -10.329  14.126  64.756  1.00  0.00    -0.359 C  
BRANCH   7   8
HETATM    8  C   UNL     1     -10.243  15.212  65.804  1.00  0.00    -0.365 A  
HETATM    9  H2  UNL     1     -11.453  16.451  63.787  1.00  0.00     0.000 HD 
HETATM   10  H1  UNL     1     -11.481  18.089  64.368  1.00  0.00     0.000 HD 
HETATM   11  N   UNL     1     -11.221  17.116  64.526  1.00  0.00    -1.012 NA 
HETATM   12  C   UNL     1     -10.625  16.643  65.571  1.00  0.00    -0.258 A  
HETATM   13  C   UNL     1      -9.554  15.029  66.957  1.00  0.00    -0.225 A  
HETATM   14  N   UNL     1      -9.138  15.989  67.868  1.00  0.00    -0.187 NA 
HETATM   15  C   UNL     1      -8.927  18.344  68.451  1.00  0.00    -0.336 C  
HETATM   16  N   UNL     1     -10.277  17.536  66.543  1.00  0.00    -0.334 NA 
HETATM   17  C   UNL     1      -9.490  17.218  67.611  1.00  0.00    -0.246 A  
ENDBRANCH   7   8
ENDBRANCH   4   7
ENDBRANCH   2   4
BRANCH   3  18
HETATM   18  C   UNL     1     -10.216  11.627  67.555  1.00  0.00    -0.216 C  
BRANCH  18  19
HETATM   19  C   UNL     1     -11.551  12.090  68.170  1.00  0.00    -0.340 C  
HETATM   20  H   UNL     1     -13.150  11.259  68.972  1.00  0.00     0.000 HD 
HETATM   21  O   UNL     1     -12.328  10.974  68.592  1.00  0.00    -0.539 OA 
ENDBRANCH  18  19
ENDBRANCH   3  18
BRANCH   3  22
HETATM   22  S   UNL     1      -9.877   9.294  65.996  1.00  0.00    -0.248 SA 
BRANCH  22  23
HETATM   23  S   UNL     1      -7.882   9.318  66.485  1.00  0.00    -0.100 SA 
BRANCH  23  24
HETATM   24  C   UNL     1      -7.780   8.715  68.211  1.00  0.00    -0.101 C  
BRANCH  24  25
HETATM   25  C   UNL     1      -9.037   8.152  68.868  1.00  0.00    -0.147 C  
HETATM   26  O   UNL     1      -9.514   9.120  69.831  1.00  0.00    -0.166 OA 
HETATM   27  C   UNL     1     -10.038   6.939  70.614  1.00  0.00    -0.208 C  
HETATM   28  C   UNL     1     -10.140   8.419  70.916  1.00  0.00    -0.194 C  
HETATM   29  C   UNL     1      -8.865   6.868  69.661  1.00  0.00    -0.141 C  
ENDBRANCH  24  25
ENDBRANCH  23  24
ENDBRANCH  22  23
ENDBRANCH   3  22
TORSDOF 9
ENDMDL
MODEL       50
REMARK 921   NORMALIZED FREE ENERGY PREDICTED BY IDOCK:   -5.03 KCAL/MOL
REMARK 922        TOTAL FREE ENERGY PREDICTED BY IDOCK:   -8.92 KCAL/MOL
REMARK 923 INTER-LIGAND FREE ENERGY PREDICTED BY IDOCK:   -8.01 KCAL/MOL
REMARK 924 INTRA-LIGAND FREE ENERGY PREDICTED BY IDOCK:   -0.91 KCAL/MOL
REMARK 927      BINDING AFFINITY PREDICTED BY RF-SCORE:    0.00 PKD
ROOT
HETATM    1  C   UNL     1      -7.991  10.274  69.455  1.00  0.00    -0.171 C  
HETATM    2  C   UNL     1      -9.286   9.607  69.029  1.00  0.00    -0.159 C  
HETATM    3  C   UNL     1      -9.483   9.054  67.796  1.00  0.00    -0.141 C  
ENDROOT
BRANCH   2   4
HETATM    4  N   UNL     1     -10.214   9.521  70.073  1.00  0.00    -0.226 N  
HETATM    5  C   UNL     1      -9.899   8.839  71.240  1.00  0.00    -0.266 C  
HETATM    6  O   UNL     1     -10.661   8.692  72.192  1.00  0.00    -0.321 OA 
BRANCH   4   7
HETATM    7  C   UNL     1     -11.601   9.968  69.875  1.00  0.00    -0.175 C  
BRANCH   7   8
HETATM    8  C   UNL     1     -12.011  11.256  70.550  1.00  0.00    -0.467 A  
HETATM    9  H2  UNL     1     -13.234   9.416  72.028  1.00  0.00     0.000 HD 
HETATM   10  H1  UNL     1     -14.209  10.413  73.067  1.00  0.00     0.000 HD 
HETATM   11  N   UNL     1     -13.530  10.352  72.307  1.00  0.00    -0.253 NA 
HETATM   12  C   UNL     1     -13.008  11.345  71.666  1.00  0.00    -0.418 A  
HETATM   13  C   UNL     1     -11.707  12.464  70.014  1.00  0.00    -0.230 A  
HETATM   14  N   UNL     1     -12.241  13.702  70.336  1.00  0.00    -0.353 NA 
HETATM   15  C   UNL     1     -13.873  14.995  71.598  1.00  0.00    -0.571 C  
HETATM   16  N   UNL     1     -13.432  12.597  72.010  1.00  0.00    -0.484 NA 
HETATM   17  C   UNL     1     -13.111  13.720  71.307  1.00  0.00    -0.297 A  
ENDBRANCH   7   8
ENDBRANCH   4   7
ENDBRANCH   2   4
BRANCH   3  18
HETATM   18  C   UNL     1     -10.634   8.106  67.446  1.00  0.00    -0.325 C  
BRANCH  18  19
HETATM   19  C   UNL     1     -10.434   6.641  67.882  1.00  0.00    -0.219 C  
HETATM   20  H   UNL     1     -10.753   4.843  67.136  1.00  0.00     0.000 HD 
HETATM   21  O   UNL     1     -10.877   5.746  66.867  1.00  0.00    -0.295 OA 
ENDBRANCH  18  19
ENDBRANCH   3  18
BRANCH   3  22
HETATM   22  S   UNL     1      -8.301   9.410  66.525  1.00  0.00    -0.119 SA 
BRANCH  22  23
HETATM   23  S   UNL     1      -8.856  11.297  65.934  1.00  0.00    -0.129 SA 
BRANCH  23  24
HETATM   24  C   UNL     1     -10.257  11.071  64.778  1.00  0.00    -0.319 C  
BRANCH  24  25
HETATM   25  C   UNL     1     -11.297  12.182  64.657  1.00  0.00    -0.326 C  
HETATM   26  O   UNL     1     -10.640  13.360  64.132  1.00  0.00    -0.394 OA 
HETATM   27  C   UNL     1     -12.389  14.042  65.589  1.00  0.00    -0.502 C  
HETATM   28  C   UNL     1     -11.283  14.523  64.674  1.00  0.00    -0.353 C  
HETATM   29  C   UNL     1     -11.943  12.643  65.952  1.00  0.00    -0.497 C  
ENDBRANCH  24  25
ENDBRANCH  23  24
ENDBRANCH  22  23
ENDBRANCH   3  22
TORSDOF 9
ENDMDL
MODEL       51
REMARK 921   NORMALIZED FREE ENERGY PREDICTED BY IDOCK:   -5.03 KCAL/MOL
REMARK 922        TOTAL FREE ENERGY PREDICTED BY IDOCK:   -8.92 KCAL/MOL
REMARK 923 INTER-LIGAND FREE ENERGY PREDICTED BY IDOCK:   -8.00 KCAL/MOL
REMARK 924 INTRA-LIGAND FREE ENERGY PREDICTED BY IDOCK:   -0.91 KCAL/MOL
REMARK 927      BINDING AFFINITY PREDICTED BY RF-SCORE:    0.00 PKD
ROOT
HETATM    1  C   UNL     1     -10.822  15.948  65.078  1.00  0.00    -0.444 C  
HETATM    2  C   UNL     1     -11.184  14.756  65.945  1.00  0.00    -0.340 C  
HETATM    3  C   UNL     1     -11.322  14.822  67.302  1.00  0.00    -0.357 C  
ENDROOT
BRANCH   2   4
HETATM    4  N   UNL     1     -11.469  13.612  65.192  1.00  0.00    -0.309 N  
HETATM    5  C   UNL     1     -12.783  13.222  64.974  1.00  0.00    -0.375 C  
HETATM    6  O   UNL     1     -13.122  12.220  64.351  1.00  0.00    -0.780 OA 
BRANCH   4   7
HETATM    7  C   UNL     1     -10.390  12.694  64.796  1.00  0.00    -0.312 C  
BRANCH   7   8
HETATM    8  C   UNL     1     -10.038  11.590  65.766  1.00  0.00    -0.278 A  
HETATM    9  H2  UNL     1      -8.521  13.603  66.609  1.00  0.00     0.000 HD 
HETATM   10  H1  UNL     1      -7.549  12.811  67.812  1.00  0.00     0.000 HD 
HETATM   11  N   UNL     1      -8.287  12.746  67.111  1.00  0.00    -0.183 NA 
HETATM   12  C   UNL     1      -8.953  11.685  66.797  1.00  0.00    -0.189 A  
HETATM   13  C   UNL     1     -10.498  10.326  65.597  1.00  0.00    -0.082 A  
HETATM   14  N   UNL     1     -10.051   9.163  66.206  1.00  0.00    -0.280 NA 
HETATM   15  C   UNL     1      -8.432   8.071  67.660  1.00  0.00    -0.131 C  
HETATM   16  N   UNL     1      -8.614  10.527  67.437  1.00  0.00    -0.122 NA 
HETATM   17  C   UNL     1      -9.100   9.302  67.086  1.00  0.00    -0.130 A  
ENDBRANCH   7   8
ENDBRANCH   4   7
ENDBRANCH   2   4
BRANCH   3  18
HETATM   18  C   UNL     1     -11.989  13.741  68.158  1.00  0.00    -0.394 C  
BRANCH  18  19
HETATM   19  C   UNL     1     -12.061  14.050  69.666  1.00  0.00    -0.355 C  
HETATM   20  H   UNL     1     -12.299  13.047  71.348  1.00  0.00     0.000 HD 
HETATM   21  O   UNL     1     -12.255  12.856  70.418  1.00  0.00    -0.354 OA 
ENDBRANCH  18  19
ENDBRANCH   3  18
BRANCH   3  22
HETATM   22  S   UNL     1     -10.742  16.278  68.129  1.00  0.00    -0.333 SA 
BRANCH  22  23
HETATM   23  S   UNL     1      -8.719  15.937  68.238  1.00  0.00    -0.179 SA 
BRANCH  23  24
HETATM   24  C   UNL     1      -7.969  17.522  68.762  1.00  0.00    -0.238 C  
BRANCH  24  25
HETATM   25  C   UNL     1      -8.287  18.785  67.965  1.00  0.00    -0.289 C  
HETATM   26  O   UNL     1      -9.433  19.424  68.572  1.00  0.00    -0.351 OA 
HETATM   27  C   UNL     1      -9.474  19.839  66.234  1.00  0.00    -0.493 C  
HETATM   28  C   UNL     1     -10.186  20.088  67.546  1.00  0.00    -0.411 C  
HETATM   29  C   UNL     1      -8.680  18.582  66.512  1.00  0.00    -0.296 C  
ENDBRANCH  24  25
ENDBRANCH  23  24
ENDBRANCH  22  23
ENDBRANCH   3  22
TORSDOF 9
ENDMDL
MODEL       52
REMARK 921   NORMALIZED FREE ENERGY PREDICTED BY IDOCK:   -5.03 KCAL/MOL
REMARK 922        TOTAL FREE ENERGY PREDICTED BY IDOCK:   -8.91 KCAL/MOL
REMARK 923 INTER-LIGAND FREE ENERGY PREDICTED BY IDOCK:   -7.39 KCAL/MOL
REMARK 924 INTRA-LIGAND FREE ENERGY PREDICTED BY IDOCK:   -1.52 KCAL/MOL
REMARK 927      BINDING AFFINITY PREDICTED BY RF-SCORE:    0.00 PKD
ROOT
HETATM    1  C   UNL     1      -8.988  10.454  64.198  1.00  0.00    -0.251 C  
HETATM    2  C   UNL     1     -10.092  10.777  65.188  1.00  0.00    -0.299 C  
HETATM    3  C   UNL     1     -10.249  10.134  66.382  1.00  0.00    -0.221 C  
ENDROOT
BRANCH   2   4
HETATM    4  N   UNL     1     -10.859  11.879  64.794  1.00  0.00    -0.296 N  
HETATM    5  C   UNL     1     -12.009  11.702  64.038  1.00  0.00    -0.184 C  
HETATM    6  O   UNL     1     -12.724  12.612  63.628  1.00  0.00    -0.711 OA 
BRANCH   4   7
HETATM    7  C   UNL     1     -10.354  13.246  64.994  1.00  0.00    -0.340 C  
BRANCH   7   8
HETATM    8  C   UNL     1     -10.570  13.865  66.355  1.00  0.00    -0.280 A  
HETATM    9  H2  UNL     1      -7.989  13.232  66.413  1.00  0.00     0.000 HD 
HETATM   10  H1  UNL     1      -7.596  13.573  68.072  1.00  0.00     0.000 HD 
HETATM   11  N   UNL     1      -8.298  13.553  67.331  1.00  0.00    -0.186 NA 
HETATM   12  C   UNL     1      -9.539  13.894  67.443  1.00  0.00    -0.235 A  
HETATM   13  C   UNL     1     -11.809  14.202  66.791  1.00  0.00    -0.425 A  
HETATM   14  N   UNL     1     -12.210  14.499  68.085  1.00  0.00    -0.174 NA 
HETATM   15  C   UNL     1     -11.655  14.634  70.451  1.00  0.00    -0.326 C  
HETATM   16  N   UNL     1      -9.965  14.286  68.681  1.00  0.00    -0.237 NA 
HETATM   17  C   UNL     1     -11.275  14.501  68.993  1.00  0.00    -0.268 A  
ENDBRANCH   7   8
ENDBRANCH   4   7
ENDBRANCH   2   4
BRANCH   3  18
HETATM   18  C   UNL     1     -11.133  10.639  67.527  1.00  0.00    -0.367 C  
BRANCH  18  19
HETATM   19  C   UNL     1     -10.465  10.650  68.916  1.00  0.00    -0.210 C  
HETATM   20  H   UNL     1     -10.969  11.097  70.770  1.00  0.00     0.000 HD 
HETATM   21  O   UNL     1     -11.380  11.090  69.914  1.00  0.00    -0.268 OA 
ENDBRANCH  18  19
ENDBRANCH   3  18
BRANCH   3  22
HETATM   22  S   UNL     1      -9.333   8.642  66.654  1.00  0.00    -0.210 SA 
BRANCH  22  23
HETATM   23  S   UNL     1     -10.824   7.278  67.024  1.00  0.00    -0.130 SA 
BRANCH  23  24
HETATM   24  C   UNL     1     -10.273   6.314  68.478  1.00  0.00    -0.176 C  
BRANCH  24  25
HETATM   25  C   UNL     1     -11.194   6.225  69.693  1.00  0.00    -0.437 C  
HETATM   26  O   UNL     1     -11.466   7.570  70.152  1.00  0.00    -0.215 OA 
HETATM   27  C   UNL     1     -11.461   6.108  72.024  1.00  0.00    -0.366 C  
HETATM   28  C   UNL     1     -11.642   7.543  71.576  1.00  0.00    -0.272 C  
HETATM   29  C   UNL     1     -10.635   5.506  70.909  1.00  0.00    -0.309 C  
ENDBRANCH  24  25
ENDBRANCH  23  24
ENDBRANCH  22  23
ENDBRANCH   3  22
TORSDOF 9
ENDMDL
MODEL       53
REMARK 921   NORMALIZED FREE ENERGY PREDICTED BY IDOCK:   -5.01 KCAL/MOL
REMARK 922        TOTAL FREE ENERGY PREDICTED BY IDOCK:   -8.89 KCAL/MOL
REMARK 923 INTER-LIGAND FREE ENERGY PREDICTED BY IDOCK:   -8.18 KCAL/MOL
REMARK 924 INTRA-LIGAND FREE ENERGY PREDICTED BY IDOCK:   -0.71 KCAL/MOL
REMARK 927      BINDING AFFINITY PREDICTED BY RF-SCORE:    0.00 PKD
ROOT
HETATM    1  C   UNL     1     -11.707  12.114  67.600  1.00  0.00    -0.386 C  
HETATM    2  C   UNL     1     -11.395  13.122  66.509  1.00  0.00    -0.315 C  
HETATM    3  C   UNL     1     -11.219  14.456  66.739  1.00  0.00    -0.337 C  
ENDROOT
BRANCH   2   4
HETATM    4  N   UNL     1     -11.198  12.518  65.262  1.00  0.00    -0.295 N  
HETATM    5  C   UNL     1     -12.269  12.303  64.407  1.00  0.00    -0.402 C  
HETATM    6  O   UNL     1     -12.190  11.757  63.310  1.00  0.00    -0.489 OA 
BRANCH   4   7
HETATM    7  C   UNL     1      -9.899  11.916  64.925  1.00  0.00    -0.199 C  
BRANCH   7   8
HETATM    8  C   UNL     1      -9.410  10.795  65.813  1.00  0.00    -0.235 A  
HETATM    9  H2  UNL     1      -8.002  12.873  66.684  1.00  0.00     0.000 HD 
HETATM   10  H1  UNL     1      -6.906  12.098  67.788  1.00  0.00     0.000 HD 
HETATM   11  N   UNL     1      -7.676  12.013  67.124  1.00  0.00    -0.165 NA 
HETATM   12  C   UNL     1      -8.279  10.920  66.787  1.00  0.00    -0.140 A  
HETATM   13  C   UNL     1      -9.784   9.509  65.598  1.00  0.00    -0.290 A  
HETATM   14  N   UNL     1      -9.217   8.354  66.117  1.00  0.00    -0.202 NA 
HETATM   15  C   UNL     1      -7.442   7.318  67.421  1.00  0.00    -0.096 C  
HETATM   16  N   UNL     1      -7.818   9.761  67.344  1.00  0.00    -0.099 NA 
HETATM   17  C   UNL     1      -8.231   8.522  66.952  1.00  0.00    -0.106 A  
ENDBRANCH   7   8
ENDBRANCH   4   7
ENDBRANCH   2   4
BRANCH   3  18
HETATM   18  C   UNL     1     -10.597  15.433  65.736  1.00  0.00    -0.361 C  
BRANCH  18  19
HETATM   19  C   UNL     1     -11.495  15.807  64.541  1.00  0.00    -0.289 C  
HETATM   20  H   UNL     1     -11.916  17.419  63.485  1.00  0.00     0.000 HD 
HETATM   21  O   UNL     1     -11.363  17.189  64.222  1.00  0.00    -1.126 OA 
ENDBRANCH  18  19
ENDBRANCH   3  18
BRANCH   3  22
HETATM   22  S   UNL     1     -11.690  15.099  68.321  1.00  0.00    -0.258 SA 
BRANCH  22  23
HETATM   23  S   UNL     1      -9.880  15.655  69.120  1.00  0.00    -0.264 SA 
BRANCH  23  24
HETATM   24  C   UNL     1      -9.935  17.478  69.269  1.00  0.00    -0.107 C  
BRANCH  24  25
HETATM   25  C   UNL     1      -9.801  18.324  68.006  1.00  0.00    -0.330 C  
HETATM   26  O   UNL     1      -8.392  18.502  67.730  1.00  0.00    -0.253 OA 
HETATM   27  C   UNL     1      -9.567  20.433  66.999  1.00  0.00    -0.571 C  
HETATM   28  C   UNL     1      -8.205  19.782  67.106  1.00  0.00    -0.298 C  
HETATM   29  C   UNL     1     -10.364  19.733  68.076  1.00  0.00    -0.567 C  
ENDBRANCH  24  25
ENDBRANCH  23  24
ENDBRANCH  22  23
ENDBRANCH   3  22
TORSDOF 9
ENDMDL
MODEL       54
REMARK 921   NORMALIZED FREE ENERGY PREDICTED BY IDOCK:   -5.01 KCAL/MOL
REMARK 922        TOTAL FREE ENERGY PREDICTED BY IDOCK:   -8.89 KCAL/MOL
REMARK 923 INTER-LIGAND FREE ENERGY PREDICTED BY IDOCK:   -8.08 KCAL/MOL
REMARK 924 INTRA-LIGAND FREE ENERGY PREDICTED BY IDOCK:   -0.81 KCAL/MOL
REMARK 927      BINDING AFFINITY PREDICTED BY RF-SCORE:    0.00 PKD
ROOT
HETATM    1  C   UNL     1     -12.197  13.458  66.985  1.00  0.00    -0.321 C  
HETATM    2  C   UNL     1     -10.685  13.364  67.073  1.00  0.00    -0.268 C  
HETATM    3  C   UNL     1      -9.867  14.445  67.234  1.00  0.00    -0.247 C  
ENDROOT
BRANCH   2   4
HETATM    4  N   UNL     1     -10.230  12.040  67.084  1.00  0.00    -0.201 N  
HETATM    5  C   UNL     1     -10.445  11.212  65.992  1.00  0.00    -0.256 C  
HETATM    6  O   UNL     1     -10.105  10.034  65.929  1.00  0.00    -0.264 OA 
BRANCH   4   7
HETATM    7  C   UNL     1      -9.704  11.445  68.323  1.00  0.00    -0.202 C  
BRANCH   7   8
HETATM    8  C   UNL     1     -10.646  10.570  69.117  1.00  0.00    -0.258 A  
HETATM    9  H2  UNL     1     -11.552  13.013  69.640  1.00  0.00     0.000 HD 
HETATM   10  H1  UNL     1     -12.739  12.677  70.865  1.00  0.00     0.000 HD 
HETATM   11  N   UNL     1     -12.032  12.324  70.220  1.00  0.00    -0.335 NA 
HETATM   12  C   UNL     1     -11.685  11.089  70.065  1.00  0.00    -0.355 A  
HETATM   13  C   UNL     1     -10.439   9.235  69.236  1.00  0.00    -0.218 A  
HETATM   14  N   UNL     1     -11.019   8.356  70.139  1.00  0.00    -0.238 NA 
HETATM   15  C   UNL     1     -12.453   8.017  72.078  1.00  0.00    -0.357 C  
HETATM   16  N   UNL     1     -12.296  10.168  70.868  1.00  0.00    -0.337 NA 
HETATM   17  C   UNL     1     -11.908   8.862  70.947  1.00  0.00    -0.240 A  
ENDBRANCH   7   8
ENDBRANCH   4   7
ENDBRANCH   2   4
BRANCH   3  18
HETATM   18  C   UNL     1      -8.393  14.364  67.644  1.00  0.00    -0.186 C  
BRANCH  18  19
HETATM   19  C   UNL     1      -7.543  15.599  67.287  1.00  0.00    -0.214 C  
HETATM   20  H   UNL     1      -5.875  16.447  67.910  1.00  0.00     0.000 HD 
HETATM   21  O   UNL     1      -6.399  15.686  68.130  1.00  0.00    -0.107 OA 
ENDBRANCH  18  19
ENDBRANCH   3  18
BRANCH   3  22
HETATM   22  S   UNL     1     -10.564  16.059  67.006  1.00  0.00    -0.274 SA 
BRANCH  22  23
HETATM   23  S   UNL     1     -10.384  16.877  68.883  1.00  0.00    -0.349 SA 
BRANCH  23  24
HETATM   24  C   UNL     1     -10.932  15.579  70.052  1.00  0.00    -0.319 C  
BRANCH  24  25
HETATM   25  C   UNL     1     -11.896  15.959  71.172  1.00  0.00    -0.438 C  
HETATM   26  O   UNL     1     -11.434  15.339  72.395  1.00  0.00    -0.454 OA 
HETATM   27  C   UNL     1     -13.806  15.470  72.450  1.00  0.00    -0.662 C  
HETATM   28  C   UNL     1     -12.574  15.028  73.211  1.00  0.00    -0.485 C  
HETATM   29  C   UNL     1     -13.331  15.485  71.014  1.00  0.00    -0.495 C  
ENDBRANCH  24  25
ENDBRANCH  23  24
ENDBRANCH  22  23
ENDBRANCH   3  22
TORSDOF 9
ENDMDL
MODEL       55
REMARK 921   NORMALIZED FREE ENERGY PREDICTED BY IDOCK:   -5.01 KCAL/MOL
REMARK 922        TOTAL FREE ENERGY PREDICTED BY IDOCK:   -8.88 KCAL/MOL
REMARK 923 INTER-LIGAND FREE ENERGY PREDICTED BY IDOCK:   -8.00 KCAL/MOL
REMARK 924 INTRA-LIGAND FREE ENERGY PREDICTED BY IDOCK:   -0.88 KCAL/MOL
REMARK 927      BINDING AFFINITY PREDICTED BY RF-SCORE:    0.00 PKD
ROOT
HETATM    1  C   UNL     1      -9.257  12.265  66.332  1.00  0.00    -0.203 C  
HETATM    2  C   UNL     1     -10.625  12.035  66.947  1.00  0.00    -0.229 C  
HETATM    3  C   UNL     1     -10.821  11.399  68.140  1.00  0.00    -0.213 C  
ENDROOT
BRANCH   2   4
HETATM    4  N   UNL     1     -11.651  12.643  66.215  1.00  0.00    -0.364 N  
HETATM    5  C   UNL     1     -12.026  12.140  64.977  1.00  0.00    -0.281 C  
HETATM    6  O   UNL     1     -12.894  12.626  64.258  1.00  0.00    -0.699 OA 
BRANCH   4   7
HETATM    7  C   UNL     1     -12.205  13.936  66.644  1.00  0.00    -0.424 C  
BRANCH   7   8
HETATM    8  C   UNL     1     -11.255  15.111  66.682  1.00  0.00    -0.274 A  
HETATM    9  H2  UNL     1     -12.140  15.005  69.186  1.00  0.00     0.000 HD 
HETATM   10  H1  UNL     1     -11.454  16.459  69.847  1.00  0.00     0.000 HD 
HETATM   11  N   UNL     1     -11.574  15.842  69.043  1.00  0.00    -0.390 NA 
HETATM   12  C   UNL     1     -11.079  16.018  67.862  1.00  0.00    -0.307 A  
HETATM   13  C   UNL     1     -10.687  15.597  65.551  1.00  0.00    -0.389 A  
HETATM   14  N   UNL     1     -10.043  16.813  65.370  1.00  0.00    -0.596 NA 
HETATM   15  C   UNL     1      -9.402  18.978  66.281  1.00  0.00    -0.319 C  
HETATM   16  N   UNL     1     -10.355  17.158  67.656  1.00  0.00    -0.333 NA 
HETATM   17  C   UNL     1      -9.926  17.566  66.428  1.00  0.00    -0.325 A  
ENDBRANCH   7   8
ENDBRANCH   4   7
ENDBRANCH   2   4
BRANCH   3  18
HETATM   18  C   UNL     1     -12.130  11.433  68.934  1.00  0.00    -0.285 C  
BRANCH  18  19
HETATM   19  C   UNL     1     -12.097  12.284  70.219  1.00  0.00    -0.295 C  
HETATM   20  H   UNL     1     -12.757  12.147  72.073  1.00  0.00     0.000 HD 
HETATM   21  O   UNL     1     -12.778  11.623  71.281  1.00  0.00    -0.393 OA 
ENDBRANCH  18  19
ENDBRANCH   3  18
BRANCH   3  22
HETATM   22  S   UNL     1      -9.457  10.518  68.849  1.00  0.00    -0.197 SA 
BRANCH  22  23
HETATM   23  S   UNL     1     -10.364   8.816  69.559  1.00  0.00    -0.215 SA 
BRANCH  23  24
HETATM   24  C   UNL     1      -9.184   7.451  69.250  1.00  0.00    -0.147 C  
BRANCH  24  25
HETATM   25  C   UNL     1      -9.633   6.272  68.391  1.00  0.00    -0.121 C  
HETATM   26  O   UNL     1      -8.597   6.002  67.418  1.00  0.00    -0.105 OA 
HETATM   27  C   UNL     1     -10.705   5.466  66.462  1.00  0.00    -0.309 C  
HETATM   28  C   UNL     1      -9.211   5.500  66.221  1.00  0.00    -0.155 C  
HETATM   29  C   UNL     1     -10.894   6.480  67.568  1.00  0.00    -0.433 C  
ENDBRANCH  24  25
ENDBRANCH  23  24
ENDBRANCH  22  23
ENDBRANCH   3  22
TORSDOF 9
ENDMDL
MODEL       56
REMARK 921   NORMALIZED FREE ENERGY PREDICTED BY IDOCK:   -5.00 KCAL/MOL
REMARK 922        TOTAL FREE ENERGY PREDICTED BY IDOCK:   -8.87 KCAL/MOL
REMARK 923 INTER-LIGAND FREE ENERGY PREDICTED BY IDOCK:   -7.91 KCAL/MOL
REMARK 924 INTRA-LIGAND FREE ENERGY PREDICTED BY IDOCK:   -0.96 KCAL/MOL
REMARK 927      BINDING AFFINITY PREDICTED BY RF-SCORE:    0.00 PKD
ROOT
HETATM    1  C   UNL     1     -11.972  13.870  66.567  1.00  0.00    -0.470 C  
HETATM    2  C   UNL     1     -10.471  13.702  66.722  1.00  0.00    -0.270 C  
HETATM    3  C   UNL     1      -9.584  14.738  66.653  1.00  0.00    -0.272 C  
ENDROOT
BRANCH   2   4
HETATM    4  N   UNL     1     -10.109  12.392  67.053  1.00  0.00    -0.213 N  
HETATM    5  C   UNL     1     -10.214  11.375  66.115  1.00  0.00    -0.239 C  
HETATM    6  O   UNL     1      -9.945  10.196  66.329  1.00  0.00    -0.217 OA 
BRANCH   4   7
HETATM    7  C   UNL     1      -9.812  12.033  68.448  1.00  0.00    -0.204 C  
BRANCH   7   8
HETATM    8  C   UNL     1     -10.926  11.394  69.245  1.00  0.00    -0.282 A  
HETATM    9  H2  UNL     1     -11.531  13.978  69.380  1.00  0.00     0.000 HD 
HETATM   10  H1  UNL     1     -12.849  13.957  70.513  1.00  0.00     0.000 HD 
HETATM   11  N   UNL     1     -12.146  13.437  69.988  1.00  0.00    -0.339 NA 
HETATM   12  C   UNL     1     -11.959  12.158  70.017  1.00  0.00    -0.315 A  
HETATM   13  C   UNL     1     -10.913  10.071  69.543  1.00  0.00    -0.253 A  
HETATM   14  N   UNL     1     -11.679   9.398  70.483  1.00  0.00    -0.238 NA 
HETATM   15  C   UNL     1     -13.300   9.498  72.297  1.00  0.00    -0.526 C  
HETATM   16  N   UNL     1     -12.753  11.435  70.860  1.00  0.00    -0.332 NA 
HETATM   17  C   UNL     1     -12.554  10.113  71.132  1.00  0.00    -0.386 A  
ENDBRANCH   7   8
ENDBRANCH   4   7
ENDBRANCH   2   4
BRANCH   3  18
HETATM   18  C   UNL     1      -8.125  14.660  67.116  1.00  0.00    -0.213 C  
BRANCH  18  19
HETATM   19  C   UNL     1      -7.288  15.929  66.863  1.00  0.00    -0.172 C  
HETATM   20  H   UNL     1      -6.300  17.259  67.933  1.00  0.00     0.000 HD 
HETATM   21  O   UNL     1      -6.816  16.477  68.090  1.00  0.00    -0.131 OA 
ENDBRANCH  18  19
ENDBRANCH   3  18
BRANCH   3  22
HETATM   22  S   UNL     1     -10.164  16.295  66.037  1.00  0.00    -0.372 SA 
BRANCH  22  23
HETATM   23  S   UNL     1     -10.684  17.277  67.765  1.00  0.00    -0.275 SA 
BRANCH  23  24
HETATM   24  C   UNL     1     -10.737  19.056  67.336  1.00  0.00    -0.473 C  
BRANCH  24  25
HETATM   25  C   UNL     1      -9.432  19.848  67.326  1.00  0.00    -0.365 C  
HETATM   26  O   UNL     1      -8.751  19.579  66.079  1.00  0.00    -0.387 OA 
HETATM   27  C   UNL     1      -7.128  19.959  67.772  1.00  0.00    -0.309 C  
HETATM   28  C   UNL     1      -7.335  19.642  66.306  1.00  0.00    -0.273 C  
HETATM   29  C   UNL     1      -8.422  19.496  68.404  1.00  0.00    -0.387 C  
ENDBRANCH  24  25
ENDBRANCH  23  24
ENDBRANCH  22  23
ENDBRANCH   3  22
TORSDOF 9
ENDMDL
MODEL       57
REMARK 921   NORMALIZED FREE ENERGY PREDICTED BY IDOCK:   -4.99 KCAL/MOL
REMARK 922        TOTAL FREE ENERGY PREDICTED BY IDOCK:   -8.85 KCAL/MOL
REMARK 923 INTER-LIGAND FREE ENERGY PREDICTED BY IDOCK:   -8.04 KCAL/MOL
REMARK 924 INTRA-LIGAND FREE ENERGY PREDICTED BY IDOCK:   -0.81 KCAL/MOL
REMARK 927      BINDING AFFINITY PREDICTED BY RF-SCORE:    0.00 PKD
ROOT
HETATM    1  C   UNL     1     -11.513  14.233  68.697  1.00  0.00    -0.328 C  
HETATM    2  C   UNL     1     -11.130  14.963  67.422  1.00  0.00    -0.325 C  
HETATM    3  C   UNL     1     -10.479  16.163  67.404  1.00  0.00    -0.310 C  
ENDROOT
BRANCH   2   4
HETATM    4  N   UNL     1     -11.416  14.219  66.272  1.00  0.00    -0.347 N  
HETATM    5  C   UNL     1     -12.729  14.023  65.869  1.00  0.00    -0.397 C  
HETATM    6  O   UNL     1     -13.069  13.363  64.891  1.00  0.00    -0.723 OA 
BRANCH   4   7
HETATM    7  C   UNL     1     -10.352  13.465  65.591  1.00  0.00    -0.290 C  
BRANCH   7   8
HETATM    8  C   UNL     1      -9.554  12.495  66.431  1.00  0.00    -0.247 A  
HETATM    9  H2  UNL     1     -11.991  11.436  66.491  1.00  0.00     0.000 HD 
HETATM   10  H1  UNL     1     -11.774  10.159  67.651  1.00  0.00     0.000 HD 
HETATM   11  N   UNL     1     -11.370  10.937  67.129  1.00  0.00    -0.406 NA 
HETATM   12  C   UNL     1     -10.148  11.352  67.198  1.00  0.00    -0.198 A  
HETATM   13  C   UNL     1      -8.266  12.750  66.774  1.00  0.00     0.068 A  
HETATM   14  N   UNL     1      -7.502  12.131  67.751  1.00  0.00    -0.111 NA 
HETATM   15  C   UNL     1      -7.376  10.544  69.593  1.00  0.00    -0.151 C  
HETATM   16  N   UNL     1      -9.325  10.713  68.081  1.00  0.00    -0.147 NA 
HETATM   17  C   UNL     1      -8.071  11.150  68.393  1.00  0.00    -0.141 A  
ENDBRANCH   7   8
ENDBRANCH   4   7
ENDBRANCH   2   4
BRANCH   3  18
HETATM   18  C   UNL     1      -9.802  16.763  66.168  1.00  0.00    -0.330 C  
BRANCH  18  19
HETATM   19  C   UNL     1     -10.736  17.542  65.221  1.00  0.00     0.086 C  
HETATM   20  H   UNL     1     -11.814  17.173  63.611  1.00  0.00     0.000 HD 
HETATM   21  O   UNL     1     -11.238  16.692  64.195  1.00  0.00    -1.103 OA 
ENDBRANCH  18  19
ENDBRANCH   3  18
BRANCH   3  22
HETATM   22  S   UNL     1     -10.360  17.070  68.922  1.00  0.00    -0.343 SA 
BRANCH  22  23
HETATM   23  S   UNL     1     -10.229  19.010  68.258  1.00  0.00    -0.363 SA 
BRANCH  23  24
HETATM   24  C   UNL     1      -8.447  19.425  68.266  1.00  0.00    -0.341 C  
BRANCH  24  25
HETATM   25  C   UNL     1      -7.874  20.231  67.102  1.00  0.00    -0.333 C  
HETATM   26  O   UNL     1      -7.446  19.304  66.078  1.00  0.00    -0.266 OA 
HETATM   27  C   UNL     1      -6.024  21.207  66.034  1.00  0.00    -0.304 C  
HETATM   28  C   UNL     1      -6.316  19.866  65.394  1.00  0.00    -0.250 C  
HETATM   29  C   UNL     1      -6.645  21.070  67.406  1.00  0.00    -0.439 C  
ENDBRANCH  24  25
ENDBRANCH  23  24
ENDBRANCH  22  23
ENDBRANCH   3  22
TORSDOF 9
ENDMDL
MODEL       58
REMARK 921   NORMALIZED FREE ENERGY PREDICTED BY IDOCK:   -4.99 KCAL/MOL
REMARK 922        TOTAL FREE ENERGY PREDICTED BY IDOCK:   -8.85 KCAL/MOL
REMARK 923 INTER-LIGAND FREE ENERGY PREDICTED BY IDOCK:   -9.01 KCAL/MOL
REMARK 924 INTRA-LIGAND FREE ENERGY PREDICTED BY IDOCK:    0.16 KCAL/MOL
REMARK 927      BINDING AFFINITY PREDICTED BY RF-SCORE:    0.00 PKD
ROOT
HETATM    1  C   UNL     1      -9.329  14.081  67.657  1.00  0.00    -0.203 C  
HETATM    2  C   UNL     1     -10.422  14.137  66.606  1.00  0.00    -0.278 C  
HETATM    3  C   UNL     1     -11.137  13.047  66.199  1.00  0.00    -0.287 C  
ENDROOT
BRANCH   2   4
HETATM    4  N   UNL     1     -10.694  15.443  66.183  1.00  0.00    -0.310 N  
HETATM    5  C   UNL     1     -10.949  15.711  64.846  1.00  0.00    -0.431 C  
HETATM    6  O   UNL     1     -11.169  16.828  64.386  1.00  0.00    -1.112 OA 
BRANCH   4   7
HETATM    7  C   UNL     1     -10.511  16.576  67.103  1.00  0.00    -0.300 C  
BRANCH   7   8
HETATM    8  C   UNL     1      -9.378  17.529  66.801  1.00  0.00    -0.275 A  
HETATM    9  H2  UNL     1     -11.513  19.103  66.639  1.00  0.00     0.000 HD 
HETATM   10  H1  UNL     1     -10.804  20.571  66.035  1.00  0.00     0.000 HD 
HETATM   11  N   UNL     1     -10.678  19.604  66.333  1.00  0.00    -0.456 NA 
HETATM   12  C   UNL     1      -9.563  18.950  66.362  1.00  0.00    -0.351 A  
HETATM   13  C   UNL     1      -8.105  17.087  66.643  1.00  0.00    -0.262 A  
HETATM   14  N   UNL     1      -7.027  17.763  66.090  1.00  0.00    -0.278 NA 
HETATM   15  C   UNL     1      -6.181  19.735  64.942  1.00  0.00    -0.318 C  
HETATM   16  N   UNL     1      -8.450  19.603  65.915  1.00  0.00    -0.412 NA 
HETATM   17  C   UNL     1      -7.247  18.992  65.717  1.00  0.00    -0.230 A  
ENDBRANCH   7   8
ENDBRANCH   4   7
ENDBRANCH   2   4
BRANCH   3  18
HETATM   18  C   UNL     1     -12.440  13.116  65.396  1.00  0.00    -0.535 C  
BRANCH  18  19
HETATM   19  C   UNL     1     -12.367  12.519  63.976  1.00  0.00    -0.469 C  
HETATM   20  H   UNL     1     -12.674  13.127  62.125  1.00  0.00     0.000 HD 
HETATM   21  O   UNL     1     -12.719  13.494  63.000  1.00  0.00    -0.668 OA 
ENDBRANCH  18  19
ENDBRANCH   3  18
BRANCH   3  22
HETATM   22  S   UNL     1     -10.553  11.443  66.673  1.00  0.00    -0.267 SA 
BRANCH  22  23
HETATM   23  S   UNL     1     -11.780  10.985  68.256  1.00  0.00    -0.140 SA 
BRANCH  23  24
HETATM   24  C   UNL     1     -10.718  10.150  69.491  1.00  0.00    -0.249 C  
BRANCH  24  25
HETATM   25  C   UNL     1     -10.277   8.713  69.229  1.00  0.00    -0.211 C  
HETATM   26  O   UNL     1     -10.695   8.349  67.893  1.00  0.00    -0.182 OA 
HETATM   27  C   UNL     1     -10.751   6.412  69.268  1.00  0.00    -0.349 C  
HETATM   28  C   UNL     1     -10.990   6.944  67.871  1.00  0.00    -0.183 C  
HETATM   29  C   UNL     1     -10.882   7.649  70.129  1.00  0.00    -0.255 C  
ENDBRANCH  24  25
ENDBRANCH  23  24
ENDBRANCH  22  23
ENDBRANCH   3  22
TORSDOF 9
ENDMDL
MODEL       59
REMARK 921   NORMALIZED FREE ENERGY PREDICTED BY IDOCK:   -4.98 KCAL/MOL
REMARK 922        TOTAL FREE ENERGY PREDICTED BY IDOCK:   -8.84 KCAL/MOL
REMARK 923 INTER-LIGAND FREE ENERGY PREDICTED BY IDOCK:   -7.33 KCAL/MOL
REMARK 924 INTRA-LIGAND FREE ENERGY PREDICTED BY IDOCK:   -1.51 KCAL/MOL
REMARK 927      BINDING AFFINITY PREDICTED BY RF-SCORE:    0.00 PKD
ROOT
HETATM    1  C   UNL     1     -11.348  13.954  65.783  1.00  0.00    -0.308 C  
HETATM    2  C   UNL     1     -10.244  13.129  66.418  1.00  0.00    -0.286 C  
HETATM    3  C   UNL     1      -9.336  13.635  67.304  1.00  0.00    -0.233 C  
ENDROOT
BRANCH   2   4
HETATM    4  N   UNL     1     -10.328  11.773  66.085  1.00  0.00    -0.223 N  
HETATM    5  C   UNL     1      -9.518  11.240  65.092  1.00  0.00    -0.215 C  
HETATM    6  O   UNL     1      -9.546  10.071  64.718  1.00  0.00    -0.283 OA 
BRANCH   4   7
HETATM    7  C   UNL     1     -11.411  10.939  66.629  1.00  0.00     0.161 C  
BRANCH   7   8
HETATM    8  C   UNL     1     -11.172  10.296  67.975  1.00  0.00    -0.303 A  
HETATM    9  H2  UNL     1     -12.361  12.580  68.632  1.00  0.00     0.000 HD 
HETATM   10  H1  UNL     1     -12.208  12.553  70.364  1.00  0.00     0.000 HD 
HETATM   11  N   UNL     1     -12.031  12.096  69.468  1.00  0.00    -0.297 NA 
HETATM   12  C   UNL     1     -11.431  10.966  69.290  1.00  0.00    -0.302 A  
HETATM   13  C   UNL     1     -10.445   9.157  68.095  1.00  0.00    -0.211 A  
HETATM   14  N   UNL     1      -9.897   8.608  69.245  1.00  0.00    -0.184 NA 
HETATM   15  C   UNL     1      -9.439   8.811  71.628  1.00  0.00    -0.358 C  
HETATM   16  N   UNL     1     -10.952  10.336  70.404  1.00  0.00    -0.308 NA 
HETATM   17  C   UNL     1     -10.146   9.237  70.359  1.00  0.00    -0.236 A  
ENDBRANCH   7   8
ENDBRANCH   4   7
ENDBRANCH   2   4
BRANCH   3  18
HETATM   18  C   UNL     1      -8.429  12.782  68.196  1.00  0.00    -0.177 C  
BRANCH  18  19
HETATM   19  C   UNL     1      -7.009  12.538  67.647  1.00  0.00    -0.139 C  
HETATM   20  H   UNL     1      -5.150  12.794  68.253  1.00  0.00     0.000 HD 
HETATM   21  O   UNL     1      -6.024  12.945  68.591  1.00  0.00    -0.065 OA 
ENDBRANCH  18  19
ENDBRANCH   3  18
BRANCH   3  22
HETATM   22  S   UNL     1      -9.231  15.395  67.478  1.00  0.00    -0.201 SA 
BRANCH  22  23
HETATM   23  S   UNL     1      -9.467  15.646  69.503  1.00  0.00    -0.231 SA 
BRANCH  23  24
HETATM   24  C   UNL     1     -11.249  15.970  69.766  1.00  0.00    -0.344 C  
BRANCH  24  25
HETATM   25  C   UNL     1     -11.931  15.378  70.997  1.00  0.00    -0.359 C  
HETATM   26  O   UNL     1     -13.342  15.243  70.710  1.00  0.00    -0.416 OA 
HETATM   27  C   UNL     1     -13.070  15.693  73.026  1.00  0.00    -0.641 C  
HETATM   28  C   UNL     1     -14.078  15.424  71.929  1.00  0.00    -0.537 C  
HETATM   29  C   UNL     1     -11.870  16.211  72.266  1.00  0.00    -0.631 C  
ENDBRANCH  24  25
ENDBRANCH  23  24
ENDBRANCH  22  23
ENDBRANCH   3  22
TORSDOF 9
ENDMDL
MODEL       60
REMARK 921   NORMALIZED FREE ENERGY PREDICTED BY IDOCK:   -4.97 KCAL/MOL
REMARK 922        TOTAL FREE ENERGY PREDICTED BY IDOCK:   -8.82 KCAL/MOL
REMARK 923 INTER-LIGAND FREE ENERGY PREDICTED BY IDOCK:   -8.08 KCAL/MOL
REMARK 924 INTRA-LIGAND FREE ENERGY PREDICTED BY IDOCK:   -0.75 KCAL/MOL
REMARK 927      BINDING AFFINITY PREDICTED BY RF-SCORE:    0.00 PKD
ROOT
HETATM    1  C   UNL     1     -12.029  12.813  66.275  1.00  0.00    -0.460 C  
HETATM    2  C   UNL     1     -10.869  12.729  67.250  1.00  0.00    -0.251 C  
HETATM    3  C   UNL     1      -9.826  11.859  67.113  1.00  0.00    -0.194 C  
ENDROOT
BRANCH   2   4
HETATM    4  N   UNL     1     -10.929  13.716  68.241  1.00  0.00    -0.245 N  
HETATM    5  C   UNL     1     -12.021  13.792  69.094  1.00  0.00    -0.361 C  
HETATM    6  O   UNL     1     -12.167  14.640  69.970  1.00  0.00    -0.307 OA 
BRANCH   4   7
HETATM    7  C   UNL     1      -9.945  14.809  68.262  1.00  0.00    -0.222 C  
BRANCH   7   8
HETATM    8  C   UNL     1     -10.325  16.089  67.553  1.00  0.00    -0.287 A  
HETATM    9  H2  UNL     1      -9.696  14.477  65.535  1.00  0.00     0.000 HD 
HETATM   10  H1  UNL     1      -9.753  15.581  64.193  1.00  0.00     0.000 HD 
HETATM   11  N   UNL     1      -9.857  15.426  65.196  1.00  0.00    -0.269 NA 
HETATM   12  C   UNL     1     -10.172  16.316  66.079  1.00  0.00    -0.358 A  
HETATM   13  C   UNL     1     -10.581  17.229  68.241  1.00  0.00    -0.383 A  
HETATM   14  N   UNL     1     -10.654  18.525  67.753  1.00  0.00    -0.406 NA 
HETATM   15  C   UNL     1     -10.389  20.056  65.878  1.00  0.00    -0.529 C  
HETATM   16  N   UNL     1     -10.348  17.595  65.635  1.00  0.00    -0.635 NA 
HETATM   17  C   UNL     1     -10.504  18.666  66.466  1.00  0.00    -0.420 A  
ENDBRANCH   7   8
ENDBRANCH   4   7
ENDBRANCH   2   4
BRANCH   3  18
HETATM   18  C   UNL     1      -8.504  11.963  67.880  1.00  0.00    -0.154 C  
BRANCH  18  19
HETATM   19  C   UNL     1      -7.248  11.565  67.080  1.00  0.00    -0.146 C  
HETATM   20  H   UNL     1      -5.525  12.381  66.574  1.00  0.00     0.000 HD 
HETATM   21  O   UNL     1      -6.299  12.626  67.067  1.00  0.00    -0.212 OA 
ENDBRANCH  18  19
ENDBRANCH   3  18
BRANCH   3  22
HETATM   22  S   UNL     1      -9.984  10.548  65.931  1.00  0.00    -0.264 SA 
BRANCH  22  23
HETATM   23  S   UNL     1     -10.186   8.898  67.138  1.00  0.00    -0.281 SA 
BRANCH  23  24
HETATM   24  C   UNL     1     -10.891   9.509  68.712  1.00  0.00    -0.142 C  
BRANCH  24  25
HETATM   25  C   UNL     1     -10.760   8.643  69.962  1.00  0.00    -0.228 C  
HETATM   26  O   UNL     1     -11.955   8.815  70.758  1.00  0.00    -0.246 OA 
HETATM   27  C   UNL     1     -10.118   8.419  72.211  1.00  0.00    -0.382 C  
HETATM   28  C   UNL     1     -11.608   8.680  72.144  1.00  0.00    -0.370 C  
HETATM   29  C   UNL     1      -9.615   8.985  70.901  1.00  0.00    -0.328 C  
ENDBRANCH  24  25
ENDBRANCH  23  24
ENDBRANCH  22  23
ENDBRANCH   3  22
TORSDOF 9
ENDMDL
MODEL       61
REMARK 921   NORMALIZED FREE ENERGY PREDICTED BY IDOCK:   -4.96 KCAL/MOL
REMARK 922        TOTAL FREE ENERGY PREDICTED BY IDOCK:   -8.82 KCAL/MOL
REMARK 923 INTER-LIGAND FREE ENERGY PREDICTED BY IDOCK:   -8.01 KCAL/MOL
REMARK 924 INTRA-LIGAND FREE ENERGY PREDICTED BY IDOCK:   -0.80 KCAL/MOL
REMARK 927      BINDING AFFINITY PREDICTED BY RF-SCORE:    0.00 PKD
ROOT
HETATM    1  C   UNL     1      -8.701  11.779  68.289  1.00  0.00    -0.167 C  
HETATM    2  C   UNL     1     -10.196  11.591  68.468  1.00  0.00    -0.213 C  
HETATM    3  C   UNL     1     -10.747  10.734  69.377  1.00  0.00    -0.233 C  
ENDROOT
BRANCH   2   4
HETATM    4  N   UNL     1     -10.945  12.473  67.681  1.00  0.00    -0.233 N  
HETATM    5  C   UNL     1     -11.782  11.990  66.684  1.00  0.00    -0.256 C  
HETATM    6  O   UNL     1     -12.452  12.692  65.932  1.00  0.00    -0.584 OA 
BRANCH   4   7
HETATM    7  C   UNL     1     -10.707  13.922  67.754  1.00  0.00    -0.246 C  
BRANCH   7   8
HETATM    8  C   UNL     1     -11.318  14.660  68.923  1.00  0.00    -0.305 A  
HETATM    9  H2  UNL     1      -9.210  16.167  68.330  1.00  0.00     0.000 HD 
HETATM   10  H1  UNL     1      -9.223  17.297  69.651  1.00  0.00     0.000 HD 
HETATM   11  N   UNL     1      -9.649  16.492  69.192  1.00  0.00    -0.253 NA 
HETATM   12  C   UNL     1     -10.691  15.844  69.597  1.00  0.00    -0.304 A  
HETATM   13  C   UNL     1     -12.354  14.138  69.625  1.00  0.00    -0.256 A  
HETATM   14  N   UNL     1     -12.830  14.531  70.867  1.00  0.00    -0.347 NA 
HETATM   15  C   UNL     1     -12.578  15.937  72.838  1.00  0.00    -0.581 C  
HETATM   16  N   UNL     1     -11.258  16.251  70.771  1.00  0.00    -0.338 NA 
HETATM   17  C   UNL     1     -12.243  15.559  71.411  1.00  0.00    -0.393 A  
ENDBRANCH   7   8
ENDBRANCH   4   7
ENDBRANCH   2   4
BRANCH   3  18
HETATM   18  C   UNL     1     -12.218  10.753  69.804  1.00  0.00    -0.359 C  
BRANCH  18  19
HETATM   19  C   UNL     1     -12.489  10.278  71.245  1.00  0.00    -0.408 C  
HETATM   20  H   UNL     1     -13.406  10.958  72.854  1.00  0.00     0.000 HD 
HETATM   21  O   UNL     1     -13.239  11.251  71.966  1.00  0.00    -0.506 OA 
ENDBRANCH  18  19
ENDBRANCH   3  18
BRANCH   3  22
HETATM   22  S   UNL     1      -9.685   9.551  70.158  1.00  0.00    -0.259 SA 
BRANCH  22  23
HETATM   23  S   UNL     1     -10.033   7.857  69.048  1.00  0.00    -0.192 SA 
BRANCH  23  24
HETATM   24  C   UNL     1     -11.130   6.804  70.068  1.00  0.00    -0.315 C  
BRANCH  24  25
HETATM   25  C   UNL     1     -10.632   6.326  71.430  1.00  0.00    -0.237 C  
HETATM   26  O   UNL     1      -9.863   5.118  71.230  1.00  0.00    -0.161 OA 
HETATM   27  C   UNL     1     -10.939   5.001  73.344  1.00  0.00    -0.393 C  
HETATM   28  C   UNL     1     -10.019   4.278  72.384  1.00  0.00    -0.168 C  
HETATM   29  C   UNL     1     -11.700   5.944  72.440  1.00  0.00    -0.307 C  
ENDBRANCH  24  25
ENDBRANCH  23  24
ENDBRANCH  22  23
ENDBRANCH   3  22
TORSDOF 9
ENDMDL
MODEL       62
REMARK 921   NORMALIZED FREE ENERGY PREDICTED BY IDOCK:   -4.96 KCAL/MOL
REMARK 922        TOTAL FREE ENERGY PREDICTED BY IDOCK:   -8.81 KCAL/MOL
REMARK 923 INTER-LIGAND FREE ENERGY PREDICTED BY IDOCK:   -8.04 KCAL/MOL
REMARK 924 INTRA-LIGAND FREE ENERGY PREDICTED BY IDOCK:   -0.77 KCAL/MOL
REMARK 927      BINDING AFFINITY PREDICTED BY RF-SCORE:    0.00 PKD
ROOT
HETATM    1  C   UNL     1      -9.891  15.619  69.533  1.00  0.00    -0.289 C  
HETATM    2  C   UNL     1      -9.489  15.580  68.070  1.00  0.00    -0.194 C  
HETATM    3  C   UNL     1     -10.348  15.257  67.059  1.00  0.00    -0.277 C  
ENDROOT
BRANCH   2   4
HETATM    4  N   UNL     1      -8.177  16.020  67.863  1.00  0.00    -0.147 N  
HETATM    5  C   UNL     1      -7.211  15.148  67.381  1.00  0.00    -0.199 C  
HETATM    6  O   UNL     1      -6.033  15.442  67.196  1.00  0.00    -0.306 OA 
BRANCH   4   7
HETATM    7  C   UNL     1      -7.752  17.344  68.342  1.00  0.00    -0.258 C  
BRANCH   7   8
HETATM    8  C   UNL     1      -7.392  18.370  67.294  1.00  0.00    -0.220 A  
HETATM    9  H2  UNL     1     -10.042  18.277  67.122  1.00  0.00     0.000 HD 
HETATM   10  H1  UNL     1     -10.324  19.269  65.723  1.00  0.00     0.000 HD 
HETATM   11  N   UNL     1      -9.657  18.852  66.372  1.00  0.00    -0.346 NA 
HETATM   12  C   UNL     1      -8.372  18.982  66.338  1.00  0.00    -0.307 A  
HETATM   13  C   UNL     1      -6.101  18.615  66.957  1.00  0.00    -0.165 A  
HETATM   14  N   UNL     1      -5.619  19.289  65.845  1.00  0.00    -0.154 NA 
HETATM   15  C   UNL     1      -6.080  20.383  63.719  1.00  0.00    -0.271 C  
HETATM   16  N   UNL     1      -7.850  19.718  65.313  1.00  0.00    -0.184 NA 
HETATM   17  C   UNL     1      -6.515  19.793  65.043  1.00  0.00    -0.276 A  
ENDBRANCH   7   8
ENDBRANCH   4   7
ENDBRANCH   2   4
BRANCH   3  18
HETATM   18  C   UNL     1     -10.072  15.515  65.574  1.00  0.00    -0.406 C  
BRANCH  18  19
HETATM   19  C   UNL     1     -11.308  15.446  64.656  1.00  0.00    -0.355 C  
HETATM   20  H   UNL     1     -12.213  16.607  63.342  1.00  0.00     0.000 HD 
HETATM   21  O   UNL     1     -11.451  16.650  63.908  1.00  0.00    -1.186 OA 
ENDBRANCH  18  19
ENDBRANCH   3  18
BRANCH   3  22
HETATM   22  S   UNL     1     -11.909  14.538  67.487  1.00  0.00    -0.327 SA 
BRANCH  22  23
HETATM   23  S   UNL     1     -11.369  12.642  68.065  1.00  0.00    -0.313 SA 
BRANCH  23  24
HETATM   24  C   UNL     1     -11.513  11.599  66.568  1.00  0.00    -0.187 C  
BRANCH  24  25
HETATM   25  C   UNL     1     -10.353  11.571  65.577  1.00  0.00    -0.273 C  
HETATM   26  O   UNL     1     -10.784  12.219  64.359  1.00  0.00    -0.291 OA 
HETATM   27  C   UNL     1      -9.229  10.510  63.808  1.00  0.00    -0.292 C  
HETATM   28  C   UNL     1     -10.114  11.604  63.248  1.00  0.00    -0.423 C  
HETATM   29  C   UNL     1      -9.877  10.196  65.138  1.00  0.00    -0.394 C  
ENDBRANCH  24  25
ENDBRANCH  23  24
ENDBRANCH  22  23
ENDBRANCH   3  22
TORSDOF 9
ENDMDL
MODEL       63
REMARK 921   NORMALIZED FREE ENERGY PREDICTED BY IDOCK:   -4.96 KCAL/MOL
REMARK 922        TOTAL FREE ENERGY PREDICTED BY IDOCK:   -8.81 KCAL/MOL
REMARK 923 INTER-LIGAND FREE ENERGY PREDICTED BY IDOCK:   -7.69 KCAL/MOL
REMARK 924 INTRA-LIGAND FREE ENERGY PREDICTED BY IDOCK:   -1.12 KCAL/MOL
REMARK 927      BINDING AFFINITY PREDICTED BY RF-SCORE:    0.00 PKD
ROOT
HETATM    1  C   UNL     1      -8.459  12.190  66.916  1.00  0.00    -0.173 C  
HETATM    2  C   UNL     1      -9.419  11.102  66.474  1.00  0.00    -0.193 C  
HETATM    3  C   UNL     1      -9.453   9.852  67.024  1.00  0.00    -0.160 C  
ENDROOT
BRANCH   2   4
HETATM    4  N   UNL     1     -10.339  11.554  65.521  1.00  0.00    -0.263 N  
HETATM    5  C   UNL     1      -9.970  11.677  64.189  1.00  0.00    -0.277 C  
HETATM    6  O   UNL     1     -10.703  12.090  63.295  1.00  0.00    -0.408 OA 
BRANCH   4   7
HETATM    7  C   UNL     1     -11.639  12.099  65.942  1.00  0.00    -0.364 C  
BRANCH   7   8
HETATM    8  C   UNL     1     -11.620  13.397  66.716  1.00  0.00    -0.404 A  
HETATM    9  H2  UNL     1     -11.168  14.206  64.225  1.00  0.00     0.000 HD 
HETATM   10  H1  UNL     1     -10.808  15.888  64.478  1.00  0.00     0.000 HD 
HETATM   11  N   UNL     1     -11.059  14.983  64.877  1.00  0.00    -0.408 NA 
HETATM   12  C   UNL     1     -11.251  14.726  66.129  1.00  0.00    -0.337 A  
HETATM   13  C   UNL     1     -11.673  13.413  68.071  1.00  0.00    -0.356 A  
HETATM   14  N   UNL     1     -11.380  14.464  68.927  1.00  0.00    -0.258 NA 
HETATM   15  C   UNL     1     -10.547  16.733  69.219  1.00  0.00    -0.336 C  
HETATM   16  N   UNL     1     -11.066  15.754  67.009  1.00  0.00    -0.219 NA 
HETATM   17  C   UNL     1     -11.056  15.593  68.363  1.00  0.00    -0.326 A  
ENDBRANCH   7   8
ENDBRANCH   4   7
ENDBRANCH   2   4
BRANCH   3  18
HETATM   18  C   UNL     1     -10.598   8.853  66.833  1.00  0.00    -0.254 C  
BRANCH  18  19
HETATM   19  C   UNL     1     -10.170   7.375  66.740  1.00  0.00    -0.242 C  
HETATM   20  H   UNL     1     -10.999   5.601  66.982  1.00  0.00     0.000 HD 
HETATM   21  O   UNL     1     -11.263   6.512  67.039  1.00  0.00    -0.397 OA 
ENDBRANCH  18  19
ENDBRANCH   3  18
BRANCH   3  22
HETATM   22  S   UNL     1      -8.111   9.367  68.073  1.00  0.00    -0.106 SA 
BRANCH  22  23
HETATM   23  S   UNL     1      -8.810   9.877  69.936  1.00  0.00    -0.148 SA 
BRANCH  23  24
HETATM   24  C   UNL     1      -9.967   8.545  70.422  1.00  0.00    -0.183 C  
BRANCH  24  25
HETATM   25  C   UNL     1     -11.442   8.887  70.618  1.00  0.00    -0.242 C  
HETATM   26  O   UNL     1     -11.570  10.327  70.654  1.00  0.00    -0.297 OA 
HETATM   27  C   UNL     1     -13.231   9.374  72.060  1.00  0.00    -0.529 C  
HETATM   28  C   UNL     1     -12.661  10.669  71.523  1.00  0.00    -0.412 C  
HETATM   29  C   UNL     1     -12.077   8.407  71.912  1.00  0.00    -0.398 C  
ENDBRANCH  24  25
ENDBRANCH  23  24
ENDBRANCH  22  23
ENDBRANCH   3  22
TORSDOF 9
ENDMDL
MODEL       64
REMARK 921   NORMALIZED FREE ENERGY PREDICTED BY IDOCK:   -4.95 KCAL/MOL
REMARK 922        TOTAL FREE ENERGY PREDICTED BY IDOCK:   -8.80 KCAL/MOL
REMARK 923 INTER-LIGAND FREE ENERGY PREDICTED BY IDOCK:   -8.02 KCAL/MOL
REMARK 924 INTRA-LIGAND FREE ENERGY PREDICTED BY IDOCK:   -0.78 KCAL/MOL
REMARK 927      BINDING AFFINITY PREDICTED BY RF-SCORE:    0.00 PKD
ROOT
HETATM    1  C   UNL     1     -12.410  13.673  67.676  1.00  0.00    -0.054 C  
HETATM    2  C   UNL     1     -11.473  13.731  66.484  1.00  0.00    -0.348 C  
HETATM    3  C   UNL     1     -10.881  12.631  65.933  1.00  0.00    -0.270 C  
ENDROOT
BRANCH   2   4
HETATM    4  N   UNL     1     -11.372  15.018  65.943  1.00  0.00    -0.314 N  
HETATM    5  C   UNL     1     -11.718  15.255  64.621  1.00  0.00    -0.308 C  
HETATM    6  O   UNL     1     -11.635  16.343  64.059  1.00  0.00    -1.071 OA 
BRANCH   4   7
HETATM    7  C   UNL     1     -10.706  16.092  66.697  1.00  0.00    -0.247 C  
BRANCH   7   8
HETATM    8  C   UNL     1      -9.471  15.716  67.481  1.00  0.00    -0.214 A  
HETATM    9  H2  UNL     1     -11.316  15.929  69.382  1.00  0.00     0.000 HD 
HETATM   10  H1  UNL     1     -10.344  15.769  70.814  1.00  0.00     0.000 HD 
HETATM   11  N   UNL     1     -10.393  15.796  69.796  1.00  0.00    -0.292 NA 
HETATM   12  C   UNL     1      -9.399  15.677  68.978  1.00  0.00    -0.243 A  
HETATM   13  C   UNL     1      -8.252  15.647  66.891  1.00  0.00    -0.253 A  
HETATM   14  N   UNL     1      -7.007  15.606  67.500  1.00  0.00    -0.173 NA 
HETATM   15  C   UNL     1      -5.691  15.723  69.545  1.00  0.00    -0.126 C  
HETATM   16  N   UNL     1      -8.156  15.539  69.529  1.00  0.00    -0.233 NA 
HETATM   17  C   UNL     1      -7.003  15.584  68.803  1.00  0.00    -0.118 A  
ENDBRANCH   7   8
ENDBRANCH   4   7
ENDBRANCH   2   4
BRANCH   3  18
HETATM   18  C   UNL     1     -10.201  12.610  64.560  1.00  0.00    -0.331 C  
BRANCH  18  19
HETATM   19  C   UNL     1     -10.775  11.587  63.560  1.00  0.00    -0.414 C  
HETATM   20  H   UNL     1     -10.100  10.112  62.438  1.00  0.00     0.000 HD 
HETATM   21  O   UNL     1      -9.746  10.742  63.054  1.00  0.00    -0.308 OA 
ENDBRANCH  18  19
ENDBRANCH   3  18
BRANCH   3  22
HETATM   22  S   UNL     1     -10.944  11.109  66.838  1.00  0.00    -0.240 SA 
BRANCH  22  23
HETATM   23  S   UNL     1      -9.569  11.433  68.329  1.00  0.00    -0.197 SA 
BRANCH  23  24
HETATM   24  C   UNL     1     -10.031  10.306  69.694  1.00  0.00    -0.207 C  
BRANCH  24  25
HETATM   25  C   UNL     1     -11.491  10.250  70.139  1.00  0.00    -0.309 C  
HETATM   26  O   UNL     1     -11.919  11.596  70.452  1.00  0.00    -0.357 OA 
HETATM   27  C   UNL     1     -13.074  10.076  71.866  1.00  0.00    -0.563 C  
HETATM   28  C   UNL     1     -12.895  11.535  71.503  1.00  0.00    -0.380 C  
HETATM   29  C   UNL     1     -11.781   9.448  71.397  1.00  0.00    -0.448 C  
ENDBRANCH  24  25
ENDBRANCH  23  24
ENDBRANCH  22  23
ENDBRANCH   3  22
TORSDOF 9
ENDMDL
MODEL       65
REMARK 921   NORMALIZED FREE ENERGY PREDICTED BY IDOCK:   -4.95 KCAL/MOL
REMARK 922        TOTAL FREE ENERGY PREDICTED BY IDOCK:   -8.79 KCAL/MOL
REMARK 923 INTER-LIGAND FREE ENERGY PREDICTED BY IDOCK:   -7.64 KCAL/MOL
REMARK 924 INTRA-LIGAND FREE ENERGY PREDICTED BY IDOCK:   -1.15 KCAL/MOL
REMARK 927      BINDING AFFINITY PREDICTED BY RF-SCORE:    0.00 PKD
ROOT
HETATM    1  C   UNL     1     -11.304  14.811  65.394  1.00  0.00    -0.356 C  
HETATM    2  C   UNL     1     -10.359  14.348  66.488  1.00  0.00    -0.281 C  
HETATM    3  C   UNL     1      -9.342  15.113  66.982  1.00  0.00    -0.230 C  
ENDROOT
BRANCH   2   4
HETATM    4  N   UNL     1     -10.715  13.101  67.012  1.00  0.00    -0.261 N  
HETATM    5  C   UNL     1      -9.961  11.973  66.720  1.00  0.00    -0.201 C  
HETATM    6  O   UNL     1     -10.217  10.839  67.113  1.00  0.00    -0.196 OA 
BRANCH   4   7
HETATM    7  C   UNL     1     -12.001  12.924  67.705  1.00  0.00    -0.283 C  
BRANCH   7   8
HETATM    8  C   UNL     1     -12.110  13.490  69.102  1.00  0.00    -0.331 A  
HETATM    9  H2  UNL     1     -11.916  10.877  69.552  1.00  0.00     0.000 HD 
HETATM   10  H1  UNL     1     -12.210  10.808  71.264  1.00  0.00     0.000 HD 
HETATM   11  N   UNL     1     -12.121  11.374  70.420  1.00  0.00    -0.366 NA 
HETATM   12  C   UNL     1     -12.242  12.658  70.343  1.00  0.00    -0.288 A  
HETATM   13  C   UNL     1     -12.371  14.803  69.315  1.00  0.00    -0.113 A  
HETATM   14  N   UNL     1     -12.783  15.415  70.490  1.00  0.00    -0.421 NA 
HETATM   15  C   UNL     1     -13.505  15.192  72.804  1.00  0.00    -0.603 C  
HETATM   16  N   UNL     1     -12.556  13.322  71.495  1.00  0.00    -0.270 NA 
HETATM   17  C   UNL     1     -12.890  14.643  71.535  1.00  0.00    -0.333 A  
ENDBRANCH   7   8
ENDBRANCH   4   7
ENDBRANCH   2   4
BRANCH   3  18
HETATM   18  C   UNL     1      -8.587  14.816  68.281  1.00  0.00    -0.164 C  
BRANCH  18  19
HETATM   19  C   UNL     1      -7.057  14.991  68.207  1.00  0.00    -0.114 C  
HETATM   20  H   UNL     1      -5.533  14.112  67.317  1.00  0.00     0.000 HD 
HETATM   21  O   UNL     1      -6.475  14.003  67.363  1.00  0.00    -0.304 OA 
ENDBRANCH  18  19
ENDBRANCH   3  18
BRANCH   3  22
HETATM   22  S   UNL     1      -8.893  16.579  66.093  1.00  0.00    -0.252 SA 
BRANCH  22  23
HETATM   23  S   UNL     1      -9.970  18.027  67.075  1.00  0.00    -0.347 SA 
BRANCH  23  24
HETATM   24  C   UNL     1      -9.034  18.402  68.602  1.00  0.00    -0.286 C  
BRANCH  24  25
HETATM   25  C   UNL     1      -8.141  19.640  68.633  1.00  0.00    -0.289 C  
HETATM   26  O   UNL     1      -8.069  20.177  67.292  1.00  0.00    -0.306 OA 
HETATM   27  C   UNL     1      -6.012  20.604  68.401  1.00  0.00    -0.368 C  
HETATM   28  C   UNL     1      -6.780  20.783  67.109  1.00  0.00    -0.317 C  
HETATM   29  C   UNL     1      -6.695  19.416  69.040  1.00  0.00    -0.359 C  
ENDBRANCH  24  25
ENDBRANCH  23  24
ENDBRANCH  22  23
ENDBRANCH   3  22
TORSDOF 9
ENDMDL
MODEL       66
REMARK 921   NORMALIZED FREE ENERGY PREDICTED BY IDOCK:   -4.94 KCAL/MOL
REMARK 922        TOTAL FREE ENERGY PREDICTED BY IDOCK:   -8.77 KCAL/MOL
REMARK 923 INTER-LIGAND FREE ENERGY PREDICTED BY IDOCK:   -8.49 KCAL/MOL
REMARK 924 INTRA-LIGAND FREE ENERGY PREDICTED BY IDOCK:   -0.28 KCAL/MOL
REMARK 927      BINDING AFFINITY PREDICTED BY RF-SCORE:    0.00 PKD
ROOT
HETATM    1  C   UNL     1     -11.858  11.232  68.650  1.00  0.00    -0.369 C  
HETATM    2  C   UNL     1     -12.053  11.652  70.095  1.00  0.00    -0.333 C  
HETATM    3  C   UNL     1     -12.281  12.942  70.484  1.00  0.00    -0.314 C  
ENDROOT
BRANCH   2   4
HETATM    4  N   UNL     1     -12.088  10.562  70.971  1.00  0.00    -0.369 N  
HETATM    5  C   UNL     1     -13.221  10.303  71.729  1.00  0.00    -0.430 C  
HETATM    6  O   UNL     1     -13.327   9.388  72.540  1.00  0.00    -0.440 OA 
BRANCH   4   7
HETATM    7  C   UNL     1     -10.864   9.799  71.258  1.00  0.00    -0.206 C  
BRANCH   7   8
HETATM    8  C   UNL     1     -10.537   8.652  70.330  1.00  0.00    -0.240 A  
HETATM    9  H2  UNL     1      -8.720  10.472  69.659  1.00  0.00     0.000 HD 
HETATM   10  H1  UNL     1      -7.997   9.728  68.264  1.00  0.00     0.000 HD 
HETATM   11  N   UNL     1      -8.687   9.682  69.014  1.00  0.00    -0.135 NA 
HETATM   12  C   UNL     1      -9.523   8.720  69.227  1.00  0.00    -0.161 A  
HETATM   13  C   UNL     1     -11.333   7.557  70.251  1.00  0.00    -0.199 A  
HETATM   14  N   UNL     1     -11.342   6.575  69.272  1.00  0.00    -0.326 NA 
HETATM   15  C   UNL     1     -10.505   5.765  67.134  1.00  0.00    -0.337 C  
HETATM   16  N   UNL     1      -9.510   7.679  68.343  1.00  0.00    -0.149 NA 
HETATM   17  C   UNL     1     -10.446   6.688  68.332  1.00  0.00    -0.211 A  
ENDBRANCH   7   8
ENDBRANCH   4   7
ENDBRANCH   2   4
BRANCH   3  18
HETATM   18  C   UNL     1     -12.795  13.351  71.868  1.00  0.00    -0.354 C  
BRANCH  18  19
HETATM   19  C   UNL     1     -14.231  13.909  71.895  1.00  0.00    -0.357 C  
HETATM   20  H   UNL     1     -15.107  15.671  72.034  1.00  0.00     0.000 HD 
HETATM   21  O   UNL     1     -14.221  15.328  72.017  1.00  0.00    -0.502 OA 
ENDBRANCH  18  19
ENDBRANCH   3  18
BRANCH   3  22
HETATM   22  S   UNL     1     -12.016  14.230  69.296  1.00  0.00    -0.324 SA 
BRANCH  22  23
HETATM   23  S   UNL     1     -10.780  15.514  70.318  1.00  0.00    -0.310 SA 
BRANCH  23  24
HETATM   24  C   UNL     1      -9.868  16.457  69.042  1.00  0.00    -0.266 C  
BRANCH  24  25
HETATM   25  C   UNL     1     -10.519  17.700  68.441  1.00  0.00    -0.359 C  
HETATM   26  O   UNL     1     -10.646  17.497  67.014  1.00  0.00    -0.321 OA 
HETATM   27  C   UNL     1     -10.301  19.810  67.432  1.00  0.00    -0.582 C  
HETATM   28  C   UNL     1     -10.525  18.768  66.357  1.00  0.00    -0.429 C  
HETATM   29  C   UNL     1      -9.744  18.999  68.581  1.00  0.00    -0.468 C  
ENDBRANCH  24  25
ENDBRANCH  23  24
ENDBRANCH  22  23
ENDBRANCH   3  22
TORSDOF 9
ENDMDL
MODEL       67
REMARK 921   NORMALIZED FREE ENERGY PREDICTED BY IDOCK:   -4.91 KCAL/MOL
REMARK 922        TOTAL FREE ENERGY PREDICTED BY IDOCK:   -8.73 KCAL/MOL
REMARK 923 INTER-LIGAND FREE ENERGY PREDICTED BY IDOCK:   -8.08 KCAL/MOL
REMARK 924 INTRA-LIGAND FREE ENERGY PREDICTED BY IDOCK:   -0.65 KCAL/MOL
REMARK 927      BINDING AFFINITY PREDICTED BY RF-SCORE:    0.00 PKD
ROOT
HETATM    1  C   UNL     1      -8.221  11.736  67.952  1.00  0.00    -0.147 C  
HETATM    2  C   UNL     1      -9.735  11.834  67.950  1.00  0.00    -0.185 C  
HETATM    3  C   UNL     1     -10.419  12.968  67.618  1.00  0.00    -0.225 C  
ENDROOT
BRANCH   2   4
HETATM    4  N   UNL     1     -10.352  10.607  68.216  1.00  0.00    -0.169 N  
HETATM    5  C   UNL     1     -10.351   9.598  67.264  1.00  0.00    -0.249 C  
HETATM    6  O   UNL     1     -10.891   8.504  67.403  1.00  0.00    -0.209 OA 
BRANCH   4   7
HETATM    7  C   UNL     1     -11.185  10.438  69.416  1.00  0.00    -0.259 C  
BRANCH   7   8
HETATM    8  C   UNL     1     -10.697   9.458  70.458  1.00  0.00    -0.335 A  
HETATM    9  H2  UNL     1     -13.337   9.309  70.721  1.00  0.00     0.000 HD 
HETATM   10  H1  UNL     1     -13.479   8.309  72.136  1.00  0.00     0.000 HD 
HETATM   11  N   UNL     1     -12.876   8.779  71.461  1.00  0.00    -0.329 NA 
HETATM   12  C   UNL     1     -11.583   8.768  71.451  1.00  0.00    -0.299 A  
HETATM   13  C   UNL     1      -9.378   9.336  70.751  1.00  0.00    -0.258 A  
HETATM   14  N   UNL     1      -8.799   8.720  71.850  1.00  0.00    -0.344 NA 
HETATM   15  C   UNL     1      -9.084   7.609  73.997  1.00  0.00    -0.280 C  
HETATM   16  N   UNL     1     -10.961   8.093  72.462  1.00  0.00    -0.350 NA 
HETATM   17  C   UNL     1      -9.617   8.144  72.686  1.00  0.00    -0.282 A  
ENDBRANCH   7   8
ENDBRANCH   4   7
ENDBRANCH   2   4
BRANCH   3  18
HETATM   18  C   UNL     1     -11.917  13.013  67.296  1.00  0.00    -0.379 C  
BRANCH  18  19
HETATM   19  C   UNL     1     -12.263  13.307  65.823  1.00  0.00    -0.456 C  
HETATM   20  H   UNL     1     -12.746  12.282  64.209  1.00  0.00     0.000 HD 
HETATM   21  O   UNL     1     -12.532  12.100  65.117  1.00  0.00    -0.508 OA 
ENDBRANCH  18  19
ENDBRANCH   3  18
BRANCH   3  22
HETATM   22  S   UNL     1      -9.511  14.485  67.496  1.00  0.00    -0.207 SA 
BRANCH  22  23
HETATM   23  S   UNL     1     -10.599  15.739  68.706  1.00  0.00    -0.254 SA 
BRANCH  23  24
HETATM   24  C   UNL     1      -9.505  17.161  69.070  1.00  0.00    -0.162 C  
BRANCH  24  25
HETATM   25  C   UNL     1      -9.932  18.553  68.612  1.00  0.00    -0.383 C  
HETATM   26  O   UNL     1     -10.900  18.401  67.549  1.00  0.00    -0.408 OA 
HETATM   27  C   UNL     1      -9.647  20.383  67.168  1.00  0.00    -0.587 C  
HETATM   28  C   UNL     1     -10.764  19.506  66.642  1.00  0.00    -0.445 C  
HETATM   29  C   UNL     1      -8.841  19.431  68.023  1.00  0.00    -0.369 C  
ENDBRANCH  24  25
ENDBRANCH  23  24
ENDBRANCH  22  23
ENDBRANCH   3  22
TORSDOF 9
ENDMDL
MODEL       68
REMARK 921   NORMALIZED FREE ENERGY PREDICTED BY IDOCK:   -4.90 KCAL/MOL
REMARK 922        TOTAL FREE ENERGY PREDICTED BY IDOCK:   -8.72 KCAL/MOL
REMARK 923 INTER-LIGAND FREE ENERGY PREDICTED BY IDOCK:   -7.48 KCAL/MOL
REMARK 924 INTRA-LIGAND FREE ENERGY PREDICTED BY IDOCK:   -1.24 KCAL/MOL
REMARK 927      BINDING AFFINITY PREDICTED BY RF-SCORE:    0.00 PKD
ROOT
HETATM    1  C   UNL     1     -12.121  12.418  67.428  1.00  0.00    -0.075 C  
HETATM    2  C   UNL     1     -11.250  12.020  66.251  1.00  0.00    -0.342 C  
HETATM    3  C   UNL     1     -10.474  10.896  66.230  1.00  0.00    -0.245 C  
ENDROOT
BRANCH   2   4
HETATM    4  N   UNL     1     -11.414  12.868  65.151  1.00  0.00    -0.303 N  
HETATM    5  C   UNL     1     -12.500  12.715  64.300  1.00  0.00    -0.411 C  
HETATM    6  O   UNL     1     -12.706  13.395  63.299  1.00  0.00    -0.662 OA 
BRANCH   4   7
HETATM    7  C   UNL     1     -10.342  13.796  64.759  1.00  0.00    -0.398 C  
BRANCH   7   8
HETATM    8  C   UNL     1     -10.269  15.112  65.499  1.00  0.00    -0.405 A  
HETATM    9  H2  UNL     1     -11.880  15.683  63.464  1.00  0.00     0.000 HD 
HETATM   10  H1  UNL     1     -12.053  17.403  63.644  1.00  0.00     0.000 HD 
HETATM   11  N   UNL     1     -11.647  16.531  63.982  1.00  0.00    -1.124 NA 
HETATM   12  C   UNL     1     -10.865  16.394  65.002  1.00  0.00    -0.273 A  
HETATM   13  C   UNL     1      -9.420  15.291  66.541  1.00  0.00    -0.283 A  
HETATM   14  N   UNL     1      -9.024  16.484  67.127  1.00  0.00    -0.201 NA 
HETATM   15  C   UNL     1      -9.056  18.918  67.107  1.00  0.00    -0.305 C  
HETATM   16  N   UNL     1     -10.518  17.532  65.674  1.00  0.00    -0.607 NA 
HETATM   17  C   UNL     1      -9.567  17.569  66.650  1.00  0.00    -0.282 A  
ENDBRANCH   7   8
ENDBRANCH   4   7
ENDBRANCH   2   4
BRANCH   3  18
HETATM   18  C   UNL     1      -9.846  10.302  64.966  1.00  0.00    -0.397 C  
BRANCH  18  19
HETATM   19  C   UNL     1      -8.305  10.326  64.925  1.00  0.00    -0.172 C  
HETATM   20  H   UNL     1      -6.883  10.206  63.564  1.00  0.00     0.000 HD 
HETATM   21  O   UNL     1      -7.832  10.190  63.589  1.00  0.00    -0.154 OA 
ENDBRANCH  18  19
ENDBRANCH   3  18
BRANCH   3  22
HETATM   22  S   UNL     1     -10.216  10.032  67.755  1.00  0.00    -0.207 SA 
BRANCH  22  23
HETATM   23  S   UNL     1      -9.017  11.336  68.795  1.00  0.00    -0.056 SA 
BRANCH  23  24
HETATM   24  C   UNL     1      -7.307  10.712  68.598  1.00  0.00    -0.094 C  
BRANCH  24  25
HETATM   25  C   UNL     1      -6.168  11.720  68.467  1.00  0.00    -0.051 C  
HETATM   26  O   UNL     1      -6.066  12.450  69.711  1.00  0.00    -0.121 OA 
HETATM   27  C   UNL     1      -5.434  13.885  67.926  1.00  0.00    -0.091 C  
HETATM   28  C   UNL     1      -5.613  13.782  69.426  1.00  0.00    -0.087 C  
HETATM   29  C   UNL     1      -6.335  12.789  67.401  1.00  0.00    -0.139 C  
ENDBRANCH  24  25
ENDBRANCH  23  24
ENDBRANCH  22  23
ENDBRANCH   3  22
TORSDOF 9
ENDMDL
MODEL       69
REMARK 921   NORMALIZED FREE ENERGY PREDICTED BY IDOCK:   -4.89 KCAL/MOL
REMARK 922        TOTAL FREE ENERGY PREDICTED BY IDOCK:   -8.71 KCAL/MOL
REMARK 923 INTER-LIGAND FREE ENERGY PREDICTED BY IDOCK:   -7.30 KCAL/MOL
REMARK 924 INTRA-LIGAND FREE ENERGY PREDICTED BY IDOCK:   -1.41 KCAL/MOL
REMARK 927      BINDING AFFINITY PREDICTED BY RF-SCORE:    0.00 PKD
ROOT
HETATM    1  C   UNL     1      -7.873   7.059  68.367  1.00  0.00    -0.122 C  
HETATM    2  C   UNL     1      -8.353   8.314  69.072  1.00  0.00    -0.120 C  
HETATM    3  C   UNL     1      -9.028   9.322  68.447  1.00  0.00    -0.129 C  
ENDROOT
BRANCH   2   4
HETATM    4  N   UNL     1      -8.127   8.273  70.452  1.00  0.00    -0.104 N  
HETATM    5  C   UNL     1      -7.200   9.122  71.040  1.00  0.00    -0.100 C  
HETATM    6  O   UNL     1      -6.920   9.133  72.235  1.00  0.00    -0.317 OA 
BRANCH   4   7
HETATM    7  C   UNL     1      -8.710   7.198  71.270  1.00  0.00    -0.128 C  
BRANCH   7   8
HETATM    8  C   UNL     1     -10.198   7.258  71.523  1.00  0.00    -0.206 A  
HETATM    9  H2  UNL     1     -10.033   5.587  69.464  1.00  0.00     0.000 HD 
HETATM   10  H1  UNL     1     -11.712   5.379  69.063  1.00  0.00     0.000 HD 
HETATM   11  N   UNL     1     -11.008   5.813  69.661  1.00  0.00    -0.358 NA 
HETATM   12  C   UNL     1     -11.232   6.621  70.644  1.00  0.00    -0.317 A  
HETATM   13  C   UNL     1     -10.728   8.127  72.420  1.00  0.00    -0.334 A  
HETATM   14  N   UNL     1     -12.054   8.509  72.561  1.00  0.00    -0.375 NA 
HETATM   15  C   UNL     1     -14.340   8.422  71.728  1.00  0.00    -0.558 C  
HETATM   16  N   UNL     1     -12.533   6.958  70.886  1.00  0.00    -0.337 NA 
HETATM   17  C   UNL     1     -12.908   7.931  71.765  1.00  0.00    -0.328 A  
ENDBRANCH   7   8
ENDBRANCH   4   7
ENDBRANCH   2   4
BRANCH   3  18
HETATM   18  C   UNL     1      -9.797  10.431  69.173  1.00  0.00    -0.237 C  
BRANCH  18  19
HETATM   19  C   UNL     1     -11.327  10.250  69.214  1.00  0.00    -0.196 C  
HETATM   20  H   UNL     1     -12.842  10.907  70.293  1.00  0.00     0.000 HD 
HETATM   21  O   UNL     1     -11.899  11.018  70.268  1.00  0.00    -0.309 OA 
ENDBRANCH  18  19
ENDBRANCH   3  18
BRANCH   3  22
HETATM   22  S   UNL     1      -9.068   9.326  66.675  1.00  0.00    -0.150 SA 
BRANCH  22  23
HETATM   23  S   UNL     1      -9.133  11.334  66.247  1.00  0.00    -0.202 SA 
BRANCH  23  24
HETATM   24  C   UNL     1      -9.916  11.472  64.599  1.00  0.00    -0.261 C  
BRANCH  24  25
HETATM   25  C   UNL     1     -11.085  12.437  64.418  1.00  0.00    -0.333 C  
HETATM   26  O   UNL     1     -10.550  13.774  64.284  1.00  0.00    -0.367 OA 
HETATM   27  C   UNL     1     -12.665  13.899  65.358  1.00  0.00    -0.525 C  
HETATM   28  C   UNL     1     -11.490  14.704  64.843  1.00  0.00    -0.401 C  
HETATM   29  C   UNL     1     -12.068  12.526  65.572  1.00  0.00    -0.481 C  
ENDBRANCH  24  25
ENDBRANCH  23  24
ENDBRANCH  22  23
ENDBRANCH   3  22
TORSDOF 9
ENDMDL
MODEL       70
REMARK 921   NORMALIZED FREE ENERGY PREDICTED BY IDOCK:   -4.89 KCAL/MOL
REMARK 922        TOTAL FREE ENERGY PREDICTED BY IDOCK:   -8.70 KCAL/MOL
REMARK 923 INTER-LIGAND FREE ENERGY PREDICTED BY IDOCK:   -7.47 KCAL/MOL
REMARK 924 INTRA-LIGAND FREE ENERGY PREDICTED BY IDOCK:   -1.22 KCAL/MOL
REMARK 927      BINDING AFFINITY PREDICTED BY RF-SCORE:    0.00 PKD
ROOT
HETATM    1  C   UNL     1     -10.242  14.936  65.786  1.00  0.00    -0.358 C  
HETATM    2  C   UNL     1      -9.614  13.652  66.294  1.00  0.00    -0.239 C  
HETATM    3  C   UNL     1      -8.537  13.616  67.133  1.00  0.00    -0.192 C  
ENDROOT
BRANCH   2   4
HETATM    4  N   UNL     1     -10.326  12.514  65.900  1.00  0.00    -0.257 N  
HETATM    5  C   UNL     1     -10.060  11.903  64.682  1.00  0.00    -0.269 C  
HETATM    6  O   UNL     1     -10.655  10.921  64.247  1.00  0.00    -0.368 OA 
BRANCH   4   7
HETATM    7  C   UNL     1     -11.502  12.070  66.665  1.00  0.00    -0.346 C  
BRANCH   7   8
HETATM    8  C   UNL     1     -11.240  11.354  67.970  1.00  0.00    -0.346 A  
HETATM    9  H2  UNL     1     -10.481   9.557  66.165  1.00  0.00     0.000 HD 
HETATM   10  H1  UNL     1     -10.183   8.172  67.173  1.00  0.00     0.000 HD 
HETATM   11  N   UNL     1     -10.470   9.149  67.100  1.00  0.00    -0.265 NA 
HETATM   12  C   UNL     1     -10.820   9.919  68.077  1.00  0.00    -0.243 A  
HETATM   13  C   UNL     1     -11.632  11.881  69.156  1.00  0.00    -0.312 A  
HETATM   14  N   UNL     1     -11.732  11.244  70.384  1.00  0.00    -0.329 NA 
HETATM   15  C   UNL     1     -11.611   9.180  71.669  1.00  0.00    -0.449 C  
HETATM   16  N   UNL     1     -10.845   9.365  69.325  1.00  0.00    -0.208 NA 
HETATM   17  C   UNL     1     -11.362   9.995  70.418  1.00  0.00    -0.320 A  
ENDBRANCH   7   8
ENDBRANCH   4   7
ENDBRANCH   2   4
BRANCH   3  18
HETATM   18  C   UNL     1      -8.085  12.376  67.910  1.00  0.00    -0.161 C  
BRANCH  18  19
HETATM   19  C   UNL     1      -7.083  11.467  67.170  1.00  0.00    -0.140 C  
HETATM   20  H   UNL     1      -6.351   9.646  67.365  1.00  0.00     0.000 HD 
HETATM   21  O   UNL     1      -6.968  10.206  67.821  1.00  0.00    -0.082 OA 
ENDBRANCH  18  19
ENDBRANCH   3  18
BRANCH   3  22
HETATM   22  S   UNL     1      -7.628  15.116  67.387  1.00  0.00    -0.205 SA 
BRANCH  22  23
HETATM   23  S   UNL     1      -8.240  15.681  69.265  1.00  0.00    -0.243 SA 
BRANCH  23  24
HETATM   24  C   UNL     1      -9.646  16.825  69.013  1.00  0.00    -0.230 C  
BRANCH  24  25
HETATM   25  C   UNL     1      -9.514  17.934  67.972  1.00  0.00    -0.279 C  
HETATM   26  O   UNL     1      -9.186  19.163  68.662  1.00  0.00    -0.355 OA 
HETATM   27  C   UNL     1     -10.490  19.684  66.746  1.00  0.00    -0.605 C  
HETATM   28  C   UNL     1      -9.760  20.262  67.940  1.00  0.00    -0.334 C  
HETATM   29  C   UNL     1     -10.765  18.259  67.174  1.00  0.00    -0.334 C  
ENDBRANCH  24  25
ENDBRANCH  23  24
ENDBRANCH  22  23
ENDBRANCH   3  22
TORSDOF 9
ENDMDL
MODEL       71
REMARK 921   NORMALIZED FREE ENERGY PREDICTED BY IDOCK:   -4.88 KCAL/MOL
REMARK 922        TOTAL FREE ENERGY PREDICTED BY IDOCK:   -8.69 KCAL/MOL
REMARK 923 INTER-LIGAND FREE ENERGY PREDICTED BY IDOCK:   -7.69 KCAL/MOL
REMARK 924 INTRA-LIGAND FREE ENERGY PREDICTED BY IDOCK:   -1.00 KCAL/MOL
REMARK 927      BINDING AFFINITY PREDICTED BY RF-SCORE:    0.00 PKD
ROOT
HETATM    1  C   UNL     1     -12.186  14.035  66.628  1.00  0.00    -0.463 C  
HETATM    2  C   UNL     1     -10.975  14.179  67.531  1.00  0.00    -0.283 C  
HETATM    3  C   UNL     1      -9.894  13.345  67.485  1.00  0.00    -0.227 C  
ENDROOT
BRANCH   2   4
HETATM    4  N   UNL     1     -11.038  15.322  68.334  1.00  0.00    -0.273 N  
HETATM    5  C   UNL     1     -11.189  15.209  69.709  1.00  0.00    -0.279 C  
HETATM    6  O   UNL     1     -11.281  16.158  70.483  1.00  0.00    -0.363 OA 
BRANCH   4   7
HETATM    7  C   UNL     1     -11.154  16.655  67.723  1.00  0.00    -0.157 C  
BRANCH   7   8
HETATM    8  C   UNL     1      -9.866  17.364  67.373  1.00  0.00    -0.281 A  
HETATM    9  H2  UNL     1     -10.955  19.000  69.162  1.00  0.00     0.000 HD 
HETATM   10  H1  UNL     1      -9.874  20.359  69.078  1.00  0.00     0.000 HD 
HETATM   11  N   UNL     1     -10.126  19.427  68.748  1.00  0.00    -0.445 NA 
HETATM   12  C   UNL     1      -9.496  18.734  67.858  1.00  0.00    -0.304 A  
HETATM   13  C   UNL     1      -9.065  16.923  66.372  1.00  0.00    -0.283 A  
HETATM   14  N   UNL     1      -8.030  17.598  65.743  1.00  0.00    -0.541 NA 
HETATM   15  C   UNL     1      -6.770  19.661  65.453  1.00  0.00    -0.319 C  
HETATM   16  N   UNL     1      -8.409  19.318  67.272  1.00  0.00    -0.278 NA 
HETATM   17  C   UNL     1      -7.758  18.789  66.197  1.00  0.00    -0.247 A  
ENDBRANCH   7   8
ENDBRANCH   4   7
ENDBRANCH   2   4
BRANCH   3  18
HETATM   18  C   UNL     1      -8.542  13.644  68.140  1.00  0.00    -0.176 C  
BRANCH  18  19
HETATM   19  C   UNL     1      -7.335  12.919  67.513  1.00  0.00    -0.154 C  
HETATM   20  H   UNL     1      -5.542  13.392  66.839  1.00  0.00     0.000 HD 
HETATM   21  O   UNL     1      -6.287  13.839  67.225  1.00  0.00    -0.295 OA 
ENDBRANCH  18  19
ENDBRANCH   3  18
BRANCH   3  22
HETATM   22  S   UNL     1     -10.041  11.839  66.563  1.00  0.00    -0.208 SA 
BRANCH  22  23
HETATM   23  S   UNL     1     -11.030  10.617  67.885  1.00  0.00    -0.312 SA 
BRANCH  23  24
HETATM   24  C   UNL     1      -9.972  10.528  69.376  1.00  0.00    -0.196 C  
BRANCH  24  25
HETATM   25  C   UNL     1     -10.311   9.505  70.458  1.00  0.00    -0.288 C  
HETATM   26  O   UNL     1     -10.579   8.238  69.813  1.00  0.00    -0.226 OA 
HETATM   27  C   UNL     1     -11.920   8.402  71.767  1.00  0.00    -0.380 C  
HETATM   28  C   UNL     1     -11.556   7.527  70.587  1.00  0.00    -0.248 C  
HETATM   29  C   UNL     1     -11.552   9.789  71.287  1.00  0.00    -0.465 C  
ENDBRANCH  24  25
ENDBRANCH  23  24
ENDBRANCH  22  23
ENDBRANCH   3  22
TORSDOF 9
ENDMDL
MODEL       72
REMARK 921   NORMALIZED FREE ENERGY PREDICTED BY IDOCK:   -4.88 KCAL/MOL
REMARK 922        TOTAL FREE ENERGY PREDICTED BY IDOCK:   -8.69 KCAL/MOL
REMARK 923 INTER-LIGAND FREE ENERGY PREDICTED BY IDOCK:   -7.06 KCAL/MOL
REMARK 924 INTRA-LIGAND FREE ENERGY PREDICTED BY IDOCK:   -1.63 KCAL/MOL
REMARK 927      BINDING AFFINITY PREDICTED BY RF-SCORE:    0.00 PKD
ROOT
HETATM    1  C   UNL     1      -9.121   9.426  65.698  1.00  0.00    -0.258 C  
HETATM    2  C   UNL     1      -8.955   9.512  67.204  1.00  0.00    -0.134 C  
HETATM    3  C   UNL     1      -9.785  10.230  68.016  1.00  0.00    -0.149 C  
ENDROOT
BRANCH   2   4
HETATM    4  N   UNL     1      -7.931   8.685  67.678  1.00  0.00    -0.106 N  
HETATM    5  C   UNL     1      -6.667   9.202  67.925  1.00  0.00    -0.068 C  
HETATM    6  O   UNL     1      -5.706   8.544  68.315  1.00  0.00    -0.037 OA 
BRANCH   4   7
HETATM    7  C   UNL     1      -8.114   7.227  67.727  1.00  0.00    -0.115 C  
BRANCH   7   8
HETATM    8  C   UNL     1      -9.109   6.693  68.732  1.00  0.00    -0.131 A  
HETATM    9  H2  UNL     1     -10.555   6.828  66.505  1.00  0.00     0.000 HD 
HETATM   10  H1  UNL     1     -12.142   6.459  67.111  1.00  0.00     0.000 HD 
HETATM   11  N   UNL     1     -11.148   6.594  67.301  1.00  0.00    -0.379 NA 
HETATM   12  C   UNL     1     -10.569   6.496  68.452  1.00  0.00    -0.246 A  
HETATM   13  C   UNL     1      -8.806   6.608  70.051  1.00  0.00    -0.141 A  
HETATM   14  N   UNL     1      -9.673   6.424  71.118  1.00  0.00    -0.175 NA 
HETATM   15  C   UNL     1     -11.962   6.244  71.927  1.00  0.00    -0.342 C  
HETATM   16  N   UNL     1     -11.367   6.223  69.527  1.00  0.00    -0.430 NA 
HETATM   17  C   UNL     1     -10.931   6.268  70.819  1.00  0.00    -0.297 A  
ENDBRANCH   7   8
ENDBRANCH   4   7
ENDBRANCH   2   4
BRANCH   3  18
HETATM   18  C   UNL     1      -9.845  10.083  69.540  1.00  0.00    -0.249 C  
BRANCH  18  19
HETATM   19  C   UNL     1     -11.247   9.808  70.118  1.00  0.00    -0.272 C  
HETATM   20  H   UNL     1     -12.064   9.547  71.894  1.00  0.00     0.000 HD 
HETATM   21  O   UNL     1     -11.200   9.716  71.538  1.00  0.00    -0.372 OA 
ENDBRANCH  18  19
ENDBRANCH   3  18
BRANCH   3  22
HETATM   22  S   UNL     1     -10.908  11.374  67.261  1.00  0.00    -0.278 SA 
BRANCH  22  23
HETATM   23  S   UNL     1     -10.533  13.103  68.305  1.00  0.00    -0.254 SA 
BRANCH  23  24
HETATM   24  C   UNL     1     -12.136  13.610  69.029  1.00  0.00    -0.309 C  
BRANCH  24  25
HETATM   25  C   UNL     1     -12.212  13.882  70.530  1.00  0.00    -0.373 C  
HETATM   26  O   UNL     1     -12.780  12.716  71.171  1.00  0.00    -0.358 OA 
HETATM   27  C   UNL     1     -13.426  14.652  72.387  1.00  0.00    -0.534 C  
HETATM   28  C   UNL     1     -13.528  13.143  72.319  1.00  0.00    -0.568 C  
HETATM   29  C   UNL     1     -13.102  15.035  70.961  1.00  0.00    -0.482 C  
ENDBRANCH  24  25
ENDBRANCH  23  24
ENDBRANCH  22  23
ENDBRANCH   3  22
TORSDOF 9
ENDMDL
MODEL       73
REMARK 921   NORMALIZED FREE ENERGY PREDICTED BY IDOCK:   -4.88 KCAL/MOL
REMARK 922        TOTAL FREE ENERGY PREDICTED BY IDOCK:   -8.68 KCAL/MOL
REMARK 923 INTER-LIGAND FREE ENERGY PREDICTED BY IDOCK:   -7.43 KCAL/MOL
REMARK 924 INTRA-LIGAND FREE ENERGY PREDICTED BY IDOCK:   -1.25 KCAL/MOL
REMARK 927      BINDING AFFINITY PREDICTED BY RF-SCORE:    0.00 PKD
ROOT
HETATM    1  C   UNL     1     -11.254  11.847  65.352  1.00  0.00    -0.351 C  
HETATM    2  C   UNL     1     -10.514  12.062  66.659  1.00  0.00    -0.215 C  
HETATM    3  C   UNL     1      -9.229  11.654  66.876  1.00  0.00    -0.184 C  
ENDROOT
BRANCH   2   4
HETATM    4  N   UNL     1     -11.251  12.821  67.574  1.00  0.00    -0.273 N  
HETATM    5  C   UNL     1     -11.440  12.370  68.872  1.00  0.00    -0.307 C  
HETATM    6  O   UNL     1     -12.094  12.957  69.729  1.00  0.00    -0.299 OA 
BRANCH   4   7
HETATM    7  C   UNL     1     -12.007  14.000  67.124  1.00  0.00    -0.430 C  
BRANCH   7   8
HETATM    8  C   UNL     1     -11.248  15.302  67.013  1.00  0.00    -0.275 A  
HETATM    9  H2  UNL     1     -12.052  15.318  69.547  1.00  0.00     0.000 HD 
HETATM   10  H1  UNL     1     -11.582  16.918  70.038  1.00  0.00     0.000 HD 
HETATM   11  N   UNL     1     -11.624  16.212  69.303  1.00  0.00    -0.309 NA 
HETATM   12  C   UNL     1     -11.187  16.340  68.094  1.00  0.00    -0.298 A  
HETATM   13  C   UNL     1     -10.786  15.752  65.820  1.00  0.00    -0.327 A  
HETATM   14  N   UNL     1     -10.340  17.025  65.500  1.00  0.00    -0.623 NA 
HETATM   15  C   UNL     1     -10.019  19.343  66.173  1.00  0.00    -0.501 C  
HETATM   16  N   UNL     1     -10.651  17.549  67.752  1.00  0.00    -0.381 NA 
HETATM   17  C   UNL     1     -10.317  17.890  66.475  1.00  0.00    -0.362 A  
ENDBRANCH   7   8
ENDBRANCH   4   7
ENDBRANCH   2   4
BRANCH   3  18
HETATM   18  C   UNL     1      -8.355  12.129  68.042  1.00  0.00    -0.167 C  
BRANCH  18  19
HETATM   19  C   UNL     1      -7.703  13.513  67.852  1.00  0.00    -0.153 C  
HETATM   20  H   UNL     1      -7.904  15.331  68.590  1.00  0.00     0.000 HD 
HETATM   21  O   UNL     1      -8.306  14.478  68.707  1.00  0.00    -0.160 OA 
ENDBRANCH  18  19
ENDBRANCH   3  18
BRANCH   3  22
HETATM   22  S   UNL     1      -8.497  10.542  65.707  1.00  0.00    -0.178 SA 
BRANCH  22  23
HETATM   23  S   UNL     1      -8.283   8.826  66.816  1.00  0.00    -0.108 SA 
BRANCH  23  24
HETATM   24  C   UNL     1      -9.813   8.674  67.809  1.00  0.00    -0.175 C  
BRANCH  24  25
HETATM   25  C   UNL     1      -9.699   8.284  69.280  1.00  0.00    -0.177 C  
HETATM   26  O   UNL     1     -10.897   7.561  69.649  1.00  0.00    -0.243 OA 
HETATM   27  C   UNL     1     -10.118   8.769  71.540  1.00  0.00    -0.371 C  
HETATM   28  C   UNL     1     -11.186   7.825  71.030  1.00  0.00    -0.266 C  
HETATM   29  C   UNL     1      -9.615   9.429  70.276  1.00  0.00    -0.294 C  
ENDBRANCH  24  25
ENDBRANCH  23  24
ENDBRANCH  22  23
ENDBRANCH   3  22
TORSDOF 9
ENDMDL
MODEL       74
REMARK 921   NORMALIZED FREE ENERGY PREDICTED BY IDOCK:   -4.87 KCAL/MOL
REMARK 922        TOTAL FREE ENERGY PREDICTED BY IDOCK:   -8.68 KCAL/MOL
REMARK 923 INTER-LIGAND FREE ENERGY PREDICTED BY IDOCK:   -7.67 KCAL/MOL
REMARK 924 INTRA-LIGAND FREE ENERGY PREDICTED BY IDOCK:   -1.01 KCAL/MOL
REMARK 927      BINDING AFFINITY PREDICTED BY RF-SCORE:    0.00 PKD
ROOT
HETATM    1  C   UNL     1     -11.831  11.305  68.156  1.00  0.00    -0.276 C  
HETATM    2  C   UNL     1     -11.170  11.564  66.814  1.00  0.00    -0.285 C  
HETATM    3  C   UNL     1     -10.451  10.624  66.132  1.00  0.00    -0.194 C  
ENDROOT
BRANCH   2   4
HETATM    4  N   UNL     1     -11.472  12.830  66.302  1.00  0.00    -0.334 N  
HETATM    5  C   UNL     1     -12.529  12.998  65.419  1.00  0.00    -0.476 C  
HETATM    6  O   UNL     1     -12.846  14.066  64.902  1.00  0.00    -0.692 OA 
BRANCH   4   7
HETATM    7  C   UNL     1     -10.557  13.960  66.525  1.00  0.00    -0.279 C  
BRANCH   7   8
HETATM    8  C   UNL     1     -10.716  14.727  67.817  1.00  0.00    -0.268 A  
HETATM    9  H2  UNL     1      -8.104  14.241  67.752  1.00  0.00     0.000 HD 
HETATM   10  H1  UNL     1      -7.618  14.801  69.325  1.00  0.00     0.000 HD 
HETATM   11  N   UNL     1      -8.367  14.655  68.647  1.00  0.00    -0.161 NA 
HETATM   12  C   UNL     1      -9.616  14.942  68.813  1.00  0.00    -0.214 A  
HETATM   13  C   UNL     1     -11.940  15.049  68.303  1.00  0.00    -0.183 A  
HETATM   14  N   UNL     1     -12.268  15.478  69.580  1.00  0.00    -0.323 NA 
HETATM   15  C   UNL     1     -11.560  15.928  71.866  1.00  0.00    -0.542 C  
HETATM   16  N   UNL     1      -9.978  15.457  70.025  1.00  0.00    -0.233 NA 
HETATM   17  C   UNL     1     -11.275  15.639  70.408  1.00  0.00    -0.357 A  
ENDBRANCH   7   8
ENDBRANCH   4   7
ENDBRANCH   2   4
BRANCH   3  18
HETATM   18  C   UNL     1     -10.051  10.742  64.658  1.00  0.00    -0.410 C  
BRANCH  18  19
HETATM   19  C   UNL     1      -9.049   9.681  64.163  1.00  0.00    -0.209 C  
HETATM   20  H   UNL     1      -7.096   9.513  63.943  1.00  0.00     0.000 HD 
HETATM   21  O   UNL     1      -7.713  10.168  64.248  1.00  0.00    -0.143 OA 
ENDBRANCH  18  19
ENDBRANCH   3  18
BRANCH   3  22
HETATM   22  S   UNL     1      -9.991   9.142  66.988  1.00  0.00    -0.253 SA 
BRANCH  22  23
HETATM   23  S   UNL     1      -8.609   9.835  68.341  1.00  0.00    -0.120 SA 
BRANCH  23  24
HETATM   24  C   UNL     1      -8.763   8.757  69.813  1.00  0.00    -0.133 C  
BRANCH  24  25
HETATM   25  C   UNL     1      -9.814   9.098  70.867  1.00  0.00    -0.291 C  
HETATM   26  O   UNL     1      -9.459   8.420  72.094  1.00  0.00    -0.234 OA 
HETATM   27  C   UNL     1     -11.826   8.574  71.961  1.00  0.00    -0.429 C  
HETATM   28  C   UNL     1     -10.663   8.086  72.800  1.00  0.00    -0.362 C  
HETATM   29  C   UNL     1     -11.234   8.647  70.571  1.00  0.00    -0.266 C  
ENDBRANCH  24  25
ENDBRANCH  23  24
ENDBRANCH  22  23
ENDBRANCH   3  22
TORSDOF 9
ENDMDL
MODEL       75
REMARK 921   NORMALIZED FREE ENERGY PREDICTED BY IDOCK:   -4.87 KCAL/MOL
REMARK 922        TOTAL FREE ENERGY PREDICTED BY IDOCK:   -8.68 KCAL/MOL
REMARK 923 INTER-LIGAND FREE ENERGY PREDICTED BY IDOCK:   -7.74 KCAL/MOL
REMARK 924 INTRA-LIGAND FREE ENERGY PREDICTED BY IDOCK:   -0.93 KCAL/MOL
REMARK 927      BINDING AFFINITY PREDICTED BY RF-SCORE:    0.00 PKD
ROOT
HETATM    1  C   UNL     1     -11.027  12.906  68.467  1.00  0.00    -0.288 C  
HETATM    2  C   UNL     1     -10.359  12.592  67.141  1.00  0.00    -0.220 C  
HETATM    3  C   UNL     1      -9.315  11.723  67.007  1.00  0.00    -0.184 C  
ENDROOT
BRANCH   2   4
HETATM    4  N   UNL     1     -11.003  13.201  66.059  1.00  0.00    -0.277 N  
HETATM    5  C   UNL     1     -12.261  12.775  65.657  1.00  0.00    -0.444 C  
HETATM    6  O   UNL     1     -12.884  13.234  64.703  1.00  0.00    -0.679 OA 
BRANCH   4   7
HETATM    7  C   UNL     1     -10.280  14.156  65.204  1.00  0.00    -0.384 C  
BRANCH   7   8
HETATM    8  C   UNL     1     -10.284  15.604  65.637  1.00  0.00    -0.402 A  
HETATM    9  H2  UNL     1     -11.926  15.622  63.547  1.00  0.00     0.000 HD 
HETATM   10  H1  UNL     1     -12.200  17.328  63.349  1.00  0.00     0.000 HD 
HETATM   11  N   UNL     1     -11.743  16.575  63.864  1.00  0.00    -1.022 NA 
HETATM   12  C   UNL     1     -10.955  16.710  64.879  1.00  0.00    -0.150 A  
HETATM   13  C   UNL     1      -9.448  16.055  66.604  1.00  0.00    -0.237 A  
HETATM   14  N   UNL     1      -9.122  17.368  66.909  1.00  0.00    -0.238 NA 
HETATM   15  C   UNL     1      -9.297  19.733  66.358  1.00  0.00    -0.488 C  
HETATM   16  N   UNL     1     -10.675  17.985  65.281  1.00  0.00    -0.557 NA 
HETATM   17  C   UNL     1      -9.727  18.289  66.214  1.00  0.00    -0.291 A  
ENDBRANCH   7   8
ENDBRANCH   4   7
ENDBRANCH   2   4
BRANCH   3  18
HETATM   18  C   UNL     1      -8.835  11.144  65.672  1.00  0.00    -0.165 C  
BRANCH  18  19
HETATM   19  C   UNL     1      -9.871  10.286  64.919  1.00  0.00    -0.336 C  
HETATM   20  H   UNL     1     -10.729  10.265  63.143  1.00  0.00     0.000 HD 
HETATM   21  O   UNL     1     -10.091  10.794  63.607  1.00  0.00    -0.325 OA 
ENDBRANCH  18  19
ENDBRANCH   3  18
BRANCH   3  22
HETATM   22  S   UNL     1      -8.486  11.182  68.477  1.00  0.00    -0.155 SA 
BRANCH  22  23
HETATM   23  S   UNL     1      -9.507   9.462  68.943  1.00  0.00    -0.157 SA 
BRANCH  23  24
HETATM   24  C   UNL     1      -8.855   8.170  67.823  1.00  0.00    -0.130 C  
BRANCH  24  25
HETATM   25  C   UNL     1      -9.654   6.882  67.642  1.00  0.00    -0.126 C  
HETATM   26  O   UNL     1      -8.862   5.967  66.850  1.00  0.00    -0.114 OA 
HETATM   27  C   UNL     1     -11.160   5.596  66.378  1.00  0.00     0.060 C  
HETATM   28  C   UNL     1      -9.746   5.155  66.064  1.00  0.00    -0.165 C  
HETATM   29  C   UNL     1     -10.969   7.006  66.892  1.00  0.00    -0.271 C  
ENDBRANCH  24  25
ENDBRANCH  23  24
ENDBRANCH  22  23
ENDBRANCH   3  22
TORSDOF 9
ENDMDL
MODEL       76
REMARK 921   NORMALIZED FREE ENERGY PREDICTED BY IDOCK:   -4.86 KCAL/MOL
REMARK 922        TOTAL FREE ENERGY PREDICTED BY IDOCK:   -8.66 KCAL/MOL
REMARK 923 INTER-LIGAND FREE ENERGY PREDICTED BY IDOCK:   -7.55 KCAL/MOL
REMARK 924 INTRA-LIGAND FREE ENERGY PREDICTED BY IDOCK:   -1.11 KCAL/MOL
REMARK 927      BINDING AFFINITY PREDICTED BY RF-SCORE:    0.00 PKD
ROOT
HETATM    1  C   UNL     1      -8.567  12.939  68.083  1.00  0.00    -0.188 C  
HETATM    2  C   UNL     1      -9.378  14.219  68.168  1.00  0.00    -0.206 C  
HETATM    3  C   UNL     1      -8.862  15.417  68.573  1.00  0.00    -0.183 C  
ENDROOT
BRANCH   2   4
HETATM    4  N   UNL     1     -10.680  14.062  67.679  1.00  0.00    -0.255 N  
HETATM    5  C   UNL     1     -10.931  14.119  66.316  1.00  0.00    -0.303 C  
HETATM    6  O   UNL     1     -12.044  14.019  65.805  1.00  0.00    -0.384 OA 
BRANCH   4   7
HETATM    7  C   UNL     1     -11.824  14.042  68.603  1.00  0.00    -0.361 C  
BRANCH   7   8
HETATM    8  C   UNL     1     -11.948  12.844  69.516  1.00  0.00    -0.346 A  
HETATM    9  H2  UNL     1     -11.511  11.720  67.148  1.00  0.00     0.000 HD 
HETATM   10  H1  UNL     1     -11.754  10.040  67.522  1.00  0.00     0.000 HD 
HETATM   11  N   UNL     1     -11.737  11.009  67.843  1.00  0.00    -0.592 NA 
HETATM   12  C   UNL     1     -11.974  11.421  69.045  1.00  0.00    -0.320 A  
HETATM   13  C   UNL     1     -12.320  12.979  70.813  1.00  0.00    -0.310 A  
HETATM   14  N   UNL     1     -12.755  11.993  71.686  1.00  0.00    -0.274 NA 
HETATM   15  C   UNL     1     -13.396   9.671  72.043  1.00  0.00    -0.547 C  
HETATM   16  N   UNL     1     -12.316  10.476  69.969  1.00  0.00    -0.261 NA 
HETATM   17  C   UNL     1     -12.766  10.775  71.221  1.00  0.00    -0.441 A  
ENDBRANCH   7   8
ENDBRANCH   4   7
ENDBRANCH   2   4
BRANCH   3  18
HETATM   18  C   UNL     1      -9.550  16.770  68.367  1.00  0.00    -0.241 C  
BRANCH  18  19
HETATM   19  C   UNL     1      -9.276  17.445  67.008  1.00  0.00    -0.246 C  
HETATM   20  H   UNL     1     -10.304  17.959  65.405  1.00  0.00     0.000 HD 
HETATM   21  O   UNL     1     -10.473  17.542  66.242  1.00  0.00    -0.341 OA 
ENDBRANCH  18  19
ENDBRANCH   3  18
BRANCH   3  22
HETATM   22  S   UNL     1      -7.266  15.420  69.342  1.00  0.00    -0.210 SA 
BRANCH  22  23
HETATM   23  S   UNL     1      -6.008  15.613  67.729  1.00  0.00    -0.141 SA 
BRANCH  23  24
HETATM   24  C   UNL     1      -5.211  17.251  67.906  1.00  0.00    -0.118 C  
BRANCH  24  25
HETATM   25  C   UNL     1      -6.032  18.413  68.460  1.00  0.00    -0.191 C  
HETATM   26  O   UNL     1      -6.071  19.455  67.458  1.00  0.00    -0.193 OA 
HETATM   27  C   UNL     1      -6.123  20.458  69.611  1.00  0.00    -0.356 C  
HETATM   28  C   UNL     1      -6.133  20.727  68.122  1.00  0.00    -0.328 C  
HETATM   29  C   UNL     1      -5.485  19.090  69.705  1.00  0.00    -0.219 C  
ENDBRANCH  24  25
ENDBRANCH  23  24
ENDBRANCH  22  23
ENDBRANCH   3  22
TORSDOF 9
ENDMDL
MODEL       77
REMARK 921   NORMALIZED FREE ENERGY PREDICTED BY IDOCK:   -4.85 KCAL/MOL
REMARK 922        TOTAL FREE ENERGY PREDICTED BY IDOCK:   -8.64 KCAL/MOL
REMARK 923 INTER-LIGAND FREE ENERGY PREDICTED BY IDOCK:   -7.64 KCAL/MOL
REMARK 924 INTRA-LIGAND FREE ENERGY PREDICTED BY IDOCK:   -1.01 KCAL/MOL
REMARK 927      BINDING AFFINITY PREDICTED BY RF-SCORE:    0.00 PKD
ROOT
HETATM    1  C   UNL     1      -8.196  10.505  69.536  1.00  0.00    -0.092 C  
HETATM    2  C   UNL     1      -9.421   9.749  69.052  1.00  0.00    -0.173 C  
HETATM    3  C   UNL     1      -9.398   8.851  68.024  1.00  0.00    -0.142 C  
ENDROOT
BRANCH   2   4
HETATM    4  N   UNL     1     -10.547   9.989  69.847  1.00  0.00    -0.263 N  
HETATM    5  C   UNL     1     -10.665   9.399  71.097  1.00  0.00    -0.347 C  
HETATM    6  O   UNL     1     -11.629   9.532  71.847  1.00  0.00    -0.371 OA 
BRANCH   4   7
HETATM    7  C   UNL     1     -11.712  10.696  69.293  1.00  0.00    -0.264 C  
BRANCH   7   8
HETATM    8  C   UNL     1     -11.864  12.156  69.655  1.00  0.00    -0.391 A  
HETATM    9  H2  UNL     1     -10.141  12.242  67.634  1.00  0.00     0.000 HD 
HETATM   10  H1  UNL     1      -9.687  13.919  67.650  1.00  0.00     0.000 HD 
HETATM   11  N   UNL     1     -10.240  13.165  68.057  1.00  0.00    -0.227 NA 
HETATM   12  C   UNL     1     -11.052  13.264  69.057  1.00  0.00    -0.244 A  
HETATM   13  C   UNL     1     -12.563  12.543  70.751  1.00  0.00    -0.212 A  
HETATM   14  N   UNL     1     -12.558  13.781  71.376  1.00  0.00    -0.358 NA 
HETATM   15  C   UNL     1     -11.623  16.023  71.535  1.00  0.00    -0.529 C  
HETATM   16  N   UNL     1     -11.155  14.489  69.653  1.00  0.00    -0.250 NA 
HETATM   17  C   UNL     1     -11.828  14.705  70.819  1.00  0.00    -0.311 A  
ENDBRANCH   7   8
ENDBRANCH   4   7
ENDBRANCH   2   4
BRANCH   3  18
HETATM   18  C   UNL     1     -10.518   7.850  67.724  1.00  0.00    -0.278 C  
BRANCH  18  19
HETATM   19  C   UNL     1     -10.071   6.379  67.614  1.00  0.00    -0.151 C  
HETATM   20  H   UNL     1     -10.548   4.788  66.550  1.00  0.00     0.000 HD 
HETATM   21  O   UNL     1     -10.824   5.694  66.618  1.00  0.00    -0.292 OA 
ENDBRANCH  18  19
ENDBRANCH   3  18
BRANCH   3  22
HETATM   22  S   UNL     1      -7.958   8.799  66.994  1.00  0.00    -0.095 SA 
BRANCH  22  23
HETATM   23  S   UNL     1      -8.221  10.448  65.797  1.00  0.00    -0.160 SA 
BRANCH  23  24
HETATM   24  C   UNL     1     -10.012  10.523  65.431  1.00  0.00    -0.289 C  
BRANCH  24  25
HETATM   25  C   UNL     1     -10.603  11.833  64.912  1.00  0.00    -0.294 C  
HETATM   26  O   UNL     1     -11.848  12.072  65.607  1.00  0.00    -0.428 OA 
HETATM   27  C   UNL     1     -12.013  12.962  63.411  1.00  0.00    -0.612 C  
HETATM   28  C   UNL     1     -12.740  12.768  64.724  1.00  0.00    -0.393 C  
HETATM   29  C   UNL     1     -10.967  11.869  63.438  1.00  0.00    -0.470 C  
ENDBRANCH  24  25
ENDBRANCH  23  24
ENDBRANCH  22  23
ENDBRANCH   3  22
TORSDOF 9
ENDMDL
MODEL       78
REMARK 921   NORMALIZED FREE ENERGY PREDICTED BY IDOCK:   -4.85 KCAL/MOL
REMARK 922        TOTAL FREE ENERGY PREDICTED BY IDOCK:   -8.64 KCAL/MOL
REMARK 923 INTER-LIGAND FREE ENERGY PREDICTED BY IDOCK:   -7.37 KCAL/MOL
REMARK 924 INTRA-LIGAND FREE ENERGY PREDICTED BY IDOCK:   -1.28 KCAL/MOL
REMARK 927      BINDING AFFINITY PREDICTED BY RF-SCORE:    0.00 PKD
ROOT
HETATM    1  C   UNL     1     -10.610   7.909  67.592  1.00  0.00    -0.276 C  
HETATM    2  C   UNL     1      -9.824   8.942  68.378  1.00  0.00    -0.174 C  
HETATM    3  C   UNL     1      -8.697   9.553  67.909  1.00  0.00    -0.119 C  
ENDROOT
BRANCH   2   4
HETATM    4  N   UNL     1     -10.442   9.280  69.587  1.00  0.00    -0.216 N  
HETATM    5  C   UNL     1      -9.908   8.853  70.794  1.00  0.00    -0.223 C  
HETATM    6  O   UNL     1     -10.400   9.080  71.897  1.00  0.00    -0.341 OA 
BRANCH   4   7
HETATM    7  C   UNL     1     -11.771   9.912  69.592  1.00  0.00     0.034 C  
BRANCH   7   8
HETATM    8  C   UNL     1     -11.853  11.333  70.099  1.00  0.00    -0.449 A  
HETATM    9  H2  UNL     1     -13.320  10.002  71.872  1.00  0.00     0.000 HD 
HETATM   10  H1  UNL     1     -13.988  11.309  72.804  1.00  0.00     0.000 HD 
HETATM   11  N   UNL     1     -13.394  11.007  72.031  1.00  0.00    -0.403 NA 
HETATM   12  C   UNL     1     -12.726  11.775  71.235  1.00  0.00    -0.316 A  
HETATM   13  C   UNL     1     -11.345  12.369  69.387  1.00  0.00    -0.220 A  
HETATM   14  N   UNL     1     -11.585  13.724  69.557  1.00  0.00    -0.285 NA 
HETATM   15  C   UNL     1     -12.816  15.487  70.699  1.00  0.00    -0.466 C  
HETATM   16  N   UNL     1     -12.854  13.123  71.420  1.00  0.00    -0.354 NA 
HETATM   17  C   UNL     1     -12.359  14.052  70.554  1.00  0.00    -0.367 A  
ENDBRANCH   7   8
ENDBRANCH   4   7
ENDBRANCH   2   4
BRANCH   3  18
HETATM   18  C   UNL     1      -8.072  10.809  68.525  1.00  0.00    -0.133 C  
BRANCH  18  19
HETATM   19  C   UNL     1      -6.727  10.588  69.245  1.00  0.00    -0.069 C  
HETATM   20  H   UNL     1      -6.097  10.263  71.085  1.00  0.00     0.000 HD 
HETATM   21  O   UNL     1      -6.926  10.400  70.642  1.00  0.00    -0.324 OA 
ENDBRANCH  18  19
ENDBRANCH   3  18
BRANCH   3  22
HETATM   22  S   UNL     1      -7.929   8.886  66.458  1.00  0.00    -0.104 SA 
BRANCH  22  23
HETATM   23  S   UNL     1      -8.193  10.399  65.093  1.00  0.00    -0.137 SA 
BRANCH  23  24
HETATM   24  C   UNL     1     -10.003  10.619  64.930  1.00  0.00    -0.318 C  
BRANCH  24  25
HETATM   25  C   UNL     1     -10.556  12.026  64.718  1.00  0.00    -0.297 C  
HETATM   26  O   UNL     1     -11.348  12.378  65.876  1.00  0.00    -0.322 OA 
HETATM   27  C   UNL     1     -12.282  13.427  63.960  1.00  0.00    -0.466 C  
HETATM   28  C   UNL     1     -12.415  13.242  65.457  1.00  0.00    -0.474 C  
HETATM   29  C   UNL     1     -11.493  12.209  63.536  1.00  0.00    -0.544 C  
ENDBRANCH  24  25
ENDBRANCH  23  24
ENDBRANCH  22  23
ENDBRANCH   3  22
TORSDOF 9
ENDMDL
MODEL       79
REMARK 921   NORMALIZED FREE ENERGY PREDICTED BY IDOCK:   -4.84 KCAL/MOL
REMARK 922        TOTAL FREE ENERGY PREDICTED BY IDOCK:   -8.62 KCAL/MOL
REMARK 923 INTER-LIGAND FREE ENERGY PREDICTED BY IDOCK:   -7.92 KCAL/MOL
REMARK 924 INTRA-LIGAND FREE ENERGY PREDICTED BY IDOCK:   -0.70 KCAL/MOL
REMARK 927      BINDING AFFINITY PREDICTED BY RF-SCORE:    0.00 PKD
ROOT
HETATM    1  C   UNL     1      -9.446  15.480  65.858  1.00  0.00    -0.377 C  
HETATM    2  C   UNL     1     -10.408  14.640  66.678  1.00  0.00    -0.273 C  
HETATM    3  C   UNL     1     -10.682  14.873  67.995  1.00  0.00    -0.253 C  
ENDROOT
BRANCH   2   4
HETATM    4  N   UNL     1     -11.068  13.675  65.909  1.00  0.00    -0.284 N  
HETATM    5  C   UNL     1     -12.439  13.750  65.710  1.00  0.00    -0.485 C  
HETATM    6  O   UNL     1     -13.099  12.933  65.074  1.00  0.00    -0.794 OA 
BRANCH   4   7
HETATM    7  C   UNL     1     -10.361  12.461  65.473  1.00  0.00    -0.271 C  
BRANCH   7   8
HETATM    8  C   UNL     1      -9.779  11.581  66.555  1.00  0.00    -0.226 A  
HETATM    9  H2  UNL     1     -12.391  11.393  67.004  1.00  0.00     0.000 HD 
HETATM   10  H1  UNL     1     -12.413  10.507  68.500  1.00  0.00     0.000 HD 
HETATM   11  N   UNL     1     -11.868  10.935  67.751  1.00  0.00    -0.524 NA 
HETATM   12  C   UNL     1     -10.579  10.953  67.656  1.00  0.00    -0.224 A  
HETATM   13  C   UNL     1      -8.441  11.513  66.768  1.00  0.00    -0.168 A  
HETATM   14  N   UNL     1      -7.775  11.001  67.871  1.00  0.00    -0.102 NA 
HETATM   15  C   UNL     1      -7.890  10.061  70.114  1.00  0.00    -0.141 C  
HETATM   16  N   UNL     1      -9.875  10.377  68.674  1.00  0.00    -0.170 NA 
HETATM   17  C   UNL     1      -8.520  10.476  68.803  1.00  0.00    -0.141 A  
ENDBRANCH   7   8
ENDBRANCH   4   7
ENDBRANCH   2   4
BRANCH   3  18
HETATM   18  C   UNL     1     -11.864  14.263  68.755  1.00  0.00    -0.377 C  
BRANCH  18  19
HETATM   19  C   UNL     1     -12.181  14.921  70.113  1.00  0.00    -0.336 C  
HETATM   20  H   UNL     1     -11.948  14.498  72.025  1.00  0.00     0.000 HD 
HETATM   21  O   UNL     1     -11.753  14.093  71.189  1.00  0.00    -0.232 OA 
ENDBRANCH  18  19
ENDBRANCH   3  18
BRANCH   3  22
HETATM   22  S   UNL     1      -9.633  15.995  68.879  1.00  0.00    -0.249 SA 
BRANCH  22  23
HETATM   23  S   UNL     1     -10.476  17.816  68.435  1.00  0.00    -0.305 SA 
BRANCH  23  24
HETATM   24  C   UNL     1      -9.232  18.716  67.439  1.00  0.00    -0.279 C  
BRANCH  24  25
HETATM   25  C   UNL     1      -8.381  19.786  68.118  1.00  0.00    -0.289 C  
HETATM   26  O   UNL     1      -7.876  20.677  67.095  1.00  0.00    -0.326 OA 
HETATM   27  C   UNL     1      -6.278  20.537  68.847  1.00  0.00    -0.342 C  
HETATM   28  C   UNL     1      -6.590  21.165  67.506  1.00  0.00    -0.363 C  
HETATM   29  C   UNL     1      -7.144  19.297  68.852  1.00  0.00    -0.385 C  
ENDBRANCH  24  25
ENDBRANCH  23  24
ENDBRANCH  22  23
ENDBRANCH   3  22
TORSDOF 9
ENDMDL
MODEL       80
REMARK 921   NORMALIZED FREE ENERGY PREDICTED BY IDOCK:   -4.83 KCAL/MOL
REMARK 922        TOTAL FREE ENERGY PREDICTED BY IDOCK:   -8.61 KCAL/MOL
REMARK 923 INTER-LIGAND FREE ENERGY PREDICTED BY IDOCK:   -8.02 KCAL/MOL
REMARK 924 INTRA-LIGAND FREE ENERGY PREDICTED BY IDOCK:   -0.59 KCAL/MOL
REMARK 927      BINDING AFFINITY PREDICTED BY RF-SCORE:    0.00 PKD
ROOT
HETATM    1  C   UNL     1      -8.340  15.052  66.851  1.00  0.00    -0.247 C  
HETATM    2  C   UNL     1      -9.822  14.746  66.964  1.00  0.00    -0.239 C  
HETATM    3  C   UNL     1     -10.326  13.704  67.687  1.00  0.00    -0.239 C  
ENDROOT
BRANCH   2   4
HETATM    4  N   UNL     1     -10.618  15.713  66.340  1.00  0.00    -0.305 N  
HETATM    5  C   UNL     1     -10.727  15.751  64.958  1.00  0.00    -0.421 C  
HETATM    6  O   UNL     1     -11.379  16.579  64.329  1.00  0.00    -1.020 OA 
BRANCH   4   7
HETATM    7  C   UNL     1     -11.183  16.826  67.119  1.00  0.00     0.272 C  
BRANCH   7   8
HETATM    8  C   UNL     1     -10.299  18.034  67.331  1.00  0.00    -0.391 A  
HETATM    9  H2  UNL     1     -11.674  18.701  65.156  1.00  0.00     0.000 HD 
HETATM   10  H1  UNL     1     -10.873  20.172  64.690  1.00  0.00     0.000 HD 
HETATM   11  N   UNL     1     -10.943  19.389  65.341  1.00  0.00    -0.392 NA 
HETATM   12  C   UNL     1     -10.196  19.184  66.375  1.00  0.00    -0.438 A  
HETATM   13  C   UNL     1      -9.325  18.040  68.274  1.00  0.00    -0.295 A  
HETATM   14  N   UNL     1      -8.264  18.924  68.403  1.00  0.00    -0.330 NA 
HETATM   15  C   UNL     1      -7.000  20.797  67.498  1.00  0.00    -0.406 C  
HETATM   16  N   UNL     1      -9.191  20.080  66.602  1.00  0.00    -0.368 NA 
HETATM   17  C   UNL     1      -8.218  19.899  67.541  1.00  0.00    -0.322 A  
ENDBRANCH   7   8
ENDBRANCH   4   7
ENDBRANCH   2   4
BRANCH   3  18
HETATM   18  C   UNL     1     -11.799  13.556  68.082  1.00  0.00    -0.400 C  
BRANCH  18  19
HETATM   19  C   UNL     1     -12.066  13.471  69.598  1.00  0.00    -0.306 C  
HETATM   20  H   UNL     1     -11.987  14.674  71.160  1.00  0.00     0.000 HD 
HETATM   21  O   UNL     1     -11.822  14.726  70.226  1.00  0.00    -0.268 OA 
ENDBRANCH  18  19
ENDBRANCH   3  18
BRANCH   3  22
HETATM   22  S   UNL     1      -9.199  12.460  68.255  1.00  0.00    -0.157 SA 
BRANCH  22  23
HETATM   23  S   UNL     1      -9.708  10.848  67.087  1.00  0.00    -0.176 SA 
BRANCH  23  24
HETATM   24  C   UNL     1     -10.431   9.611  68.226  1.00  0.00    -0.219 C  
BRANCH  24  25
HETATM   25  C   UNL     1      -9.971   8.159  68.122  1.00  0.00    -0.186 C  
HETATM   26  O   UNL     1     -10.560   7.582  66.934  1.00  0.00    -0.332 OA 
HETATM   27  C   UNL     1     -10.334   5.884  68.580  1.00  0.00    -0.268 C  
HETATM   28  C   UNL     1     -10.794   6.185  67.169  1.00  0.00    -0.360 C  
HETATM   29  C   UNL     1     -10.394   7.237  69.253  1.00  0.00    -0.208 C  
ENDBRANCH  24  25
ENDBRANCH  23  24
ENDBRANCH  22  23
ENDBRANCH   3  22
TORSDOF 9
ENDMDL
MODEL       81
REMARK 921   NORMALIZED FREE ENERGY PREDICTED BY IDOCK:   -4.80 KCAL/MOL
REMARK 922        TOTAL FREE ENERGY PREDICTED BY IDOCK:   -8.57 KCAL/MOL
REMARK 923 INTER-LIGAND FREE ENERGY PREDICTED BY IDOCK:   -8.76 KCAL/MOL
REMARK 924 INTRA-LIGAND FREE ENERGY PREDICTED BY IDOCK:    0.19 KCAL/MOL
REMARK 927      BINDING AFFINITY PREDICTED BY RF-SCORE:    0.00 PKD
ROOT
HETATM    1  C   UNL     1     -11.135  10.581  68.417  1.00  0.00    -0.335 C  
HETATM    2  C   UNL     1     -11.663  11.152  69.720  1.00  0.00    -0.345 C  
HETATM    3  C   UNL     1     -11.740  12.490  69.984  1.00  0.00    -0.221 C  
ENDROOT
BRANCH   2   4
HETATM    4  N   UNL     1     -12.167  10.164  70.574  1.00  0.00    -0.278 N  
HETATM    5  C   UNL     1     -13.150  10.471  71.503  1.00  0.00    -0.430 C  
HETATM    6  O   UNL     1     -13.627   9.675  72.307  1.00  0.00    -0.438 OA 
BRANCH   4   7
HETATM    7  C   UNL     1     -11.523   8.844  70.644  1.00  0.00    -0.242 C  
BRANCH   7   8
HETATM    8  C   UNL     1     -10.518   8.628  71.752  1.00  0.00    -0.394 A  
HETATM    9  H2  UNL     1      -9.090   9.928  69.926  1.00  0.00     0.000 HD 
HETATM   10  H1  UNL     1      -7.498   9.836  70.616  1.00  0.00     0.000 HD 
HETATM   11  N   UNL     1      -8.490   9.610  70.687  1.00  0.00    -0.230 NA 
HETATM   12  C   UNL     1      -9.060   8.960  71.647  1.00  0.00    -0.210 A  
HETATM   13  C   UNL     1     -10.811   7.863  72.833  1.00  0.00    -0.386 A  
HETATM   14  N   UNL     1      -9.936   7.336  73.771  1.00  0.00    -0.323 NA 
HETATM   15  C   UNL     1      -7.640   6.971  74.494  1.00  0.00    -0.132 C  
HETATM   16  N   UNL     1      -8.253   8.498  72.648  1.00  0.00    -0.364 NA 
HETATM   17  C   UNL     1      -8.679   7.649  73.627  1.00  0.00    -0.231 A  
ENDBRANCH   7   8
ENDBRANCH   4   7
ENDBRANCH   2   4
BRANCH   3  18
HETATM   18  C   UNL     1     -12.550  13.101  71.131  1.00  0.00    -0.403 C  
BRANCH  18  19
HETATM   19  C   UNL     1     -12.408  14.627  71.295  1.00  0.00    -0.341 C  
HETATM   20  H   UNL     1     -13.061  16.027  72.521  1.00  0.00     0.000 HD 
HETATM   21  O   UNL     1     -13.149  15.087  72.420  1.00  0.00    -0.321 OA 
ENDBRANCH  18  19
ENDBRANCH   3  18
BRANCH   3  22
HETATM   22  S   UNL     1     -10.891  13.604  68.899  1.00  0.00    -0.204 SA 
BRANCH  22  23
HETATM   23  S   UNL     1     -12.146  13.668  67.274  1.00  0.00    -0.286 SA 
BRANCH  23  24
HETATM   24  C   UNL     1     -11.191  14.465  65.931  1.00  0.00    -0.324 C  
BRANCH  24  25
HETATM   25  C   UNL     1     -11.084  13.756  64.584  1.00  0.00    -0.388 C  
HETATM   26  O   UNL     1     -12.422  13.491  64.105  1.00  0.00    -0.624 OA 
HETATM   27  C   UNL     1     -10.983  11.758  63.352  1.00  0.00    -0.458 C  
HETATM   28  C   UNL     1     -12.405  12.278  63.339  1.00  0.00    -0.517 C  
HETATM   29  C   UNL     1     -10.398  12.400  64.591  1.00  0.00    -0.332 C  
ENDBRANCH  24  25
ENDBRANCH  23  24
ENDBRANCH  22  23
ENDBRANCH   3  22
TORSDOF 9
ENDMDL
MODEL       82
REMARK 921   NORMALIZED FREE ENERGY PREDICTED BY IDOCK:   -4.80 KCAL/MOL
REMARK 922        TOTAL FREE ENERGY PREDICTED BY IDOCK:   -8.57 KCAL/MOL
REMARK 923 INTER-LIGAND FREE ENERGY PREDICTED BY IDOCK:   -7.35 KCAL/MOL
REMARK 924 INTRA-LIGAND FREE ENERGY PREDICTED BY IDOCK:   -1.22 KCAL/MOL
REMARK 927      BINDING AFFINITY PREDICTED BY RF-SCORE:    0.00 PKD
ROOT
HETATM    1  C   UNL     1     -11.739  12.843  68.263  1.00  0.00    -0.390 C  
HETATM    2  C   UNL     1     -10.399  12.234  67.893  1.00  0.00    -0.208 C  
HETATM    3  C   UNL     1      -9.210  12.895  68.007  1.00  0.00    -0.212 C  
ENDROOT
BRANCH   2   4
HETATM    4  N   UNL     1     -10.505  10.887  67.531  1.00  0.00    -0.202 N  
HETATM    5  C   UNL     1      -9.934  10.428  66.352  1.00  0.00    -0.221 C  
HETATM    6  O   UNL     1     -10.002   9.272  65.945  1.00  0.00    -0.307 OA 
BRANCH   4   7
HETATM    7  C   UNL     1     -11.391   9.982  68.279  1.00  0.00    -0.049 C  
BRANCH   7   8
HETATM    8  C   UNL     1     -10.817   9.325  69.513  1.00  0.00    -0.211 A  
HETATM    9  H2  UNL     1     -13.025  10.474  70.446  1.00  0.00     0.000 HD 
HETATM   10  H1  UNL     1     -12.844  10.212  72.155  1.00  0.00     0.000 HD 
HETATM   11  N   UNL     1     -12.471  10.092  71.213  1.00  0.00    -0.360 NA 
HETATM   12  C   UNL     1     -11.365   9.502  70.897  1.00  0.00    -0.341 A  
HETATM   13  C   UNL     1      -9.594   8.739  69.499  1.00  0.00    -0.167 A  
HETATM   14  N   UNL     1      -8.814   8.360  70.581  1.00  0.00    -0.140 NA 
HETATM   15  C   UNL     1      -8.483   8.329  72.992  1.00  0.00    -0.262 C  
HETATM   16  N   UNL     1     -10.601   9.025  71.924  1.00  0.00    -0.349 NA 
HETATM   17  C   UNL     1      -9.335   8.545  71.761  1.00  0.00    -0.253 A  
ENDBRANCH   7   8
ENDBRANCH   4   7
ENDBRANCH   2   4
BRANCH   3  18
HETATM   18  C   UNL     1      -7.836  12.221  67.953  1.00  0.00    -0.146 C  
BRANCH  18  19
HETATM   19  C   UNL     1      -6.647  13.122  68.345  1.00  0.00    -0.092 C  
HETATM   20  H   UNL     1      -4.960  13.740  67.532  1.00  0.00     0.000 HD 
HETATM   21  O   UNL     1      -5.692  13.185  67.291  1.00  0.00    -0.348 OA 
ENDBRANCH  18  19
ENDBRANCH   3  18
BRANCH   3  22
HETATM   22  S   UNL     1      -9.252  14.644  68.290  1.00  0.00    -0.203 SA 
BRANCH  22  23
HETATM   23  S   UNL     1      -9.224  15.393  66.377  1.00  0.00    -0.323 SA 
BRANCH  23  24
HETATM   24  C   UNL     1     -10.959  15.354  65.796  1.00  0.00    -0.309 C  
BRANCH  24  25
HETATM   25  C   UNL     1     -11.319  14.456  64.615  1.00  0.00    -0.371 C  
HETATM   26  O   UNL     1     -12.598  13.839  64.891  1.00  0.00    -0.580 OA 
HETATM   27  C   UNL     1     -11.285  12.337  63.601  1.00  0.00    -0.539 C  
HETATM   28  C   UNL     1     -12.622  12.539  64.282  1.00  0.00    -0.396 C  
HETATM   29  C   UNL     1     -10.378  13.294  64.342  1.00  0.00    -0.372 C  
ENDBRANCH  24  25
ENDBRANCH  23  24
ENDBRANCH  22  23
ENDBRANCH   3  22
TORSDOF 9
ENDMDL
MODEL       83
REMARK 921   NORMALIZED FREE ENERGY PREDICTED BY IDOCK:   -4.79 KCAL/MOL
REMARK 922        TOTAL FREE ENERGY PREDICTED BY IDOCK:   -8.56 KCAL/MOL
REMARK 923 INTER-LIGAND FREE ENERGY PREDICTED BY IDOCK:   -7.62 KCAL/MOL
REMARK 924 INTRA-LIGAND FREE ENERGY PREDICTED BY IDOCK:   -0.94 KCAL/MOL
REMARK 927      BINDING AFFINITY PREDICTED BY RF-SCORE:    0.00 PKD
ROOT
HETATM    1  C   UNL     1      -9.449  11.097  68.566  1.00  0.00    -0.193 C  
HETATM    2  C   UNL     1      -9.863  11.098  67.106  1.00  0.00    -0.187 C  
HETATM    3  C   UNL     1     -10.871  11.871  66.606  1.00  0.00    -0.276 C  
ENDROOT
BRANCH   2   4
HETATM    4  N   UNL     1      -9.026  10.306  66.311  1.00  0.00    -0.150 N  
HETATM    5  C   UNL     1      -7.855  10.830  65.782  1.00  0.00    -0.106 C  
HETATM    6  O   UNL     1      -7.080  10.217  65.054  1.00  0.00    -0.132 OA 
BRANCH   4   7
HETATM    7  C   UNL     1      -9.471   8.981  65.853  1.00  0.00    -0.249 C  
BRANCH   7   8
HETATM    8  C   UNL     1      -9.486   7.870  66.878  1.00  0.00    -0.243 A  
HETATM    9  H2  UNL     1      -6.906   8.494  66.744  1.00  0.00     0.000 HD 
HETATM   10  H1  UNL     1      -6.205   7.239  67.721  1.00  0.00     0.000 HD 
HETATM   11  N   UNL     1      -7.042   7.662  67.319  1.00  0.00    -0.083 NA 
HETATM   12  C   UNL     1      -8.257   7.248  67.469  1.00  0.00    -0.113 A  
HETATM   13  C   UNL     1     -10.615   7.165  67.140  1.00  0.00    -0.347 A  
HETATM   14  N   UNL     1     -10.734   5.959  67.814  1.00  0.00    -0.269 NA 
HETATM   15  C   UNL     1      -9.645   4.064  68.886  1.00  0.00    -0.213 C  
HETATM   16  N   UNL     1      -8.439   6.112  68.205  1.00  0.00    -0.117 NA 
HETATM   17  C   UNL     1      -9.632   5.458  68.298  1.00  0.00    -0.125 A  
ENDBRANCH   7   8
ENDBRANCH   4   7
ENDBRANCH   2   4
BRANCH   3  18
HETATM   18  C   UNL     1     -11.101  12.136  65.115  1.00  0.00    -0.369 C  
BRANCH  18  19
HETATM   19  C   UNL     1     -12.461  12.771  64.763  1.00  0.00    -0.472 C  
HETATM   20  H   UNL     1     -13.901  12.491  63.446  1.00  0.00     0.000 HD 
HETATM   21  O   UNL     1     -13.063  12.099  63.662  1.00  0.00    -0.787 OA 
ENDBRANCH  18  19
ENDBRANCH   3  18
BRANCH   3  22
HETATM   22  S   UNL     1     -11.960  12.667  67.755  1.00  0.00    -0.115 SA 
BRANCH  22  23
HETATM   23  S   UNL     1     -11.112  14.529  67.937  1.00  0.00    -0.291 SA 
BRANCH  23  24
HETATM   24  C   UNL     1     -11.503  15.097  69.632  1.00  0.00    -0.293 C  
BRANCH  24  25
HETATM   25  C   UNL     1     -12.765  14.571  70.311  1.00  0.00    -0.272 C  
HETATM   26  O   UNL     1     -13.422  15.681  70.965  1.00  0.00    -0.575 OA 
HETATM   27  C   UNL     1     -13.825  13.706  72.221  1.00  0.00    -0.689 C  
HETATM   28  C   UNL     1     -14.090  15.194  72.138  1.00  0.00    -0.554 C  
HETATM   29  C   UNL     1     -12.560  13.541  71.409  1.00  0.00    -0.398 C  
ENDBRANCH  24  25
ENDBRANCH  23  24
ENDBRANCH  22  23
ENDBRANCH   3  22
TORSDOF 9
ENDMDL
MODEL       84
REMARK 921   NORMALIZED FREE ENERGY PREDICTED BY IDOCK:   -4.79 KCAL/MOL
REMARK 922        TOTAL FREE ENERGY PREDICTED BY IDOCK:   -8.55 KCAL/MOL
REMARK 923 INTER-LIGAND FREE ENERGY PREDICTED BY IDOCK:   -8.02 KCAL/MOL
REMARK 924 INTRA-LIGAND FREE ENERGY PREDICTED BY IDOCK:   -0.52 KCAL/MOL
REMARK 927      BINDING AFFINITY PREDICTED BY RF-SCORE:    0.00 PKD
ROOT
HETATM    1  C   UNL     1     -10.745  13.977  68.888  1.00  0.00    -0.265 C  
HETATM    2  C   UNL     1     -10.116  13.242  67.719  1.00  0.00    -0.229 C  
HETATM    3  C   UNL     1     -10.587  12.059  67.227  1.00  0.00    -0.222 C  
ENDROOT
BRANCH   2   4
HETATM    4  N   UNL     1      -9.072  13.964  67.130  1.00  0.00    -0.229 N  
HETATM    5  C   UNL     1      -7.813  13.985  67.715  1.00  0.00    -0.171 C  
HETATM    6  O   UNL     1      -6.851  14.613  67.282  1.00  0.00    -0.254 OA 
BRANCH   4   7
HETATM    7  C   UNL     1      -9.338  14.875  66.006  1.00  0.00    -0.241 C  
BRANCH   7   8
HETATM    8  C   UNL     1      -9.783  16.278  66.350  1.00  0.00    -0.310 A  
HETATM    9  H2  UNL     1     -11.093  15.796  64.088  1.00  0.00     0.000 HD 
HETATM   10  H1  UNL     1     -11.785  17.357  63.761  1.00  0.00     0.000 HD 
HETATM   11  N   UNL     1     -11.212  16.770  64.368  1.00  0.00    -1.107 NA 
HETATM   12  C   UNL     1     -10.624  17.140  65.457  1.00  0.00    -0.150 A  
HETATM   13  C   UNL     1      -9.226  16.964  67.378  1.00  0.00    -0.222 A  
HETATM   14  N   UNL     1      -9.304  18.324  67.642  1.00  0.00    -0.265 NA 
HETATM   15  C   UNL     1     -10.033  20.537  66.936  1.00  0.00    -0.465 C  
HETATM   16  N   UNL     1     -10.747  18.453  65.813  1.00  0.00    -0.466 NA 
HETATM   17  C   UNL     1     -10.041  19.027  66.829  1.00  0.00    -0.379 A  
ENDBRANCH   7   8
ENDBRANCH   4   7
ENDBRANCH   2   4
BRANCH   3  18
HETATM   18  C   UNL     1     -10.187  11.462  65.874  1.00  0.00    -0.292 C  
BRANCH  18  19
HETATM   19  C   UNL     1     -11.150  11.768  64.711  1.00  0.00    -0.296 C  
HETATM   20  H   UNL     1     -11.285  11.360  62.786  1.00  0.00     0.000 HD 
HETATM   21  O   UNL     1     -10.690  11.171  63.502  1.00  0.00    -0.368 OA 
ENDBRANCH  18  19
ENDBRANCH   3  18
BRANCH   3  22
HETATM   22  S   UNL     1     -11.783  11.173  68.189  1.00  0.00    -0.155 SA 
BRANCH  22  23
HETATM   23  S   UNL     1     -10.594  10.003  69.388  1.00  0.00    -0.249 SA 
BRANCH  23  24
HETATM   24  C   UNL     1     -11.421   9.952  71.020  1.00  0.00    -0.388 C  
BRANCH  24  25
HETATM   25  C   UNL     1     -11.026   8.861  72.011  1.00  0.00    -0.342 C  
HETATM   26  O   UNL     1      -9.593   8.921  72.200  1.00  0.00    -0.301 OA 
HETATM   27  C   UNL     1     -10.301   6.664  72.418  1.00  0.00    -0.217 C  
HETATM   28  C   UNL     1      -9.108   7.595  72.458  1.00  0.00    -0.155 C  
HETATM   29  C   UNL     1     -11.301   7.430  71.581  1.00  0.00    -0.286 C  
ENDBRANCH  24  25
ENDBRANCH  23  24
ENDBRANCH  22  23
ENDBRANCH   3  22
TORSDOF 9
ENDMDL
MODEL       85
REMARK 921   NORMALIZED FREE ENERGY PREDICTED BY IDOCK:   -4.78 KCAL/MOL
REMARK 922        TOTAL FREE ENERGY PREDICTED BY IDOCK:   -8.54 KCAL/MOL
REMARK 923 INTER-LIGAND FREE ENERGY PREDICTED BY IDOCK:   -7.65 KCAL/MOL
REMARK 924 INTRA-LIGAND FREE ENERGY PREDICTED BY IDOCK:   -0.89 KCAL/MOL
REMARK 927      BINDING AFFINITY PREDICTED BY RF-SCORE:    0.00 PKD
ROOT
HETATM    1  C   UNL     1     -11.654  13.548  67.984  1.00  0.00    -0.372 C  
HETATM    2  C   UNL     1     -10.376  12.807  67.635  1.00  0.00    -0.221 C  
HETATM    3  C   UNL     1      -9.126  13.325  67.822  1.00  0.00    -0.202 C  
ENDROOT
BRANCH   2   4
HETATM    4  N   UNL     1     -10.615  11.497  67.207  1.00  0.00    -0.218 N  
HETATM    5  C   UNL     1     -10.154  11.064  65.972  1.00  0.00    -0.247 C  
HETATM    6  O   UNL     1     -10.342   9.943  65.508  1.00  0.00    -0.213 OA 
BRANCH   4   7
HETATM    7  C   UNL     1     -11.530  10.624  67.959  1.00  0.00    -0.212 C  
BRANCH   7   8
HETATM    8  C   UNL     1     -11.007  10.028  69.246  1.00  0.00    -0.264 A  
HETATM    9  H2  UNL     1      -9.675   8.662  67.395  1.00  0.00     0.000 HD 
HETATM   10  H1  UNL     1      -8.881   7.462  68.370  1.00  0.00     0.000 HD 
HETATM   11  N   UNL     1      -9.503   8.269  68.321  1.00  0.00    -0.138 NA 
HETATM   12  C   UNL     1     -10.094   8.842  69.318  1.00  0.00    -0.204 A  
HETATM   13  C   UNL     1     -11.545  10.356  70.447  1.00  0.00    -0.337 A  
HETATM   14  N   UNL     1     -11.389   9.704  71.661  1.00  0.00    -0.347 NA 
HETATM   15  C   UNL     1     -10.508   7.802  72.898  1.00  0.00    -0.412 C  
HETATM   16  N   UNL     1      -9.898   8.294  70.553  1.00  0.00    -0.182 NA 
HETATM   17  C   UNL     1     -10.591   8.674  71.664  1.00  0.00    -0.303 A  
ENDBRANCH   7   8
ENDBRANCH   4   7
ENDBRANCH   2   4
BRANCH   3  18
HETATM   18  C   UNL     1      -7.834  12.504  67.786  1.00  0.00    -0.151 C  
BRANCH  18  19
HETATM   19  C   UNL     1      -6.540  13.323  67.614  1.00  0.00    -0.167 C  
HETATM   20  H   UNL     1      -4.743  13.061  66.844  1.00  0.00     0.000 HD 
HETATM   21  O   UNL     1      -5.540  12.556  66.950  1.00  0.00    -0.334 OA 
ENDBRANCH  18  19
ENDBRANCH   3  18
BRANCH   3  22
HETATM   22  S   UNL     1      -8.986  15.054  68.183  1.00  0.00    -0.178 SA 
BRANCH  22  23
HETATM   23  S   UNL     1      -8.934  15.886  66.305  1.00  0.00    -0.349 SA 
BRANCH  23  24
HETATM   24  C   UNL     1     -10.474  16.863  66.145  1.00  0.00    -0.272 C  
BRANCH  24  25
HETATM   25  C   UNL     1     -10.377  18.386  66.107  1.00  0.00    -0.407 C  
HETATM   26  O   UNL     1      -9.000  18.745  65.849  1.00  0.00    -0.462 OA 
HETATM   27  C   UNL     1      -9.983  20.417  67.221  1.00  0.00    -0.564 C  
HETATM   28  C   UNL     1      -8.717  19.988  66.509  1.00  0.00    -0.317 C  
HETATM   29  C   UNL     1     -10.734  19.115  67.391  1.00  0.00    -0.578 C  
ENDBRANCH  24  25
ENDBRANCH  23  24
ENDBRANCH  22  23
ENDBRANCH   3  22
TORSDOF 9
ENDMDL
MODEL       86
REMARK 921   NORMALIZED FREE ENERGY PREDICTED BY IDOCK:   -4.77 KCAL/MOL
REMARK 922        TOTAL FREE ENERGY PREDICTED BY IDOCK:   -8.52 KCAL/MOL
REMARK 923 INTER-LIGAND FREE ENERGY PREDICTED BY IDOCK:   -7.72 KCAL/MOL
REMARK 924 INTRA-LIGAND FREE ENERGY PREDICTED BY IDOCK:   -0.80 KCAL/MOL
REMARK 927      BINDING AFFINITY PREDICTED BY RF-SCORE:    0.00 PKD
ROOT
HETATM    1  C   UNL     1      -9.892  14.724  65.679  1.00  0.00    -0.361 C  
HETATM    2  C   UNL     1     -10.765  13.942  66.643  1.00  0.00    -0.281 C  
HETATM    3  C   UNL     1     -10.928  14.276  67.957  1.00  0.00    -0.249 C  
ENDROOT
BRANCH   2   4
HETATM    4  N   UNL     1     -11.471  12.912  66.012  1.00  0.00    -0.324 N  
HETATM    5  C   UNL     1     -12.602  13.192  65.258  1.00  0.00    -0.472 C  
HETATM    6  O   UNL     1     -13.294  12.349  64.695  1.00  0.00    -0.778 OA 
BRANCH   4   7
HETATM    7  C   UNL     1     -11.153  11.506  66.304  1.00  0.00    -0.263 C  
BRANCH   7   8
HETATM    8  C   UNL     1     -10.123  10.838  65.422  1.00  0.00    -0.347 A  
HETATM    9  H2  UNL     1      -9.153  10.417  67.861  1.00  0.00     0.000 HD 
HETATM   10  H1  UNL     1      -7.600   9.729  67.491  1.00  0.00     0.000 HD 
HETATM   11  N   UNL     1      -8.481  10.118  67.154  1.00  0.00    -0.125 NA 
HETATM   12  C   UNL     1      -8.829  10.267  65.918  1.00  0.00    -0.159 A  
HETATM   13  C   UNL     1     -10.171  10.947  64.071  1.00  0.00    -0.357 A  
HETATM   14  N   UNL     1      -9.174  10.654  63.153  1.00  0.00    -0.260 NA 
HETATM   15  C   UNL     1      -6.868   9.996  62.731  1.00  0.00    -0.127 C  
HETATM   16  N   UNL     1      -7.915   9.905  64.969  1.00  0.00    -0.131 NA 
HETATM   17  C   UNL     1      -8.066  10.170  63.639  1.00  0.00    -0.163 A  
ENDBRANCH   7   8
ENDBRANCH   4   7
ENDBRANCH   2   4
BRANCH   3  18
HETATM   18  C   UNL     1     -12.030  13.716  68.863  1.00  0.00    -0.392 C  
BRANCH  18  19
HETATM   19  C   UNL     1     -11.877  14.043  70.361  1.00  0.00    -0.286 C  
HETATM   20  H   UNL     1     -12.380  13.231  72.087  1.00  0.00     0.000 HD 
HETATM   21  O   UNL     1     -12.474  13.029  71.163  1.00  0.00    -0.361 OA 
ENDBRANCH  18  19
ENDBRANCH   3  18
BRANCH   3  22
HETATM   22  S   UNL     1      -9.828  15.476  68.656  1.00  0.00    -0.215 SA 
BRANCH  22  23
HETATM   23  S   UNL     1     -10.902  17.216  68.458  1.00  0.00    -0.212 SA 
BRANCH  23  24
HETATM   24  C   UNL     1      -9.737  18.574  68.841  1.00  0.00    -0.308 C  
BRANCH  24  25
HETATM   25  C   UNL     1      -8.485  18.733  67.982  1.00  0.00    -0.292 C  
HETATM   26  O   UNL     1      -7.797  19.933  68.404  1.00  0.00    -0.308 OA 
HETATM   27  C   UNL     1      -7.439  19.624  66.076  1.00  0.00    -0.320 C  
HETATM   28  C   UNL     1      -7.137  20.509  67.267  1.00  0.00    -0.314 C  
HETATM   29  C   UNL     1      -8.712  18.919  66.491  1.00  0.00    -0.319 C  
ENDBRANCH  24  25
ENDBRANCH  23  24
ENDBRANCH  22  23
ENDBRANCH   3  22
TORSDOF 9
ENDMDL
MODEL       87
REMARK 921   NORMALIZED FREE ENERGY PREDICTED BY IDOCK:   -4.76 KCAL/MOL
REMARK 922        TOTAL FREE ENERGY PREDICTED BY IDOCK:   -8.50 KCAL/MOL
REMARK 923 INTER-LIGAND FREE ENERGY PREDICTED BY IDOCK:   -7.54 KCAL/MOL
REMARK 924 INTRA-LIGAND FREE ENERGY PREDICTED BY IDOCK:   -0.95 KCAL/MOL
REMARK 927      BINDING AFFINITY PREDICTED BY RF-SCORE:    0.00 PKD
ROOT
HETATM    1  C   UNL     1     -12.405  10.362  71.294  1.00  0.00    -0.507 C  
HETATM    2  C   UNL     1     -11.283   9.393  70.969  1.00  0.00    -0.342 C  
HETATM    3  C   UNL     1     -10.259   9.681  70.113  1.00  0.00    -0.264 C  
ENDROOT
BRANCH   2   4
HETATM    4  N   UNL     1     -11.352   8.219  71.727  1.00  0.00    -0.270 N  
HETATM    5  C   UNL     1     -10.577   8.072  72.869  1.00  0.00    -0.329 C  
HETATM    6  O   UNL     1     -10.555   7.068  73.576  1.00  0.00    -0.332 OA 
BRANCH   4   7
HETATM    7  C   UNL     1     -12.083   7.048  71.220  1.00  0.00    -0.361 C  
BRANCH   7   8
HETATM    8  C   UNL     1     -11.405   6.226  70.149  1.00  0.00    -0.476 A  
HETATM    9  H2  UNL     1     -10.438   5.166  72.386  1.00  0.00     0.000 HD 
HETATM   10  H1  UNL     1      -9.233   4.084  71.752  1.00  0.00     0.000 HD 
HETATM   11  N   UNL     1      -9.961   4.777  71.572  1.00  0.00    -0.186 NA 
HETATM   12  C   UNL     1     -10.336   5.209  70.413  1.00  0.00    -0.256 A  
HETATM   13  C   UNL     1     -11.520   6.543  68.835  1.00  0.00    -0.062 A  
HETATM   14  N   UNL     1     -10.752   6.089  67.774  1.00  0.00    -0.274 NA 
HETATM   15  C   UNL     1      -8.834   4.805  66.999  1.00  0.00    -0.107 C  
HETATM   16  N   UNL     1      -9.671   4.721  69.324  1.00  0.00    -0.181 NA 
HETATM   17  C   UNL     1      -9.831   5.213  68.062  1.00  0.00    -0.151 A  
ENDBRANCH   7   8
ENDBRANCH   4   7
ENDBRANCH   2   4
BRANCH   3  18
HETATM   18  C   UNL     1      -8.962   8.871  70.011  1.00  0.00    -0.172 C  
BRANCH  18  19
HETATM   19  C   UNL     1      -7.685   9.621  70.438  1.00  0.00    -0.160 C  
HETATM   20  H   UNL     1      -6.565   9.784  72.054  1.00  0.00     0.000 HD 
HETATM   21  O   UNL     1      -7.353   9.323  71.790  1.00  0.00    -0.337 OA 
ENDBRANCH  18  19
ENDBRANCH   3  18
BRANCH   3  22
HETATM   22  S   UNL     1     -10.409  11.116  69.085  1.00  0.00    -0.109 SA 
BRANCH  22  23
HETATM   23  S   UNL     1     -10.354  10.306  67.198  1.00  0.00    -0.250 SA 
BRANCH  23  24
HETATM   24  C   UNL     1      -9.529  11.550  66.140  1.00  0.00    -0.220 C  
BRANCH  24  25
HETATM   25  C   UNL     1     -10.391  12.489  65.299  1.00  0.00    -0.287 C  
HETATM   26  O   UNL     1     -11.748  12.420  65.795  1.00  0.00    -0.383 OA 
HETATM   27  C   UNL     1     -11.807  12.828  63.456  1.00  0.00    -0.618 C  
HETATM   28  C   UNL     1     -12.650  12.629  64.698  1.00  0.00    -0.440 C  
HETATM   29  C   UNL     1     -10.501  12.158  63.821  1.00  0.00    -0.470 C  
ENDBRANCH  24  25
ENDBRANCH  23  24
ENDBRANCH  22  23
ENDBRANCH   3  22
TORSDOF 9
ENDMDL
MODEL       88
REMARK 921   NORMALIZED FREE ENERGY PREDICTED BY IDOCK:   -4.75 KCAL/MOL
REMARK 922        TOTAL FREE ENERGY PREDICTED BY IDOCK:   -8.49 KCAL/MOL
REMARK 923 INTER-LIGAND FREE ENERGY PREDICTED BY IDOCK:   -7.39 KCAL/MOL
REMARK 924 INTRA-LIGAND FREE ENERGY PREDICTED BY IDOCK:   -1.10 KCAL/MOL
REMARK 927      BINDING AFFINITY PREDICTED BY RF-SCORE:    0.00 PKD
ROOT
HETATM    1  C   UNL     1      -8.604  11.311  68.752  1.00  0.00    -0.109 C  
HETATM    2  C   UNL     1     -10.101  11.175  68.958  1.00  0.00    -0.155 C  
HETATM    3  C   UNL     1     -10.666  10.316  69.857  1.00  0.00    -0.294 C  
ENDROOT
BRANCH   2   4
HETATM    4  N   UNL     1     -10.832  12.103  68.208  1.00  0.00    -0.212 N  
HETATM    5  C   UNL     1     -11.695  11.677  67.208  1.00  0.00    -0.175 C  
HETATM    6  O   UNL     1     -12.352  12.422  66.487  1.00  0.00    -0.511 OA 
BRANCH   4   7
HETATM    7  C   UNL     1     -10.548  13.542  68.324  1.00  0.00    -0.250 C  
BRANCH   7   8
HETATM    8  C   UNL     1     -11.314  14.311  69.375  1.00  0.00    -0.325 A  
HETATM    9  H2  UNL     1      -9.590  16.123  68.478  1.00  0.00     0.000 HD 
HETATM   10  H1  UNL     1      -9.861  17.427  69.596  1.00  0.00     0.000 HD 
HETATM   11  N   UNL     1     -10.095  16.483  69.289  1.00  0.00    -0.276 NA 
HETATM   12  C   UNL     1     -10.969  15.698  69.826  1.00  0.00    -0.304 A  
HETATM   13  C   UNL     1     -12.212  13.698  70.185  1.00  0.00    -0.342 A  
HETATM   14  N   UNL     1     -12.771  14.177  71.361  1.00  0.00    -0.344 NA 
HETATM   15  C   UNL     1     -12.848  15.912  73.067  1.00  0.00    -0.615 C  
HETATM   16  N   UNL     1     -11.618  16.160  70.936  1.00  0.00    -0.405 NA 
HETATM   17  C   UNL     1     -12.429  15.385  71.711  1.00  0.00    -0.378 A  
ENDBRANCH   7   8
ENDBRANCH   4   7
ENDBRANCH   2   4
BRANCH   3  18
HETATM   18  C   UNL     1     -12.126  10.380  70.316  1.00  0.00    -0.370 C  
BRANCH  18  19
HETATM   19  C   UNL     1     -12.376   9.942  71.772  1.00  0.00    -0.368 C  
HETATM   20  H   UNL     1     -13.908   9.380  72.881  1.00  0.00     0.000 HD 
HETATM   21  O   UNL     1     -13.754   9.650  71.983  1.00  0.00    -0.379 OA 
ENDBRANCH  18  19
ENDBRANCH   3  18
BRANCH   3  22
HETATM   22  S   UNL     1      -9.634   9.075  70.587  1.00  0.00    -0.258 SA 
BRANCH  22  23
HETATM   23  S   UNL     1     -10.270   7.368  69.636  1.00  0.00    -0.215 SA 
BRANCH  23  24
HETATM   24  C   UNL     1      -8.921   6.897  68.492  1.00  0.00    -0.122 C  
BRANCH  24  25
HETATM   25  C   UNL     1      -8.965   7.406  67.053  1.00  0.00    -0.130 C  
HETATM   26  O   UNL     1      -7.746   8.140  66.797  1.00  0.00    -0.092 OA 
HETATM   27  C   UNL     1      -9.504   9.107  65.525  1.00  0.00    -0.276 C  
HETATM   28  C   UNL     1      -8.030   9.190  65.860  1.00  0.00    -0.106 C  
HETATM   29  C   UNL     1     -10.083   8.380  66.719  1.00  0.00    -0.373 C  
ENDBRANCH  24  25
ENDBRANCH  23  24
ENDBRANCH  22  23
ENDBRANCH   3  22
TORSDOF 9
ENDMDL
MODEL       89
REMARK 921   NORMALIZED FREE ENERGY PREDICTED BY IDOCK:   -4.75 KCAL/MOL
REMARK 922        TOTAL FREE ENERGY PREDICTED BY IDOCK:   -8.49 KCAL/MOL
REMARK 923 INTER-LIGAND FREE ENERGY PREDICTED BY IDOCK:   -7.47 KCAL/MOL
REMARK 924 INTRA-LIGAND FREE ENERGY PREDICTED BY IDOCK:   -1.02 KCAL/MOL
REMARK 927      BINDING AFFINITY PREDICTED BY RF-SCORE:    0.00 PKD
ROOT
HETATM    1  C   UNL     1      -8.331   8.575  70.063  1.00  0.00    -0.123 C  
HETATM    2  C   UNL     1      -9.714   9.193  70.153  1.00  0.00    -0.204 C  
HETATM    3  C   UNL     1     -10.109  10.275  69.420  1.00  0.00    -0.235 C  
ENDROOT
BRANCH   2   4
HETATM    4  N   UNL     1     -10.573   8.464  70.983  1.00  0.00    -0.208 N  
HETATM    5  C   UNL     1     -10.375   8.443  72.356  1.00  0.00    -0.329 C  
HETATM    6  O   UNL     1     -11.062   7.810  73.153  1.00  0.00    -0.409 OA 
BRANCH   4   7
HETATM    7  C   UNL     1     -11.568   7.548  70.404  1.00  0.00    -0.149 C  
BRANCH   7   8
HETATM    8  C   UNL     1     -11.040   6.375  69.611  1.00  0.00    -0.465 A  
HETATM    9  H2  UNL     1     -10.390   5.725  72.105  1.00  0.00     0.000 HD 
HETATM   10  H1  UNL     1      -9.417   4.308  71.840  1.00  0.00     0.000 HD 
HETATM   11  N   UNL     1      -9.978   5.064  71.445  1.00  0.00    -0.185 NA 
HETATM   12  C   UNL     1     -10.216   5.265  70.191  1.00  0.00    -0.280 A  
HETATM   13  C   UNL     1     -11.045   6.378  68.255  1.00  0.00    -0.267 A  
HETATM   14  N   UNL     1     -10.353   5.539  67.395  1.00  0.00    -0.216 NA 
HETATM   15  C   UNL     1      -8.720   3.757  67.099  1.00  0.00    -0.122 C  
HETATM   16  N   UNL     1      -9.633   4.407  69.303  1.00  0.00    -0.180 NA 
HETATM   17  C   UNL     1      -9.645   4.597  67.953  1.00  0.00    -0.157 A  
ENDBRANCH   7   8
ENDBRANCH   4   7
ENDBRANCH   2   4
BRANCH   3  18
HETATM   18  C   UNL     1     -11.565  10.719  69.246  1.00  0.00    -0.376 C  
BRANCH  18  19
HETATM   19  C   UNL     1     -12.106  11.643  70.355  1.00  0.00    -0.373 C  
HETATM   20  H   UNL     1     -12.180  13.578  70.731  1.00  0.00     0.000 HD 
HETATM   21  O   UNL     1     -11.846  13.009  70.048  1.00  0.00    -0.322 OA 
ENDBRANCH  18  19
ENDBRANCH   3  18
BRANCH   3  22
HETATM   22  S   UNL     1      -8.864  11.203  68.567  1.00  0.00    -0.154 SA 
BRANCH  22  23
HETATM   23  S   UNL     1      -8.677  10.161  66.806  1.00  0.00    -0.125 SA 
BRANCH  23  24
HETATM   24  C   UNL     1     -10.286  10.327  65.950  1.00  0.00    -0.223 C  
BRANCH  24  25
HETATM   25  C   UNL     1     -10.654  11.674  65.332  1.00  0.00    -0.280 C  
HETATM   26  O   UNL     1     -11.916  12.099  65.896  1.00  0.00    -0.561 OA 
HETATM   27  C   UNL     1     -11.766  12.897  63.663  1.00  0.00    -0.572 C  
HETATM   28  C   UNL     1     -12.628  12.858  64.907  1.00  0.00    -0.458 C  
HETATM   29  C   UNL     1     -10.876  11.686  63.829  1.00  0.00    -0.493 C  
ENDBRANCH  24  25
ENDBRANCH  23  24
ENDBRANCH  22  23
ENDBRANCH   3  22
TORSDOF 9
ENDMDL
MODEL       90
REMARK 921   NORMALIZED FREE ENERGY PREDICTED BY IDOCK:   -4.73 KCAL/MOL
REMARK 922        TOTAL FREE ENERGY PREDICTED BY IDOCK:   -8.47 KCAL/MOL
REMARK 923 INTER-LIGAND FREE ENERGY PREDICTED BY IDOCK:   -7.48 KCAL/MOL
REMARK 924 INTRA-LIGAND FREE ENERGY PREDICTED BY IDOCK:   -0.99 KCAL/MOL
REMARK 927      BINDING AFFINITY PREDICTED BY RF-SCORE:    0.00 PKD
ROOT
HETATM    1  C   UNL     1     -12.820   9.949  70.987  1.00  0.00    -0.417 C  
HETATM    2  C   UNL     1     -11.535   9.154  70.846  1.00  0.00    -0.296 C  
HETATM    3  C   UNL     1     -10.441   9.600  70.162  1.00  0.00    -0.273 C  
ENDROOT
BRANCH   2   4
HETATM    4  N   UNL     1     -11.554   7.968  71.588  1.00  0.00    -0.264 N  
HETATM    5  C   UNL     1     -11.033   7.933  72.873  1.00  0.00    -0.388 C  
HETATM    6  O   UNL     1     -10.984   6.931  73.582  1.00  0.00    -0.249 OA 
BRANCH   4   7
HETATM    7  C   UNL     1     -11.933   6.698  70.950  1.00  0.00    -0.355 C  
BRANCH   7   8
HETATM    8  C   UNL     1     -10.821   5.879  70.337  1.00  0.00    -0.378 A  
HETATM    9  H2  UNL     1     -11.631   7.371  68.292  1.00  0.00     0.000 HD 
HETATM   10  H1  UNL     1     -10.719   6.676  66.986  1.00  0.00     0.000 HD 
HETATM   11  N   UNL     1     -10.954   6.676  67.979  1.00  0.00    -0.264 NA 
HETATM   12  C   UNL     1     -10.476   5.879  68.878  1.00  0.00    -0.259 A  
HETATM   13  C   UNL     1     -10.224   4.872  71.021  1.00  0.00    -0.192 A  
HETATM   14  N   UNL     1      -9.416   3.860  70.525  1.00  0.00    -0.166 NA 
HETATM   15  C   UNL     1      -8.437   2.744  68.596  1.00  0.00    -0.095 C  
HETATM   16  N   UNL     1      -9.600   4.920  68.455  1.00  0.00    -0.139 NA 
HETATM   17  C   UNL     1      -9.156   3.904  69.248  1.00  0.00    -0.132 A  
ENDBRANCH   7   8
ENDBRANCH   4   7
ENDBRANCH   2   4
BRANCH   3  18
HETATM   18  C   UNL     1      -9.042   8.984  70.267  1.00  0.00    -0.227 C  
BRANCH  18  19
HETATM   19  C   UNL     1      -7.874   9.965  70.048  1.00  0.00    -0.180 C  
HETATM   20  H   UNL     1      -6.227  10.502  70.991  1.00  0.00     0.000 HD 
HETATM   21  O   UNL     1      -6.948   9.898  71.127  1.00  0.00    -0.338 OA 
ENDBRANCH  18  19
ENDBRANCH   3  18
BRANCH   3  22
HETATM   22  S   UNL     1     -10.631  11.020  69.119  1.00  0.00    -0.201 SA 
BRANCH  22  23
HETATM   23  S   UNL     1     -10.516  10.196  67.240  1.00  0.00    -0.260 SA 
BRANCH  23  24
HETATM   24  C   UNL     1      -9.609  11.409  66.213  1.00  0.00    -0.213 C  
BRANCH  24  25
HETATM   25  C   UNL     1     -10.394  12.279  65.235  1.00  0.00    -0.281 C  
HETATM   26  O   UNL     1     -11.553  12.801  65.926  1.00  0.00    -0.340 OA 
HETATM   27  C   UNL     1     -12.102  12.488  63.636  1.00  0.00    -0.642 C  
HETATM   28  C   UNL     1     -12.623  12.950  64.981  1.00  0.00    -0.472 C  
HETATM   29  C   UNL     1     -10.956  11.576  64.011  1.00  0.00    -0.454 C  
ENDBRANCH  24  25
ENDBRANCH  23  24
ENDBRANCH  22  23
ENDBRANCH   3  22
TORSDOF 9
ENDMDL
MODEL       91
REMARK 921   NORMALIZED FREE ENERGY PREDICTED BY IDOCK:   -4.73 KCAL/MOL
REMARK 922        TOTAL FREE ENERGY PREDICTED BY IDOCK:   -8.46 KCAL/MOL
REMARK 923 INTER-LIGAND FREE ENERGY PREDICTED BY IDOCK:   -7.62 KCAL/MOL
REMARK 924 INTRA-LIGAND FREE ENERGY PREDICTED BY IDOCK:   -0.84 KCAL/MOL
REMARK 927      BINDING AFFINITY PREDICTED BY RF-SCORE:    0.00 PKD
ROOT
HETATM    1  C   UNL     1     -11.402  11.900  66.274  1.00  0.00    -0.394 C  
HETATM    2  C   UNL     1     -10.068  12.066  66.980  1.00  0.00    -0.203 C  
HETATM    3  C   UNL     1      -9.461  13.273  67.176  1.00  0.00    -0.240 C  
ENDROOT
BRANCH   2   4
HETATM    4  N   UNL     1      -9.587  10.862  67.505  1.00  0.00    -0.155 N  
HETATM    5  C   UNL     1      -9.338   9.780  66.673  1.00  0.00    -0.158 C  
HETATM    6  O   UNL     1      -8.942   8.681  67.053  1.00  0.00    -0.128 OA 
BRANCH   4   7
HETATM    7  C   UNL     1      -9.533  10.654  68.961  1.00  0.00    -0.191 C  
BRANCH   7   8
HETATM    8  C   UNL     1     -10.813  10.230  69.642  1.00  0.00    -0.311 A  
HETATM    9  H2  UNL     1     -11.164  12.847  69.334  1.00  0.00     0.000 HD 
HETATM   10  H1  UNL     1     -12.633  13.097  70.229  1.00  0.00     0.000 HD 
HETATM   11  N   UNL     1     -11.916  12.451  69.899  1.00  0.00    -0.324 NA 
HETATM   12  C   UNL     1     -11.867  11.180  70.127  1.00  0.00    -0.365 A  
HETATM   13  C   UNL     1     -10.981   8.969  70.110  1.00  0.00    -0.233 A  
HETATM   14  N   UNL     1     -11.944   8.504  70.993  1.00  0.00    -0.267 NA 
HETATM   15  C   UNL     1     -13.801   8.998  72.488  1.00  0.00    -0.491 C  
HETATM   16  N   UNL     1     -12.849  10.653  70.917  1.00  0.00    -0.381 NA 
HETATM   17  C   UNL     1     -12.830   9.374  71.390  1.00  0.00    -0.345 A  
ENDBRANCH   7   8
ENDBRANCH   4   7
ENDBRANCH   2   4
BRANCH   3  18
HETATM   18  C   UNL     1      -8.300  13.511  68.147  1.00  0.00    -0.167 C  
BRANCH  18  19
HETATM   19  C   UNL     1      -6.894  13.309  67.550  1.00  0.00    -0.146 C  
HETATM   20  H   UNL     1      -5.365  14.435  67.013  1.00  0.00     0.000 HD 
HETATM   21  O   UNL     1      -6.232  14.559  67.381  1.00  0.00    -0.333 OA 
ENDBRANCH  18  19
ENDBRANCH   3  18
BRANCH   3  22
HETATM   22  S   UNL     1     -10.086  14.674  66.290  1.00  0.00    -0.308 SA 
BRANCH  22  23
HETATM   23  S   UNL     1     -11.625  15.300  67.499  1.00  0.00    -0.124 SA 
BRANCH  23  24
HETATM   24  C   UNL     1     -11.014  16.798  68.356  1.00  0.00    -0.325 C  
BRANCH  24  25
HETATM   25  C   UNL     1     -10.115  17.767  67.592  1.00  0.00    -0.342 C  
HETATM   26  O   UNL     1      -8.923  17.993  68.380  1.00  0.00    -0.269 OA 
HETATM   27  C   UNL     1      -9.422  19.969  67.160  1.00  0.00    -0.514 C  
HETATM   28  C   UNL     1      -8.461  19.330  68.140  1.00  0.00    -0.327 C  
HETATM   29  C   UNL     1     -10.683  19.154  67.340  1.00  0.00    -0.578 C  
ENDBRANCH  24  25
ENDBRANCH  23  24
ENDBRANCH  22  23
ENDBRANCH   3  22
TORSDOF 9
ENDMDL
MODEL       92
REMARK 921   NORMALIZED FREE ENERGY PREDICTED BY IDOCK:   -4.73 KCAL/MOL
REMARK 922        TOTAL FREE ENERGY PREDICTED BY IDOCK:   -8.46 KCAL/MOL
REMARK 923 INTER-LIGAND FREE ENERGY PREDICTED BY IDOCK:   -7.76 KCAL/MOL
REMARK 924 INTRA-LIGAND FREE ENERGY PREDICTED BY IDOCK:   -0.69 KCAL/MOL
REMARK 927      BINDING AFFINITY PREDICTED BY RF-SCORE:    0.00 PKD
ROOT
HETATM    1  C   UNL     1     -11.263  12.381  68.373  1.00  0.00    -0.316 C  
HETATM    2  C   UNL     1     -10.704  11.884  67.053  1.00  0.00    -0.240 C  
HETATM    3  C   UNL     1     -10.949  12.487  65.852  1.00  0.00    -0.279 C  
ENDROOT
BRANCH   2   4
HETATM    4  N   UNL     1      -9.821  10.811  67.214  1.00  0.00    -0.176 N  
HETATM    5  C   UNL     1      -8.470  11.038  67.434  1.00  0.00    -0.132 C  
HETATM    6  O   UNL     1      -7.624  10.157  67.559  1.00  0.00    -0.090 OA 
BRANCH   4   7
HETATM    7  C   UNL     1     -10.267   9.434  66.949  1.00  0.00    -0.248 C  
BRANCH   7   8
HETATM    8  C   UNL     1     -10.467   8.535  68.147  1.00  0.00    -0.236 A  
HETATM    9  H2  UNL     1     -10.548   6.819  66.118  1.00  0.00     0.000 HD 
HETATM   10  H1  UNL     1     -11.018   5.357  66.933  1.00  0.00     0.000 HD 
HETATM   11  N   UNL     1     -10.795   6.351  66.991  1.00  0.00    -0.369 NA 
HETATM   12  C   UNL     1     -10.795   7.075  68.062  1.00  0.00    -0.163 A  
HETATM   13  C   UNL     1     -10.633   9.043  69.393  1.00  0.00    -0.221 A  
HETATM   14  N   UNL     1     -11.107   8.397  70.525  1.00  0.00    -0.254 NA 
HETATM   15  C   UNL     1     -12.075   6.399  71.523  1.00  0.00    -0.289 C  
HETATM   16  N   UNL     1     -11.165   6.461  69.225  1.00  0.00    -0.378 NA 
HETATM   17  C   UNL     1     -11.385   7.131  70.392  1.00  0.00    -0.289 A  
ENDBRANCH   7   8
ENDBRANCH   4   7
ENDBRANCH   2   4
BRANCH   3  18
HETATM   18  C   UNL     1     -10.159  12.215  64.569  1.00  0.00    -0.286 C  
BRANCH  18  19
HETATM   19  C   UNL     1     -10.840  11.259  63.569  1.00  0.00    -0.294 C  
HETATM   20  H   UNL     1     -10.295  10.049  62.110  1.00  0.00     0.000 HD 
HETATM   21  O   UNL     1      -9.875  10.638  62.726  1.00  0.00    -0.303 OA 
ENDBRANCH  18  19
ENDBRANCH   3  18
BRANCH   3  22
HETATM   22  S   UNL     1     -12.233  13.707  65.779  1.00  0.00    -0.482 SA 
BRANCH  22  23
HETATM   23  S   UNL     1     -11.319  15.236  64.755  1.00  0.00    -0.336 SA 
BRANCH  23  24
HETATM   24  C   UNL     1     -10.153  16.007  65.937  1.00  0.00    -0.353 C  
BRANCH  24  25
HETATM   25  C   UNL     1     -10.288  17.498  66.236  1.00  0.00    -0.335 C  
HETATM   26  O   UNL     1      -9.003  18.122  66.005  1.00  0.00    -0.503 OA 
HETATM   27  C   UNL     1     -10.114  19.280  67.757  1.00  0.00    -0.488 C  
HETATM   28  C   UNL     1      -8.858  19.224  66.913  1.00  0.00    -0.303 C  
HETATM   29  C   UNL     1     -10.648  17.868  67.665  1.00  0.00    -0.398 C  
ENDBRANCH  24  25
ENDBRANCH  23  24
ENDBRANCH  22  23
ENDBRANCH   3  22
TORSDOF 9
ENDMDL
MODEL       93
REMARK 921   NORMALIZED FREE ENERGY PREDICTED BY IDOCK:   -4.72 KCAL/MOL
REMARK 922        TOTAL FREE ENERGY PREDICTED BY IDOCK:   -8.44 KCAL/MOL
REMARK 923 INTER-LIGAND FREE ENERGY PREDICTED BY IDOCK:   -7.11 KCAL/MOL
REMARK 924 INTRA-LIGAND FREE ENERGY PREDICTED BY IDOCK:   -1.33 KCAL/MOL
REMARK 927      BINDING AFFINITY PREDICTED BY RF-SCORE:    0.00 PKD
ROOT
HETATM    1  C   UNL     1      -9.609  11.019  65.293  1.00  0.00    -0.270 C  
HETATM    2  C   UNL     1      -9.572  11.646  66.674  1.00  0.00    -0.204 C  
HETATM    3  C   UNL     1     -10.600  12.372  67.204  1.00  0.00    -0.224 C  
ENDROOT
BRANCH   2   4
HETATM    4  N   UNL     1      -8.418  11.304  67.388  1.00  0.00    -0.134 N  
HETATM    5  C   UNL     1      -7.460  12.264  67.680  1.00  0.00    -0.134 C  
HETATM    6  O   UNL     1      -6.408  12.046  68.275  1.00  0.00    -0.049 OA 
BRANCH   4   7
HETATM    7  C   UNL     1      -8.101   9.893  67.658  1.00  0.00    -0.110 C  
BRANCH   7   8
HETATM    8  C   UNL     1      -8.914   9.199  68.726  1.00  0.00    -0.136 A  
HETATM    9  H2  UNL     1     -10.081   8.372  66.486  1.00  0.00     0.000 HD 
HETATM   10  H1  UNL     1     -11.463   7.528  67.118  1.00  0.00     0.000 HD 
HETATM   11  N   UNL     1     -10.617   8.068  67.300  1.00  0.00    -0.313 NA 
HETATM   12  C   UNL     1     -10.158   8.406  68.460  1.00  0.00    -0.197 A  
HETATM   13  C   UNL     1      -8.730   9.470  70.042  1.00  0.00    -0.221 A  
HETATM   14  N   UNL     1      -9.563   9.154  71.105  1.00  0.00    -0.283 NA 
HETATM   15  C   UNL     1     -11.682   8.244  71.884  1.00  0.00    -0.381 C  
HETATM   16  N   UNL     1     -10.894   8.036  69.549  1.00  0.00    -0.182 NA 
HETATM   17  C   UNL     1     -10.634   8.471  70.816  1.00  0.00    -0.206 A  
ENDBRANCH   7   8
ENDBRANCH   4   7
ENDBRANCH   2   4
BRANCH   3  18
HETATM   18  C   UNL     1     -10.729  12.738  68.686  1.00  0.00    -0.273 C  
BRANCH  18  19
HETATM   19  C   UNL     1     -11.642  11.813  69.514  1.00  0.00    -0.332 C  
HETATM   20  H   UNL     1     -12.783  11.949  71.117  1.00  0.00     0.000 HD 
HETATM   21  O   UNL     1     -12.220  12.519  70.607  1.00  0.00    -0.369 OA 
ENDBRANCH  18  19
ENDBRANCH   3  18
BRANCH   3  22
HETATM   22  S   UNL     1     -11.905  12.883  66.119  1.00  0.00    -0.436 SA 
BRANCH  22  23
HETATM   23  S   UNL     1     -10.985  14.329  64.986  1.00  0.00    -0.411 SA 
BRANCH  23  24
HETATM   24  C   UNL     1     -10.096  15.405  66.170  1.00  0.00    -0.305 C  
BRANCH  24  25
HETATM   25  C   UNL     1     -10.506  16.872  66.282  1.00  0.00    -0.262 C  
HETATM   26  O   UNL     1      -9.430  17.683  65.756  1.00  0.00    -0.516 OA 
HETATM   27  C   UNL     1     -10.516  18.883  67.496  1.00  0.00    -0.522 C  
HETATM   28  C   UNL     1      -9.404  18.929  66.469  1.00  0.00    -0.335 C  
HETATM   29  C   UNL     1     -10.740  17.399  67.687  1.00  0.00    -0.310 C  
ENDBRANCH  24  25
ENDBRANCH  23  24
ENDBRANCH  22  23
ENDBRANCH   3  22
TORSDOF 9
ENDMDL
MODEL       94
REMARK 921   NORMALIZED FREE ENERGY PREDICTED BY IDOCK:   -4.71 KCAL/MOL
REMARK 922        TOTAL FREE ENERGY PREDICTED BY IDOCK:   -8.42 KCAL/MOL
REMARK 923 INTER-LIGAND FREE ENERGY PREDICTED BY IDOCK:   -7.76 KCAL/MOL
REMARK 924 INTRA-LIGAND FREE ENERGY PREDICTED BY IDOCK:   -0.67 KCAL/MOL
REMARK 927      BINDING AFFINITY PREDICTED BY RF-SCORE:    0.00 PKD
ROOT
HETATM    1  C   UNL     1      -8.102  10.251  69.628  1.00  0.00    -0.157 C  
HETATM    2  C   UNL     1      -9.381  10.508  68.853  1.00  0.00    -0.187 C  
HETATM    3  C   UNL     1      -9.426  11.193  67.672  1.00  0.00    -0.166 C  
ENDROOT
BRANCH   2   4
HETATM    4  N   UNL     1     -10.490   9.871  69.421  1.00  0.00    -0.216 N  
HETATM    5  C   UNL     1     -10.380   8.581  69.922  1.00  0.00    -0.210 C  
HETATM    6  O   UNL     1     -11.306   7.939  70.411  1.00  0.00    -0.264 OA 
BRANCH   4   7
HETATM    7  C   UNL     1     -11.829  10.470  69.312  1.00  0.00    -0.170 C  
BRANCH   7   8
HETATM    8  C   UNL     1     -12.159  11.592  70.268  1.00  0.00    -0.443 A  
HETATM    9  H2  UNL     1     -13.045   9.450  71.568  1.00  0.00     0.000 HD 
HETATM   10  H1  UNL     1     -13.858  10.187  72.917  1.00  0.00     0.000 HD 
HETATM   11  N   UNL     1     -13.319  10.302  72.058  1.00  0.00    -0.423 NA 
HETATM   12  C   UNL     1     -12.951  11.423  71.530  1.00  0.00    -0.399 A  
HETATM   13  C   UNL     1     -11.994  12.892  69.917  1.00  0.00    -0.307 A  
HETATM   14  N   UNL     1     -12.506  14.019  70.542  1.00  0.00    -0.350 NA 
HETATM   15  C   UNL     1     -13.937  14.966  72.269  1.00  0.00    -0.602 C  
HETATM   16  N   UNL     1     -13.351  12.567  72.160  1.00  0.00    -0.510 NA 
HETATM   17  C   UNL     1     -13.194  13.813  71.630  1.00  0.00    -0.371 A  
ENDBRANCH   7   8
ENDBRANCH   4   7
ENDBRANCH   2   4
BRANCH   3  18
HETATM   18  C   UNL     1     -10.623  11.194  66.716  1.00  0.00    -0.311 C  
BRANCH  18  19
HETATM   19  C   UNL     1     -10.365  11.844  65.343  1.00  0.00    -0.267 C  
HETATM   20  H   UNL     1     -10.536  11.347  63.442  1.00  0.00     0.000 HD 
HETATM   21  O   UNL     1     -10.694  10.946  64.288  1.00  0.00    -0.353 OA 
ENDBRANCH  18  19
ENDBRANCH   3  18
BRANCH   3  22
HETATM   22  S   UNL     1      -7.987  12.102  67.181  1.00  0.00    -0.148 SA 
BRANCH  22  23
HETATM   23  S   UNL     1      -8.233  13.879  68.183  1.00  0.00    -0.168 SA 
BRANCH  23  24
HETATM   24  C   UNL     1      -9.127  14.986  67.033  1.00  0.00    -0.230 C  
BRANCH  24  25
HETATM   25  C   UNL     1      -9.057  16.494  67.260  1.00  0.00    -0.204 C  
HETATM   26  O   UNL     1     -10.305  17.076  66.818  1.00  0.00    -0.309 OA 
HETATM   27  C   UNL     1      -8.557  18.641  66.447  1.00  0.00    -0.284 C  
HETATM   28  C   UNL     1     -10.045  18.396  66.317  1.00  0.00    -0.392 C  
HETATM   29  C   UNL     1      -7.984  17.241  66.485  1.00  0.00    -0.318 C  
ENDBRANCH  24  25
ENDBRANCH  23  24
ENDBRANCH  22  23
ENDBRANCH   3  22
TORSDOF 9
ENDMDL
MODEL       95
REMARK 921   NORMALIZED FREE ENERGY PREDICTED BY IDOCK:   -4.71 KCAL/MOL
REMARK 922        TOTAL FREE ENERGY PREDICTED BY IDOCK:   -8.42 KCAL/MOL
REMARK 923 INTER-LIGAND FREE ENERGY PREDICTED BY IDOCK:   -7.33 KCAL/MOL
REMARK 924 INTRA-LIGAND FREE ENERGY PREDICTED BY IDOCK:   -1.10 KCAL/MOL
REMARK 927      BINDING AFFINITY PREDICTED BY RF-SCORE:    0.00 PKD
ROOT
HETATM    1  C   UNL     1     -10.436  11.651  64.151  1.00  0.00    -0.402 C  
HETATM    2  C   UNL     1     -10.078  12.440  65.397  1.00  0.00    -0.269 C  
HETATM    3  C   UNL     1      -9.099  12.068  66.273  1.00  0.00    -0.165 C  
ENDROOT
BRANCH   2   4
HETATM    4  N   UNL     1     -10.782  13.646  65.488  1.00  0.00    -0.288 N  
HETATM    5  C   UNL     1     -10.246  14.815  64.968  1.00  0.00    -0.344 C  
HETATM    6  O   UNL     1     -10.781  15.919  65.029  1.00  0.00    -0.451 OA 
BRANCH   4   7
HETATM    7  C   UNL     1     -11.997  13.737  66.313  1.00  0.00    -0.429 C  
BRANCH   7   8
HETATM    8  C   UNL     1     -11.805  13.934  67.799  1.00  0.00    -0.415 A  
HETATM    9  H2  UNL     1     -12.027  11.294  67.591  1.00  0.00     0.000 HD 
HETATM   10  H1  UNL     1     -12.085  10.829  69.265  1.00  0.00     0.000 HD 
HETATM   11  N   UNL     1     -12.014  11.574  68.572  1.00  0.00    -0.529 NA 
HETATM   12  C   UNL     1     -11.910  12.839  68.817  1.00  0.00    -0.307 A  
HETATM   13  C   UNL     1     -11.792  15.172  68.352  1.00  0.00    -0.267 A  
HETATM   14  N   UNL     1     -11.917  15.513  69.690  1.00  0.00    -0.357 NA 
HETATM   15  C   UNL     1     -12.336  14.806  71.982  1.00  0.00    -0.416 C  
HETATM   16  N   UNL     1     -11.934  13.222  70.128  1.00  0.00    -0.335 NA 
HETATM   17  C   UNL     1     -12.014  14.522  70.531  1.00  0.00    -0.318 A  
ENDBRANCH   7   8
ENDBRANCH   4   7
ENDBRANCH   2   4
BRANCH   3  18
HETATM   18  C   UNL     1      -8.500  12.986  67.344  1.00  0.00    -0.200 C  
BRANCH  18  19
HETATM   19  C   UNL     1      -6.960  13.003  67.407  1.00  0.00    -0.116 C  
HETATM   20  H   UNL     1      -5.533  14.313  67.777  1.00  0.00     0.000 HD 
HETATM   21  O   UNL     1      -6.482  14.302  67.738  1.00  0.00    -0.155 OA 
ENDBRANCH  18  19
ENDBRANCH   3  18
BRANCH   3  22
HETATM   22  S   UNL     1      -8.434  10.431  66.135  1.00  0.00    -0.152 SA 
BRANCH  22  23
HETATM   23  S   UNL     1      -8.695   9.695  68.035  1.00  0.00    -0.119 SA 
BRANCH  23  24
HETATM   24  C   UNL     1     -10.133   8.567  67.945  1.00  0.00    -0.207 C  
BRANCH  24  25
HETATM   25  C   UNL     1      -9.884   7.069  67.783  1.00  0.00    -0.139 C  
HETATM   26  O   UNL     1      -8.611   6.893  67.119  1.00  0.00    -0.119 OA 
HETATM   27  C   UNL     1     -10.057   5.118  66.487  1.00  0.00    -0.269 C  
HETATM   28  C   UNL     1      -8.671   5.704  66.318  1.00  0.00    -0.131 C  
HETATM   29  C   UNL     1     -10.879   6.310  66.922  1.00  0.00    -0.428 C  
ENDBRANCH  24  25
ENDBRANCH  23  24
ENDBRANCH  22  23
ENDBRANCH   3  22
TORSDOF 9
ENDMDL
MODEL       96
REMARK 921   NORMALIZED FREE ENERGY PREDICTED BY IDOCK:   -4.69 KCAL/MOL
REMARK 922        TOTAL FREE ENERGY PREDICTED BY IDOCK:   -8.40 KCAL/MOL
REMARK 923 INTER-LIGAND FREE ENERGY PREDICTED BY IDOCK:   -7.69 KCAL/MOL
REMARK 924 INTRA-LIGAND FREE ENERGY PREDICTED BY IDOCK:   -0.71 KCAL/MOL
REMARK 927      BINDING AFFINITY PREDICTED BY RF-SCORE:    0.00 PKD
ROOT
HETATM    1  C   UNL     1     -11.799  11.180  68.098  1.00  0.00    -0.238 C  
HETATM    2  C   UNL     1     -11.191  11.762  66.835  1.00  0.00    -0.327 C  
HETATM    3  C   UNL     1     -10.301  11.092  66.045  1.00  0.00    -0.254 C  
ENDROOT
BRANCH   2   4
HETATM    4  N   UNL     1     -11.728  13.012  66.508  1.00  0.00    -0.363 N  
HETATM    5  C   UNL     1     -12.478  13.176  65.352  1.00  0.00    -0.481 C  
HETATM    6  O   UNL     1     -12.961  14.240  64.976  1.00  0.00    -0.693 OA 
BRANCH   4   7
HETATM    7  C   UNL     1     -11.338  14.210  67.267  1.00  0.00    -0.332 C  
BRANCH   7   8
HETATM    8  C   UNL     1     -10.178  15.016  66.729  1.00  0.00    -0.260 A  
HETATM    9  H2  UNL     1      -8.957  13.024  67.996  1.00  0.00     0.000 HD 
HETATM   10  H1  UNL     1      -7.298  13.534  67.905  1.00  0.00     0.000 HD 
HETATM   11  N   UNL     1      -8.277  13.719  67.686  1.00  0.00    -0.163 NA 
HETATM   12  C   UNL     1      -8.740  14.746  67.052  1.00  0.00    -0.235 A  
HETATM   13  C   UNL     1     -10.370  16.217  66.128  1.00  0.00    -0.339 A  
HETATM   14  N   UNL     1      -9.426  17.194  65.848  1.00  0.00    -0.523 NA 
HETATM   15  C   UNL     1      -7.133  17.986  66.055  1.00  0.00    -0.330 C  
HETATM   16  N   UNL     1      -7.837  15.697  66.670  1.00  0.00    -0.180 NA 
HETATM   17  C   UNL     1      -8.192  16.910  66.158  1.00  0.00    -0.260 A  
ENDBRANCH   7   8
ENDBRANCH   4   7
ENDBRANCH   2   4
BRANCH   3  18
HETATM   18  C   UNL     1      -9.922  11.509  64.621  1.00  0.00    -0.305 C  
BRANCH  18  19
HETATM   19  C   UNL     1      -9.629  10.346  63.653  1.00  0.00    -0.310 C  
HETATM   20  H   UNL     1      -8.135   9.739  62.517  1.00  0.00     0.000 HD 
HETATM   21  O   UNL     1      -8.316  10.456  63.113  1.00  0.00    -0.161 OA 
ENDBRANCH  18  19
ENDBRANCH   3  18
BRANCH   3  22
HETATM   22  S   UNL     1      -9.570   9.610  66.685  1.00  0.00    -0.201 SA 
BRANCH  22  23
HETATM   23  S   UNL     1      -8.270  10.342  68.096  1.00  0.00    -0.118 SA 
BRANCH  23  24
HETATM   24  C   UNL     1      -8.280   9.129  69.467  1.00  0.00    -0.120 C  
BRANCH  24  25
HETATM   25  C   UNL     1      -9.262   9.329  70.618  1.00  0.00    -0.264 C  
HETATM   26  O   UNL     1      -8.618   8.901  71.840  1.00  0.00    -0.347 OA 
HETATM   27  C   UNL     1     -10.948   8.471  72.011  1.00  0.00    -0.410 C  
HETATM   28  C   UNL     1      -9.617   8.373  72.726  1.00  0.00    -0.238 C  
HETATM   29  C   UNL     1     -10.548   8.522  70.553  1.00  0.00    -0.238 C  
ENDBRANCH  24  25
ENDBRANCH  23  24
ENDBRANCH  22  23
ENDBRANCH   3  22
TORSDOF 9
ENDMDL
MODEL       97
REMARK 921   NORMALIZED FREE ENERGY PREDICTED BY IDOCK:   -4.68 KCAL/MOL
REMARK 922        TOTAL FREE ENERGY PREDICTED BY IDOCK:   -8.38 KCAL/MOL
REMARK 923 INTER-LIGAND FREE ENERGY PREDICTED BY IDOCK:   -7.47 KCAL/MOL
REMARK 924 INTRA-LIGAND FREE ENERGY PREDICTED BY IDOCK:   -0.91 KCAL/MOL
REMARK 927      BINDING AFFINITY PREDICTED BY RF-SCORE:    0.00 PKD
ROOT
HETATM    1  C   UNL     1     -11.484  11.702  67.925  1.00  0.00    -0.381 C  
HETATM    2  C   UNL     1     -11.003  11.735  66.486  1.00  0.00    -0.295 C  
HETATM    3  C   UNL     1      -9.852  11.137  66.058  1.00  0.00    -0.228 C  
ENDROOT
BRANCH   2   4
HETATM    4  N   UNL     1     -11.923  12.348  65.628  1.00  0.00    -0.424 N  
HETATM    5  C   UNL     1     -12.138  11.847  64.352  1.00  0.00    -0.214 C  
HETATM    6  O   UNL     1     -12.903  12.337  63.527  1.00  0.00    -0.768 OA 
BRANCH   4   7
HETATM    7  C   UNL     1     -12.521  13.645  65.981  1.00  0.00    -0.426 C  
BRANCH   7   8
HETATM    8  C   UNL     1     -11.577  14.814  66.146  1.00  0.00    -0.292 A  
HETATM    9  H2  UNL     1     -12.262  14.268  68.656  1.00  0.00     0.000 HD 
HETATM   10  H1  UNL     1     -11.534  15.601  69.501  1.00  0.00     0.000 HD 
HETATM   11  N   UNL     1     -11.713  15.127  68.615  1.00  0.00    -0.347 NA 
HETATM   12  C   UNL     1     -11.313  15.510  67.448  1.00  0.00    -0.203 A  
HETATM   13  C   UNL     1     -11.102  15.496  65.075  1.00  0.00    -0.401 A  
HETATM   14  N   UNL     1     -10.481  16.736  65.056  1.00  0.00    -0.657 NA 
HETATM   15  C   UNL     1      -9.782  18.726  66.271  1.00  0.00    -0.354 C  
HETATM   16  N   UNL     1     -10.614  16.681  67.385  1.00  0.00    -0.316 NA 
HETATM   17  C   UNL     1     -10.285  17.300  66.215  1.00  0.00    -0.342 A  
ENDBRANCH   7   8
ENDBRANCH   4   7
ENDBRANCH   2   4
BRANCH   3  18
HETATM   18  C   UNL     1      -9.506  10.877  64.589  1.00  0.00    -0.285 C  
BRANCH  18  19
HETATM   19  C   UNL     1      -8.364   9.870  64.352  1.00  0.00    -0.168 C  
HETATM   20  H   UNL     1      -6.889   9.617  63.067  1.00  0.00     0.000 HD 
HETATM   21  O   UNL     1      -7.593  10.237  63.212  1.00  0.00    -0.149 OA 
ENDBRANCH  18  19
ENDBRANCH   3  18
BRANCH   3  22
HETATM   22  S   UNL     1      -8.701  10.573  67.281  1.00  0.00    -0.125 SA 
BRANCH  22  23
HETATM   23  S   UNL     1      -7.237  12.012  67.194  1.00  0.00    -0.100 SA 
BRANCH  23  24
HETATM   24  C   UNL     1      -8.074  13.603  67.541  1.00  0.00    -0.184 C  
BRANCH  24  25
HETATM   25  C   UNL     1      -7.241  14.775  68.054  1.00  0.00    -0.137 C  
HETATM   26  O   UNL     1      -7.970  15.409  69.130  1.00  0.00    -0.186 OA 
HETATM   27  C   UNL     1      -6.707  17.061  67.983  1.00  0.00    -0.155 C  
HETATM   28  C   UNL     1      -7.667  16.812  69.127  1.00  0.00    -0.165 C  
HETATM   29  C   UNL     1      -6.966  15.891  67.061  1.00  0.00    -0.173 C  
ENDBRANCH  24  25
ENDBRANCH  23  24
ENDBRANCH  22  23
ENDBRANCH   3  22
TORSDOF 9
ENDMDL
MODEL       98
REMARK 921   NORMALIZED FREE ENERGY PREDICTED BY IDOCK:   -4.66 KCAL/MOL
REMARK 922        TOTAL FREE ENERGY PREDICTED BY IDOCK:   -8.35 KCAL/MOL
REMARK 923 INTER-LIGAND FREE ENERGY PREDICTED BY IDOCK:   -6.73 KCAL/MOL
REMARK 924 INTRA-LIGAND FREE ENERGY PREDICTED BY IDOCK:   -1.63 KCAL/MOL
REMARK 927      BINDING AFFINITY PREDICTED BY RF-SCORE:    0.00 PKD
ROOT
HETATM    1  C   UNL     1      -9.959   9.266  66.364  1.00  0.00    -0.356 C  
HETATM    2  C   UNL     1      -9.421   9.341  67.781  1.00  0.00    -0.140 C  
HETATM    3  C   UNL     1     -10.103   9.905  68.820  1.00  0.00    -0.174 C  
ENDROOT
BRANCH   2   4
HETATM    4  N   UNL     1      -8.201   8.671  67.927  1.00  0.00    -0.114 N  
HETATM    5  C   UNL     1      -7.009   9.380  67.971  1.00  0.00    -0.079 C  
HETATM    6  O   UNL     1      -5.896   8.871  68.069  1.00  0.00    -0.044 OA 
BRANCH   4   7
HETATM    7  C   UNL     1      -8.142   7.204  67.830  1.00  0.00    -0.115 C  
BRANCH   7   8
HETATM    8  C   UNL     1      -8.844   6.416  68.911  1.00  0.00    -0.125 A  
HETATM    9  H2  UNL     1     -10.685   6.534  66.998  1.00  0.00     0.000 HD 
HETATM   10  H1  UNL     1     -12.060   5.850  67.812  1.00  0.00     0.000 HD 
HETATM   11  N   UNL     1     -11.079   6.126  67.846  1.00  0.00    -0.304 NA 
HETATM   12  C   UNL     1     -10.286   6.010  68.860  1.00  0.00    -0.218 A  
HETATM   13  C   UNL     1      -8.290   6.249  70.137  1.00  0.00    -0.129 A  
HETATM   14  N   UNL     1      -8.905   5.819  71.303  1.00  0.00    -0.135 NA 
HETATM   15  C   UNL     1     -10.952   5.183  72.458  1.00  0.00    -0.276 C  
HETATM   16  N   UNL     1     -10.820   5.502  70.010  1.00  0.00    -0.294 NA 
HETATM   17  C   UNL     1     -10.161   5.488  71.204  1.00  0.00    -0.222 A  
ENDBRANCH   7   8
ENDBRANCH   4   7
ENDBRANCH   2   4
BRANCH   3  18
HETATM   18  C   UNL     1      -9.742   9.715  70.297  1.00  0.00    -0.314 C  
BRANCH  18  19
HETATM   19  C   UNL     1     -10.897   9.236  71.198  1.00  0.00    -0.337 C  
HETATM   20  H   UNL     1     -11.115   8.475  73.005  1.00  0.00     0.000 HD 
HETATM   21  O   UNL     1     -10.403   8.770  72.450  1.00  0.00    -0.300 OA 
ENDBRANCH  18  19
ENDBRANCH   3  18
BRANCH   3  22
HETATM   22  S   UNL     1     -11.535  10.880  68.447  1.00  0.00    -0.274 SA 
BRANCH  22  23
HETATM   23  S   UNL     1     -10.769  12.786  68.433  1.00  0.00    -0.256 SA 
BRANCH  23  24
HETATM   24  C   UNL     1     -11.031  13.421  66.736  1.00  0.00    -0.288 C  
BRANCH  24  25
HETATM   25  C   UNL     1     -11.353  12.429  65.622  1.00  0.00    -0.347 C  
HETATM   26  O   UNL     1     -10.315  12.524  64.619  1.00  0.00    -0.298 OA 
HETATM   27  C   UNL     1     -12.363  11.971  63.551  1.00  0.00    -0.661 C  
HETATM   28  C   UNL     1     -10.890  12.244  63.334  1.00  0.00    -0.403 C  
HETATM   29  C   UNL     1     -12.648  12.666  64.864  1.00  0.00    -0.525 C  
ENDBRANCH  24  25
ENDBRANCH  23  24
ENDBRANCH  22  23
ENDBRANCH   3  22
TORSDOF 9
ENDMDL
MODEL       99
REMARK 921   NORMALIZED FREE ENERGY PREDICTED BY IDOCK:   -4.66 KCAL/MOL
REMARK 922        TOTAL FREE ENERGY PREDICTED BY IDOCK:   -8.35 KCAL/MOL
REMARK 923 INTER-LIGAND FREE ENERGY PREDICTED BY IDOCK:   -7.31 KCAL/MOL
REMARK 924 INTRA-LIGAND FREE ENERGY PREDICTED BY IDOCK:   -1.04 KCAL/MOL
REMARK 927      BINDING AFFINITY PREDICTED BY RF-SCORE:    0.00 PKD
ROOT
HETATM    1  C   UNL     1     -11.150   9.908  67.564  1.00  0.00    -0.141 C  
HETATM    2  C   UNL     1      -9.783  10.486  67.879  1.00  0.00    -0.153 C  
HETATM    3  C   UNL     1      -9.409  11.762  67.564  1.00  0.00    -0.174 C  
ENDROOT
BRANCH   2   4
HETATM    4  N   UNL     1      -8.989   9.609  68.627  1.00  0.00    -0.127 N  
HETATM    5  C   UNL     1      -8.312   8.570  68.006  1.00  0.00    -0.127 C  
HETATM    6  O   UNL     1      -7.618   7.740  68.587  1.00  0.00    -0.100 OA 
BRANCH   4   7
HETATM    7  C   UNL     1      -9.023   9.645  70.097  1.00  0.00    -0.236 C  
BRANCH   7   8
HETATM    8  C   UNL     1     -10.300   9.189  70.765  1.00  0.00    -0.323 A  
HETATM    9  H2  UNL     1      -9.203   6.895  69.991  1.00  0.00     0.000 HD 
HETATM   10  H1  UNL     1     -10.478   5.772  70.357  1.00  0.00     0.000 HD 
HETATM   11  N   UNL     1     -10.143   6.735  70.355  1.00  0.00    -0.183 NA 
HETATM   12  C   UNL     1     -10.793   7.773  70.768  1.00  0.00    -0.239 A  
HETATM   13  C   UNL     1     -11.236  10.077  71.182  1.00  0.00    -0.267 A  
HETATM   14  N   UNL     1     -12.553   9.828  71.537  1.00  0.00    -0.368 NA 
HETATM   15  C   UNL     1     -14.394   8.243  71.709  1.00  0.00    -0.574 C  
HETATM   16  N   UNL     1     -12.066   7.569  71.217  1.00  0.00    -0.314 NA 
HETATM   17  C   UNL     1     -12.932   8.581  71.513  1.00  0.00    -0.303 A  
ENDBRANCH   7   8
ENDBRANCH   4   7
ENDBRANCH   2   4
BRANCH   3  18
HETATM   18  C   UNL     1      -8.181  12.472  68.141  1.00  0.00    -0.170 C  
BRANCH  18  19
HETATM   19  C   UNL     1      -7.738  13.738  67.381  1.00  0.00    -0.143 C  
HETATM   20  H   UNL     1      -6.046  14.642  66.920  1.00  0.00     0.000 HD 
HETATM   21  O   UNL     1      -6.319  13.862  67.389  1.00  0.00    -0.320 OA 
ENDBRANCH  18  19
ENDBRANCH   3  18
BRANCH   3  22
HETATM   22  S   UNL     1     -10.439  12.682  66.453  1.00  0.00    -0.253 SA 
BRANCH  22  23
HETATM   23  S   UNL     1     -11.279  14.081  67.701  1.00  0.00    -0.311 SA 
BRANCH  23  24
HETATM   24  C   UNL     1     -11.835  13.165  69.184  1.00  0.00    -0.314 C  
BRANCH  24  25
HETATM   25  C   UNL     1     -12.052  13.933  70.485  1.00  0.00    -0.356 C  
HETATM   26  O   UNL     1     -12.944  13.161  71.322  1.00  0.00    -0.325 OA 
HETATM   27  C   UNL     1     -13.306  15.472  71.741  1.00  0.00    -0.577 C  
HETATM   28  C   UNL     1     -13.729  14.066  72.113  1.00  0.00    -0.509 C  
HETATM   29  C   UNL     1     -12.716  15.294  70.360  1.00  0.00    -0.400 C  
ENDBRANCH  24  25
ENDBRANCH  23  24
ENDBRANCH  22  23
ENDBRANCH   3  22
TORSDOF 9
ENDMDL
MODEL      100
REMARK 921   NORMALIZED FREE ENERGY PREDICTED BY IDOCK:   -4.63 KCAL/MOL
REMARK 922        TOTAL FREE ENERGY PREDICTED BY IDOCK:   -8.30 KCAL/MOL
REMARK 923 INTER-LIGAND FREE ENERGY PREDICTED BY IDOCK:   -7.34 KCAL/MOL
REMARK 924 INTRA-LIGAND FREE ENERGY PREDICTED BY IDOCK:   -0.97 KCAL/MOL
REMARK 927      BINDING AFFINITY PREDICTED BY RF-SCORE:    0.00 PKD
ROOT
HETATM    1  C   UNL     1     -11.809  12.192  67.925  1.00  0.00    -0.338 C  
HETATM    2  C   UNL     1     -10.443  12.433  67.310  1.00  0.00    -0.222 C  
HETATM    3  C   UNL     1      -9.546  13.343  67.792  1.00  0.00    -0.213 C  
ENDROOT
BRANCH   2   4
HETATM    4  N   UNL     1     -10.160  11.544  66.267  1.00  0.00    -0.219 N  
HETATM    5  C   UNL     1     -10.790  11.676  65.038  1.00  0.00    -0.288 C  
HETATM    6  O   UNL     1     -10.622  10.926  64.081  1.00  0.00    -0.375 OA 
BRANCH   4   7
HETATM    7  C   UNL     1      -9.354  10.338  66.516  1.00  0.00    -0.166 C  
BRANCH   7   8
HETATM    8  C   UNL     1      -9.963   9.276  67.401  1.00  0.00    -0.253 A  
HETATM    9  H2  UNL     1      -8.825  10.908  69.162  1.00  0.00     0.000 HD 
HETATM   10  H1  UNL     1      -9.032  10.010  70.636  1.00  0.00     0.000 HD 
HETATM   11  N   UNL     1      -9.174  10.070  69.628  1.00  0.00    -0.221 NA 
HETATM   12  C   UNL     1      -9.754   9.187  68.883  1.00  0.00    -0.162 A  
HETATM   13  C   UNL     1     -10.528   8.159  66.878  1.00  0.00    -0.309 A  
HETATM   14  N   UNL     1     -10.861   6.982  67.532  1.00  0.00    -0.272 NA 
HETATM   15  C   UNL     1     -10.814   5.655  69.572  1.00  0.00    -0.345 C  
HETATM   16  N   UNL     1     -10.186   8.045  69.495  1.00  0.00    -0.205 NA 
HETATM   17  C   UNL     1     -10.650   6.956  68.817  1.00  0.00    -0.220 A  
ENDBRANCH   7   8
ENDBRANCH   4   7
ENDBRANCH   2   4
BRANCH   3  18
HETATM   18  C   UNL     1      -8.064  13.386  67.406  1.00  0.00    -0.178 C  
BRANCH  18  19
HETATM   19  C   UNL     1      -7.262  14.555  68.011  1.00  0.00    -0.142 C  
HETATM   20  H   UNL     1      -6.352  16.183  67.368  1.00  0.00     0.000 HD 
HETATM   21  O   UNL     1      -6.846  15.462  66.995  1.00  0.00    -0.247 OA 
ENDBRANCH  18  19
ENDBRANCH   3  18
BRANCH   3  22
HETATM   22  S   UNL     1     -10.115  14.524  68.983  1.00  0.00    -0.134 SA 
BRANCH  22  23
HETATM   23  S   UNL     1     -11.302  15.753  67.843  1.00  0.00    -0.218 SA 
BRANCH  23  24
HETATM   24  C   UNL     1     -10.239  16.359  66.482  1.00  0.00    -0.304 C  
BRANCH  24  25
HETATM   25  C   UNL     1     -10.271  17.844  66.129  1.00  0.00    -0.343 C  
HETATM   26  O   UNL     1      -8.915  18.275  65.868  1.00  0.00    -0.497 OA 
HETATM   27  C   UNL     1     -10.128  20.088  66.808  1.00  0.00    -0.607 C  
HETATM   28  C   UNL     1      -8.785  19.648  66.265  1.00  0.00    -0.369 C  
HETATM   29  C   UNL     1     -10.775  18.782  67.212  1.00  0.00    -0.490 C  
ENDBRANCH  24  25
ENDBRANCH  23  24
ENDBRANCH  22  23
ENDBRANCH   3  22
TORSDOF 9
ENDMDL
MODEL      101
REMARK 921   NORMALIZED FREE ENERGY PREDICTED BY IDOCK:   -4.62 KCAL/MOL
REMARK 922        TOTAL FREE ENERGY PREDICTED BY IDOCK:   -8.29 KCAL/MOL
REMARK 923 INTER-LIGAND FREE ENERGY PREDICTED BY IDOCK:   -7.38 KCAL/MOL
REMARK 924 INTRA-LIGAND FREE ENERGY PREDICTED BY IDOCK:   -0.91 KCAL/MOL
REMARK 927      BINDING AFFINITY PREDICTED BY RF-SCORE:    0.00 PKD
ROOT
HETATM    1  C   UNL     1     -11.682  11.956  67.396  1.00  0.00    -0.326 C  
HETATM    2  C   UNL     1     -10.975  11.603  66.100  1.00  0.00    -0.288 C  
HETATM    3  C   UNL     1     -10.118  10.548  65.968  1.00  0.00    -0.256 C  
ENDROOT
BRANCH   2   4
HETATM    4  N   UNL     1     -11.385  12.407  65.030  1.00  0.00    -0.311 N  
HETATM    5  C   UNL     1     -12.606  12.185  64.410  1.00  0.00    -0.280 C  
HETATM    6  O   UNL     1     -13.030  12.823  63.450  1.00  0.00    -0.595 OA 
BRANCH   4   7
HETATM    7  C   UNL     1     -10.448  13.358  64.414  1.00  0.00    -0.384 C  
BRANCH   7   8
HETATM    8  C   UNL     1     -10.244  14.678  65.122  1.00  0.00    -0.414 A  
HETATM    9  H2  UNL     1     -12.177  15.247  63.388  1.00  0.00     0.000 HD 
HETATM   10  H1  UNL     1     -12.309  16.969  63.586  1.00  0.00     0.000 HD 
HETATM   11  N   UNL     1     -11.855  16.096  63.854  1.00  0.00    -0.860 NA 
HETATM   12  C   UNL     1     -10.911  15.961  64.727  1.00  0.00    -0.375 A  
HETATM   13  C   UNL     1      -9.230  14.858  66.003  1.00  0.00    -0.175 A  
HETATM   14  N   UNL     1      -8.734  16.052  66.506  1.00  0.00    -0.272 NA 
HETATM   15  C   UNL     1      -8.759  18.486  66.478  1.00  0.00    -0.296 C  
HETATM   16  N   UNL     1     -10.450  17.100  65.323  1.00  0.00    -0.662 NA 
HETATM   17  C   UNL     1      -9.346  17.137  66.123  1.00  0.00    -0.192 A  
ENDBRANCH   7   8
ENDBRANCH   4   7
ENDBRANCH   2   4
BRANCH   3  18
HETATM   18  C   UNL     1      -9.647   9.977  64.627  1.00  0.00    -0.363 C  
BRANCH  18  19
HETATM   19  C   UNL     1      -8.204   9.436  64.614  1.00  0.00    -0.148 C  
HETATM   20  H   UNL     1      -7.290   7.739  64.196  1.00  0.00     0.000 HD 
HETATM   21  O   UNL     1      -8.179   8.073  64.204  1.00  0.00    -0.139 OA 
ENDBRANCH  18  19
ENDBRANCH   3  18
BRANCH   3  22
HETATM   22  S   UNL     1      -9.549   9.747  67.442  1.00  0.00    -0.159 SA 
BRANCH  22  23
HETATM   23  S   UNL     1     -10.566   7.963  67.386  1.00  0.00    -0.228 SA 
BRANCH  23  24
HETATM   24  C   UNL     1     -10.170   7.108  68.955  1.00  0.00    -0.190 C  
BRANCH  24  25
HETATM   25  C   UNL     1      -8.820   6.407  69.090  1.00  0.00    -0.126 C  
HETATM   26  O   UNL     1      -8.978   5.037  68.657  1.00  0.00    -0.103 OA 
HETATM   27  C   UNL     1      -7.331   5.115  70.367  1.00  0.00    -0.062 C  
HETATM   28  C   UNL     1      -8.078   4.210  69.410  1.00  0.00    -0.059 C  
HETATM   29  C   UNL     1      -8.252   6.307  70.496  1.00  0.00    -0.118 C  
ENDBRANCH  24  25
ENDBRANCH  23  24
ENDBRANCH  22  23
ENDBRANCH   3  22
TORSDOF 9
ENDMDL
MODEL      102
REMARK 921   NORMALIZED FREE ENERGY PREDICTED BY IDOCK:   -4.61 KCAL/MOL
REMARK 922        TOTAL FREE ENERGY PREDICTED BY IDOCK:   -8.27 KCAL/MOL
REMARK 923 INTER-LIGAND FREE ENERGY PREDICTED BY IDOCK:   -7.65 KCAL/MOL
REMARK 924 INTRA-LIGAND FREE ENERGY PREDICTED BY IDOCK:   -0.62 KCAL/MOL
REMARK 927      BINDING AFFINITY PREDICTED BY RF-SCORE:    0.00 PKD
ROOT
HETATM    1  C   UNL     1     -11.708  10.853  68.211  1.00  0.00    -0.259 C  
HETATM    2  C   UNL     1     -10.567  11.303  67.316  1.00  0.00    -0.233 C  
HETATM    3  C   UNL     1      -9.252  11.049  67.583  1.00  0.00    -0.149 C  
ENDROOT
BRANCH   2   4
HETATM    4  N   UNL     1     -11.016  11.904  66.135  1.00  0.00    -0.297 N  
HETATM    5  C   UNL     1     -10.500  11.515  64.907  1.00  0.00    -0.291 C  
HETATM    6  O   UNL     1     -10.816  12.007  63.828  1.00  0.00    -0.340 OA 
BRANCH   4   7
HETATM    7  C   UNL     1     -11.883  13.091  66.188  1.00  0.00    -0.409 C  
BRANCH   7   8
HETATM    8  C   UNL     1     -11.199  14.438  66.244  1.00  0.00    -0.338 A  
HETATM    9  H2  UNL     1     -11.420  13.795  68.814  1.00  0.00     0.000 HD 
HETATM   10  H1  UNL     1     -10.892  15.267  69.575  1.00  0.00     0.000 HD 
HETATM   11  N   UNL     1     -11.079  14.752  68.714  1.00  0.00    -0.253 NA 
HETATM   12  C   UNL     1     -10.925  15.194  67.509  1.00  0.00    -0.310 A  
HETATM   13  C   UNL     1     -11.025  15.190  65.129  1.00  0.00    -0.417 A  
HETATM   14  N   UNL     1     -10.693  16.534  65.047  1.00  0.00    -0.692 NA 
HETATM   15  C   UNL     1     -10.287  18.646  66.187  1.00  0.00    -0.481 C  
HETATM   16  N   UNL     1     -10.508  16.487  67.372  1.00  0.00    -0.309 NA 
HETATM   17  C   UNL     1     -10.475  17.144  66.177  1.00  0.00    -0.275 A  
ENDBRANCH   7   8
ENDBRANCH   4   7
ENDBRANCH   2   4
BRANCH   3  18
HETATM   18  C   UNL     1      -8.118  11.199  66.565  1.00  0.00    -0.163 C  
BRANCH  18  19
HETATM   19  C   UNL     1      -6.989  12.164  66.977  1.00  0.00    -0.068 C  
HETATM   20  H   UNL     1      -6.829  13.977  67.737  1.00  0.00     0.000 HD 
HETATM   21  O   UNL     1      -7.525  13.383  67.483  1.00  0.00    -0.156 OA 
ENDBRANCH  18  19
ENDBRANCH   3  18
BRANCH   3  22
HETATM   22  S   UNL     1      -8.828  10.457  69.198  1.00  0.00    -0.155 SA 
BRANCH  22  23
HETATM   23  S   UNL     1      -8.820   8.421  68.925  1.00  0.00    -0.143 SA 
BRANCH  23  24
HETATM   24  C   UNL     1      -9.761   7.721  70.330  1.00  0.00    -0.179 C  
BRANCH  24  25
HETATM   25  C   UNL     1     -11.250   8.038  70.449  1.00  0.00    -0.229 C  
HETATM   26  O   UNL     1     -11.408   9.112  71.404  1.00  0.00    -0.288 OA 
HETATM   27  C   UNL     1     -13.311   7.696  71.521  1.00  0.00    -0.383 C  
HETATM   28  C   UNL     1     -12.662   8.944  72.081  1.00  0.00    -0.405 C  
HETATM   29  C   UNL     1     -12.135   6.920  70.971  1.00  0.00    -0.429 C  
ENDBRANCH  24  25
ENDBRANCH  23  24
ENDBRANCH  22  23
ENDBRANCH   3  22
TORSDOF 9
ENDMDL
MODEL      103
REMARK 921   NORMALIZED FREE ENERGY PREDICTED BY IDOCK:   -4.60 KCAL/MOL
REMARK 922        TOTAL FREE ENERGY PREDICTED BY IDOCK:   -8.26 KCAL/MOL
REMARK 923 INTER-LIGAND FREE ENERGY PREDICTED BY IDOCK:   -7.40 KCAL/MOL
REMARK 924 INTRA-LIGAND FREE ENERGY PREDICTED BY IDOCK:   -0.85 KCAL/MOL
REMARK 927      BINDING AFFINITY PREDICTED BY RF-SCORE:    0.00 PKD
ROOT
HETATM    1  C   UNL     1     -12.532  14.009  65.937  1.00  0.00    -0.513 C  
HETATM    2  C   UNL     1     -11.315  13.501  66.688  1.00  0.00    -0.322 C  
HETATM    3  C   UNL     1     -10.158  14.213  66.825  1.00  0.00    -0.262 C  
ENDROOT
BRANCH   2   4
HETATM    4  N   UNL     1     -11.547  12.273  67.319  1.00  0.00    -0.354 N  
HETATM    5  C   UNL     1     -11.847  12.223  68.673  1.00  0.00    -0.305 C  
HETATM    6  O   UNL     1     -12.037  11.191  69.310  1.00  0.00    -0.338 OA 
BRANCH   4   7
HETATM    7  C   UNL     1     -11.277  11.011  66.613  1.00  0.00    -0.050 C  
BRANCH   7   8
HETATM    8  C   UNL     1     -10.267  11.056  65.490  1.00  0.00    -0.327 A  
HETATM    9  H2  UNL     1     -12.520  11.753  64.265  1.00  0.00     0.000 HD 
HETATM   10  H1  UNL     1     -12.006  11.778  62.604  1.00  0.00     0.000 HD 
HETATM   11  N   UNL     1     -11.770  11.624  63.585  1.00  0.00    -0.386 NA 
HETATM   12  C   UNL     1     -10.614  11.281  64.049  1.00  0.00    -0.386 A  
HETATM   13  C   UNL     1      -8.994  10.622  65.667  1.00  0.00    -0.185 A  
HETATM   14  N   UNL     1      -8.048  10.326  64.697  1.00  0.00    -0.163 NA 
HETATM   15  C   UNL     1      -7.504  10.066  62.338  1.00  0.00    -0.134 C  
HETATM   16  N   UNL     1      -9.618  11.068  63.139  1.00  0.00    -0.325 NA 
HETATM   17  C   UNL     1      -8.406  10.532  63.460  1.00  0.00    -0.113 A  
ENDBRANCH   7   8
ENDBRANCH   4   7
ENDBRANCH   2   4
BRANCH   3  18
HETATM   18  C   UNL     1      -9.049  13.880  67.827  1.00  0.00    -0.191 C  
BRANCH  18  19
HETATM   19  C   UNL     1      -7.626  13.821  67.236  1.00  0.00    -0.055 C  
HETATM   20  H   UNL     1      -5.830  14.496  67.694  1.00  0.00     0.000 HD 
HETATM   21  O   UNL     1      -6.707  14.533  68.058  1.00  0.00    -0.113 OA 
ENDBRANCH  18  19
ENDBRANCH   3  18
BRANCH   3  22
HETATM   22  S   UNL     1      -9.941  15.653  65.815  1.00  0.00    -0.367 SA 
BRANCH  22  23
HETATM   23  S   UNL     1     -10.292  17.175  67.150  1.00  0.00    -0.288 SA 
BRANCH  23  24
HETATM   24  C   UNL     1     -10.488  18.692  66.144  1.00  0.00    -0.430 C  
BRANCH  24  25
HETATM   25  C   UNL     1      -9.359  19.720  66.136  1.00  0.00    -0.363 C  
HETATM   26  O   UNL     1      -8.151  19.059  65.694  1.00  0.00    -0.418 OA 
HETATM   27  C   UNL     1      -7.569  20.767  67.239  1.00  0.00    -0.356 C  
HETATM   28  C   UNL     1      -7.027  19.675  66.342  1.00  0.00    -0.226 C  
HETATM   29  C   UNL     1      -8.998  20.333  67.479  1.00  0.00    -0.435 C  
ENDBRANCH  24  25
ENDBRANCH  23  24
ENDBRANCH  22  23
ENDBRANCH   3  22
TORSDOF 9
ENDMDL
MODEL      104
REMARK 921   NORMALIZED FREE ENERGY PREDICTED BY IDOCK:   -4.59 KCAL/MOL
REMARK 922        TOTAL FREE ENERGY PREDICTED BY IDOCK:   -8.25 KCAL/MOL
REMARK 923 INTER-LIGAND FREE ENERGY PREDICTED BY IDOCK:   -6.84 KCAL/MOL
REMARK 924 INTRA-LIGAND FREE ENERGY PREDICTED BY IDOCK:   -1.41 KCAL/MOL
REMARK 927      BINDING AFFINITY PREDICTED BY RF-SCORE:    0.00 PKD
ROOT
HETATM    1  C   UNL     1     -11.282  10.960  67.653  1.00  0.00    -0.379 C  
HETATM    2  C   UNL     1      -9.820  11.185  67.312  1.00  0.00    -0.175 C  
HETATM    3  C   UNL     1      -9.182  12.382  67.467  1.00  0.00    -0.183 C  
ENDROOT
BRANCH   2   4
HETATM    4  N   UNL     1      -9.171  10.005  66.929  1.00  0.00    -0.145 N  
HETATM    5  C   UNL     1      -9.349   9.485  65.655  1.00  0.00    -0.241 C  
HETATM    6  O   UNL     1      -8.842   8.444  65.247  1.00  0.00    -0.160 OA 
BRANCH   4   7
HETATM    7  C   UNL     1      -8.461   9.190  67.927  1.00  0.00    -0.117 C  
BRANCH   7   8
HETATM    8  C   UNL     1      -9.264   8.697  69.108  1.00  0.00    -0.152 A  
HETATM    9  H2  UNL     1     -10.110   7.123  67.141  1.00  0.00     0.000 HD 
HETATM   10  H1  UNL     1     -11.417   6.282  67.921  1.00  0.00     0.000 HD 
HETATM   11  N   UNL     1     -10.670   6.975  67.981  1.00  0.00    -0.208 NA 
HETATM   12  C   UNL     1     -10.363   7.681  69.019  1.00  0.00    -0.213 A  
HETATM   13  C   UNL     1      -9.234   9.341  70.302  1.00  0.00    -0.237 A  
HETATM   14  N   UNL     1     -10.106   9.203  71.371  1.00  0.00    -0.325 NA 
HETATM   15  C   UNL     1     -12.145   8.226  72.275  1.00  0.00    -0.439 C  
HETATM   16  N   UNL     1     -11.135   7.514  70.133  1.00  0.00    -0.255 NA 
HETATM   17  C   UNL     1     -11.048   8.312  71.236  1.00  0.00    -0.251 A  
ENDBRANCH   7   8
ENDBRANCH   4   7
ENDBRANCH   2   4
BRANCH   3  18
HETATM   18  C   UNL     1      -7.661  12.562  67.442  1.00  0.00    -0.156 C  
BRANCH  18  19
HETATM   19  C   UNL     1      -6.975  12.545  68.822  1.00  0.00    -0.094 C  
HETATM   20  H   UNL     1      -5.226  12.026  69.572  1.00  0.00     0.000 HD 
HETATM   21  O   UNL     1      -5.649  12.037  68.721  1.00  0.00    -0.050 OA 
ENDBRANCH  18  19
ENDBRANCH   3  18
BRANCH   3  22
HETATM   22  S   UNL     1     -10.171  13.821  67.770  1.00  0.00    -0.245 SA 
BRANCH  22  23
HETATM   23  S   UNL     1      -9.554  15.093  66.280  1.00  0.00    -0.316 SA 
BRANCH  23  24
HETATM   24  C   UNL     1     -11.037  15.431  65.261  1.00  0.00    -0.360 C  
BRANCH  24  25
HETATM   25  C   UNL     1     -11.559  14.334  64.337  1.00  0.00    -0.344 C  
HETATM   26  O   UNL     1     -12.771  13.796  64.914  1.00  0.00    -0.637 OA 
HETATM   27  C   UNL     1     -11.648  12.064  63.739  1.00  0.00    -0.565 C  
HETATM   28  C   UNL     1     -12.869  12.407  64.567  1.00  0.00    -0.212 C  
HETATM   29  C   UNL     1     -10.654  13.129  64.143  1.00  0.00    -0.384 C  
ENDBRANCH  24  25
ENDBRANCH  23  24
ENDBRANCH  22  23
ENDBRANCH   3  22
TORSDOF 9
ENDMDL
MODEL      105
REMARK 921   NORMALIZED FREE ENERGY PREDICTED BY IDOCK:   -4.59 KCAL/MOL
REMARK 922        TOTAL FREE ENERGY PREDICTED BY IDOCK:   -8.24 KCAL/MOL
REMARK 923 INTER-LIGAND FREE ENERGY PREDICTED BY IDOCK:   -7.88 KCAL/MOL
REMARK 924 INTRA-LIGAND FREE ENERGY PREDICTED BY IDOCK:   -0.36 KCAL/MOL
REMARK 927      BINDING AFFINITY PREDICTED BY RF-SCORE:    0.00 PKD
ROOT
HETATM    1  C   UNL     1      -8.217  13.908  67.278  1.00  0.00    -0.176 C  
HETATM    2  C   UNL     1      -9.282  12.949  66.780  1.00  0.00    -0.230 C  
HETATM    3  C   UNL     1      -9.224  11.596  66.956  1.00  0.00    -0.183 C  
ENDROOT
BRANCH   2   4
HETATM    4  N   UNL     1     -10.381  13.611  66.222  1.00  0.00    -0.287 N  
HETATM    5  C   UNL     1     -10.641  13.521  64.862  1.00  0.00    -0.397 C  
HETATM    6  O   UNL     1     -11.565  14.090  64.287  1.00  0.00    -0.380 OA 
BRANCH   4   7
HETATM    7  C   UNL     1     -11.154  14.574  67.022  1.00  0.00    -0.322 C  
BRANCH   7   8
HETATM    8  C   UNL     1     -10.615  15.983  67.108  1.00  0.00    -0.305 A  
HETATM    9  H2  UNL     1     -11.240  15.450  69.636  1.00  0.00     0.000 HD 
HETATM   10  H1  UNL     1     -10.993  17.002  70.378  1.00  0.00     0.000 HD 
HETATM   11  N   UNL     1     -10.974  16.430  69.534  1.00  0.00    -0.323 NA 
HETATM   12  C   UNL     1     -10.644  16.825  68.348  1.00  0.00    -0.354 A  
HETATM   13  C   UNL     1     -10.309  16.693  65.994  1.00  0.00    -0.340 A  
HETATM   14  N   UNL     1     -10.090  18.057  65.881  1.00  0.00    -0.575 NA 
HETATM   15  C   UNL     1     -10.088  20.254  66.932  1.00  0.00    -0.565 C  
HETATM   16  N   UNL     1     -10.327  18.145  68.201  1.00  0.00    -0.380 NA 
HETATM   17  C   UNL     1     -10.136  18.742  66.989  1.00  0.00    -0.358 A  
ENDBRANCH   7   8
ENDBRANCH   4   7
ENDBRANCH   2   4
BRANCH   3  18
HETATM   18  C   UNL     1     -10.409  10.645  66.759  1.00  0.00    -0.299 C  
BRANCH  18  19
HETATM   19  C   UNL     1     -11.326  10.477  67.986  1.00  0.00    -0.246 C  
HETATM   20  H   UNL     1     -12.840  11.432  68.815  1.00  0.00     0.000 HD 
HETATM   21  O   UNL     1     -12.274  11.536  68.059  1.00  0.00    -0.582 OA 
ENDBRANCH  18  19
ENDBRANCH   3  18
BRANCH   3  22
HETATM   22  S   UNL     1      -7.692  10.891  67.500  1.00  0.00    -0.112 SA 
BRANCH  22  23
HETATM   23  S   UNL     1      -8.112  10.391  69.448  1.00  0.00    -0.128 SA 
BRANCH  23  24
HETATM   24  C   UNL     1      -8.222   8.565  69.487  1.00  0.00    -0.116 C  
BRANCH  24  25
HETATM   25  C   UNL     1      -9.569   7.915  69.790  1.00  0.00    -0.167 C  
HETATM   26  O   UNL     1      -9.404   7.049  70.937  1.00  0.00    -0.157 OA 
HETATM   27  C   UNL     1     -11.060   6.122  69.508  1.00  0.00    -0.490 C  
HETATM   28  C   UNL     1     -10.305   5.939  70.807  1.00  0.00    -0.232 C  
HETATM   29  C   UNL     1     -10.144   7.019  68.706  1.00  0.00    -0.170 C  
ENDBRANCH  24  25
ENDBRANCH  23  24
ENDBRANCH  22  23
ENDBRANCH   3  22
TORSDOF 9
ENDMDL
MODEL      106
REMARK 921   NORMALIZED FREE ENERGY PREDICTED BY IDOCK:   -4.59 KCAL/MOL
REMARK 922        TOTAL FREE ENERGY PREDICTED BY IDOCK:   -8.24 KCAL/MOL
REMARK 923 INTER-LIGAND FREE ENERGY PREDICTED BY IDOCK:   -7.89 KCAL/MOL
REMARK 924 INTRA-LIGAND FREE ENERGY PREDICTED BY IDOCK:   -0.34 KCAL/MOL
REMARK 927      BINDING AFFINITY PREDICTED BY RF-SCORE:    0.00 PKD
ROOT
HETATM    1  C   UNL     1     -11.880  14.033  67.670  1.00  0.00    -0.430 C  
HETATM    2  C   UNL     1     -10.717  13.067  67.539  1.00  0.00    -0.238 C  
HETATM    3  C   UNL     1     -10.814  11.727  67.783  1.00  0.00    -0.213 C  
ENDROOT
BRANCH   2   4
HETATM    4  N   UNL     1      -9.566  13.680  67.032  1.00  0.00    -0.243 N  
HETATM    5  C   UNL     1      -8.389  13.686  67.768  1.00  0.00    -0.181 C  
HETATM    6  O   UNL     1      -7.344  14.223  67.412  1.00  0.00    -0.181 OA 
BRANCH   4   7
HETATM    7  C   UNL     1      -9.635  14.502  65.814  1.00  0.00    -0.207 C  
BRANCH   7   8
HETATM    8  C   UNL     1     -10.065  15.941  65.981  1.00  0.00    -0.359 A  
HETATM    9  H2  UNL     1     -11.359  15.205  63.779  1.00  0.00     0.000 HD 
HETATM   10  H1  UNL     1     -12.027  16.723  63.258  1.00  0.00     0.000 HD 
HETATM   11  N   UNL     1     -11.468  16.207  63.938  1.00  0.00    -0.831 NA 
HETATM   12  C   UNL     1     -10.886  16.700  64.981  1.00  0.00    -0.176 A  
HETATM   13  C   UNL     1      -9.510  16.740  66.926  1.00  0.00    -0.241 A  
HETATM   14  N   UNL     1      -9.573  18.122  67.023  1.00  0.00    -0.278 NA 
HETATM   15  C   UNL     1     -10.266  20.243  66.048  1.00  0.00    -0.392 C  
HETATM   16  N   UNL     1     -10.996  18.047  65.175  1.00  0.00    -0.556 NA 
HETATM   17  C   UNL     1     -10.292  18.731  66.123  1.00  0.00    -0.448 A  
ENDBRANCH   7   8
ENDBRANCH   4   7
ENDBRANCH   2   4
BRANCH   3  18
HETATM   18  C   UNL     1      -9.769  10.691  67.358  1.00  0.00    -0.192 C  
BRANCH  18  19
HETATM   19  C   UNL     1     -10.227   9.710  66.261  1.00  0.00    -0.216 C  
HETATM   20  H   UNL     1      -9.697   9.233  64.422  1.00  0.00     0.000 HD 
HETATM   21  O   UNL     1      -9.416   9.838  65.098  1.00  0.00    -0.243 OA 
ENDBRANCH  18  19
ENDBRANCH   3  18
BRANCH   3  22
HETATM   22  S   UNL     1     -12.270  11.133  68.600  1.00  0.00     0.313 SA 
BRANCH  22  23
HETATM   23  S   UNL     1     -11.819  11.456  70.578  1.00  0.00    -0.204 SA 
BRANCH  23  24
HETATM   24  C   UNL     1     -12.860  12.866  71.108  1.00  0.00    -0.238 C  
BRANCH  24  25
HETATM   25  C   UNL     1     -12.226  13.975  71.943  1.00  0.00    -0.022 C  
HETATM   26  O   UNL     1     -13.131  14.298  73.024  1.00  0.00    -0.519 OA 
HETATM   27  C   UNL     1     -11.956  16.265  72.394  1.00  0.00    -0.630 C  
HETATM   28  C   UNL     1     -12.993  15.692  73.337  1.00  0.00    -0.559 C  
HETATM   29  C   UNL     1     -11.983  15.296  71.233  1.00  0.00    -0.409 C  
ENDBRANCH  24  25
ENDBRANCH  23  24
ENDBRANCH  22  23
ENDBRANCH   3  22
TORSDOF 9
ENDMDL
MODEL      107
REMARK 921   NORMALIZED FREE ENERGY PREDICTED BY IDOCK:   -4.58 KCAL/MOL
REMARK 922        TOTAL FREE ENERGY PREDICTED BY IDOCK:   -8.22 KCAL/MOL
REMARK 923 INTER-LIGAND FREE ENERGY PREDICTED BY IDOCK:   -7.03 KCAL/MOL
REMARK 924 INTRA-LIGAND FREE ENERGY PREDICTED BY IDOCK:   -1.19 KCAL/MOL
REMARK 927      BINDING AFFINITY PREDICTED BY RF-SCORE:    0.00 PKD
ROOT
HETATM    1  C   UNL     1     -10.998  11.638  64.327  1.00  0.00    -0.418 C  
HETATM    2  C   UNL     1      -9.985  11.759  65.451  1.00  0.00    -0.253 C  
HETATM    3  C   UNL     1      -9.803  12.896  66.186  1.00  0.00    -0.270 C  
ENDROOT
BRANCH   2   4
HETATM    4  N   UNL     1      -9.341  10.548  65.725  1.00  0.00    -0.179 N  
HETATM    5  C   UNL     1      -8.040  10.330  65.296  1.00  0.00    -0.151 C  
HETATM    6  O   UNL     1      -7.411   9.289  65.469  1.00  0.00    -0.088 OA 
BRANCH   4   7
HETATM    7  C   UNL     1     -10.094   9.415  66.286  1.00  0.00    -0.258 C  
BRANCH   7   8
HETATM    8  C   UNL     1     -10.107   9.278  67.791  1.00  0.00    -0.253 A  
HETATM    9  H2  UNL     1      -8.394   7.384  67.056  1.00  0.00     0.000 HD 
HETATM   10  H1  UNL     1      -8.117   6.575  68.569  1.00  0.00     0.000 HD 
HETATM   11  N   UNL     1      -8.590   7.318  68.055  1.00  0.00    -0.125 NA 
HETATM   12  C   UNL     1      -9.413   8.185  68.546  1.00  0.00    -0.143 A  
HETATM   13  C   UNL     1     -10.978   9.980  68.557  1.00  0.00    -0.209 A  
HETATM   14  N   UNL     1     -11.317   9.765  69.885  1.00  0.00    -0.223 NA 
HETATM   15  C   UNL     1     -11.128   8.379  71.877  1.00  0.00    -0.378 C  
HETATM   16  N   UNL     1      -9.710   8.074  69.875  1.00  0.00    -0.179 NA 
HETATM   17  C   UNL     1     -10.689   8.797  70.490  1.00  0.00    -0.223 A  
ENDBRANCH   7   8
ENDBRANCH   4   7
ENDBRANCH   2   4
BRANCH   3  18
HETATM   18  C   UNL     1      -9.037  12.956  67.512  1.00  0.00    -0.191 C  
BRANCH  18  19
HETATM   19  C   UNL     1      -7.689  13.702  67.457  1.00  0.00    -0.173 C  
HETATM   20  H   UNL     1      -6.551  14.743  68.687  1.00  0.00     0.000 HD 
HETATM   21  O   UNL     1      -7.382  14.283  68.721  1.00  0.00    -0.120 OA 
ENDBRANCH  18  19
ENDBRANCH   3  18
BRANCH   3  22
HETATM   22  S   UNL     1     -10.543  14.395  65.601  1.00  0.00    -0.350 SA 
BRANCH  22  23
HETATM   23  S   UNL     1     -11.275  15.222  67.333  1.00  0.00    -0.275 SA 
BRANCH  23  24
HETATM   24  C   UNL     1     -10.117  16.568  67.776  1.00  0.00    -0.264 C  
BRANCH  24  25
HETATM   25  C   UNL     1     -10.569  18.016  67.598  1.00  0.00    -0.399 C  
HETATM   26  O   UNL     1     -10.533  18.329  66.187  1.00  0.00    -0.420 OA 
HETATM   27  C   UNL     1     -10.032  20.296  67.421  1.00  0.00    -0.567 C  
HETATM   28  C   UNL     1     -10.213  19.720  66.033  1.00  0.00    -0.501 C  
HETATM   29  C   UNL     1      -9.702  19.077  68.254  1.00  0.00    -0.419 C  
ENDBRANCH  24  25
ENDBRANCH  23  24
ENDBRANCH  22  23
ENDBRANCH   3  22
TORSDOF 9
ENDMDL
MODEL      108
REMARK 921   NORMALIZED FREE ENERGY PREDICTED BY IDOCK:   -4.57 KCAL/MOL
REMARK 922        TOTAL FREE ENERGY PREDICTED BY IDOCK:   -8.22 KCAL/MOL
REMARK 923 INTER-LIGAND FREE ENERGY PREDICTED BY IDOCK:   -7.16 KCAL/MOL
REMARK 924 INTRA-LIGAND FREE ENERGY PREDICTED BY IDOCK:   -1.06 KCAL/MOL
REMARK 927      BINDING AFFINITY PREDICTED BY RF-SCORE:    0.00 PKD
ROOT
HETATM    1  C   UNL     1      -8.927  11.868  67.026  1.00  0.00    -0.190 C  
HETATM    2  C   UNL     1      -9.162  13.181  67.750  1.00  0.00    -0.203 C  
HETATM    3  C   UNL     1     -10.319  13.485  68.409  1.00  0.00    -0.248 C  
ENDROOT
BRANCH   2   4
HETATM    4  N   UNL     1      -8.026  13.996  67.765  1.00  0.00    -0.155 N  
HETATM    5  C   UNL     1      -7.160  13.979  68.850  1.00  0.00    -0.111 C  
HETATM    6  O   UNL     1      -6.158  14.680  68.957  1.00  0.00    -0.087 OA 
BRANCH   4   7
HETATM    7  C   UNL     1      -7.838  15.030  66.735  1.00  0.00     0.121 C  
BRANCH   7   8
HETATM    8  C   UNL     1      -8.609  16.318  66.907  1.00  0.00    -0.247 A  
HETATM    9  H2  UNL     1     -10.008  15.055  65.033  1.00  0.00     0.000 HD 
HETATM   10  H1  UNL     1     -11.143  16.289  64.572  1.00  0.00     0.000 HD 
HETATM   11  N   UNL     1     -10.358  16.006  65.158  1.00  0.00    -0.556 NA 
HETATM   12  C   UNL     1      -9.763  16.734  66.045  1.00  0.00    -0.259 A  
HETATM   13  C   UNL     1      -8.141  17.324  67.686  1.00  0.00    -0.191 A  
HETATM   14  N   UNL     1      -8.560  18.646  67.722  1.00  0.00    -0.272 NA 
HETATM   15  C   UNL     1      -9.960  20.406  66.789  1.00  0.00    -0.525 C  
HETATM   16  N   UNL     1     -10.201  18.020  66.187  1.00  0.00    -0.490 NA 
HETATM   17  C   UNL     1      -9.561  18.954  66.946  1.00  0.00    -0.314 A  
ENDBRANCH   7   8
ENDBRANCH   4   7
ENDBRANCH   2   4
BRANCH   3  18
HETATM   18  C   UNL     1     -10.472  14.640  69.404  1.00  0.00    -0.175 C  
BRANCH  18  19
HETATM   19  C   UNL     1     -11.680  15.565  69.156  1.00  0.00    -0.365 C  
HETATM   20  H   UNL     1     -13.269  16.181  70.149  1.00  0.00     0.000 HD 
HETATM   21  O   UNL     1     -12.525  15.611  70.301  1.00  0.00    -0.410 OA 
ENDBRANCH  18  19
ENDBRANCH   3  18
BRANCH   3  22
HETATM   22  S   UNL     1     -11.730  12.447  68.140  1.00  0.00    -0.331 SA 
BRANCH  22  23
HETATM   23  S   UNL     1     -12.002  11.597  69.990  1.00  0.00    -0.334 SA 
BRANCH  23  24
HETATM   24  C   UNL     1     -11.159   9.974  69.927  1.00  0.00    -0.288 C  
BRANCH  24  25
HETATM   25  C   UNL     1     -11.707   8.827  70.773  1.00  0.00    -0.219 C  
HETATM   26  O   UNL     1     -11.178   8.961  72.112  1.00  0.00    -0.360 OA 
HETATM   27  C   UNL     1     -11.471   6.653  71.630  1.00  0.00    -0.332 C  
HETATM   28  C   UNL     1     -11.023   7.651  72.678  1.00  0.00    -0.351 C  
HETATM   29  C   UNL     1     -11.316   7.425  70.339  1.00  0.00    -0.273 C  
ENDBRANCH  24  25
ENDBRANCH  23  24
ENDBRANCH  22  23
ENDBRANCH   3  22
TORSDOF 9
ENDMDL
MODEL      109
REMARK 921   NORMALIZED FREE ENERGY PREDICTED BY IDOCK:   -4.57 KCAL/MOL
REMARK 922        TOTAL FREE ENERGY PREDICTED BY IDOCK:   -8.21 KCAL/MOL
REMARK 923 INTER-LIGAND FREE ENERGY PREDICTED BY IDOCK:   -7.47 KCAL/MOL
REMARK 924 INTRA-LIGAND FREE ENERGY PREDICTED BY IDOCK:   -0.74 KCAL/MOL
REMARK 927      BINDING AFFINITY PREDICTED BY RF-SCORE:    0.00 PKD
ROOT
HETATM    1  C   UNL     1      -9.417   8.822  66.423  1.00  0.00    -0.291 C  
HETATM    2  C   UNL     1      -9.355   9.971  67.413  1.00  0.00    -0.148 C  
HETATM    3  C   UNL     1      -9.955  11.180  67.207  1.00  0.00    -0.184 C  
ENDROOT
BRANCH   2   4
HETATM    4  N   UNL     1      -8.712   9.617  68.604  1.00  0.00    -0.122 N  
HETATM    5  C   UNL     1      -7.691  10.407  69.114  1.00  0.00    -0.126 C  
HETATM    6  O   UNL     1      -7.056  10.157  70.135  1.00  0.00    -0.137 OA 
BRANCH   4   7
HETATM    7  C   UNL     1      -8.961   8.307  69.224  1.00  0.00    -0.147 C  
BRANCH   7   8
HETATM    8  C   UNL     1     -10.073   8.230  70.244  1.00  0.00    -0.195 A  
HETATM    9  H2  UNL     1     -10.361   5.951  68.906  1.00  0.00     0.000 HD 
HETATM   10  H1  UNL     1     -11.849   5.353  69.576  1.00  0.00     0.000 HD 
HETATM   11  N   UNL     1     -11.137   6.083  69.556  1.00  0.00    -0.403 NA 
HETATM   12  C   UNL     1     -11.121   7.158  70.273  1.00  0.00    -0.274 A  
HETATM   13  C   UNL     1     -10.368   9.281  71.049  1.00  0.00    -0.318 A  
HETATM   14  N   UNL     1     -11.509   9.481  71.812  1.00  0.00    -0.359 NA 
HETATM   15  C   UNL     1     -13.737   8.736  72.450  1.00  0.00    -0.471 C  
HETATM   16  N   UNL     1     -12.179   7.358  71.114  1.00  0.00    -0.329 NA 
HETATM   17  C   UNL     1     -12.390   8.521  71.794  1.00  0.00    -0.338 A  
ENDBRANCH   7   8
ENDBRANCH   4   7
ENDBRANCH   2   4
BRANCH   3  18
HETATM   18  C   UNL     1     -10.184  12.229  68.299  1.00  0.00    -0.221 C  
BRANCH  18  19
HETATM   19  C   UNL     1     -11.377  11.953  69.236  1.00  0.00    -0.277 C  
HETATM   20  H   UNL     1     -12.970  10.791  69.259  1.00  0.00     0.000 HD 
HETATM   21  O   UNL     1     -12.236  10.962  68.682  1.00  0.00    -0.533 OA 
ENDBRANCH  18  19
ENDBRANCH   3  18
BRANCH   3  22
HETATM   22  S   UNL     1     -10.560  11.545  65.583  1.00  0.00    -0.269 SA 
BRANCH  22  23
HETATM   23  S   UNL     1     -11.614  13.281  65.893  1.00  0.00    -0.364 SA 
BRANCH  23  24
HETATM   24  C   UNL     1     -10.629  14.614  65.116  1.00  0.00    -0.421 C  
BRANCH  24  25
HETATM   25  C   UNL     1     -10.343  15.880  65.919  1.00  0.00    -0.365 C  
HETATM   26  O   UNL     1      -8.952  16.228  65.732  1.00  0.00    -0.425 OA 
HETATM   27  C   UNL     1      -9.622  16.892  67.912  1.00  0.00    -0.244 C  
HETATM   28  C   UNL     1      -8.471  16.857  66.929  1.00  0.00    -0.214 C  
HETATM   29  C   UNL     1     -10.520  15.777  67.424  1.00  0.00    -0.297 C  
ENDBRANCH  24  25
ENDBRANCH  23  24
ENDBRANCH  22  23
ENDBRANCH   3  22
TORSDOF 9
ENDMDL
MODEL      110
REMARK 921   NORMALIZED FREE ENERGY PREDICTED BY IDOCK:   -4.56 KCAL/MOL
REMARK 922        TOTAL FREE ENERGY PREDICTED BY IDOCK:   -8.19 KCAL/MOL
REMARK 923 INTER-LIGAND FREE ENERGY PREDICTED BY IDOCK:   -7.75 KCAL/MOL
REMARK 924 INTRA-LIGAND FREE ENERGY PREDICTED BY IDOCK:   -0.44 KCAL/MOL
REMARK 927      BINDING AFFINITY PREDICTED BY RF-SCORE:    0.00 PKD
ROOT
HETATM    1  C   UNL     1     -11.631  11.239  67.238  1.00  0.00    -0.171 C  
HETATM    2  C   UNL     1     -11.570  11.912  68.597  1.00  0.00    -0.310 C  
HETATM    3  C   UNL     1     -11.711  13.258  68.781  1.00  0.00    -0.329 C  
ENDROOT
BRANCH   2   4
HETATM    4  N   UNL     1     -11.467  10.993  69.646  1.00  0.00    -0.275 N  
HETATM    5  C   UNL     1     -12.480  10.884  70.588  1.00  0.00    -0.369 C  
HETATM    6  O   UNL     1     -12.459  10.126  71.554  1.00  0.00    -0.370 OA 
BRANCH   4   7
HETATM    7  C   UNL     1     -10.205  10.279  69.888  1.00  0.00    -0.202 C  
BRANCH   7   8
HETATM    8  C   UNL     1     -10.034   8.938  69.212  1.00  0.00    -0.192 A  
HETATM    9  H2  UNL     1      -8.266  10.456  67.934  1.00  0.00     0.000 HD 
HETATM   10  H1  UNL     1      -7.752   9.381  66.669  1.00  0.00     0.000 HD 
HETATM   11  N   UNL     1      -8.340   9.542  67.486  1.00  0.00    -0.124 NA 
HETATM   12  C   UNL     1      -9.170   8.701  68.010  1.00  0.00    -0.140 A  
HETATM   13  C   UNL     1     -10.866   7.900  69.479  1.00  0.00    -0.136 A  
HETATM   14  N   UNL     1     -11.031   6.728  68.757  1.00  0.00    -0.231 NA 
HETATM   15  C   UNL     1     -10.501   5.419  66.774  1.00  0.00    -0.347 C  
HETATM   16  N   UNL     1      -9.302   7.492  67.390  1.00  0.00    -0.137 NA 
HETATM   17  C   UNL     1     -10.261   6.578  67.716  1.00  0.00    -0.167 A  
ENDBRANCH   7   8
ENDBRANCH   4   7
ENDBRANCH   2   4
BRANCH   3  18
HETATM   18  C   UNL     1     -11.975  13.923  70.136  1.00  0.00    -0.402 C  
BRANCH  18  19
HETATM   19  C   UNL     1     -12.157  15.453  70.091  1.00  0.00    -0.369 C  
HETATM   20  H   UNL     1     -11.755  17.001  71.245  1.00  0.00     0.000 HD 
HETATM   21  O   UNL     1     -11.643  16.059  71.273  1.00  0.00    -0.408 OA 
ENDBRANCH  18  19
ENDBRANCH   3  18
BRANCH   3  22
HETATM   22  S   UNL     1     -11.638  14.308  67.356  1.00  0.00    -0.386 SA 
BRANCH  22  23
HETATM   23  S   UNL     1      -9.620  14.637  67.163  1.00  0.00    -0.240 SA 
BRANCH  23  24
HETATM   24  C   UNL     1      -9.452  16.192  66.213  1.00  0.00    -0.316 C  
BRANCH  24  25
HETATM   25  C   UNL     1     -10.454  17.317  66.461  1.00  0.00    -0.260 C  
HETATM   26  O   UNL     1     -10.168  18.389  65.533  1.00  0.00    -0.522 OA 
HETATM   27  C   UNL     1     -11.017  19.323  67.546  1.00  0.00    -0.426 C  
HETATM   28  C   UNL     1     -10.504  19.638  66.157  1.00  0.00    -0.524 C  
HETATM   29  C   UNL     1     -10.410  17.968  67.833  1.00  0.00    -0.402 C  
ENDBRANCH  24  25
ENDBRANCH  23  24
ENDBRANCH  22  23
ENDBRANCH   3  22
TORSDOF 9
ENDMDL
MODEL      111
REMARK 921   NORMALIZED FREE ENERGY PREDICTED BY IDOCK:   -4.56 KCAL/MOL
REMARK 922        TOTAL FREE ENERGY PREDICTED BY IDOCK:   -8.19 KCAL/MOL
REMARK 923 INTER-LIGAND FREE ENERGY PREDICTED BY IDOCK:   -7.51 KCAL/MOL
REMARK 924 INTRA-LIGAND FREE ENERGY PREDICTED BY IDOCK:   -0.68 KCAL/MOL
REMARK 927      BINDING AFFINITY PREDICTED BY RF-SCORE:    0.00 PKD
ROOT
HETATM    1  C   UNL     1     -10.170   9.450  68.341  1.00  0.00    -0.224 C  
HETATM    2  C   UNL     1     -10.779  10.014  69.611  1.00  0.00    -0.255 C  
HETATM    3  C   UNL     1     -11.679  11.041  69.627  1.00  0.00    -0.329 C  
ENDROOT
BRANCH   2   4
HETATM    4  N   UNL     1     -10.405   9.294  70.751  1.00  0.00    -0.258 N  
HETATM    5  C   UNL     1      -9.093   9.322  71.202  1.00  0.00    -0.127 C  
HETATM    6  O   UNL     1      -8.674   8.700  72.174  1.00  0.00    -0.272 OA 
BRANCH   4   7
HETATM    7  C   UNL     1     -11.338   8.338  71.366  1.00  0.00    -0.262 C  
BRANCH   7   8
HETATM    8  C   UNL     1     -11.062   6.869  71.141  1.00  0.00    -0.297 A  
HETATM    9  H2  UNL     1     -11.059   7.057  73.792  1.00  0.00     0.000 HD 
HETATM   10  H1  UNL     1     -10.525   5.464  74.242  1.00  0.00     0.000 HD 
HETATM   11  N   UNL     1     -10.760   6.126  73.501  1.00  0.00    -0.263 NA 
HETATM   12  C   UNL     1     -10.716   5.898  72.230  1.00  0.00    -0.234 A  
HETATM   13  C   UNL     1     -10.840   6.373  69.899  1.00  0.00    -0.310 A  
HETATM   14  N   UNL     1     -10.299   5.144  69.552  1.00  0.00    -0.250 NA 
HETATM   15  C   UNL     1      -9.249   3.064  70.257  1.00  0.00    -0.213 C  
HETATM   16  N   UNL     1     -10.278   4.666  71.835  1.00  0.00    -0.196 NA 
HETATM   17  C   UNL     1     -10.008   4.343  70.538  1.00  0.00    -0.185 A  
ENDBRANCH   7   8
ENDBRANCH   4   7
ENDBRANCH   2   4
BRANCH   3  18
HETATM   18  C   UNL     1     -12.544  11.416  70.834  1.00  0.00    -0.453 C  
BRANCH  18  19
HETATM   19  C   UNL     1     -12.670  12.927  71.108  1.00  0.00    -0.276 C  
HETATM   20  H   UNL     1     -13.591  14.102  72.397  1.00  0.00     0.000 HD 
HETATM   21  O   UNL     1     -13.514  13.170  72.228  1.00  0.00    -0.527 OA 
ENDBRANCH  18  19
ENDBRANCH   3  18
BRANCH   3  22
HETATM   22  S   UNL     1     -11.906  11.975  68.138  1.00  0.00    -0.189 SA 
BRANCH  22  23
HETATM   23  S   UNL     1     -10.228  13.161  68.111  1.00  0.00    -0.243 SA 
BRANCH  23  24
HETATM   24  C   UNL     1      -9.386  12.805  66.525  1.00  0.00    -0.221 C  
BRANCH  24  25
HETATM   25  C   UNL     1     -10.063  13.226  65.223  1.00  0.00    -0.239 C  
HETATM   26  O   UNL     1     -11.029  14.258  65.530  1.00  0.00    -0.299 OA 
HETATM   27  C   UNL     1     -11.825  12.985  63.689  1.00  0.00    -0.580 C  
HETATM   28  C   UNL     1     -12.125  14.150  64.609  1.00  0.00    -0.452 C  
HETATM   29  C   UNL     1     -10.857  12.152  64.500  1.00  0.00    -0.356 C  
ENDBRANCH  24  25
ENDBRANCH  23  24
ENDBRANCH  22  23
ENDBRANCH   3  22
TORSDOF 9
ENDMDL
MODEL      112
REMARK 921   NORMALIZED FREE ENERGY PREDICTED BY IDOCK:   -4.56 KCAL/MOL
REMARK 922        TOTAL FREE ENERGY PREDICTED BY IDOCK:   -8.19 KCAL/MOL
REMARK 923 INTER-LIGAND FREE ENERGY PREDICTED BY IDOCK:   -7.32 KCAL/MOL
REMARK 924 INTRA-LIGAND FREE ENERGY PREDICTED BY IDOCK:   -0.87 KCAL/MOL
REMARK 927      BINDING AFFINITY PREDICTED BY RF-SCORE:    0.00 PKD
ROOT
HETATM    1  C   UNL     1     -11.492  10.358  68.910  1.00  0.00    -0.251 C  
HETATM    2  C   UNL     1     -10.537  11.162  68.048  1.00  0.00    -0.198 C  
HETATM    3  C   UNL     1      -9.377  10.658  67.533  1.00  0.00    -0.146 C  
ENDROOT
BRANCH   2   4
HETATM    4  N   UNL     1     -11.029  12.436  67.747  1.00  0.00    -0.218 N  
HETATM    5  C   UNL     1     -11.832  12.636  66.633  1.00  0.00    -0.380 C  
HETATM    6  O   UNL     1     -12.283  13.722  66.280  1.00  0.00    -0.425 OA 
BRANCH   4   7
HETATM    7  C   UNL     1     -10.541  13.615  68.480  1.00  0.00    -0.250 C  
BRANCH   7   8
HETATM    8  C   UNL     1     -11.480  14.234  69.488  1.00  0.00    -0.336 A  
HETATM    9  H2  UNL     1     -10.351  16.364  68.370  1.00  0.00     0.000 HD 
HETATM   10  H1  UNL     1     -10.966  17.640  69.378  1.00  0.00     0.000 HD 
HETATM   11  N   UNL     1     -10.927  16.643  69.165  1.00  0.00    -0.305 NA 
HETATM   12  C   UNL     1     -11.537  15.699  69.803  1.00  0.00    -0.352 A  
HETATM   13  C   UNL     1     -12.158  13.474  70.384  1.00  0.00    -0.345 A  
HETATM   14  N   UNL     1     -12.814  13.886  71.534  1.00  0.00    -0.346 NA 
HETATM   15  C   UNL     1     -13.358  15.684  73.082  1.00  0.00    -0.660 C  
HETATM   16  N   UNL     1     -12.276  16.063  70.892  1.00  0.00    -0.342 NA 
HETATM   17  C   UNL     1     -12.824  15.169  71.763  1.00  0.00    -0.355 A  
ENDBRANCH   7   8
ENDBRANCH   4   7
ENDBRANCH   2   4
BRANCH   3  18
HETATM   18  C   UNL     1      -8.565  11.322  66.417  1.00  0.00    -0.174 C  
BRANCH  18  19
HETATM   19  C   UNL     1      -7.061  10.986  66.410  1.00  0.00    -0.120 C  
HETATM   20  H   UNL     1      -5.794  10.001  65.262  1.00  0.00     0.000 HD 
HETATM   21  O   UNL     1      -6.722  10.208  65.267  1.00  0.00    -0.111 OA 
ENDBRANCH  18  19
ENDBRANCH   3  18
BRANCH   3  22
HETATM   22  S   UNL     1      -8.792   9.106  68.156  1.00  0.00    -0.129 SA 
BRANCH  22  23
HETATM   23  S   UNL     1      -9.273   7.817  66.631  1.00  0.00    -0.186 SA 
BRANCH  23  24
HETATM   24  C   UNL     1     -10.870   7.056  67.100  1.00  0.00    -0.357 C  
BRANCH  24  25
HETATM   25  C   UNL     1     -10.864   5.861  68.050  1.00  0.00    -0.232 C  
HETATM   26  O   UNL     1     -11.415   6.289  69.317  1.00  0.00    -0.411 OA 
HETATM   27  C   UNL     1      -9.784   4.610  69.720  1.00  0.00    -0.280 C  
HETATM   28  C   UNL     1     -10.785   5.542  70.368  1.00  0.00    -0.251 C  
HETATM   29  C   UNL     1      -9.501   5.283  68.395  1.00  0.00    -0.159 C  
ENDBRANCH  24  25
ENDBRANCH  23  24
ENDBRANCH  22  23
ENDBRANCH   3  22
TORSDOF 9
ENDMDL
MODEL      113
REMARK 921   NORMALIZED FREE ENERGY PREDICTED BY IDOCK:   -4.55 KCAL/MOL
REMARK 922        TOTAL FREE ENERGY PREDICTED BY IDOCK:   -8.18 KCAL/MOL
REMARK 923 INTER-LIGAND FREE ENERGY PREDICTED BY IDOCK:   -7.37 KCAL/MOL
REMARK 924 INTRA-LIGAND FREE ENERGY PREDICTED BY IDOCK:   -0.81 KCAL/MOL
REMARK 927      BINDING AFFINITY PREDICTED BY RF-SCORE:    0.00 PKD
ROOT
HETATM    1  C   UNL     1     -11.830  14.428  67.728  1.00  0.00    -0.402 C  
HETATM    2  C   UNL     1     -11.089  14.128  66.438  1.00  0.00    -0.320 C  
HETATM    3  C   UNL     1     -10.954  12.873  65.916  1.00  0.00    -0.276 C  
ENDROOT
BRANCH   2   4
HETATM    4  N   UNL     1     -10.658  15.289  65.785  1.00  0.00    -0.326 N  
HETATM    5  C   UNL     1     -11.480  15.927  64.867  1.00  0.00    -0.162 C  
HETATM    6  O   UNL     1     -11.172  16.931  64.231  1.00  0.00    -1.204 OA 
BRANCH   4   7
HETATM    7  C   UNL     1      -9.260  15.732  65.902  1.00  0.00    -0.302 C  
BRANCH   7   8
HETATM    8  C   UNL     1      -9.004  16.992  66.697  1.00  0.00    -0.280 A  
HETATM    9  H2  UNL     1      -7.339  17.259  64.643  1.00  0.00     0.000 HD 
HETATM   10  H1  UNL     1      -6.442  18.670  65.119  1.00  0.00     0.000 HD 
HETATM   11  N   UNL     1      -7.177  17.995  65.331  1.00  0.00    -0.416 NA 
HETATM   12  C   UNL     1      -7.923  17.983  66.386  1.00  0.00    -0.262 A  
HETATM   13  C   UNL     1      -9.562  17.183  67.918  1.00  0.00    -0.266 A  
HETATM   14  N   UNL     1      -9.213  18.117  68.882  1.00  0.00    -0.217 NA 
HETATM   15  C   UNL     1      -7.698  19.875  69.618  1.00  0.00     0.254 C  
HETATM   16  N   UNL     1      -7.682  18.942  67.328  1.00  0.00    -0.233 NA 
HETATM   17  C   UNL     1      -8.261  18.947  68.563  1.00  0.00    -0.353 A  
ENDBRANCH   7   8
ENDBRANCH   4   7
ENDBRANCH   2   4
BRANCH   3  18
HETATM   18  C   UNL     1     -10.504  12.575  64.483  1.00  0.00    -0.366 C  
BRANCH  18  19
HETATM   19  C   UNL     1     -11.573  11.926  63.581  1.00  0.00    -0.464 C  
HETATM   20  H   UNL     1     -13.213  12.481  62.637  1.00  0.00     0.000 HD 
HETATM   21  O   UNL     1     -12.555  12.881  63.193  1.00  0.00    -0.636 OA 
ENDBRANCH  18  19
ENDBRANCH   3  18
BRANCH   3  22
HETATM   22  S   UNL     1     -11.377  11.494  66.944  1.00  0.00    -0.175 SA 
BRANCH  22  23
HETATM   23  S   UNL     1      -9.778  11.405  68.231  1.00  0.00    -0.207 SA 
BRANCH  23  24
HETATM   24  C   UNL     1      -8.307  11.103  67.185  1.00  0.00    -0.136 C  
BRANCH  24  25
HETATM   25  C   UNL     1      -8.451  10.215  65.952  1.00  0.00    -0.141 C  
HETATM   26  O   UNL     1      -9.127   8.999  66.348  1.00  0.00    -0.150 OA 
HETATM   27  C   UNL     1      -7.614   8.495  64.588  1.00  0.00    -0.102 C  
HETATM   28  C   UNL     1      -8.648   7.920  65.532  1.00  0.00    -0.116 C  
HETATM   29  C   UNL     1      -7.159   9.747  65.304  1.00  0.00    -0.119 C  
ENDBRANCH  24  25
ENDBRANCH  23  24
ENDBRANCH  22  23
ENDBRANCH   3  22
TORSDOF 9
ENDMDL
MODEL      114
REMARK 921   NORMALIZED FREE ENERGY PREDICTED BY IDOCK:   -4.55 KCAL/MOL
REMARK 922        TOTAL FREE ENERGY PREDICTED BY IDOCK:   -8.18 KCAL/MOL
REMARK 923 INTER-LIGAND FREE ENERGY PREDICTED BY IDOCK:   -6.96 KCAL/MOL
REMARK 924 INTRA-LIGAND FREE ENERGY PREDICTED BY IDOCK:   -1.22 KCAL/MOL
REMARK 927      BINDING AFFINITY PREDICTED BY RF-SCORE:    0.00 PKD
ROOT
HETATM    1  C   UNL     1     -10.277  10.494  66.054  1.00  0.00    -0.310 C  
HETATM    2  C   UNL     1      -9.143  11.136  66.831  1.00  0.00    -0.159 C  
HETATM    3  C   UNL     1      -9.209  12.389  67.370  1.00  0.00    -0.184 C  
ENDROOT
BRANCH   2   4
HETATM    4  N   UNL     1      -8.068  10.262  67.032  1.00  0.00    -0.120 N  
HETATM    5  C   UNL     1      -6.846  10.497  66.419  1.00  0.00    -0.119 C  
HETATM    6  O   UNL     1      -5.862   9.769  66.517  1.00  0.00    -0.052 OA 
BRANCH   4   7
HETATM    7  C   UNL     1      -8.272   8.979  67.722  1.00  0.00    -0.109 C  
BRANCH   7   8
HETATM    8  C   UNL     1      -9.074   9.007  69.002  1.00  0.00    -0.143 A  
HETATM    9  H2  UNL     1      -6.850  10.290  69.688  1.00  0.00     0.000 HD 
HETATM   10  H1  UNL     1      -7.083  10.475  71.401  1.00  0.00     0.000 HD 
HETATM   11  N   UNL     1      -7.436  10.131  70.508  1.00  0.00    -0.250 NA 
HETATM   12  C   UNL     1      -8.555   9.513  70.314  1.00  0.00    -0.226 A  
HETATM   13  C   UNL     1     -10.239   8.324  69.122  1.00  0.00    -0.218 A  
HETATM   14  N   UNL     1     -10.933   8.011  70.281  1.00  0.00    -0.249 NA 
HETATM   15  C   UNL     1     -11.023   8.021  72.714  1.00  0.00    -0.449 C  
HETATM   16  N   UNL     1      -9.323   9.261  71.415  1.00  0.00    -0.289 NA 
HETATM   17  C   UNL     1     -10.432   8.467  71.394  1.00  0.00    -0.237 A  
ENDBRANCH   7   8
ENDBRANCH   4   7
ENDBRANCH   2   4
BRANCH   3  18
HETATM   18  C   UNL     1      -8.231  12.935  68.415  1.00  0.00    -0.121 C  
BRANCH  18  19
HETATM   19  C   UNL     1      -7.512  14.241  68.022  1.00  0.00    -0.142 C  
HETATM   20  H   UNL     1      -5.930  14.772  66.972  1.00  0.00     0.000 HD 
HETATM   21  O   UNL     1      -6.372  13.968  67.214  1.00  0.00    -0.295 OA 
ENDBRANCH  18  19
ENDBRANCH   3  18
BRANCH   3  22
HETATM   22  S   UNL     1     -10.543  13.442  66.871  1.00  0.00    -0.274 SA 
BRANCH  22  23
HETATM   23  S   UNL     1     -11.861  13.243  68.435  1.00  0.00    -0.332 SA 
BRANCH  23  24
HETATM   24  C   UNL     1     -11.571  14.686  69.523  1.00  0.00    -0.310 C  
BRANCH  24  25
HETATM   25  C   UNL     1     -11.949  14.581  70.998  1.00  0.00    -0.332 C  
HETATM   26  O   UNL     1     -12.902  13.503  71.145  1.00  0.00    -0.338 OA 
HETATM   27  C   UNL     1     -13.379  15.171  72.767  1.00  0.00    -0.596 C  
HETATM   28  C   UNL     1     -13.794  13.821  72.223  1.00  0.00    -0.580 C  
HETATM   29  C   UNL     1     -12.639  15.793  71.603  1.00  0.00    -0.521 C  
ENDBRANCH  24  25
ENDBRANCH  23  24
ENDBRANCH  22  23
ENDBRANCH   3  22
TORSDOF 9
ENDMDL
MODEL      115
REMARK 921   NORMALIZED FREE ENERGY PREDICTED BY IDOCK:   -4.54 KCAL/MOL
REMARK 922        TOTAL FREE ENERGY PREDICTED BY IDOCK:   -8.17 KCAL/MOL
REMARK 923 INTER-LIGAND FREE ENERGY PREDICTED BY IDOCK:   -7.20 KCAL/MOL
REMARK 924 INTRA-LIGAND FREE ENERGY PREDICTED BY IDOCK:   -0.97 KCAL/MOL
REMARK 927      BINDING AFFINITY PREDICTED BY RF-SCORE:    0.00 PKD
ROOT
HETATM    1  C   UNL     1      -9.796   9.310  65.885  1.00  0.00    -0.335 C  
HETATM    2  C   UNL     1      -9.725   9.882  67.289  1.00  0.00    -0.171 C  
HETATM    3  C   UNL     1      -9.314   9.168  68.377  1.00  0.00    -0.135 C  
ENDROOT
BRANCH   2   4
HETATM    4  N   UNL     1     -10.019  11.250  67.325  1.00  0.00    -0.182 N  
HETATM    5  C   UNL     1      -8.998  12.189  67.340  1.00  0.00    -0.180 C  
HETATM    6  O   UNL     1      -9.165  13.404  67.400  1.00  0.00    -0.196 OA 
BRANCH   4   7
HETATM    7  C   UNL     1     -11.397  11.708  67.557  1.00  0.00    -0.298 C  
BRANCH   7   8
HETATM    8  C   UNL     1     -11.717  12.257  68.928  1.00  0.00    -0.380 A  
HETATM    9  H2  UNL     1     -11.852   9.630  69.312  1.00  0.00     0.000 HD 
HETATM   10  H1  UNL     1     -12.469   9.559  70.936  1.00  0.00     0.000 HD 
HETATM   11  N   UNL     1     -12.170  10.128  70.144  1.00  0.00    -0.172 NA 
HETATM   12  C   UNL     1     -12.157  11.420  70.092  1.00  0.00    -0.357 A  
HETATM   13  C   UNL     1     -11.893  13.585  69.135  1.00  0.00    -0.340 A  
HETATM   14  N   UNL     1     -12.462  14.212  70.234  1.00  0.00    -0.356 NA 
HETATM   15  C   UNL     1     -13.626  14.019  72.363  1.00  0.00    -0.658 C  
HETATM   16  N   UNL     1     -12.621  12.090  71.188  1.00  0.00    -0.336 NA 
HETATM   17  C   UNL     1     -12.835  13.436  71.212  1.00  0.00    -0.323 A  
ENDBRANCH   7   8
ENDBRANCH   4   7
ENDBRANCH   2   4
BRANCH   3  18
HETATM   18  C   UNL     1      -8.927   9.788  69.724  1.00  0.00    -0.239 C  
BRANCH  18  19
HETATM   19  C   UNL     1      -8.359   8.800  70.762  1.00  0.00    -0.160 C  
HETATM   20  H   UNL     1      -7.093   8.845  72.274  1.00  0.00     0.000 HD 
HETATM   21  O   UNL     1      -7.443   9.454  71.634  1.00  0.00    -0.323 OA 
ENDBRANCH  18  19
ENDBRANCH   3  18
BRANCH   3  22
HETATM   22  S   UNL     1      -9.163   7.410  68.213  1.00  0.00    -0.136 SA 
BRANCH  22  23
HETATM   23  S   UNL     1     -10.986   6.754  68.897  1.00  0.00    -0.188 SA 
BRANCH  23  24
HETATM   24  C   UNL     1     -10.621   5.522  70.200  1.00  0.00    -0.297 C  
BRANCH  24  25
HETATM   25  C   UNL     1     -11.007   5.841  71.643  1.00  0.00    -0.246 C  
HETATM   26  O   UNL     1     -11.540   7.185  71.680  1.00  0.00    -0.256 OA 
HETATM   27  C   UNL     1     -10.438   6.740  73.737  1.00  0.00    -0.383 C  
HETATM   28  C   UNL     1     -11.219   7.772  72.950  1.00  0.00    -0.376 C  
HETATM   29  C   UNL     1      -9.875   5.844  72.657  1.00  0.00    -0.180 C  
ENDBRANCH  24  25
ENDBRANCH  23  24
ENDBRANCH  22  23
ENDBRANCH   3  22
TORSDOF 9
ENDMDL
MODEL      116
REMARK 921   NORMALIZED FREE ENERGY PREDICTED BY IDOCK:   -4.53 KCAL/MOL
REMARK 922        TOTAL FREE ENERGY PREDICTED BY IDOCK:   -8.15 KCAL/MOL
REMARK 923 INTER-LIGAND FREE ENERGY PREDICTED BY IDOCK:   -6.72 KCAL/MOL
REMARK 924 INTRA-LIGAND FREE ENERGY PREDICTED BY IDOCK:   -1.43 KCAL/MOL
REMARK 927      BINDING AFFINITY PREDICTED BY RF-SCORE:    0.00 PKD
ROOT
HETATM    1  C   UNL     1      -7.153  10.996  66.737  1.00  0.00    -0.135 C  
HETATM    2  C   UNL     1      -8.488  10.296  66.567  1.00  0.00    -0.125 C  
HETATM    3  C   UNL     1      -8.950   9.332  67.417  1.00  0.00    -0.124 C  
ENDROOT
BRANCH   2   4
HETATM    4  N   UNL     1      -9.241  10.824  65.513  1.00  0.00    -0.194 N  
HETATM    5  C   UNL     1      -9.521  10.054  64.393  1.00  0.00    -0.286 C  
HETATM    6  O   UNL     1     -10.149  10.446  63.413  1.00  0.00    -0.200 OA 
BRANCH   4   7
HETATM    7  C   UNL     1      -9.569  12.258  65.478  1.00  0.00    -0.099 C  
BRANCH   7   8
HETATM    8  C   UNL     1     -10.387  12.802  66.626  1.00  0.00    -0.252 A  
HETATM    9  H2  UNL     1      -8.329  14.481  66.540  1.00  0.00     0.000 HD 
HETATM   10  H1  UNL     1      -8.604  15.426  67.973  1.00  0.00     0.000 HD 
HETATM   11  N   UNL     1      -8.905  14.666  67.361  1.00  0.00    -0.185 NA 
HETATM   12  C   UNL     1      -9.945  13.917  67.525  1.00  0.00    -0.240 A  
HETATM   13  C   UNL     1     -11.471  12.139  67.099  1.00  0.00    -0.346 A  
HETATM   14  N   UNL     1     -12.142  12.339  68.296  1.00  0.00    -0.345 NA 
HETATM   15  C   UNL     1     -12.266  13.484  70.441  1.00  0.00    -0.426 C  
HETATM   16  N   UNL     1     -10.696  14.136  68.645  1.00  0.00    -0.248 NA 
HETATM   17  C   UNL     1     -11.710  13.315  69.044  1.00  0.00    -0.322 A  
ENDBRANCH   7   8
ENDBRANCH   4   7
ENDBRANCH   2   4
BRANCH   3  18
HETATM   18  C   UNL     1     -10.401   8.843  67.465  1.00  0.00    -0.328 C  
BRANCH  18  19
HETATM   19  C   UNL     1     -10.616   7.382  67.023  1.00  0.00    -0.344 C  
HETATM   20  H   UNL     1     -11.388   5.732  67.778  1.00  0.00     0.000 HD 
HETATM   21  O   UNL     1     -11.255   6.632  68.050  1.00  0.00    -0.239 OA 
ENDBRANCH  18  19
ENDBRANCH   3  18
BRANCH   3  22
HETATM   22  S   UNL     1      -7.813   8.633  68.582  1.00  0.00    -0.108 SA 
BRANCH  22  23
HETATM   23  S   UNL     1      -8.346   9.576  70.328  1.00  0.00    -0.188 SA 
BRANCH  23  24
HETATM   24  C   UNL     1      -9.254   8.332  71.316  1.00  0.00    -0.163 C  
BRANCH  24  25
HETATM   25  C   UNL     1     -10.634   8.690  71.862  1.00  0.00    -0.340 C  
HETATM   26  O   UNL     1     -11.502   7.548  71.679  1.00  0.00    -0.250 OA 
HETATM   27  C   UNL     1     -12.796   9.532  71.500  1.00  0.00    -0.464 C  
HETATM   28  C   UNL     1     -12.840   8.019  71.459  1.00  0.00    -0.311 C  
HETATM   29  C   UNL     1     -11.352   9.839  71.174  1.00  0.00    -0.459 C  
ENDBRANCH  24  25
ENDBRANCH  23  24
ENDBRANCH  22  23
ENDBRANCH   3  22
TORSDOF 9
ENDMDL
MODEL      117
REMARK 921   NORMALIZED FREE ENERGY PREDICTED BY IDOCK:   -4.53 KCAL/MOL
REMARK 922        TOTAL FREE ENERGY PREDICTED BY IDOCK:   -8.15 KCAL/MOL
REMARK 923 INTER-LIGAND FREE ENERGY PREDICTED BY IDOCK:   -6.98 KCAL/MOL
REMARK 924 INTRA-LIGAND FREE ENERGY PREDICTED BY IDOCK:   -1.17 KCAL/MOL
REMARK 927      BINDING AFFINITY PREDICTED BY RF-SCORE:    0.00 PKD
ROOT
HETATM    1  C   UNL     1      -8.754  10.192  69.443  1.00  0.00    -0.186 C  
HETATM    2  C   UNL     1      -8.183  10.573  68.090  1.00  0.00    -0.114 C  
HETATM    3  C   UNL     1      -7.942   9.675  67.090  1.00  0.00    -0.106 C  
ENDROOT
BRANCH   2   4
HETATM    4  N   UNL     1      -8.037  11.957  67.940  1.00  0.00    -0.138 N  
HETATM    5  C   UNL     1      -6.780  12.518  67.766  1.00  0.00    -0.123 C  
HETATM    6  O   UNL     1      -6.560  13.721  67.655  1.00  0.00    -0.168 OA 
BRANCH   4   7
HETATM    7  C   UNL     1      -9.180  12.854  68.169  1.00  0.00    -0.212 C  
BRANCH   7   8
HETATM    8  C   UNL     1     -10.170  13.008  67.038  1.00  0.00    -0.245 A  
HETATM    9  H2  UNL     1     -11.599  11.738  68.884  1.00  0.00     0.000 HD 
HETATM   10  H1  UNL     1     -13.051  11.379  67.999  1.00  0.00     0.000 HD 
HETATM   11  N   UNL     1     -12.120  11.797  68.009  1.00  0.00    -0.542 NA 
HETATM   12  C   UNL     1     -11.538  12.394  67.022  1.00  0.00    -0.365 A  
HETATM   13  C   UNL     1      -9.792  13.490  65.828  1.00  0.00    -0.201 A  
HETATM   14  N   UNL     1     -10.482  13.424  64.627  1.00  0.00    -0.407 NA 
HETATM   15  C   UNL     1     -12.401  12.597  63.377  1.00  0.00    -0.553 C  
HETATM   16  N   UNL     1     -12.216  12.439  65.837  1.00  0.00    -0.632 NA 
HETATM   17  C   UNL     1     -11.662  12.872  64.669  1.00  0.00    -0.359 A  
ENDBRANCH   7   8
ENDBRANCH   4   7
ENDBRANCH   2   4
BRANCH   3  18
HETATM   18  C   UNL     1      -7.677  10.055  65.630  1.00  0.00    -0.136 C  
BRANCH  18  19
HETATM   19  C   UNL     1      -8.743   9.578  64.624  1.00  0.00    -0.205 C  
HETATM   20  H   UNL     1     -10.704   9.669  64.429  1.00  0.00     0.000 HD 
HETATM   21  O   UNL     1     -10.047   9.962  65.049  1.00  0.00    -0.286 OA 
ENDBRANCH  18  19
ENDBRANCH   3  18
BRANCH   3  22
HETATM   22  S   UNL     1      -7.988   7.950  67.490  1.00  0.00    -0.124 SA 
BRANCH  22  23
HETATM   23  S   UNL     1      -9.987   7.514  67.299  1.00  0.00    -0.235 SA 
BRANCH  23  24
HETATM   24  C   UNL     1     -10.177   5.776  67.841  1.00  0.00    -0.187 C  
BRANCH  24  25
HETATM   25  C   UNL     1     -10.572   5.497  69.289  1.00  0.00    -0.255 C  
HETATM   26  O   UNL     1     -11.693   6.347  69.623  1.00  0.00    -0.389 OA 
HETATM   27  C   UNL     1     -10.379   6.010  71.573  1.00  0.00    -0.261 C  
HETATM   28  C   UNL     1     -11.617   6.681  71.017  1.00  0.00    -0.346 C  
HETATM   29  C   UNL     1      -9.523   5.806  70.343  1.00  0.00    -0.201 C  
ENDBRANCH  24  25
ENDBRANCH  23  24
ENDBRANCH  22  23
ENDBRANCH   3  22
TORSDOF 9
ENDMDL
MODEL      118
REMARK 921   NORMALIZED FREE ENERGY PREDICTED BY IDOCK:   -4.52 KCAL/MOL
REMARK 922        TOTAL FREE ENERGY PREDICTED BY IDOCK:   -8.13 KCAL/MOL
REMARK 923 INTER-LIGAND FREE ENERGY PREDICTED BY IDOCK:   -7.47 KCAL/MOL
REMARK 924 INTRA-LIGAND FREE ENERGY PREDICTED BY IDOCK:   -0.67 KCAL/MOL
REMARK 927      BINDING AFFINITY PREDICTED BY RF-SCORE:    0.00 PKD
ROOT
HETATM    1  C   UNL     1     -10.404  11.104  65.425  1.00  0.00    -0.331 C  
HETATM    2  C   UNL     1     -11.144  11.575  66.663  1.00  0.00    -0.295 C  
HETATM    3  C   UNL     1     -11.110  10.919  67.860  1.00  0.00    -0.302 C  
ENDROOT
BRANCH   2   4
HETATM    4  N   UNL     1     -11.770  12.812  66.475  1.00  0.00    -0.382 N  
HETATM    5  C   UNL     1     -12.631  13.010  65.405  1.00  0.00    -0.422 C  
HETATM    6  O   UNL     1     -13.200  14.068  65.150  1.00  0.00    -0.768 OA 
BRANCH   4   7
HETATM    7  C   UNL     1     -11.372  13.978  67.279  1.00  0.00    -0.330 C  
BRANCH   7   8
HETATM    8  C   UNL     1     -10.173  14.764  66.801  1.00  0.00    -0.266 A  
HETATM    9  H2  UNL     1      -9.071  12.947  68.397  1.00  0.00     0.000 HD 
HETATM   10  H1  UNL     1      -7.423  13.499  68.447  1.00  0.00     0.000 HD 
HETATM   11  N   UNL     1      -8.373  13.629  68.098  1.00  0.00    -0.158 NA 
HETATM   12  C   UNL     1      -8.778  14.574  67.315  1.00  0.00    -0.210 A  
HETATM   13  C   UNL     1     -10.317  15.893  66.063  1.00  0.00    -0.348 A  
HETATM   14  N   UNL     1      -9.367  16.868  65.798  1.00  0.00    -0.528 NA 
HETATM   15  C   UNL     1      -7.132  17.751  66.188  1.00  0.00    -0.347 C  
HETATM   16  N   UNL     1      -7.856  15.512  66.946  1.00  0.00    -0.219 NA 
HETATM   17  C   UNL     1      -8.174  16.656  66.276  1.00  0.00    -0.330 A  
ENDBRANCH   7   8
ENDBRANCH   4   7
ENDBRANCH   2   4
BRANCH   3  18
HETATM   18  C   UNL     1     -11.569  11.523  69.192  1.00  0.00    -0.382 C  
BRANCH  18  19
HETATM   19  C   UNL     1     -12.384  10.576  70.095  1.00  0.00    -0.265 C  
HETATM   20  H   UNL     1     -13.287  10.655  71.846  1.00  0.00     0.000 HD 
HETATM   21  O   UNL     1     -12.784  11.238  71.290  1.00  0.00    -0.397 OA 
ENDBRANCH  18  19
ENDBRANCH   3  18
BRANCH   3  22
HETATM   22  S   UNL     1     -10.444   9.278  67.893  1.00  0.00    -0.222 SA 
BRANCH  22  23
HETATM   23  S   UNL     1      -8.992   9.429  69.339  1.00  0.00    -0.168 SA 
BRANCH  23  24
HETATM   24  C   UNL     1      -8.708   7.726  69.947  1.00  0.00    -0.142 C  
BRANCH  24  25
HETATM   25  C   UNL     1      -9.217   7.346  71.335  1.00  0.00    -0.141 C  
HETATM   26  O   UNL     1      -9.626   8.557  72.012  1.00  0.00    -0.246 OA 
HETATM   27  C   UNL     1      -8.799   7.020  73.623  1.00  0.00    -0.180 C  
HETATM   28  C   UNL     1      -9.393   8.398  73.419  1.00  0.00     0.015 C  
HETATM   29  C   UNL     1      -8.206   6.702  72.269  1.00  0.00    -0.104 C  
ENDBRANCH  24  25
ENDBRANCH  23  24
ENDBRANCH  22  23
ENDBRANCH   3  22
TORSDOF 9
ENDMDL
MODEL      119
REMARK 921   NORMALIZED FREE ENERGY PREDICTED BY IDOCK:   -4.51 KCAL/MOL
REMARK 922        TOTAL FREE ENERGY PREDICTED BY IDOCK:   -8.12 KCAL/MOL
REMARK 923 INTER-LIGAND FREE ENERGY PREDICTED BY IDOCK:   -7.32 KCAL/MOL
REMARK 924 INTRA-LIGAND FREE ENERGY PREDICTED BY IDOCK:   -0.80 KCAL/MOL
REMARK 927      BINDING AFFINITY PREDICTED BY RF-SCORE:    0.00 PKD
ROOT
HETATM    1  C   UNL     1     -12.992   9.933  71.153  1.00  0.00    -0.456 C  
HETATM    2  C   UNL     1     -11.633   9.370  70.779  1.00  0.00    -0.298 C  
HETATM    3  C   UNL     1     -10.866   9.858  69.761  1.00  0.00    -0.269 C  
ENDROOT
BRANCH   2   4
HETATM    4  N   UNL     1     -11.206   8.372  71.662  1.00  0.00    -0.261 N  
HETATM    5  C   UNL     1     -10.102   8.579  72.477  1.00  0.00    -0.249 C  
HETATM    6  O   UNL     1      -9.643   7.749  73.257  1.00  0.00    -0.240 OA 
BRANCH   4   7
HETATM    7  C   UNL     1     -11.785   7.021  71.595  1.00  0.00    -0.297 C  
BRANCH   7   8
HETATM    8  C   UNL     1     -11.170   6.059  70.604  1.00  0.00    -0.347 A  
HETATM    9  H2  UNL     1     -10.424   5.035  72.940  1.00  0.00     0.000 HD 
HETATM   10  H1  UNL     1      -9.336   3.780  72.426  1.00  0.00     0.000 HD 
HETATM   11  N   UNL     1      -9.967   4.542  72.173  1.00  0.00    -0.177 NA 
HETATM   12  C   UNL     1     -10.243   4.941  70.976  1.00  0.00    -0.192 A  
HETATM   13  C   UNL     1     -11.197   6.304  69.271  1.00  0.00    -0.389 A  
HETATM   14  N   UNL     1     -10.449   5.696  68.273  1.00  0.00    -0.202 NA 
HETATM   15  C   UNL     1      -8.673   4.148  67.662  1.00  0.00    -0.119 C  
HETATM   16  N   UNL     1      -9.602   4.310  69.948  1.00  0.00    -0.194 NA 
HETATM   17  C   UNL     1      -9.653   4.737  68.653  1.00  0.00    -0.160 A  
ENDBRANCH   7   8
ENDBRANCH   4   7
ENDBRANCH   2   4
BRANCH   3  18
HETATM   18  C   UNL     1      -9.381   9.536  69.564  1.00  0.00    -0.199 C  
BRANCH  18  19
HETATM   19  C   UNL     1      -8.981   9.132  68.132  1.00  0.00    -0.129 C  
HETATM   20  H   UNL     1      -7.802   9.810  66.704  1.00  0.00     0.000 HD 
HETATM   21  O   UNL     1      -8.048  10.059  67.586  1.00  0.00    -0.109 OA 
ENDBRANCH  18  19
ENDBRANCH   3  18
BRANCH   3  22
HETATM   22  S   UNL     1     -11.616  10.983  68.616  1.00  0.00    -0.299 SA 
BRANCH  22  23
HETATM   23  S   UNL     1     -10.665  12.750  69.058  1.00  0.00    -0.021 SA 
BRANCH  23  24
HETATM   24  C   UNL     1     -11.992  13.962  69.403  1.00  0.00    -0.354 C  
BRANCH  24  25
HETATM   25  C   UNL     1     -12.189  14.449  70.837  1.00  0.00    -0.342 C  
HETATM   26  O   UNL     1     -12.913  13.429  71.563  1.00  0.00    -0.350 OA 
HETATM   27  C   UNL     1     -13.507  15.558  72.434  1.00  0.00    -0.606 C  
HETATM   28  C   UNL     1     -13.730  14.066  72.557  1.00  0.00    -0.547 C  
HETATM   29  C   UNL     1     -13.015  15.711  71.011  1.00  0.00    -0.518 C  
ENDBRANCH  24  25
ENDBRANCH  23  24
ENDBRANCH  22  23
ENDBRANCH   3  22
TORSDOF 9
ENDMDL
MODEL      120
REMARK 921   NORMALIZED FREE ENERGY PREDICTED BY IDOCK:   -4.49 KCAL/MOL
REMARK 922        TOTAL FREE ENERGY PREDICTED BY IDOCK:   -8.10 KCAL/MOL
REMARK 923 INTER-LIGAND FREE ENERGY PREDICTED BY IDOCK:   -6.86 KCAL/MOL
REMARK 924 INTRA-LIGAND FREE ENERGY PREDICTED BY IDOCK:   -1.24 KCAL/MOL
REMARK 927      BINDING AFFINITY PREDICTED BY RF-SCORE:    0.00 PKD
ROOT
HETATM    1  C   UNL     1      -6.834   8.987  67.890  1.00  0.00    -0.070 C  
HETATM    2  C   UNL     1      -8.142   8.530  67.270  1.00  0.00    -0.105 C  
HETATM    3  C   UNL     1      -9.149   7.940  67.979  1.00  0.00    -0.132 C  
ENDROOT
BRANCH   2   4
HETATM    4  N   UNL     1      -8.247   8.881  65.920  1.00  0.00    -0.115 N  
HETATM    5  C   UNL     1      -8.157   7.911  64.932  1.00  0.00    -0.144 C  
HETATM    6  O   UNL     1      -8.211   8.134  63.725  1.00  0.00    -0.145 OA 
BRANCH   4   7
HETATM    7  C   UNL     1      -8.245  10.295  65.516  1.00  0.00    -0.158 C  
BRANCH   7   8
HETATM    8  C   UNL     1      -9.574  11.014  65.528  1.00  0.00    -0.263 A  
HETATM    9  H2  UNL     1      -9.071  10.776  62.929  1.00  0.00     0.000 HD 
HETATM   10  H1  UNL     1     -10.355  11.731  62.249  1.00  0.00     0.000 HD 
HETATM   11  N   UNL     1      -9.894  11.360  63.081  1.00  0.00    -0.379 NA 
HETATM   12  C   UNL     1     -10.251  11.559  64.307  1.00  0.00    -0.311 A  
HETATM   13  C   UNL     1     -10.127  11.460  66.683  1.00  0.00    -0.212 A  
HETATM   14  N   UNL     1     -11.163  12.368  66.842  1.00  0.00    -0.287 NA 
HETATM   15  C   UNL     1     -12.719  13.942  65.826  1.00  0.00    -0.503 C  
HETATM   16  N   UNL     1     -11.328  12.373  64.515  1.00  0.00    -0.314 NA 
HETATM   17  C   UNL     1     -11.709  12.817  65.747  1.00  0.00    -0.402 A  
ENDBRANCH   7   8
ENDBRANCH   4   7
ENDBRANCH   2   4
BRANCH   3  18
HETATM   18  C   UNL     1     -10.581   7.764  67.464  1.00  0.00    -0.319 C  
BRANCH  18  19
HETATM   19  C   UNL     1     -11.027   6.303  67.253  1.00  0.00    -0.366 C  
HETATM   20  H   UNL     1     -10.257   4.636  66.534  1.00  0.00     0.000 HD 
HETATM   21  O   UNL     1      -9.982   5.536  66.664  1.00  0.00    -0.154 OA 
ENDBRANCH  18  19
ENDBRANCH   3  18
BRANCH   3  22
HETATM   22  S   UNL     1      -8.798   7.386  69.625  1.00  0.00    -0.141 SA 
BRANCH  22  23
HETATM   23  S   UNL     1      -9.334   9.017  70.754  1.00  0.00    -0.268 SA 
BRANCH  23  24
HETATM   24  C   UNL     1      -9.877   8.352  72.371  1.00  0.00    -0.308 C  
BRANCH  24  25
HETATM   25  C   UNL     1     -11.361   8.063  72.586  1.00  0.00    -0.405 C  
HETATM   26  O   UNL     1     -11.689   6.842  71.883  1.00  0.00    -0.273 OA 
HETATM   27  C   UNL     1     -13.587   8.270  71.866  1.00  0.00    -0.390 C  
HETATM   28  C   UNL     1     -13.048   6.924  71.429  1.00  0.00    -0.250 C  
HETATM   29  C   UNL     1     -12.333   9.097  72.043  1.00  0.00    -0.448 C  
ENDBRANCH  24  25
ENDBRANCH  23  24
ENDBRANCH  22  23
ENDBRANCH   3  22
TORSDOF 9
ENDMDL
MODEL      121
REMARK 921   NORMALIZED FREE ENERGY PREDICTED BY IDOCK:   -4.49 KCAL/MOL
REMARK 922        TOTAL FREE ENERGY PREDICTED BY IDOCK:   -8.09 KCAL/MOL
REMARK 923 INTER-LIGAND FREE ENERGY PREDICTED BY IDOCK:   -7.14 KCAL/MOL
REMARK 924 INTRA-LIGAND FREE ENERGY PREDICTED BY IDOCK:   -0.95 KCAL/MOL
REMARK 927      BINDING AFFINITY PREDICTED BY RF-SCORE:    0.00 PKD
ROOT
HETATM    1  C   UNL     1      -9.494   9.141  68.362  1.00  0.00    -0.150 C  
HETATM    2  C   UNL     1     -10.057   9.581  69.701  1.00  0.00    -0.212 C  
HETATM    3  C   UNL     1     -11.157  10.379  69.834  1.00  0.00    -0.305 C  
ENDROOT
BRANCH   2   4
HETATM    4  N   UNL     1      -9.395   8.988  70.782  1.00  0.00    -0.227 N  
HETATM    5  C   UNL     1      -8.074   9.309  71.059  1.00  0.00    -0.066 C  
HETATM    6  O   UNL     1      -7.410   8.818  71.968  1.00  0.00    -0.255 OA 
BRANCH   4   7
HETATM    7  C   UNL     1     -10.013   7.871  71.511  1.00  0.00    -0.173 C  
BRANCH   7   8
HETATM    8  C   UNL     1      -9.660   6.474  71.055  1.00  0.00    -0.185 A  
HETATM    9  H2  UNL     1     -11.562   7.177  69.337  1.00  0.00     0.000 HD 
HETATM   10  H1  UNL     1     -11.820   5.682  68.489  1.00  0.00     0.000 HD 
HETATM   11  N   UNL     1     -11.317   6.194  69.214  1.00  0.00    -0.392 NA 
HETATM   12  C   UNL     1     -10.399   5.720  69.990  1.00  0.00    -0.259 A  
HETATM   13  C   UNL     1      -8.812   5.691  71.766  1.00  0.00    -0.136 A  
HETATM   14  N   UNL     1      -8.612   4.323  71.654  1.00  0.00    -0.106 NA 
HETATM   15  C   UNL     1      -9.266   2.205  70.648  1.00  0.00    -0.185 C  
HETATM   16  N   UNL     1     -10.097   4.395  69.856  1.00  0.00    -0.164 NA 
HETATM   17  C   UNL     1      -9.287   3.716  70.719  1.00  0.00    -0.155 A  
ENDBRANCH   7   8
ENDBRANCH   4   7
ENDBRANCH   2   4
BRANCH   3  18
HETATM   18  C   UNL     1     -11.932  10.575  71.141  1.00  0.00    -0.435 C  
BRANCH  18  19
HETATM   19  C   UNL     1     -13.258   9.796  71.241  1.00  0.00    -0.373 C  
HETATM   20  H   UNL     1     -14.344   8.945  72.651  1.00  0.00     0.000 HD 
HETATM   21  O   UNL     1     -13.526   9.424  72.589  1.00  0.00    -0.413 OA 
ENDBRANCH  18  19
ENDBRANCH   3  18
BRANCH   3  22
HETATM   22  S   UNL     1     -11.768  11.205  68.390  1.00  0.00    -0.224 SA 
BRANCH  22  23
HETATM   23  S   UNL     1     -10.892  13.057  68.548  1.00  0.00    -0.264 SA 
BRANCH  23  24
HETATM   24  C   UNL     1     -12.172  14.160  69.252  1.00  0.00    -0.269 C  
BRANCH  24  25
HETATM   25  C   UNL     1     -12.241  14.333  70.767  1.00  0.00    -0.353 C  
HETATM   26  O   UNL     1     -13.402  13.617  71.250  1.00  0.00    -0.285 OA 
HETATM   27  C   UNL     1     -13.039  15.514  72.634  1.00  0.00    -0.553 C  
HETATM   28  C   UNL     1     -13.920  14.305  72.399  1.00  0.00    -0.497 C  
HETATM   29  C   UNL     1     -12.421  15.753  71.275  1.00  0.00    -0.505 C  
ENDBRANCH  24  25
ENDBRANCH  23  24
ENDBRANCH  22  23
ENDBRANCH   3  22
TORSDOF 9
ENDMDL
MODEL      122
REMARK 921   NORMALIZED FREE ENERGY PREDICTED BY IDOCK:   -4.49 KCAL/MOL
REMARK 922        TOTAL FREE ENERGY PREDICTED BY IDOCK:   -8.09 KCAL/MOL
REMARK 923 INTER-LIGAND FREE ENERGY PREDICTED BY IDOCK:   -7.04 KCAL/MOL
REMARK 924 INTRA-LIGAND FREE ENERGY PREDICTED BY IDOCK:   -1.05 KCAL/MOL
REMARK 927      BINDING AFFINITY PREDICTED BY RF-SCORE:    0.00 PKD
ROOT
HETATM    1  C   UNL     1     -12.476  13.662  65.611  1.00  0.00    -0.540 C  
HETATM    2  C   UNL     1     -11.346  12.889  66.265  1.00  0.00    -0.323 C  
HETATM    3  C   UNL     1     -10.597  11.950  65.616  1.00  0.00    -0.268 C  
ENDROOT
BRANCH   2   4
HETATM    4  N   UNL     1     -11.082  13.325  67.568  1.00  0.00    -0.263 N  
HETATM    5  C   UNL     1     -11.965  13.036  68.599  1.00  0.00    -0.263 C  
HETATM    6  O   UNL     1     -11.826  13.402  69.763  1.00  0.00    -0.303 OA 
BRANCH   4   7
HETATM    7  C   UNL     1      -9.982  14.265  67.830  1.00  0.00    -0.227 C  
BRANCH   7   8
HETATM    8  C   UNL     1     -10.298  15.739  67.723  1.00  0.00    -0.275 A  
HETATM    9  H2  UNL     1      -9.935  15.042  65.184  1.00  0.00     0.000 HD 
HETATM   10  H1  UNL     1      -9.985  16.592  64.399  1.00  0.00     0.000 HD 
HETATM   11  N   UNL     1     -10.037  16.054  65.264  1.00  0.00    -0.492 NA 
HETATM   12  C   UNL     1     -10.221  16.530  66.451  1.00  0.00    -0.316 A  
HETATM   13  C   UNL     1     -10.414  16.519  68.826  1.00  0.00    -0.309 A  
HETATM   14  N   UNL     1     -10.410  17.904  68.898  1.00  0.00    -0.340 NA 
HETATM   15  C   UNL     1     -10.138  20.042  67.766  1.00  0.00    -0.563 C  
HETATM   16  N   UNL     1     -10.318  17.887  66.568  1.00  0.00    -0.369 NA 
HETATM   17  C   UNL     1     -10.332  18.541  67.764  1.00  0.00    -0.402 A  
ENDBRANCH   7   8
ENDBRANCH   4   7
ENDBRANCH   2   4
BRANCH   3  18
HETATM   18  C   UNL     1      -9.266  11.394  66.134  1.00  0.00    -0.223 C  
BRANCH  18  19
HETATM   19  C   UNL     1      -9.342   9.986  66.757  1.00  0.00    -0.160 C  
HETATM   20  H   UNL     1     -10.671   8.887  67.714  1.00  0.00     0.000 HD 
HETATM   21  O   UNL     1     -10.625   9.755  67.330  1.00  0.00    -0.258 OA 
ENDBRANCH  18  19
ENDBRANCH   3  18
BRANCH   3  22
HETATM   22  S   UNL     1     -11.169  11.368  64.043  1.00  0.00    -0.152 SA 
BRANCH  22  23
HETATM   23  S   UNL     1      -9.437  11.331  62.938  1.00  0.00    -0.306 SA 
BRANCH  23  24
HETATM   24  C   UNL     1      -9.126   9.570  62.548  1.00  0.00    -0.218 C  
BRANCH  24  25
HETATM   25  C   UNL     1      -7.729   9.001  62.780  1.00  0.00    -0.114 C  
HETATM   26  O   UNL     1      -7.605   8.668  64.182  1.00  0.00    -0.109 OA 
HETATM   27  C   UNL     1      -5.478   9.338  63.363  1.00  0.00    -0.067 C  
HETATM   28  C   UNL     1      -6.238   8.855  64.580  1.00  0.00    -0.066 C  
HETATM   29  C   UNL     1      -6.566   9.937  62.499  1.00  0.00    -0.111 C  
ENDBRANCH  24  25
ENDBRANCH  23  24
ENDBRANCH  22  23
ENDBRANCH   3  22
TORSDOF 9
ENDMDL
MODEL      123
REMARK 921   NORMALIZED FREE ENERGY PREDICTED BY IDOCK:   -4.45 KCAL/MOL
REMARK 922        TOTAL FREE ENERGY PREDICTED BY IDOCK:   -8.03 KCAL/MOL
REMARK 923 INTER-LIGAND FREE ENERGY PREDICTED BY IDOCK:   -6.88 KCAL/MOL
REMARK 924 INTRA-LIGAND FREE ENERGY PREDICTED BY IDOCK:   -1.15 KCAL/MOL
REMARK 927      BINDING AFFINITY PREDICTED BY RF-SCORE:    0.00 PKD
ROOT
HETATM    1  C   UNL     1     -10.885  15.840  66.656  1.00  0.00    -0.241 C  
HETATM    2  C   UNL     1     -10.234  14.729  67.459  1.00  0.00    -0.233 C  
HETATM    3  C   UNL     1      -8.910  14.712  67.791  1.00  0.00    -0.177 C  
ENDROOT
BRANCH   2   4
HETATM    4  N   UNL     1     -11.160  13.785  67.917  1.00  0.00    -0.257 N  
HETATM    5  C   UNL     1     -11.085  12.464  67.497  1.00  0.00    -0.266 C  
HETATM    6  O   UNL     1     -11.870  11.579  67.827  1.00  0.00    -0.584 OA 
BRANCH   4   7
HETATM    7  C   UNL     1     -12.343  14.212  68.680  1.00  0.00    -0.018 C  
BRANCH   7   8
HETATM    8  C   UNL     1     -12.138  14.528  70.144  1.00  0.00    -0.394 A  
HETATM    9  H2  UNL     1     -12.904  11.984  70.206  1.00  0.00     0.000 HD 
HETATM   10  H1  UNL     1     -13.086  11.729  71.916  1.00  0.00     0.000 HD 
HETATM   11  N   UNL     1     -12.849  12.362  71.152  1.00  0.00    -0.277 NA 
HETATM   12  C   UNL     1     -12.486  13.597  71.266  1.00  0.00    -0.326 A  
HETATM   13  C   UNL     1     -11.875  15.790  70.565  1.00  0.00    -0.375 A  
HETATM   14  N   UNL     1     -11.948  16.295  71.854  1.00  0.00    -0.489 NA 
HETATM   15  C   UNL     1     -12.542  15.948  74.189  1.00  0.00    -0.741 C  
HETATM   16  N   UNL     1     -12.451  14.119  72.528  1.00  0.00    -0.160 NA 
HETATM   17  C   UNL     1     -12.264  15.445  72.790  1.00  0.00    -0.420 A  
ENDBRANCH   7   8
ENDBRANCH   4   7
ENDBRANCH   2   4
BRANCH   3  18
HETATM   18  C   UNL     1      -8.295  13.794  68.852  1.00  0.00     0.111 C  
BRANCH  18  19
HETATM   19  C   UNL     1      -7.224  12.814  68.332  1.00  0.00    -0.115 C  
HETATM   20  H   UNL     1      -7.011  11.554  66.830  1.00  0.00     0.000 HD 
HETATM   21  O   UNL     1      -7.671  12.157  67.151  1.00  0.00    -0.160 OA 
ENDBRANCH  18  19
ENDBRANCH   3  18
BRANCH   3  22
HETATM   22  S   UNL     1      -7.832  15.862  66.982  1.00  0.00    -0.244 SA 
BRANCH  22  23
HETATM   23  S   UNL     1      -6.710  16.579  68.546  1.00  0.00    -0.152 SA 
BRANCH  23  24
HETATM   24  C   UNL     1      -5.370  17.571  67.791  1.00  0.00    -0.129 C  
BRANCH  24  25
HETATM   25  C   UNL     1      -5.732  18.867  67.069  1.00  0.00    -0.148 C  
HETATM   26  O   UNL     1      -7.039  19.286  67.523  1.00  0.00    -0.211 OA 
HETATM   27  C   UNL     1      -6.763  19.955  65.260  1.00  0.00    -0.330 C  
HETATM   28  C   UNL     1      -7.704  19.964  66.446  1.00  0.00    -0.304 C  
HETATM   29  C   UNL     1      -5.854  18.783  65.557  1.00  0.00    -0.243 C  
ENDBRANCH  24  25
ENDBRANCH  23  24
ENDBRANCH  22  23
ENDBRANCH   3  22
TORSDOF 9
ENDMDL
MODEL      124
REMARK 921   NORMALIZED FREE ENERGY PREDICTED BY IDOCK:   -4.45 KCAL/MOL
REMARK 922        TOTAL FREE ENERGY PREDICTED BY IDOCK:   -8.02 KCAL/MOL
REMARK 923 INTER-LIGAND FREE ENERGY PREDICTED BY IDOCK:   -6.86 KCAL/MOL
REMARK 924 INTRA-LIGAND FREE ENERGY PREDICTED BY IDOCK:   -1.17 KCAL/MOL
REMARK 927      BINDING AFFINITY PREDICTED BY RF-SCORE:    0.00 PKD
ROOT
HETATM    1  C   UNL     1      -8.267  10.788  68.450  1.00  0.00    -0.129 C  
HETATM    2  C   UNL     1      -8.825   9.461  67.968  1.00  0.00    -0.124 C  
HETATM    3  C   UNL     1      -9.386   8.531  68.795  1.00  0.00    -0.143 C  
ENDROOT
BRANCH   2   4
HETATM    4  N   UNL     1      -8.803   9.345  66.573  1.00  0.00    -0.133 N  
HETATM    5  C   UNL     1      -7.606   9.145  65.902  1.00  0.00    -0.095 C  
HETATM    6  O   UNL     1      -7.493   9.060  64.682  1.00  0.00    -0.099 OA 
BRANCH   4   7
HETATM    7  C   UNL     1     -10.010   9.638  65.784  1.00  0.00    -0.272 C  
BRANCH   7   8
HETATM    8  C   UNL     1     -10.386  11.092  65.619  1.00  0.00    -0.311 A  
HETATM    9  H2  UNL     1     -11.584  10.443  67.901  1.00  0.00     0.000 HD 
HETATM   10  H1  UNL     1     -12.516  11.877  68.211  1.00  0.00     0.000 HD 
HETATM   11  N   UNL     1     -11.861  11.380  67.607  1.00  0.00    -0.636 NA 
HETATM   12  C   UNL     1     -11.349  11.822  66.506  1.00  0.00    -0.305 A  
HETATM   13  C   UNL     1     -10.086  11.776  64.487  1.00  0.00    -0.274 A  
HETATM   14  N   UNL     1     -10.597  12.993  64.061  1.00  0.00    -0.397 NA 
HETATM   15  C   UNL     1     -12.177  14.814  64.399  1.00  0.00    -0.447 C  
HETATM   16  N   UNL     1     -11.749  13.059  66.088  1.00  0.00    -0.373 NA 
HETATM   17  C   UNL     1     -11.437  13.579  64.867  1.00  0.00    -0.334 A  
ENDBRANCH   7   8
ENDBRANCH   4   7
ENDBRANCH   2   4
BRANCH   3  18
HETATM   18  C   UNL     1     -10.234   7.347  68.319  1.00  0.00    -0.213 C  
BRANCH  18  19
HETATM   19  C   UNL     1      -9.438   6.148  67.768  1.00  0.00    -0.115 C  
HETATM   20  H   UNL     1      -7.798   5.154  68.231  1.00  0.00     0.000 HD 
HETATM   21  O   UNL     1      -8.288   5.894  68.570  1.00  0.00    -0.108 OA 
ENDBRANCH  18  19
ENDBRANCH   3  18
BRANCH   3  22
HETATM   22  S   UNL     1      -9.166   8.728  70.542  1.00  0.00    -0.205 SA 
BRANCH  22  23
HETATM   23  S   UNL     1     -10.995   9.457  71.129  1.00  0.00    -0.384 SA 
BRANCH  23  24
HETATM   24  C   UNL     1     -12.097   8.002  71.264  1.00  0.00    -0.291 C  
BRANCH  24  25
HETATM   25  C   UNL     1     -11.787   6.940  72.317  1.00  0.00    -0.235 C  
HETATM   26  O   UNL     1     -11.015   7.561  73.370  1.00  0.00    -0.380 OA 
HETATM   27  C   UNL     1     -10.344   5.291  73.163  1.00  0.00    -0.229 C  
HETATM   28  C   UNL     1     -10.120   6.583  73.921  1.00  0.00    -0.308 C  
HETATM   29  C   UNL     1     -10.942   5.764  71.857  1.00  0.00    -0.318 C  
ENDBRANCH  24  25
ENDBRANCH  23  24
ENDBRANCH  22  23
ENDBRANCH   3  22
TORSDOF 9
ENDMDL
MODEL      125
REMARK 921   NORMALIZED FREE ENERGY PREDICTED BY IDOCK:   -4.44 KCAL/MOL
REMARK 922        TOTAL FREE ENERGY PREDICTED BY IDOCK:   -8.01 KCAL/MOL
REMARK 923 INTER-LIGAND FREE ENERGY PREDICTED BY IDOCK:   -7.04 KCAL/MOL
REMARK 924 INTRA-LIGAND FREE ENERGY PREDICTED BY IDOCK:   -0.97 KCAL/MOL
REMARK 927      BINDING AFFINITY PREDICTED BY RF-SCORE:    0.00 PKD
ROOT
HETATM    1  C   UNL     1     -10.411   8.815  67.009  1.00  0.00    -0.338 C  
HETATM    2  C   UNL     1      -9.206   9.651  67.398  1.00  0.00    -0.130 C  
HETATM    3  C   UNL     1      -8.815  10.773  66.724  1.00  0.00    -0.142 C  
ENDROOT
BRANCH   2   4
HETATM    4  N   UNL     1      -8.608   9.212  68.584  1.00  0.00    -0.127 N  
HETATM    5  C   UNL     1      -7.741   8.129  68.576  1.00  0.00    -0.112 C  
HETATM    6  O   UNL     1      -7.196   7.661  69.572  1.00  0.00    -0.076 OA 
BRANCH   4   7
HETATM    7  C   UNL     1      -9.044   9.752  69.881  1.00  0.00    -0.229 C  
BRANCH   7   8
HETATM    8  C   UNL     1     -10.480   9.502  70.281  1.00  0.00    -0.319 A  
HETATM    9  H2  UNL     1     -10.563  11.997  69.370  1.00  0.00     0.000 HD 
HETATM   10  H1  UNL     1     -12.187  12.454  69.788  1.00  0.00     0.000 HD 
HETATM   11  N   UNL     1     -11.456  11.742  69.791  1.00  0.00    -0.271 NA 
HETATM   12  C   UNL     1     -11.553  10.548  70.277  1.00  0.00    -0.332 A  
HETATM   13  C   UNL     1     -10.844   8.371  70.936  1.00  0.00    -0.231 A  
HETATM   14  N   UNL     1     -12.026   8.120  71.616  1.00  0.00    -0.286 NA 
HETATM   15  C   UNL     1     -14.157   8.949  72.452  1.00  0.00    -0.493 C  
HETATM   16  N   UNL     1     -12.734  10.217  70.878  1.00  0.00    -0.353 NA 
HETATM   17  C   UNL     1     -12.921   9.067  71.588  1.00  0.00    -0.361 A  
ENDBRANCH   7   8
ENDBRANCH   4   7
ENDBRANCH   2   4
BRANCH   3  18
HETATM   18  C   UNL     1      -7.819  11.804  67.264  1.00  0.00    -0.161 C  
BRANCH  18  19
HETATM   19  C   UNL     1      -6.422  11.772  66.613  1.00  0.00    -0.004 C  
HETATM   20  H   UNL     1      -4.791  12.881  66.610  1.00  0.00     0.000 HD 
HETATM   21  O   UNL     1      -5.652  12.901  67.011  1.00  0.00    -0.335 OA 
ENDBRANCH  18  19
ENDBRANCH   3  18
BRANCH   3  22
HETATM   22  S   UNL     1      -9.543  11.091  65.141  1.00  0.00    -0.250 SA 
BRANCH  22  23
HETATM   23  S   UNL     1     -11.135  12.294  65.630  1.00  0.00    -0.329 SA 
BRANCH  23  24
HETATM   24  C   UNL     1     -10.809  13.909  64.833  1.00  0.00    -0.405 C  
BRANCH  24  25
HETATM   25  C   UNL     1     -11.210  15.186  65.568  1.00  0.00    -0.320 C  
HETATM   26  O   UNL     1     -10.393  16.270  65.067  1.00  0.00    -0.593 OA 
HETATM   27  C   UNL     1     -10.890  16.677  67.354  1.00  0.00    -0.186 C  
HETATM   28  C   UNL     1     -10.177  17.211  66.129  1.00  0.00    -0.334 C  
HETATM   29  C   UNL     1     -10.989  15.195  67.071  1.00  0.00    -0.322 C  
ENDBRANCH  24  25
ENDBRANCH  23  24
ENDBRANCH  22  23
ENDBRANCH   3  22
TORSDOF 9
ENDMDL
MODEL      126
REMARK 921   NORMALIZED FREE ENERGY PREDICTED BY IDOCK:   -4.44 KCAL/MOL
REMARK 922        TOTAL FREE ENERGY PREDICTED BY IDOCK:   -8.01 KCAL/MOL
REMARK 923 INTER-LIGAND FREE ENERGY PREDICTED BY IDOCK:   -6.80 KCAL/MOL
REMARK 924 INTRA-LIGAND FREE ENERGY PREDICTED BY IDOCK:   -1.21 KCAL/MOL
REMARK 927      BINDING AFFINITY PREDICTED BY RF-SCORE:    0.00 PKD
ROOT
HETATM    1  C   UNL     1      -9.993   7.034  68.519  1.00  0.00    -0.158 C  
HETATM    2  C   UNL     1      -8.824   7.988  68.684  1.00  0.00    -0.134 C  
HETATM    3  C   UNL     1      -8.386   8.825  67.699  1.00  0.00    -0.114 C  
ENDROOT
BRANCH   2   4
HETATM    4  N   UNL     1      -8.319   7.996  69.989  1.00  0.00    -0.122 N  
HETATM    5  C   UNL     1      -7.621   6.902  70.481  1.00  0.00    -0.091 C  
HETATM    6  O   UNL     1      -7.169   6.814  71.619  1.00  0.00    -0.078 OA 
BRANCH   4   7
HETATM    7  C   UNL     1      -8.692   9.068  70.925  1.00  0.00    -0.229 C  
BRANCH   7   8
HETATM    8  C   UNL     1     -10.123   9.087  71.411  1.00  0.00    -0.399 A  
HETATM    9  H2  UNL     1      -9.008   7.250  72.974  1.00  0.00     0.000 HD 
HETATM   10  H1  UNL     1     -10.402   6.623  73.803  1.00  0.00     0.000 HD 
HETATM   11  N   UNL     1     -10.018   7.275  73.118  1.00  0.00    -0.221 NA 
HETATM   12  C   UNL     1     -10.687   8.129  72.416  1.00  0.00    -0.334 A  
HETATM   13  C   UNL     1     -11.078   9.805  70.769  1.00  0.00    -0.345 A  
HETATM   14  N   UNL     1     -12.455   9.706  70.899  1.00  0.00    -0.272 NA 
HETATM   15  C   UNL     1     -14.373   8.551  71.857  1.00  0.00    -0.536 C  
HETATM   16  N   UNL     1     -12.043   8.138  72.577  1.00  0.00    -0.355 NA 
HETATM   17  C   UNL     1     -12.891   8.851  71.781  1.00  0.00    -0.365 A  
ENDBRANCH   7   8
ENDBRANCH   4   7
ENDBRANCH   2   4
BRANCH   3  18
HETATM   18  C   UNL     1      -7.439  10.008  67.925  1.00  0.00    -0.089 C  
BRANCH  18  19
HETATM   19  C   UNL     1      -5.999   9.802  67.415  1.00  0.00    -0.055 C  
HETATM   20  H   UNL     1      -4.721   8.312  67.224  1.00  0.00     0.000 HD 
HETATM   21  O   UNL     1      -5.608   8.438  67.539  1.00  0.00    -0.037 OA 
ENDBRANCH  18  19
ENDBRANCH   3  18
BRANCH   3  22
HETATM   22  S   UNL     1      -8.990   8.565  66.053  1.00  0.00    -0.188 SA 
BRANCH  22  23
HETATM   23  S   UNL     1      -9.994  10.317  65.678  1.00  0.00    -0.273 SA 
BRANCH  23  24
HETATM   24  C   UNL     1     -10.902  10.716  67.217  1.00  0.00    -0.287 C  
BRANCH  24  25
HETATM   25  C   UNL     1     -11.785  11.961  67.247  1.00  0.00    -0.247 C  
HETATM   26  O   UNL     1     -12.243  12.223  65.900  1.00  0.00    -0.634 OA 
HETATM   27  C   UNL     1     -12.005  14.291  67.045  1.00  0.00    -0.463 C  
HETATM   28  C   UNL     1     -12.397  13.641  65.735  1.00  0.00    -0.482 C  
HETATM   29  C   UNL     1     -11.114  13.251  67.687  1.00  0.00    -0.292 C  
ENDBRANCH  24  25
ENDBRANCH  23  24
ENDBRANCH  22  23
ENDBRANCH   3  22
TORSDOF 9
ENDMDL
MODEL      127
REMARK 921   NORMALIZED FREE ENERGY PREDICTED BY IDOCK:   -4.43 KCAL/MOL
REMARK 922        TOTAL FREE ENERGY PREDICTED BY IDOCK:   -8.00 KCAL/MOL
REMARK 923 INTER-LIGAND FREE ENERGY PREDICTED BY IDOCK:   -7.25 KCAL/MOL
REMARK 924 INTRA-LIGAND FREE ENERGY PREDICTED BY IDOCK:   -0.75 KCAL/MOL
REMARK 927      BINDING AFFINITY PREDICTED BY RF-SCORE:    0.00 PKD
ROOT
HETATM    1  C   UNL     1     -10.107  12.159  64.349  1.00  0.00    -0.300 C  
HETATM    2  C   UNL     1     -10.170  12.389  65.847  1.00  0.00    -0.251 C  
HETATM    3  C   UNL     1     -11.232  12.970  66.480  1.00  0.00    -0.302 C  
ENDROOT
BRANCH   2   4
HETATM    4  N   UNL     1      -9.073  11.841  66.521  1.00  0.00    -0.200 N  
HETATM    5  C   UNL     1      -8.153  12.663  67.155  1.00  0.00    -0.141 C  
HETATM    6  O   UNL     1      -7.150  12.269  67.744  1.00  0.00    -0.093 OA 
BRANCH   4   7
HETATM    7  C   UNL     1      -8.762  10.408  66.393  1.00  0.00    -0.141 C  
BRANCH   7   8
HETATM    8  C   UNL     1      -9.548   9.456  67.264  1.00  0.00    -0.194 A  
HETATM    9  H2  UNL     1      -8.175  10.868  69.049  1.00  0.00     0.000 HD 
HETATM   10  H1  UNL     1      -8.543  10.008  70.514  1.00  0.00     0.000 HD 
HETATM   11  N   UNL     1      -8.663  10.096  69.505  1.00  0.00    -0.183 NA 
HETATM   12  C   UNL     1      -9.372   9.326  68.747  1.00  0.00    -0.139 A  
HETATM   13  C   UNL     1     -10.283   8.450  66.728  1.00  0.00    -0.306 A  
HETATM   14  N   UNL     1     -10.812   7.341  67.370  1.00  0.00    -0.270 NA 
HETATM   15  C   UNL     1     -11.006   6.012  69.401  1.00  0.00    -0.455 C  
HETATM   16  N   UNL     1      -9.993   8.267  69.347  1.00  0.00    -0.184 NA 
HETATM   17  C   UNL     1     -10.622   7.273  68.657  1.00  0.00    -0.168 A  
ENDBRANCH   7   8
ENDBRANCH   4   7
ENDBRANCH   2   4
BRANCH   3  18
HETATM   18  C   UNL     1     -11.468  12.927  67.993  1.00  0.00    -0.361 C  
BRANCH  18  19
HETATM   19  C   UNL     1     -10.996  14.174  68.766  1.00  0.00    -0.257 C  
HETATM   20  H   UNL     1     -11.810  15.772  69.587  1.00  0.00     0.000 HD 
HETATM   21  O   UNL     1     -12.101  15.004  69.110  1.00  0.00    -0.288 OA 
ENDBRANCH  18  19
ENDBRANCH   3  18
BRANCH   3  22
HETATM   22  S   UNL     1     -12.451  13.785  65.485  1.00  0.00    -0.513 SA 
BRANCH  22  23
HETATM   23  S   UNL     1     -11.401  15.385  64.738  1.00  0.00    -0.311 SA 
BRANCH  23  24
HETATM   24  C   UNL     1     -10.231  15.880  66.056  1.00  0.00    -0.334 C  
BRANCH  24  25
HETATM   25  C   UNL     1     -10.471  17.193  66.797  1.00  0.00    -0.263 C  
HETATM   26  O   UNL     1     -10.783  18.212  65.819  1.00  0.00    -0.451 OA 
HETATM   27  C   UNL     1      -9.638  19.221  67.640  1.00  0.00    -0.392 C  
HETATM   28  C   UNL     1     -10.295  19.474  66.299  1.00  0.00    -0.506 C  
HETATM   29  C   UNL     1      -9.292  17.750  67.577  1.00  0.00    -0.245 C  
ENDBRANCH  24  25
ENDBRANCH  23  24
ENDBRANCH  22  23
ENDBRANCH   3  22
TORSDOF 9
ENDMDL
MODEL      128
REMARK 921   NORMALIZED FREE ENERGY PREDICTED BY IDOCK:   -4.43 KCAL/MOL
REMARK 922        TOTAL FREE ENERGY PREDICTED BY IDOCK:   -7.99 KCAL/MOL
REMARK 923 INTER-LIGAND FREE ENERGY PREDICTED BY IDOCK:   -7.01 KCAL/MOL
REMARK 924 INTRA-LIGAND FREE ENERGY PREDICTED BY IDOCK:   -0.98 KCAL/MOL
REMARK 927      BINDING AFFINITY PREDICTED BY RF-SCORE:    0.00 PKD
ROOT
HETATM    1  C   UNL     1      -9.243   9.681  67.655  1.00  0.00    -0.144 C  
HETATM    2  C   UNL     1      -9.616   9.857  69.115  1.00  0.00    -0.199 C  
HETATM    3  C   UNL     1     -10.830  10.321  69.535  1.00  0.00    -0.256 C  
ENDROOT
BRANCH   2   4
HETATM    4  N   UNL     1      -8.625   9.386  69.983  1.00  0.00    -0.183 N  
HETATM    5  C   UNL     1      -7.409  10.047  70.087  1.00  0.00    -0.163 C  
HETATM    6  O   UNL     1      -6.477   9.688  70.801  1.00  0.00    -0.092 OA 
BRANCH   4   7
HETATM    7  C   UNL     1      -8.771   8.078  70.640  1.00  0.00    -0.131 C  
BRANCH   7   8
HETATM    8  C   UNL     1      -9.118   6.902  69.757  1.00  0.00    -0.144 A  
HETATM    9  H2  UNL     1     -11.378   7.303  71.097  1.00  0.00     0.000 HD 
HETATM   10  H1  UNL     1     -12.313   5.924  70.602  1.00  0.00     0.000 HD 
HETATM   11  N   UNL     1     -11.439   6.448  70.545  1.00  0.00    -0.373 NA 
HETATM   12  C   UNL     1     -10.402   6.132  69.841  1.00  0.00    -0.213 A  
HETATM   13  C   UNL     1      -8.178   6.282  69.003  1.00  0.00    -0.114 A  
HETATM   14  N   UNL     1      -8.258   5.045  68.381  1.00  0.00    -0.086 NA 
HETATM   15  C   UNL     1      -9.504   2.988  68.003  1.00  0.00    -0.217 C  
HETATM   16  N   UNL     1     -10.464   4.966  69.133  1.00  0.00    -0.044 NA 
HETATM   17  C   UNL     1      -9.393   4.415  68.494  1.00  0.00    -0.145 A  
ENDBRANCH   7   8
ENDBRANCH   4   7
ENDBRANCH   2   4
BRANCH   3  18
HETATM   18  C   UNL     1     -11.351  10.209  70.971  1.00  0.00    -0.385 C  
BRANCH  18  19
HETATM   19  C   UNL     1     -12.884  10.262  71.119  1.00  0.00    -0.408 C  
HETATM   20  H   UNL     1     -14.229  11.460  71.922  1.00  0.00     0.000 HD 
HETATM   21  O   UNL     1     -13.284  11.428  71.831  1.00  0.00    -0.484 OA 
ENDBRANCH  18  19
ENDBRANCH   3  18
BRANCH   3  22
HETATM   22  S   UNL     1     -11.903  11.057  68.331  1.00  0.00    -0.070 SA 
BRANCH  22  23
HETATM   23  S   UNL     1     -11.112  12.943  68.141  1.00  0.00    -0.271 SA 
BRANCH  23  24
HETATM   24  C   UNL     1     -12.142  13.797  66.892  1.00  0.00    -0.413 C  
BRANCH  24  25
HETATM   25  C   UNL     1     -11.805  13.617  65.414  1.00  0.00    -0.353 C  
HETATM   26  O   UNL     1     -12.967  13.068  64.750  1.00  0.00    -0.735 OA 
HETATM   27  C   UNL     1     -11.013  12.256  63.670  1.00  0.00    -0.532 C  
HETATM   28  C   UNL     1     -12.527  12.232  63.670  1.00  0.00    -0.541 C  
HETATM   29  C   UNL     1     -10.681  12.647  65.093  1.00  0.00    -0.321 C  
ENDBRANCH  24  25
ENDBRANCH  23  24
ENDBRANCH  22  23
ENDBRANCH   3  22
TORSDOF 9
ENDMDL
MODEL      129
REMARK 921   NORMALIZED FREE ENERGY PREDICTED BY IDOCK:   -4.42 KCAL/MOL
REMARK 922        TOTAL FREE ENERGY PREDICTED BY IDOCK:   -7.98 KCAL/MOL
REMARK 923 INTER-LIGAND FREE ENERGY PREDICTED BY IDOCK:   -6.71 KCAL/MOL
REMARK 924 INTRA-LIGAND FREE ENERGY PREDICTED BY IDOCK:   -1.27 KCAL/MOL
REMARK 927      BINDING AFFINITY PREDICTED BY RF-SCORE:    0.00 PKD
ROOT
HETATM    1  C   UNL     1      -9.848  13.632  65.535  1.00  0.00    -0.175 C  
HETATM    2  C   UNL     1      -9.598  14.061  66.968  1.00  0.00    -0.253 C  
HETATM    3  C   UNL     1      -8.487  13.710  67.681  1.00  0.00    -0.183 C  
ENDROOT
BRANCH   2   4
HETATM    4  N   UNL     1     -10.573  14.946  67.441  1.00  0.00    -0.259 N  
HETATM    5  C   UNL     1     -10.249  16.266  67.723  1.00  0.00    -0.270 C  
HETATM    6  O   UNL     1     -11.034  17.100  68.165  1.00  0.00    -0.361 OA 
BRANCH   4   7
HETATM    7  C   UNL     1     -11.898  14.449  67.842  1.00  0.00    -0.349 C  
BRANCH   7   8
HETATM    8  C   UNL     1     -11.935  13.374  68.903  1.00  0.00    -0.362 A  
HETATM    9  H2  UNL     1     -11.741  11.961  66.660  1.00  0.00     0.000 HD 
HETATM   10  H1  UNL     1     -11.952  10.344  67.262  1.00  0.00     0.000 HD 
HETATM   11  N   UNL     1     -11.899  11.344  67.457  1.00  0.00    -0.627 NA 
HETATM   12  C   UNL     1     -12.013  11.904  68.616  1.00  0.00    -0.233 A  
HETATM   13  C   UNL     1     -12.175  13.672  70.204  1.00  0.00    -0.342 A  
HETATM   14  N   UNL     1     -12.525  12.808  71.231  1.00  0.00    -0.267 NA 
HETATM   15  C   UNL     1     -13.135  10.558  71.933  1.00  0.00    -0.567 C  
HETATM   16  N   UNL     1     -12.265  11.085  69.679  1.00  0.00    -0.329 NA 
HETATM   17  C   UNL     1     -12.587  11.543  70.923  1.00  0.00    -0.341 A  
ENDBRANCH   7   8
ENDBRANCH   4   7
ENDBRANCH   2   4
BRANCH   3  18
HETATM   18  C   UNL     1      -8.052  14.375  68.990  1.00  0.00    -0.047 C  
BRANCH  18  19
HETATM   19  C   UNL     1      -6.804  15.273  68.887  1.00  0.00    -0.122 C  
HETATM   20  H   UNL     1      -6.309  17.134  69.317  1.00  0.00     0.000 HD 
HETATM   21  O   UNL     1      -7.079  16.581  69.380  1.00  0.00    -0.227 OA 
ENDBRANCH  18  19
ENDBRANCH   3  18
BRANCH   3  22
HETATM   22  S   UNL     1      -7.444  12.436  67.025  1.00  0.00     0.041 SA 
BRANCH  22  23
HETATM   23  S   UNL     1      -7.227  11.182  68.638  1.00  0.00    -0.106 SA 
BRANCH  23  24
HETATM   24  C   UNL     1      -8.909  10.582  69.039  1.00  0.00    -0.169 C  
BRANCH  24  25
HETATM   25  C   UNL     1      -9.064   9.210  69.692  1.00  0.00    -0.160 C  
HETATM   26  O   UNL     1     -10.048   8.463  68.941  1.00  0.00    -0.189 OA 
HETATM   27  C   UNL     1     -10.167   7.811  71.222  1.00  0.00    -0.218 C  
HETATM   28  C   UNL     1     -10.745   7.587  69.840  1.00  0.00    -0.246 C  
HETATM   29  C   UNL     1      -9.576   9.199  71.122  1.00  0.00    -0.347 C  
ENDBRANCH  24  25
ENDBRANCH  23  24
ENDBRANCH  22  23
ENDBRANCH   3  22
TORSDOF 9
ENDMDL
MODEL      130
REMARK 921   NORMALIZED FREE ENERGY PREDICTED BY IDOCK:   -4.39 KCAL/MOL
REMARK 922        TOTAL FREE ENERGY PREDICTED BY IDOCK:   -7.94 KCAL/MOL
REMARK 923 INTER-LIGAND FREE ENERGY PREDICTED BY IDOCK:   -6.66 KCAL/MOL
REMARK 924 INTRA-LIGAND FREE ENERGY PREDICTED BY IDOCK:   -1.28 KCAL/MOL
REMARK 927      BINDING AFFINITY PREDICTED BY RF-SCORE:    0.00 PKD
ROOT
HETATM    1  C   UNL     1     -10.650   7.696  67.123  1.00  0.00    -0.410 C  
HETATM    2  C   UNL     1      -9.591   8.346  67.994  1.00  0.00    -0.149 C  
HETATM    3  C   UNL     1      -8.429   7.728  68.360  1.00  0.00    -0.125 C  
ENDROOT
BRANCH   2   4
HETATM    4  N   UNL     1      -9.882   9.683  68.286  1.00  0.00    -0.146 N  
HETATM    5  C   UNL     1     -10.719  10.005  69.345  1.00  0.00    -0.233 C  
HETATM    6  O   UNL     1     -11.049  11.147  69.653  1.00  0.00    -0.251 OA 
BRANCH   4   7
HETATM    7  C   UNL     1      -9.479  10.752  67.360  1.00  0.00    -0.154 C  
BRANCH   7   8
HETATM    8  C   UNL     1     -10.451  11.109  66.260  1.00  0.00    -0.312 A  
HETATM    9  H2  UNL     1      -8.750   9.487  65.019  1.00  0.00     0.000 HD 
HETATM   10  H1  UNL     1      -9.284   9.636  63.372  1.00  0.00     0.000 HD 
HETATM   11  N   UNL     1      -9.398   9.903  64.350  1.00  0.00    -0.275 NA 
HETATM   12  C   UNL     1     -10.283  10.717  64.822  1.00  0.00    -0.334 A  
HETATM   13  C   UNL     1     -11.414  12.047  66.443  1.00  0.00    -0.353 A  
HETATM   14  N   UNL     1     -12.178  12.689  65.481  1.00  0.00    -0.564 NA 
HETATM   15  C   UNL     1     -12.642  13.089  63.125  1.00  0.00    -0.016 C  
HETATM   16  N   UNL     1     -11.126  11.308  63.924  1.00  0.00    -0.334 NA 
HETATM   17  C   UNL     1     -11.985  12.316  64.247  1.00  0.00    -0.407 A  
ENDBRANCH   7   8
ENDBRANCH   4   7
ENDBRANCH   2   4
BRANCH   3  18
HETATM   18  C   UNL     1      -7.215   8.449  68.955  1.00  0.00    -0.078 C  
BRANCH  18  19
HETATM   19  C   UNL     1      -7.357   8.863  70.432  1.00  0.00    -0.070 C  
HETATM   20  H   UNL     1      -7.252  10.521  71.496  1.00  0.00     0.000 HD 
HETATM   21  O   UNL     1      -7.164  10.265  70.585  1.00  0.00    -0.306 OA 
ENDBRANCH  18  19
ENDBRANCH   3  18
BRANCH   3  22
HETATM   22  S   UNL     1      -8.289   5.984  68.082  1.00  0.00    -0.112 SA 
BRANCH  22  23
HETATM   23  S   UNL     1      -8.759   5.212  69.927  1.00  0.00    -0.104 SA 
BRANCH  23  24
HETATM   24  C   UNL     1     -10.566   5.426  70.117  1.00  0.00    -0.274 C  
BRANCH  24  25
HETATM   25  C   UNL     1     -11.094   6.175  71.339  1.00  0.00    -0.288 C  
HETATM   26  O   UNL     1     -12.396   6.712  71.011  1.00  0.00    -0.352 OA 
HETATM   27  C   UNL     1     -11.323   8.182  72.538  1.00  0.00    -0.469 C  
HETATM   28  C   UNL     1     -12.581   7.940  71.730  1.00  0.00    -0.328 C  
HETATM   29  C   UNL     1     -10.282   7.376  71.794  1.00  0.00    -0.212 C  
ENDBRANCH  24  25
ENDBRANCH  23  24
ENDBRANCH  22  23
ENDBRANCH   3  22
TORSDOF 9
ENDMDL
MODEL      131
REMARK 921   NORMALIZED FREE ENERGY PREDICTED BY IDOCK:   -4.38 KCAL/MOL
REMARK 922        TOTAL FREE ENERGY PREDICTED BY IDOCK:   -7.93 KCAL/MOL
REMARK 923 INTER-LIGAND FREE ENERGY PREDICTED BY IDOCK:   -7.00 KCAL/MOL
REMARK 924 INTRA-LIGAND FREE ENERGY PREDICTED BY IDOCK:   -0.93 KCAL/MOL
REMARK 927      BINDING AFFINITY PREDICTED BY RF-SCORE:    0.00 PKD
ROOT
HETATM    1  C   UNL     1     -11.883  12.752  67.152  1.00  0.00    -0.415 C  
HETATM    2  C   UNL     1     -10.483  12.227  67.417  1.00  0.00    -0.210 C  
HETATM    3  C   UNL     1      -9.418  13.030  67.710  1.00  0.00    -0.209 C  
ENDROOT
BRANCH   2   4
HETATM    4  N   UNL     1     -10.430  10.830  67.439  1.00  0.00    -0.211 N  
HETATM    5  C   UNL     1     -10.118  10.119  66.288  1.00  0.00    -0.238 C  
HETATM    6  O   UNL     1     -10.076   8.894  66.212  1.00  0.00    -0.293 OA 
BRANCH   4   7
HETATM    7  C   UNL     1     -10.902  10.085  68.616  1.00  0.00    -0.229 C  
BRANCH   7   8
HETATM    8  C   UNL     1      -9.877   9.266  69.366  1.00  0.00    -0.177 A  
HETATM    9  H2  UNL     1     -11.603   7.419  68.546  1.00  0.00     0.000 HD 
HETATM   10  H1  UNL     1     -11.007   6.010  69.372  1.00  0.00     0.000 HD 
HETATM   11  N   UNL     1     -10.915   7.008  69.177  1.00  0.00    -0.195 NA 
HETATM   12  C   UNL     1     -10.012   7.800  69.653  1.00  0.00    -0.190 A  
HETATM   13  C   UNL     1      -8.882   9.854  70.075  1.00  0.00    -0.160 A  
HETATM   14  N   UNL     1      -8.057   9.280  71.031  1.00  0.00    -0.307 NA 
HETATM   15  C   UNL     1      -7.494   7.345  72.396  1.00  0.00    -0.084 C  
HETATM   16  N   UNL     1      -9.114   7.262  70.530  1.00  0.00    -0.157 NA 
HETATM   17  C   UNL     1      -8.224   8.006  71.247  1.00  0.00    -0.109 A  
ENDBRANCH   7   8
ENDBRANCH   4   7
ENDBRANCH   2   4
BRANCH   3  18
HETATM   18  C   UNL     1      -8.091  12.529  68.290  1.00  0.00    -0.165 C  
BRANCH  18  19
HETATM   19  C   UNL     1      -6.894  12.568  67.319  1.00  0.00    -0.114 C  
HETATM   20  H   UNL     1      -6.084  11.392  65.959  1.00  0.00     0.000 HD 
HETATM   21  O   UNL     1      -6.821  11.367  66.558  1.00  0.00    -0.130 OA 
ENDBRANCH  18  19
ENDBRANCH   3  18
BRANCH   3  22
HETATM   22  S   UNL     1      -9.592  14.774  67.455  1.00  0.00    -0.213 SA 
BRANCH  22  23
HETATM   23  S   UNL     1      -9.794  15.475  69.375  1.00  0.00    -0.293 SA 
BRANCH  23  24
HETATM   24  C   UNL     1     -11.593  15.664  69.656  1.00  0.00    -0.356 C  
BRANCH  24  25
HETATM   25  C   UNL     1     -12.199  15.109  70.942  1.00  0.00    -0.342 C  
HETATM   26  O   UNL     1     -13.586  15.516  71.000  1.00  0.00    -0.528 OA 
HETATM   27  C   UNL     1     -12.731  15.390  73.213  1.00  0.00    -0.626 C  
HETATM   28  C   UNL     1     -13.955  15.694  72.376  1.00  0.00    -0.515 C  
HETATM   29  C   UNL     1     -11.593  15.610  72.242  1.00  0.00    -0.534 C  
ENDBRANCH  24  25
ENDBRANCH  23  24
ENDBRANCH  22  23
ENDBRANCH   3  22
TORSDOF 9
ENDMDL
MODEL      132
REMARK 921   NORMALIZED FREE ENERGY PREDICTED BY IDOCK:   -4.38 KCAL/MOL
REMARK 922        TOTAL FREE ENERGY PREDICTED BY IDOCK:   -7.93 KCAL/MOL
REMARK 923 INTER-LIGAND FREE ENERGY PREDICTED BY IDOCK:   -7.05 KCAL/MOL
REMARK 924 INTRA-LIGAND FREE ENERGY PREDICTED BY IDOCK:   -0.88 KCAL/MOL
REMARK 927      BINDING AFFINITY PREDICTED BY RF-SCORE:    0.00 PKD
ROOT
HETATM    1  C   UNL     1     -10.382   8.576  67.229  1.00  0.00    -0.372 C  
HETATM    2  C   UNL     1      -9.408   9.502  67.933  1.00  0.00    -0.132 C  
HETATM    3  C   UNL     1      -9.208  10.804  67.575  1.00  0.00    -0.143 C  
ENDROOT
BRANCH   2   4
HETATM    4  N   UNL     1      -8.822   8.909  69.057  1.00  0.00    -0.135 N  
HETATM    5  C   UNL     1      -8.289   7.630  68.980  1.00  0.00    -0.128 C  
HETATM    6  O   UNL     1      -7.782   7.025  69.922  1.00  0.00    -0.103 OA 
BRANCH   4   7
HETATM    7  C   UNL     1      -8.943   9.540  70.380  1.00  0.00    -0.243 C  
BRANCH   7   8
HETATM    8  C   UNL     1     -10.293   9.465  71.055  1.00  0.00    -0.382 A  
HETATM    9  H2  UNL     1      -8.859   7.705  72.437  1.00  0.00     0.000 HD 
HETATM   10  H1  UNL     1     -10.084   6.988  73.441  1.00  0.00     0.000 HD 
HETATM   11  N   UNL     1      -9.840   7.664  72.717  1.00  0.00    -0.204 NA 
HETATM   12  C   UNL     1     -10.652   8.472  72.119  1.00  0.00    -0.349 A  
HETATM   13  C   UNL     1     -11.371  10.118  70.554  1.00  0.00    -0.338 A  
HETATM   14  N   UNL     1     -12.709   9.928  70.869  1.00  0.00    -0.312 NA 
HETATM   15  C   UNL     1     -14.399   8.649  72.067  1.00  0.00    -0.512 C  
HETATM   16  N   UNL     1     -11.972   8.391  72.461  1.00  0.00    -0.389 NA 
HETATM   17  C   UNL     1     -12.964   9.046  71.794  1.00  0.00    -0.377 A  
ENDBRANCH   7   8
ENDBRANCH   4   7
ENDBRANCH   2   4
BRANCH   3  18
HETATM   18  C   UNL     1      -8.490  11.841  68.444  1.00  0.00    -0.155 C  
BRANCH  18  19
HETATM   19  C   UNL     1      -7.108  12.286  67.927  1.00  0.00    -0.105 C  
HETATM   20  H   UNL     1      -6.284  13.923  67.197  1.00  0.00     0.000 HD 
HETATM   21  O   UNL     1      -7.136  13.649  67.515  1.00  0.00    -0.167 OA 
ENDBRANCH  18  19
ENDBRANCH   3  18
BRANCH   3  22
HETATM   22  S   UNL     1      -9.868  11.353  66.025  1.00  0.00    -0.233 SA 
BRANCH  22  23
HETATM   23  S   UNL     1     -10.614  13.207  66.503  1.00  0.00    -0.287 SA 
BRANCH  23  24
HETATM   24  C   UNL     1     -11.757  12.942  67.908  1.00  0.00    -0.357 C  
BRANCH  24  25
HETATM   25  C   UNL     1     -11.938  14.062  68.929  1.00  0.00    -0.352 C  
HETATM   26  O   UNL     1     -10.807  14.957  68.823  1.00  0.00    -0.235 OA 
HETATM   27  C   UNL     1     -11.548  14.922  71.080  1.00  0.00    -0.344 C  
HETATM   28  C   UNL     1     -10.537  15.512  70.119  1.00  0.00    -0.320 C  
HETATM   29  C   UNL     1     -11.967  13.644  70.389  1.00  0.00    -0.372 C  
ENDBRANCH  24  25
ENDBRANCH  23  24
ENDBRANCH  22  23
ENDBRANCH   3  22
TORSDOF 9
ENDMDL
MODEL      133
REMARK 921   NORMALIZED FREE ENERGY PREDICTED BY IDOCK:   -4.38 KCAL/MOL
REMARK 922        TOTAL FREE ENERGY PREDICTED BY IDOCK:   -7.93 KCAL/MOL
REMARK 923 INTER-LIGAND FREE ENERGY PREDICTED BY IDOCK:   -7.42 KCAL/MOL
REMARK 924 INTRA-LIGAND FREE ENERGY PREDICTED BY IDOCK:   -0.51 KCAL/MOL
REMARK 927      BINDING AFFINITY PREDICTED BY RF-SCORE:    0.00 PKD
ROOT
HETATM    1  C   UNL     1     -11.732  11.503  68.747  1.00  0.00    -0.397 C  
HETATM    2  C   UNL     1     -11.114  12.083  67.488  1.00  0.00    -0.275 C  
HETATM    3  C   UNL     1      -9.973  11.600  66.914  1.00  0.00    -0.202 C  
ENDROOT
BRANCH   2   4
HETATM    4  N   UNL     1     -11.901  13.090  66.919  1.00  0.00    -0.382 N  
HETATM    5  C   UNL     1     -12.504  12.899  65.684  1.00  0.00    -0.338 C  
HETATM    6  O   UNL     1     -13.186  13.737  65.100  1.00  0.00    -0.757 OA 
BRANCH   4   7
HETATM    7  C   UNL     1     -11.934  14.434  67.515  1.00  0.00    -0.354 C  
BRANCH   7   8
HETATM    8  C   UNL     1     -10.691  15.281  67.370  1.00  0.00    -0.293 A  
HETATM    9  H2  UNL     1     -10.708  14.724  69.969  1.00  0.00     0.000 HD 
HETATM   10  H1  UNL     1      -9.407  15.727  70.536  1.00  0.00     0.000 HD 
HETATM   11  N   UNL     1      -9.975  15.401  69.754  1.00  0.00    -0.265 NA 
HETATM   12  C   UNL     1      -9.856  15.761  68.519  1.00  0.00    -0.209 A  
HETATM   13  C   UNL     1     -10.389  15.898  66.201  1.00  0.00    -0.328 A  
HETATM   14  N   UNL     1      -9.474  16.918  65.983  1.00  0.00    -0.480 NA 
HETATM   15  C   UNL     1      -7.898  18.526  66.909  1.00  0.00    -0.245 C  
HETATM   16  N   UNL     1      -8.903  16.697  68.234  1.00  0.00    -0.207 NA 
HETATM   17  C   UNL     1      -8.782  17.303  67.018  1.00  0.00    -0.231 A  
ENDBRANCH   7   8
ENDBRANCH   4   7
ENDBRANCH   2   4
BRANCH   3  18
HETATM   18  C   UNL     1      -9.506  11.941  65.495  1.00  0.00    -0.152 C  
BRANCH  18  19
HETATM   19  C   UNL     1     -10.116  11.073  64.377  1.00  0.00    -0.334 C  
HETATM   20  H   UNL     1     -10.119  11.030  62.405  1.00  0.00     0.000 HD 
HETATM   21  O   UNL     1      -9.743  11.566  63.094  1.00  0.00    -0.366 OA 
ENDBRANCH  18  19
ENDBRANCH   3  18
BRANCH   3  22
HETATM   22  S   UNL     1      -8.988  10.460  67.847  1.00  0.00    -0.129 SA 
BRANCH  22  23
HETATM   23  S   UNL     1      -9.555   8.650  67.058  1.00  0.00    -0.201 SA 
BRANCH  23  24
HETATM   24  C   UNL     1      -8.675   7.377  68.035  1.00  0.00    -0.124 C  
BRANCH  24  25
HETATM   25  C   UNL     1      -9.236   6.977  69.397  1.00  0.00    -0.147 C  
HETATM   26  O   UNL     1      -9.156   5.538  69.513  1.00  0.00    -0.117 OA 
HETATM   27  C   UNL     1     -11.060   6.299  70.714  1.00  0.00    -0.377 C  
HETATM   28  C   UNL     1     -10.253   5.080  70.318  1.00  0.00    -0.258 C  
HETATM   29  C   UNL     1     -10.699   7.306  69.645  1.00  0.00    -0.249 C  
ENDBRANCH  24  25
ENDBRANCH  23  24
ENDBRANCH  22  23
ENDBRANCH   3  22
TORSDOF 9
ENDMDL
MODEL      134
REMARK 921   NORMALIZED FREE ENERGY PREDICTED BY IDOCK:   -4.38 KCAL/MOL
REMARK 922        TOTAL FREE ENERGY PREDICTED BY IDOCK:   -7.92 KCAL/MOL
REMARK 923 INTER-LIGAND FREE ENERGY PREDICTED BY IDOCK:   -7.88 KCAL/MOL
REMARK 924 INTRA-LIGAND FREE ENERGY PREDICTED BY IDOCK:   -0.04 KCAL/MOL
REMARK 927      BINDING AFFINITY PREDICTED BY RF-SCORE:    0.00 PKD
ROOT
HETATM    1  C   UNL     1     -10.475  13.112  64.633  1.00  0.00    -0.411 C  
HETATM    2  C   UNL     1     -10.738  13.892  65.907  1.00  0.00    -0.286 C  
HETATM    3  C   UNL     1     -10.764  13.326  67.150  1.00  0.00    -0.259 C  
ENDROOT
BRANCH   2   4
HETATM    4  N   UNL     1     -10.837  15.270  65.682  1.00  0.00    -0.348 N  
HETATM    5  C   UNL     1     -11.205  15.754  64.434  1.00  0.00    -0.236 C  
HETATM    6  O   UNL     1     -11.289  16.944  64.142  1.00  0.00    -1.208 OA 
BRANCH   4   7
HETATM    7  C   UNL     1     -10.356  16.225  66.691  1.00  0.00    -0.302 C  
BRANCH   7   8
HETATM    8  C   UNL     1      -9.022  16.885  66.432  1.00  0.00    -0.317 A  
HETATM    9  H2  UNL     1      -8.313  14.481  67.315  1.00  0.00     0.000 HD 
HETATM   10  H1  UNL     1      -6.591  14.670  67.462  1.00  0.00     0.000 HD 
HETATM   11  N   UNL     1      -7.493  15.080  67.216  1.00  0.00    -0.203 NA 
HETATM   12  C   UNL     1      -7.697  16.284  66.793  1.00  0.00    -0.260 A  
HETATM   13  C   UNL     1      -8.934  18.197  66.098  1.00  0.00    -0.091 A  
HETATM   14  N   UNL     1      -7.812  19.011  66.111  1.00  0.00    -0.358 NA 
HETATM   15  C   UNL     1      -5.455  19.289  66.657  1.00  0.00    -0.163 C  
HETATM   16  N   UNL     1      -6.607  17.101  66.698  1.00  0.00    -0.218 NA 
HETATM   17  C   UNL     1      -6.688  18.438  66.441  1.00  0.00    -0.212 A  
ENDBRANCH   7   8
ENDBRANCH   4   7
ENDBRANCH   2   4
BRANCH   3  18
HETATM   18  C   UNL     1     -10.704  14.114  68.462  1.00  0.00    -0.262 C  
BRANCH  18  19
HETATM   19  C   UNL     1     -12.015  14.140  69.272  1.00  0.00    -0.340 C  
HETATM   20  H   UNL     1     -13.007  15.423  70.396  1.00  0.00     0.000 HD 
HETATM   21  O   UNL     1     -12.199  15.406  69.897  1.00  0.00    -0.342 OA 
ENDBRANCH  18  19
ENDBRANCH   3  18
BRANCH   3  22
HETATM   22  S   UNL     1     -10.818  11.558  67.259  1.00  0.00    -0.271 SA 
BRANCH  22  23
HETATM   23  S   UNL     1      -9.337  11.164  68.628  1.00  0.00    -0.160 SA 
BRANCH  23  24
HETATM   24  C   UNL     1      -9.073   9.353  68.576  1.00  0.00    -0.131 C  
BRANCH  24  25
HETATM   25  C   UNL     1     -10.260   8.446  68.259  1.00  0.00    -0.205 C  
HETATM   26  O   UNL     1     -10.555   7.662  69.438  1.00  0.00    -0.225 OA 
HETATM   27  C   UNL     1     -11.080   6.377  67.510  1.00  0.00    -0.401 C  
HETATM   28  C   UNL     1     -11.067   6.386  69.024  1.00  0.00    -0.358 C  
HETATM   29  C   UNL     1     -10.049   7.424  67.155  1.00  0.00    -0.314 C  
ENDBRANCH  24  25
ENDBRANCH  23  24
ENDBRANCH  22  23
ENDBRANCH   3  22
TORSDOF 9
ENDMDL
MODEL      135
REMARK 921   NORMALIZED FREE ENERGY PREDICTED BY IDOCK:   -4.38 KCAL/MOL
REMARK 922        TOTAL FREE ENERGY PREDICTED BY IDOCK:   -7.92 KCAL/MOL
REMARK 923 INTER-LIGAND FREE ENERGY PREDICTED BY IDOCK:   -6.76 KCAL/MOL
REMARK 924 INTRA-LIGAND FREE ENERGY PREDICTED BY IDOCK:   -1.16 KCAL/MOL
REMARK 927      BINDING AFFINITY PREDICTED BY RF-SCORE:    0.00 PKD
ROOT
HETATM    1  C   UNL     1     -10.279   8.472  66.373  1.00  0.00    -0.193 C  
HETATM    2  C   UNL     1      -9.459   9.731  66.162  1.00  0.00    -0.205 C  
HETATM    3  C   UNL     1      -8.282   9.984  66.806  1.00  0.00    -0.121 C  
ENDROOT
BRANCH   2   4
HETATM    4  N   UNL     1      -9.981  10.548  65.153  1.00  0.00    -0.288 N  
HETATM    5  C   UNL     1      -9.266  10.770  63.986  1.00  0.00    -0.227 C  
HETATM    6  O   UNL     1      -9.635  11.493  63.064  1.00  0.00    -0.374 OA 
BRANCH   4   7
HETATM    7  C   UNL     1     -11.193  11.346  65.396  1.00  0.00    -0.070 C  
BRANCH   7   8
HETATM    8  C   UNL     1     -11.110  12.412  66.464  1.00  0.00    -0.346 A  
HETATM    9  H2  UNL     1     -12.133  10.346  67.788  1.00  0.00     0.000 HD 
HETATM   10  H1  UNL     1     -12.516  11.082  69.316  1.00  0.00     0.000 HD 
HETATM   11  N   UNL     1     -12.139  11.182  68.373  1.00  0.00    -0.603 NA 
HETATM   12  C   UNL     1     -11.666  12.265  67.849  1.00  0.00    -0.347 A  
HETATM   13  C   UNL     1     -10.765  13.689  66.165  1.00  0.00    -0.286 A  
HETATM   14  N   UNL     1     -10.920  14.823  66.948  1.00  0.00    -0.320 NA 
HETATM   15  C   UNL     1     -11.786  15.838  68.984  1.00  0.00    -0.405 C  
HETATM   16  N   UNL     1     -11.709  13.395  68.615  1.00  0.00    -0.328 NA 
HETATM   17  C   UNL     1     -11.416  14.639  68.139  1.00  0.00    -0.323 A  
ENDBRANCH   7   8
ENDBRANCH   4   7
ENDBRANCH   2   4
BRANCH   3  18
HETATM   18  C   UNL     1      -7.283  11.068  66.390  1.00  0.00    -0.127 C  
BRANCH  18  19
HETATM   19  C   UNL     1      -7.322  12.357  67.234  1.00  0.00    -0.127 C  
HETATM   20  H   UNL     1      -6.209  13.232  68.608  1.00  0.00     0.000 HD 
HETATM   21  O   UNL     1      -6.185  12.437  68.088  1.00  0.00    -0.055 OA 
ENDBRANCH  18  19
ENDBRANCH   3  18
BRANCH   3  22
HETATM   22  S   UNL     1      -7.851   8.961  68.187  1.00  0.00    -0.102 SA 
BRANCH  22  23
HETATM   23  S   UNL     1      -8.834   9.885  69.736  1.00  0.00    -0.189 SA 
BRANCH  23  24
HETATM   24  C   UNL     1     -10.241   8.794  70.161  1.00  0.00    -0.190 C  
BRANCH  24  25
HETATM   25  C   UNL     1     -10.566   8.554  71.634  1.00  0.00    -0.283 C  
HETATM   26  O   UNL     1      -9.356   8.750  72.401  1.00  0.00    -0.331 OA 
HETATM   27  C   UNL     1     -10.680   7.091  73.468  1.00  0.00    -0.368 C  
HETATM   28  C   UNL     1      -9.387   7.876  73.539  1.00  0.00    -0.268 C  
HETATM   29  C   UNL     1     -11.037   7.157  72.000  1.00  0.00    -0.278 C  
ENDBRANCH  24  25
ENDBRANCH  23  24
ENDBRANCH  22  23
ENDBRANCH   3  22
TORSDOF 9
ENDMDL
MODEL      136
REMARK 921   NORMALIZED FREE ENERGY PREDICTED BY IDOCK:   -4.36 KCAL/MOL
REMARK 922        TOTAL FREE ENERGY PREDICTED BY IDOCK:   -7.90 KCAL/MOL
REMARK 923 INTER-LIGAND FREE ENERGY PREDICTED BY IDOCK:   -7.91 KCAL/MOL
REMARK 924 INTRA-LIGAND FREE ENERGY PREDICTED BY IDOCK:    0.02 KCAL/MOL
REMARK 927      BINDING AFFINITY PREDICTED BY RF-SCORE:    0.00 PKD
ROOT
HETATM    1  C   UNL     1      -8.499  14.368  66.833  1.00  0.00    -0.156 C  
HETATM    2  C   UNL     1      -9.888  14.319  66.224  1.00  0.00    -0.307 C  
HETATM    3  C   UNL     1     -10.586  13.163  66.024  1.00  0.00    -0.281 C  
ENDROOT
BRANCH   2   4
HETATM    4  N   UNL     1     -10.419  15.593  65.995  1.00  0.00    -0.315 N  
HETATM    5  C   UNL     1     -10.850  15.960  64.728  1.00  0.00    -0.324 C  
HETATM    6  O   UNL     1     -11.301  17.063  64.434  1.00  0.00    -1.140 OA 
BRANCH   4   7
HETATM    7  C   UNL     1     -10.338  16.630  67.036  1.00  0.00    -0.301 C  
BRANCH   7   8
HETATM    8  C   UNL     1      -9.312  17.722  66.839  1.00  0.00    -0.272 A  
HETATM    9  H2  UNL     1     -11.329  19.027  67.974  1.00  0.00     0.000 HD 
HETATM   10  H1  UNL     1     -10.777  20.671  67.853  1.00  0.00     0.000 HD 
HETATM   11  N   UNL     1     -10.606  19.681  67.674  1.00  0.00    -0.444 NA 
HETATM   12  C   UNL     1      -9.563  19.176  67.102  1.00  0.00    -0.319 A  
HETATM   13  C   UNL     1      -8.166  17.499  66.148  1.00  0.00    -0.187 A  
HETATM   14  N   UNL     1      -7.280  18.435  65.636  1.00  0.00    -0.532 NA 
HETATM   15  C   UNL     1      -6.740  20.771  65.215  1.00  0.00    -0.145 C  
HETATM   16  N   UNL     1      -8.612  20.052  66.662  1.00  0.00    -0.326 NA 
HETATM   17  C   UNL     1      -7.551  19.684  65.887  1.00  0.00    -0.310 A  
ENDBRANCH   7   8
ENDBRANCH   4   7
ENDBRANCH   2   4
BRANCH   3  18
HETATM   18  C   UNL     1     -12.086  13.098  65.719  1.00  0.00    -0.502 C  
BRANCH  18  19
HETATM   19  C   UNL     1     -12.452  12.496  64.348  1.00  0.00    -0.446 C  
HETATM   20  H   UNL     1     -12.922  13.153  62.548  1.00  0.00     0.000 HD 
HETATM   21  O   UNL     1     -12.697  13.524  63.393  1.00  0.00    -0.706 OA 
ENDBRANCH  18  19
ENDBRANCH   3  18
BRANCH   3  22
HETATM   22  S   UNL     1      -9.717  11.626  66.177  1.00  0.00    -0.235 SA 
BRANCH  22  23
HETATM   23  S   UNL     1      -9.904  11.221  68.182  1.00  0.00    -0.190 SA 
BRANCH  23  24
HETATM   24  C   UNL     1      -8.973   9.672  68.472  1.00  0.00    -0.124 C  
BRANCH  24  25
HETATM   25  C   UNL     1      -7.473   9.651  68.186  1.00  0.00    -0.082 C  
HETATM   26  O   UNL     1      -7.021  11.018  68.050  1.00  0.00    -0.067 OA 
HETATM   27  C   UNL     1      -5.710   9.632  66.634  1.00  0.00    -0.054 C  
HETATM   28  C   UNL     1      -5.935  11.051  67.111  1.00  0.00    -0.072 C  
HETATM   29  C   UNL     1      -7.043   8.969  66.898  1.00  0.00    -0.078 C  
ENDBRANCH  24  25
ENDBRANCH  23  24
ENDBRANCH  22  23
ENDBRANCH   3  22
TORSDOF 9
ENDMDL
MODEL      137
REMARK 921   NORMALIZED FREE ENERGY PREDICTED BY IDOCK:   -4.36 KCAL/MOL
REMARK 922        TOTAL FREE ENERGY PREDICTED BY IDOCK:   -7.89 KCAL/MOL
REMARK 923 INTER-LIGAND FREE ENERGY PREDICTED BY IDOCK:   -7.01 KCAL/MOL
REMARK 924 INTRA-LIGAND FREE ENERGY PREDICTED BY IDOCK:   -0.89 KCAL/MOL
REMARK 927      BINDING AFFINITY PREDICTED BY RF-SCORE:    0.00 PKD
ROOT
HETATM    1  C   UNL     1      -9.776   8.263  66.635  1.00  0.00    -0.321 C  
HETATM    2  C   UNL     1      -9.433   9.281  67.708  1.00  0.00    -0.140 C  
HETATM    3  C   UNL     1      -8.980   8.946  68.952  1.00  0.00    -0.137 C  
ENDROOT
BRANCH   2   4
HETATM    4  N   UNL     1      -9.523  10.598  67.245  1.00  0.00    -0.158 N  
HETATM    5  C   UNL     1      -8.422  11.442  67.304  1.00  0.00    -0.148 C  
HETATM    6  O   UNL     1      -8.421  12.617  66.946  1.00  0.00    -0.184 OA 
BRANCH   4   7
HETATM    7  C   UNL     1     -10.828  11.173  66.884  1.00  0.00    -0.279 C  
BRANCH   7   8
HETATM    8  C   UNL     1     -11.543  11.974  67.948  1.00  0.00    -0.405 A  
HETATM    9  H2  UNL     1     -11.229  13.754  66.000  1.00  0.00     0.000 HD 
HETATM   10  H1  UNL     1     -11.769  15.209  66.783  1.00  0.00     0.000 HD 
HETATM   11  N   UNL     1     -11.596  14.205  66.838  1.00  0.00    -0.371 NA 
HETATM   12  C   UNL     1     -11.797  13.449  67.867  1.00  0.00    -0.357 A  
HETATM   13  C   UNL     1     -11.770  11.464  69.184  1.00  0.00    -0.342 A  
HETATM   14  N   UNL     1     -12.137  12.144  70.336  1.00  0.00    -0.352 NA 
HETATM   15  C   UNL     1     -12.561  14.268  71.447  1.00  0.00    -0.434 C  
HETATM   16  N   UNL     1     -12.250  14.056  69.004  1.00  0.00    -0.316 NA 
HETATM   17  C   UNL     1     -12.336  13.426  70.210  1.00  0.00    -0.284 A  
ENDBRANCH   7   8
ENDBRANCH   4   7
ENDBRANCH   2   4
BRANCH   3  18
HETATM   18  C   UNL     1      -8.329   9.928  69.930  1.00  0.00    -0.200 C  
BRANCH  18  19
HETATM   19  C   UNL     1      -6.944   9.505  70.460  1.00  0.00    -0.123 C  
HETATM   20  H   UNL     1      -5.485  10.304  71.520  1.00  0.00     0.000 HD 
HETATM   21  O   UNL     1      -6.338  10.565  71.193  1.00  0.00    -0.339 OA 
ENDBRANCH  18  19
ENDBRANCH   3  18
BRANCH   3  22
HETATM   22  S   UNL     1      -9.104   7.251  69.456  1.00  0.00    -0.142 SA 
BRANCH  22  23
HETATM   23  S   UNL     1     -11.072   7.112  70.028  1.00  0.00    -0.235 SA 
BRANCH  23  24
HETATM   24  C   UNL     1     -11.293   8.335  71.372  1.00  0.00    -0.262 C  
BRANCH  24  25
HETATM   25  C   UNL     1     -10.903   7.943  72.795  1.00  0.00    -0.386 C  
HETATM   26  O   UNL     1      -9.570   8.443  73.051  1.00  0.00    -0.246 OA 
HETATM   27  C   UNL     1      -9.878   6.425  74.266  1.00  0.00    -0.320 C  
HETATM   28  C   UNL     1      -8.908   7.544  73.954  1.00  0.00    -0.243 C  
HETATM   29  C   UNL     1     -10.821   6.453  73.083  1.00  0.00    -0.282 C  
ENDBRANCH  24  25
ENDBRANCH  23  24
ENDBRANCH  22  23
ENDBRANCH   3  22
TORSDOF 9
ENDMDL
MODEL      138
REMARK 921   NORMALIZED FREE ENERGY PREDICTED BY IDOCK:   -4.35 KCAL/MOL
REMARK 922        TOTAL FREE ENERGY PREDICTED BY IDOCK:   -7.88 KCAL/MOL
REMARK 923 INTER-LIGAND FREE ENERGY PREDICTED BY IDOCK:   -7.35 KCAL/MOL
REMARK 924 INTRA-LIGAND FREE ENERGY PREDICTED BY IDOCK:   -0.53 KCAL/MOL
REMARK 927      BINDING AFFINITY PREDICTED BY RF-SCORE:    0.00 PKD
ROOT
HETATM    1  C   UNL     1      -8.602  13.204  68.450  1.00  0.00    -0.124 C  
HETATM    2  C   UNL     1     -10.042  13.598  68.175  1.00  0.00    -0.245 C  
HETATM    3  C   UNL     1     -10.722  13.239  67.047  1.00  0.00    -0.260 C  
ENDROOT
BRANCH   2   4
HETATM    4  N   UNL     1     -10.628  14.272  69.251  1.00  0.00    -0.191 N  
HETATM    5  C   UNL     1     -11.864  13.874  69.742  1.00  0.00    -0.329 C  
HETATM    6  O   UNL     1     -12.462  14.425  70.662  1.00  0.00    -0.310 OA 
BRANCH   4   7
HETATM    7  C   UNL     1     -10.051  15.532  69.745  1.00  0.00    -0.285 C  
BRANCH   7   8
HETATM    8  C   UNL     1      -9.724  16.587  68.714  1.00  0.00    -0.251 A  
HETATM    9  H2  UNL     1      -7.326  15.955  69.670  1.00  0.00     0.000 HD 
HETATM   10  H1  UNL     1      -6.330  17.152  68.898  1.00  0.00     0.000 HD 
HETATM   11  N   UNL     1      -7.259  16.756  69.041  1.00  0.00    -0.219 NA 
HETATM   12  C   UNL     1      -8.359  17.170  68.504  1.00  0.00    -0.262 A  
HETATM   13  C   UNL     1     -10.701  17.285  68.082  1.00  0.00    -0.363 A  
HETATM   14  N   UNL     1     -10.578  18.455  67.348  1.00  0.00    -0.420 NA 
HETATM   15  C   UNL     1      -9.170  20.285  66.577  1.00  0.00    -0.392 C  
HETATM   16  N   UNL     1      -8.279  18.267  67.694  1.00  0.00    -0.247 NA 
HETATM   17  C   UNL     1      -9.370  18.923  67.205  1.00  0.00    -0.300 A  
ENDBRANCH   7   8
ENDBRANCH   4   7
ENDBRANCH   2   4
BRANCH   3  18
HETATM   18  C   UNL     1     -12.242  13.339  66.883  1.00  0.00    -0.315 C  
BRANCH  18  19
HETATM   19  C   UNL     1     -12.726  13.727  65.472  1.00  0.00    -0.488 C  
HETATM   20  H   UNL     1     -13.540  12.831  63.915  1.00  0.00     0.000 HD 
HETATM   21  O   UNL     1     -13.241  12.591  64.784  1.00  0.00    -0.839 OA 
ENDBRANCH  18  19
ENDBRANCH   3  18
BRANCH   3  22
HETATM   22  S   UNL     1      -9.798  12.560  65.696  1.00  0.00    -0.167 SA 
BRANCH  22  23
HETATM   23  S   UNL     1     -10.420  10.602  65.684  1.00  0.00    -0.110 SA 
BRANCH  23  24
HETATM   24  C   UNL     1      -9.960   9.919  67.318  1.00  0.00    -0.196 C  
BRANCH  24  25
HETATM   25  C   UNL     1      -9.593   8.440  67.420  1.00  0.00    -0.157 C  
HETATM   26  O   UNL     1      -8.625   8.144  66.387  1.00  0.00    -0.125 OA 
HETATM   27  C   UNL     1      -9.960   6.215  66.763  1.00  0.00    -0.218 C  
HETATM   28  C   UNL     1      -8.811   6.786  65.959  1.00  0.00    -0.135 C  
HETATM   29  C   UNL     1     -10.722   7.450  67.191  1.00  0.00    -0.400 C  
ENDBRANCH  24  25
ENDBRANCH  23  24
ENDBRANCH  22  23
ENDBRANCH   3  22
TORSDOF 9
ENDMDL
MODEL      139
REMARK 921   NORMALIZED FREE ENERGY PREDICTED BY IDOCK:   -4.34 KCAL/MOL
REMARK 922        TOTAL FREE ENERGY PREDICTED BY IDOCK:   -7.87 KCAL/MOL
REMARK 923 INTER-LIGAND FREE ENERGY PREDICTED BY IDOCK:   -7.94 KCAL/MOL
REMARK 924 INTRA-LIGAND FREE ENERGY PREDICTED BY IDOCK:    0.08 KCAL/MOL
REMARK 927      BINDING AFFINITY PREDICTED BY RF-SCORE:    0.00 PKD
ROOT
HETATM    1  C   UNL     1     -10.878   9.349  67.694  1.00  0.00    -0.222 C  
HETATM    2  C   UNL     1     -11.211  10.611  68.469  1.00  0.00    -0.282 C  
HETATM    3  C   UNL     1     -11.426  11.824  67.881  1.00  0.00    -0.317 C  
ENDROOT
BRANCH   2   4
HETATM    4  N   UNL     1     -11.383  10.370  69.837  1.00  0.00    -0.281 N  
HETATM    5  C   UNL     1     -12.462  10.917  70.517  1.00  0.00    -0.351 C  
HETATM    6  O   UNL     1     -12.674  10.780  71.719  1.00  0.00    -0.413 OA 
BRANCH   4   7
HETATM    7  C   UNL     1     -10.323   9.714  70.616  1.00  0.00    -0.297 C  
BRANCH   7   8
HETATM    8  C   UNL     1     -10.727   8.529  71.463  1.00  0.00    -0.330 A  
HETATM    9  H2  UNL     1      -8.757   9.608  72.884  1.00  0.00     0.000 HD 
HETATM   10  H1  UNL     1      -8.546   8.413  74.129  1.00  0.00     0.000 HD 
HETATM   11  N   UNL     1      -9.042   8.717  73.291  1.00  0.00    -0.204 NA 
HETATM   12  C   UNL     1      -9.997   8.083  72.694  1.00  0.00    -0.290 A  
HETATM   13  C   UNL     1     -11.624   7.615  71.019  1.00  0.00    -0.282 A  
HETATM   14  N   UNL     1     -11.882   6.351  71.527  1.00  0.00    -0.318 NA 
HETATM   15  C   UNL     1     -11.299   4.588  73.101  1.00  0.00    -0.318 C  
HETATM   16  N   UNL     1     -10.355   6.870  73.212  1.00  0.00    -0.256 NA 
HETATM   17  C   UNL     1     -11.213   6.010  72.592  1.00  0.00    -0.285 A  
ENDBRANCH   7   8
ENDBRANCH   4   7
ENDBRANCH   2   4
BRANCH   3  18
HETATM   18  C   UNL     1     -12.069  13.024  68.584  1.00  0.00    -0.189 C  
BRANCH  18  19
HETATM   19  C   UNL     1     -11.082  13.987  69.274  1.00  0.00    -0.232 C  
HETATM   20  H   UNL     1     -11.017  15.070  70.921  1.00  0.00     0.000 HD 
HETATM   21  O   UNL     1     -11.625  14.478  70.495  1.00  0.00    -0.275 OA 
ENDBRANCH  18  19
ENDBRANCH   3  18
BRANCH   3  22
HETATM   22  S   UNL     1     -10.984  12.016  66.177  1.00  0.00    -0.313 SA 
BRANCH  22  23
HETATM   23  S   UNL     1     -12.236  13.528  65.571  1.00  0.00    -0.481 SA 
BRANCH  23  24
HETATM   24  C   UNL     1     -11.148  14.907  65.057  1.00  0.00    -0.414 C  
BRANCH  24  25
HETATM   25  C   UNL     1     -10.371  15.669  66.127  1.00  0.00    -0.316 C  
HETATM   26  O   UNL     1     -10.282  17.054  65.719  1.00  0.00    -0.506 OA 
HETATM   27  C   UNL     1      -8.327  16.488  66.945  1.00  0.00    -0.245 C  
HETATM   28  C   UNL     1      -9.045  17.597  66.206  1.00  0.00    -0.186 C  
HETATM   29  C   UNL     1      -8.932  15.236  66.350  1.00  0.00    -0.339 C  
ENDBRANCH  24  25
ENDBRANCH  23  24
ENDBRANCH  22  23
ENDBRANCH   3  22
TORSDOF 9
ENDMDL
MODEL      140
REMARK 921   NORMALIZED FREE ENERGY PREDICTED BY IDOCK:   -4.33 KCAL/MOL
REMARK 922        TOTAL FREE ENERGY PREDICTED BY IDOCK:   -7.84 KCAL/MOL
REMARK 923 INTER-LIGAND FREE ENERGY PREDICTED BY IDOCK:   -7.15 KCAL/MOL
REMARK 924 INTRA-LIGAND FREE ENERGY PREDICTED BY IDOCK:   -0.69 KCAL/MOL
REMARK 927      BINDING AFFINITY PREDICTED BY RF-SCORE:    0.00 PKD
ROOT
HETATM    1  C   UNL     1     -10.654  17.345  68.597  1.00  0.00    -0.318 C  
HETATM    2  C   UNL     1      -9.395  16.553  68.295  1.00  0.00    -0.217 C  
HETATM    3  C   UNL     1      -9.396  15.338  67.672  1.00  0.00    -0.199 C  
ENDROOT
BRANCH   2   4
HETATM    4  N   UNL     1      -8.230  17.255  68.622  1.00  0.00    -0.266 N  
HETATM    5  C   UNL     1      -7.238  16.655  69.385  1.00  0.00    -0.132 C  
HETATM    6  O   UNL     1      -6.199  17.205  69.740  1.00  0.00    -0.244 OA 
BRANCH   4   7
HETATM    7  C   UNL     1      -8.126  18.696  68.345  1.00  0.00    -0.333 C  
BRANCH   7   8
HETATM    8  C   UNL     1      -7.216  19.112  67.212  1.00  0.00    -0.231 A  
HETATM    9  H2  UNL     1      -6.742  20.976  69.047  1.00  0.00     0.000 HD 
HETATM   10  H1  UNL     1      -5.734  22.077  68.156  1.00  0.00     0.000 HD 
HETATM   11  N   UNL     1      -6.274  21.211  68.172  1.00  0.00    -0.313 NA 
HETATM   12  C   UNL     1      -6.423  20.384  67.190  1.00  0.00    -0.220 A  
HETATM   13  C   UNL     1      -7.258  18.493  66.007  1.00  0.00    -0.255 A  
HETATM   14  N   UNL     1      -6.719  18.924  64.804  1.00  0.00    -0.370 NA 
HETATM   15  C   UNL     1      -5.585  20.672  63.544  1.00  0.00    -0.289 C  
HETATM   16  N   UNL     1      -5.831  20.717  66.004  1.00  0.00    -0.199 NA 
HETATM   17  C   UNL     1      -6.048  20.041  64.839  1.00  0.00    -0.254 A  
ENDBRANCH   7   8
ENDBRANCH   4   7
ENDBRANCH   2   4
BRANCH   3  18
HETATM   18  C   UNL     1      -8.155  14.672  67.071  1.00  0.00    -0.153 C  
BRANCH  18  19
HETATM   19  C   UNL     1      -8.169  13.131  67.078  1.00  0.00    -0.051 C  
HETATM   20  H   UNL     1      -7.629  11.676  68.295  1.00  0.00     0.000 HD 
HETATM   21  O   UNL     1      -7.620  12.625  68.291  1.00  0.00    -0.116 OA 
ENDBRANCH  18  19
ENDBRANCH   3  18
BRANCH   3  22
HETATM   22  S   UNL     1     -10.943  14.493  67.496  1.00  0.00    -0.303 SA 
BRANCH  22  23
HETATM   23  S   UNL     1     -11.113  13.520  69.297  1.00  0.00    -0.126 SA 
BRANCH  23  24
HETATM   24  C   UNL     1     -12.758  13.971  69.960  1.00  0.00    -0.082 C  
BRANCH  24  25
HETATM   25  C   UNL     1     -12.853  15.095  70.989  1.00  0.00    -0.412 C  
HETATM   26  O   UNL     1     -11.739  14.965  71.902  1.00  0.00    -0.371 OA 
HETATM   27  C   UNL     1     -13.595  15.866  73.080  1.00  0.00    -0.616 C  
HETATM   28  C   UNL     1     -12.149  15.433  73.196  1.00  0.00    -0.455 C  
HETATM   29  C   UNL     1     -14.086  15.092  71.877  1.00  0.00    -0.627 C  
ENDBRANCH  24  25
ENDBRANCH  23  24
ENDBRANCH  22  23
ENDBRANCH   3  22
TORSDOF 9
ENDMDL
MODEL      141
REMARK 921   NORMALIZED FREE ENERGY PREDICTED BY IDOCK:   -4.32 KCAL/MOL
REMARK 922        TOTAL FREE ENERGY PREDICTED BY IDOCK:   -7.84 KCAL/MOL
REMARK 923 INTER-LIGAND FREE ENERGY PREDICTED BY IDOCK:   -6.38 KCAL/MOL
REMARK 924 INTRA-LIGAND FREE ENERGY PREDICTED BY IDOCK:   -1.46 KCAL/MOL
REMARK 927      BINDING AFFINITY PREDICTED BY RF-SCORE:    0.00 PKD
ROOT
HETATM    1  C   UNL     1     -10.131   9.557  66.678  1.00  0.00    -0.321 C  
HETATM    2  C   UNL     1      -9.425   9.653  68.018  1.00  0.00    -0.132 C  
HETATM    3  C   UNL     1      -8.350  10.462  68.250  1.00  0.00    -0.119 C  
ENDROOT
BRANCH   2   4
HETATM    4  N   UNL     1     -10.065   8.910  69.015  1.00  0.00    -0.192 N  
HETATM    5  C   UNL     1      -9.412   7.854  69.635  1.00  0.00    -0.160 C  
HETATM    6  O   UNL     1      -9.908   7.134  70.498  1.00  0.00    -0.180 OA 
BRANCH   4   7
HETATM    7  C   UNL     1     -11.501   9.098  69.278  1.00  0.00     0.404 C  
BRANCH   7   8
HETATM    8  C   UNL     1     -11.884  10.201  70.236  1.00  0.00    -0.342 A  
HETATM    9  H2  UNL     1     -12.993   8.059  71.352  1.00  0.00     0.000 HD 
HETATM   10  H1  UNL     1     -13.914   8.786  72.634  1.00  0.00     0.000 HD 
HETATM   11  N   UNL     1     -13.282   8.906  71.842  1.00  0.00    -0.366 NA 
HETATM   12  C   UNL     1     -12.813  10.025  71.400  1.00  0.00    -0.417 A  
HETATM   13  C   UNL     1     -11.629  11.503  69.955  1.00  0.00    -0.308 A  
HETATM   14  N   UNL     1     -12.157  12.631  70.565  1.00  0.00    -0.344 NA 
HETATM   15  C   UNL     1     -13.725  13.583  72.166  1.00  0.00    -0.654 C  
HETATM   16  N   UNL     1     -13.231  11.164  72.028  1.00  0.00    -0.447 NA 
HETATM   17  C   UNL     1     -12.966  12.420  71.565  1.00  0.00    -0.285 A  
ENDBRANCH   7   8
ENDBRANCH   4   7
ENDBRANCH   2   4
BRANCH   3  18
HETATM   18  C   UNL     1      -7.823  10.823  69.643  1.00  0.00     0.023 C  
BRANCH  18  19
HETATM   19  C   UNL     1      -6.362  10.418  69.917  1.00  0.00    -0.095 C  
HETATM   20  H   UNL     1      -5.218   8.831  69.660  1.00  0.00     0.000 HD 
HETATM   21  O   UNL     1      -6.119   9.081  69.491  1.00  0.00    -0.036 OA 
ENDBRANCH  18  19
ENDBRANCH   3  18
BRANCH   3  22
HETATM   22  S   UNL     1      -7.535  11.188  66.855  1.00  0.00    -0.143 SA 
BRANCH  22  23
HETATM   23  S   UNL     1      -7.751  13.198  67.225  1.00  0.00    -0.038 SA 
BRANCH  23  24
HETATM   24  C   UNL     1      -9.530  13.460  67.561  1.00  0.00    -0.219 C  
BRANCH  24  25
HETATM   25  C   UNL     1     -10.531  13.254  66.427  1.00  0.00    -0.284 C  
HETATM   26  O   UNL     1     -10.226  14.202  65.378  1.00  0.00    -0.329 OA 
HETATM   27  C   UNL     1     -12.569  13.812  65.401  1.00  0.00    -0.534 C  
HETATM   28  C   UNL     1     -11.448  14.567  64.719  1.00  0.00    -0.408 C  
HETATM   29  C   UNL     1     -11.991  13.504  66.764  1.00  0.00    -0.453 C  
ENDBRANCH  24  25
ENDBRANCH  23  24
ENDBRANCH  22  23
ENDBRANCH   3  22
TORSDOF 9
ENDMDL
MODEL      142
REMARK 921   NORMALIZED FREE ENERGY PREDICTED BY IDOCK:   -4.32 KCAL/MOL
REMARK 922        TOTAL FREE ENERGY PREDICTED BY IDOCK:   -7.83 KCAL/MOL
REMARK 923 INTER-LIGAND FREE ENERGY PREDICTED BY IDOCK:   -6.66 KCAL/MOL
REMARK 924 INTRA-LIGAND FREE ENERGY PREDICTED BY IDOCK:   -1.18 KCAL/MOL
REMARK 927      BINDING AFFINITY PREDICTED BY RF-SCORE:    0.00 PKD
ROOT
HETATM    1  C   UNL     1      -9.001   7.625  68.517  1.00  0.00    -0.129 C  
HETATM    2  C   UNL     1      -9.274   9.025  69.035  1.00  0.00    -0.140 C  
HETATM    3  C   UNL     1     -10.065   9.930  68.387  1.00  0.00    -0.167 C  
ENDROOT
BRANCH   2   4
HETATM    4  N   UNL     1      -8.721   9.246  70.301  1.00  0.00    -0.199 N  
HETATM    5  C   UNL     1      -7.365   9.505  70.441  1.00  0.00    -0.141 C  
HETATM    6  O   UNL     1      -6.793   9.683  71.513  1.00  0.00    -0.318 OA 
BRANCH   4   7
HETATM    7  C   UNL     1      -9.518   9.005  71.514  1.00  0.00    -0.246 C  
BRANCH   7   8
HETATM    8  C   UNL     1      -9.968   7.585  71.769  1.00  0.00    -0.200 A  
HETATM    9  H2  UNL     1     -12.206   8.759  70.949  1.00  0.00     0.000 HD 
HETATM   10  H1  UNL     1     -13.370   7.499  71.230  1.00  0.00     0.000 HD 
HETATM   11  N   UNL     1     -12.400   7.812  71.275  1.00  0.00    -0.309 NA 
HETATM   12  C   UNL     1     -11.393   7.125  71.704  1.00  0.00    -0.251 A  
HETATM   13  C   UNL     1      -9.143   6.675  72.343  1.00  0.00    -0.135 A  
HETATM   14  N   UNL     1      -9.477   5.450  72.901  1.00  0.00    -0.144 NA 
HETATM   15  C   UNL     1     -11.209   3.874  73.566  1.00  0.00    -0.312 C  
HETATM   16  N   UNL     1     -11.655   5.872  72.179  1.00  0.00    -0.286 NA 
HETATM   17  C   UNL     1     -10.731   5.104  72.825  1.00  0.00    -0.241 A  
ENDBRANCH   7   8
ENDBRANCH   4   7
ENDBRANCH   2   4
BRANCH   3  18
HETATM   18  C   UNL     1     -10.616  11.210  69.023  1.00  0.00    -0.251 C  
BRANCH  18  19
HETATM   19  C   UNL     1     -12.105  11.158  69.419  1.00  0.00    -0.326 C  
HETATM   20  H   UNL     1     -13.175  11.255  71.073  1.00  0.00     0.000 HD 
HETATM   21  O   UNL     1     -12.258  11.287  70.829  1.00  0.00    -0.356 OA 
ENDBRANCH  18  19
ENDBRANCH   3  18
BRANCH   3  22
HETATM   22  S   UNL     1     -10.533   9.581  66.714  1.00  0.00    -0.150 SA 
BRANCH  22  23
HETATM   23  S   UNL     1     -10.145  11.366  65.774  1.00  0.00    -0.257 SA 
BRANCH  23  24
HETATM   24  C   UNL     1     -11.756  12.223  65.634  1.00  0.00    -0.382 C  
BRANCH  24  25
HETATM   25  C   UNL     1     -11.803  13.737  65.822  1.00  0.00    -0.372 C  
HETATM   26  O   UNL     1     -10.740  14.323  65.035  1.00  0.00    -0.369 OA 
HETATM   27  C   UNL     1     -11.083  15.656  66.971  1.00  0.00    -0.200 C  
HETATM   28  C   UNL     1     -10.274  15.506  65.700  1.00  0.00    -0.376 C  
HETATM   29  C   UNL     1     -11.566  14.247  67.234  1.00  0.00    -0.401 C  
ENDBRANCH  24  25
ENDBRANCH  23  24
ENDBRANCH  22  23
ENDBRANCH   3  22
TORSDOF 9
ENDMDL
MODEL      143
REMARK 921   NORMALIZED FREE ENERGY PREDICTED BY IDOCK:   -4.32 KCAL/MOL
REMARK 922        TOTAL FREE ENERGY PREDICTED BY IDOCK:   -7.83 KCAL/MOL
REMARK 923 INTER-LIGAND FREE ENERGY PREDICTED BY IDOCK:   -6.90 KCAL/MOL
REMARK 924 INTRA-LIGAND FREE ENERGY PREDICTED BY IDOCK:   -0.93 KCAL/MOL
REMARK 927      BINDING AFFINITY PREDICTED BY RF-SCORE:    0.00 PKD
ROOT
HETATM    1  C   UNL     1     -11.598   6.430  69.705  1.00  0.00    -0.397 C  
HETATM    2  C   UNL     1     -10.444   7.185  70.339  1.00  0.00    -0.218 C  
HETATM    3  C   UNL     1     -10.601   8.127  71.314  1.00  0.00    -0.214 C  
ENDROOT
BRANCH   2   4
HETATM    4  N   UNL     1      -9.198   6.730  69.895  1.00  0.00    -0.147 N  
HETATM    5  C   UNL     1      -8.671   5.539  70.375  1.00  0.00    -0.131 C  
HETATM    6  O   UNL     1      -7.576   5.081  70.062  1.00  0.00    -0.058 OA 
BRANCH   4   7
HETATM    7  C   UNL     1      -8.337   7.598  69.077  1.00  0.00    -0.128 C  
BRANCH   7   8
HETATM    8  C   UNL     1      -8.996   8.343  67.940  1.00  0.00    -0.138 A  
HETATM    9  H2  UNL     1      -8.294   6.050  66.794  1.00  0.00     0.000 HD 
HETATM   10  H1  UNL     1      -8.666   6.379  65.128  1.00  0.00     0.000 HD 
HETATM   11  N   UNL     1      -8.646   6.704  66.095  1.00  0.00    -0.141 NA 
HETATM   12  C   UNL     1      -9.025   7.865  66.519  1.00  0.00    -0.161 A  
HETATM   13  C   UNL     1      -9.377   9.638  68.070  1.00  0.00    -0.132 A  
HETATM   14  N   UNL     1      -9.718  10.535  67.069  1.00  0.00    -0.173 NA 
HETATM   15  C   UNL     1      -9.898  11.022  64.690  1.00  0.00    -0.338 C  
HETATM   16  N   UNL     1      -9.459   8.757  65.581  1.00  0.00    -0.163 NA 
HETATM   17  C   UNL     1      -9.717  10.069  65.852  1.00  0.00    -0.247 A  
ENDBRANCH   7   8
ENDBRANCH   4   7
ENDBRANCH   2   4
BRANCH   3  18
HETATM   18  C   UNL     1      -9.465   8.666  72.189  1.00  0.00    -0.373 C  
BRANCH  18  19
HETATM   19  C   UNL     1      -9.258   7.925  73.525  1.00  0.00    -0.276 C  
HETATM   20  H   UNL     1     -10.165   6.516  74.564  1.00  0.00     0.000 HD 
HETATM   21  O   UNL     1     -10.293   6.972  73.741  1.00  0.00    -0.339 OA 
ENDBRANCH  18  19
ENDBRANCH   3  18
BRANCH   3  22
HETATM   22  S   UNL     1     -12.235   8.735  71.632  1.00  0.00    -0.361 SA 
BRANCH  22  23
HETATM   23  S   UNL     1     -12.164  10.617  70.813  1.00  0.00    -0.407 SA 
BRANCH  23  24
HETATM   24  C   UNL     1     -13.197  11.675  71.892  1.00  0.00    -0.369 C  
BRANCH  24  25
HETATM   25  C   UNL     1     -13.485  13.110  71.457  1.00  0.00    -0.134 C  
HETATM   26  O   UNL     1     -12.397  13.553  70.614  1.00  0.00    -0.345 OA 
HETATM   27  C   UNL     1     -13.245  15.419  71.814  1.00  0.00    -0.544 C  
HETATM   28  C   UNL     1     -12.220  14.965  70.797  1.00  0.00    -0.325 C  
HETATM   29  C   UNL     1     -13.564  14.146  72.566  1.00  0.00    -0.644 C  
ENDBRANCH  24  25
ENDBRANCH  23  24
ENDBRANCH  22  23
ENDBRANCH   3  22
TORSDOF 9
ENDMDL
MODEL      144
REMARK 921   NORMALIZED FREE ENERGY PREDICTED BY IDOCK:   -4.31 KCAL/MOL
REMARK 922        TOTAL FREE ENERGY PREDICTED BY IDOCK:   -7.82 KCAL/MOL
REMARK 923 INTER-LIGAND FREE ENERGY PREDICTED BY IDOCK:   -7.57 KCAL/MOL
REMARK 924 INTRA-LIGAND FREE ENERGY PREDICTED BY IDOCK:   -0.25 KCAL/MOL
REMARK 927      BINDING AFFINITY PREDICTED BY RF-SCORE:    0.00 PKD
ROOT
HETATM    1  C   UNL     1      -7.249  10.193  68.359  1.00  0.00    -0.076 C  
HETATM    2  C   UNL     1      -8.745  10.275  68.114  1.00  0.00    -0.123 C  
HETATM    3  C   UNL     1      -9.404  11.438  67.839  1.00  0.00    -0.164 C  
ENDROOT
BRANCH   2   4
HETATM    4  N   UNL     1      -9.353   9.015  68.090  1.00  0.00    -0.141 N  
HETATM    5  C   UNL     1     -10.223   8.673  67.064  1.00  0.00    -0.290 C  
HETATM    6  O   UNL     1     -10.820   7.603  66.979  1.00  0.00    -0.334 OA 
BRANCH   4   7
HETATM    7  C   UNL     1      -9.247   8.115  69.248  1.00  0.00    -0.151 C  
BRANCH   7   8
HETATM    8  C   UNL     1     -10.359   8.178  70.270  1.00  0.00    -0.209 A  
HETATM    9  H2  UNL     1     -10.665   5.749  69.235  1.00  0.00     0.000 HD 
HETATM   10  H1  UNL     1     -12.158   5.254  69.976  1.00  0.00     0.000 HD 
HETATM   11  N   UNL     1     -11.439   5.969  69.863  1.00  0.00    -0.309 NA 
HETATM   12  C   UNL     1     -11.414   7.127  70.437  1.00  0.00    -0.278 A  
HETATM   13  C   UNL     1     -10.644   9.325  70.935  1.00  0.00    -0.296 A  
HETATM   14  N   UNL     1     -11.782   9.630  71.667  1.00  0.00    -0.395 NA 
HETATM   15  C   UNL     1     -14.015   8.991  72.396  1.00  0.00    -0.517 C  
HETATM   16  N   UNL     1     -12.469   7.441  71.246  1.00  0.00    -0.349 NA 
HETATM   17  C   UNL     1     -12.671   8.683  71.772  1.00  0.00    -0.359 A  
ENDBRANCH   7   8
ENDBRANCH   4   7
ENDBRANCH   2   4
BRANCH   3  18
HETATM   18  C   UNL     1     -10.827  11.515  67.277  1.00  0.00    -0.301 C  
BRANCH  18  19
HETATM   19  C   UNL     1     -11.942  11.657  68.332  1.00  0.00    -0.196 C  
HETATM   20  H   UNL     1     -12.133  12.369  70.162  1.00  0.00     0.000 HD 
HETATM   21  O   UNL     1     -11.445  12.281  69.512  1.00  0.00    -0.272 OA 
ENDBRANCH  18  19
ENDBRANCH   3  18
BRANCH   3  22
HETATM   22  S   UNL     1      -8.543  12.966  68.095  1.00  0.00    -0.181 SA 
BRANCH  22  23
HETATM   23  S   UNL     1      -9.609  14.268  66.917  1.00  0.00    -0.271 SA 
BRANCH  23  24
HETATM   24  C   UNL     1      -9.229  15.943  67.547  1.00  0.00    -0.207 C  
BRANCH  24  25
HETATM   25  C   UNL     1     -10.227  17.070  67.289  1.00  0.00    -0.310 C  
HETATM   26  O   UNL     1      -9.902  17.677  66.017  1.00  0.00    -0.478 OA 
HETATM   27  C   UNL     1     -10.800  19.342  67.455  1.00  0.00    -0.554 C  
HETATM   28  C   UNL     1     -10.244  19.070  66.073  1.00  0.00    -0.401 C  
HETATM   29  C   UNL     1     -10.216  18.219  68.283  1.00  0.00    -0.405 C  
ENDBRANCH  24  25
ENDBRANCH  23  24
ENDBRANCH  22  23
ENDBRANCH   3  22
TORSDOF 9
ENDMDL
MODEL      145
REMARK 921   NORMALIZED FREE ENERGY PREDICTED BY IDOCK:   -4.31 KCAL/MOL
REMARK 922        TOTAL FREE ENERGY PREDICTED BY IDOCK:   -7.81 KCAL/MOL
REMARK 923 INTER-LIGAND FREE ENERGY PREDICTED BY IDOCK:   -6.95 KCAL/MOL
REMARK 924 INTRA-LIGAND FREE ENERGY PREDICTED BY IDOCK:   -0.86 KCAL/MOL
REMARK 927      BINDING AFFINITY PREDICTED BY RF-SCORE:    0.00 PKD
ROOT
HETATM    1  C   UNL     1     -12.869   7.144  71.097  1.00  0.00    -0.340 C  
HETATM    2  C   UNL     1     -11.369   7.320  71.239  1.00  0.00    -0.264 C  
HETATM    3  C   UNL     1     -10.760   8.534  71.385  1.00  0.00    -0.250 C  
ENDROOT
BRANCH   2   4
HETATM    4  N   UNL     1     -10.691   6.099  71.316  1.00  0.00    -0.246 N  
HETATM    5  C   UNL     1      -9.999   5.750  72.467  1.00  0.00    -0.170 C  
HETATM    6  O   UNL     1      -9.355   4.714  72.610  1.00  0.00    -0.128 OA 
BRANCH   4   7
HETATM    7  C   UNL     1     -10.525   5.263  70.117  1.00  0.00    -0.268 C  
BRANCH   7   8
HETATM    8  C   UNL     1     -10.100   5.961  68.846  1.00  0.00    -0.231 A  
HETATM    9  H2  UNL     1      -7.788   5.603  70.107  1.00  0.00     0.000 HD 
HETATM   10  H1  UNL     1      -6.706   6.503  69.088  1.00  0.00     0.000 HD 
HETATM   11  N   UNL     1      -7.655   6.181  69.277  1.00  0.00    -0.096 NA 
HETATM   12  C   UNL     1      -8.706   6.435  68.568  1.00  0.00    -0.121 A  
HETATM   13  C   UNL     1     -11.012   6.455  67.973  1.00  0.00    -0.311 A  
HETATM   14  N   UNL     1     -10.805   7.354  66.937  1.00  0.00    -0.293 NA 
HETATM   15  C   UNL     1      -9.289   8.852  65.760  1.00  0.00    -0.286 C  
HETATM   16  N   UNL     1      -8.539   7.242  67.479  1.00  0.00    -0.122 NA 
HETATM   17  C   UNL     1      -9.575   7.740  66.745  1.00  0.00    -0.212 A  
ENDBRANCH   7   8
ENDBRANCH   4   7
ENDBRANCH   2   4
BRANCH   3  18
HETATM   18  C   UNL     1      -9.312   8.726  71.846  1.00  0.00    -0.343 C  
BRANCH  18  19
HETATM   19  C   UNL     1      -8.337   9.219  70.759  1.00  0.00    -0.186 C  
HETATM   20  H   UNL     1      -6.404   9.577  70.590  1.00  0.00     0.000 HD 
HETATM   21  O   UNL     1      -7.005   9.274  71.261  1.00  0.00    -0.210 OA 
ENDBRANCH  18  19
ENDBRANCH   3  18
BRANCH   3  22
HETATM   22  S   UNL     1     -11.718   9.991  71.073  1.00  0.00    -0.402 SA 
BRANCH  22  23
HETATM   23  S   UNL     1     -11.276  10.388  69.106  1.00  0.00    -0.233 SA 
BRANCH  23  24
HETATM   24  C   UNL     1     -11.786  12.122  68.816  1.00  0.00    -0.321 C  
BRANCH  24  25
HETATM   25  C   UNL     1     -11.425  12.781  67.487  1.00  0.00    -0.336 C  
HETATM   26  O   UNL     1     -12.380  13.838  67.234  1.00  0.00    -0.337 OA 
HETATM   27  C   UNL     1     -11.690  12.914  65.157  1.00  0.00    -0.385 C  
HETATM   28  C   UNL     1     -12.567  13.957  65.816  1.00  0.00    -0.494 C  
HETATM   29  C   UNL     1     -11.491  11.894  66.256  1.00  0.00    -0.367 C  
ENDBRANCH  24  25
ENDBRANCH  23  24
ENDBRANCH  22  23
ENDBRANCH   3  22
TORSDOF 9
ENDMDL
MODEL      146
REMARK 921   NORMALIZED FREE ENERGY PREDICTED BY IDOCK:   -4.30 KCAL/MOL
REMARK 922        TOTAL FREE ENERGY PREDICTED BY IDOCK:   -7.81 KCAL/MOL
REMARK 923 INTER-LIGAND FREE ENERGY PREDICTED BY IDOCK:   -6.83 KCAL/MOL
REMARK 924 INTRA-LIGAND FREE ENERGY PREDICTED BY IDOCK:   -0.97 KCAL/MOL
REMARK 927      BINDING AFFINITY PREDICTED BY RF-SCORE:    0.00 PKD
ROOT
HETATM    1  C   UNL     1      -9.434  10.075  67.955  1.00  0.00    -0.150 C  
HETATM    2  C   UNL     1      -9.848  10.018  69.414  1.00  0.00    -0.224 C  
HETATM    3  C   UNL     1     -11.071  10.419  69.870  1.00  0.00    -0.305 C  
ENDROOT
BRANCH   2   4
HETATM    4  N   UNL     1      -8.883   9.406  70.222  1.00  0.00    -0.219 N  
HETATM    5  C   UNL     1      -7.646  10.003  70.416  1.00  0.00    -0.014 C  
HETATM    6  O   UNL     1      -6.734   9.523  71.084  1.00  0.00    -0.220 OA 
BRANCH   4   7
HETATM    7  C   UNL     1      -9.082   8.031  70.706  1.00  0.00    -0.145 C  
BRANCH   7   8
HETATM    8  C   UNL     1      -9.297   6.960  69.662  1.00  0.00    -0.145 A  
HETATM    9  H2  UNL     1      -6.688   7.431  69.476  1.00  0.00     0.000 HD 
HETATM   10  H1  UNL     1      -6.274   6.485  68.078  1.00  0.00     0.000 HD 
HETATM   11  N   UNL     1      -6.990   6.804  68.730  1.00  0.00    -0.076 NA 
HETATM   12  C   UNL     1      -8.244   6.491  68.703  1.00  0.00    -0.118 A  
HETATM   13  C   UNL     1     -10.541   6.531  69.333  1.00  0.00    -0.245 A  
HETATM   14  N   UNL     1     -10.926   5.791  68.226  1.00  0.00    -0.172 NA 
HETATM   15  C   UNL     1     -10.325   4.767  66.101  1.00  0.00    -0.337 C  
HETATM   16  N   UNL     1      -8.660   5.685  67.682  1.00  0.00    -0.109 NA 
HETATM   17  C   UNL     1      -9.972   5.418  67.421  1.00  0.00    -0.168 A  
ENDBRANCH   7   8
ENDBRANCH   4   7
ENDBRANCH   2   4
BRANCH   3  18
HETATM   18  C   UNL     1     -11.632  10.083  71.255  1.00  0.00    -0.430 C  
BRANCH  18  19
HETATM   19  C   UNL     1     -13.142  10.337  71.431  1.00  0.00    -0.414 C  
HETATM   20  H   UNL     1     -14.792   9.266  71.577  1.00  0.00     0.000 HD 
HETATM   21  O   UNL     1     -13.861   9.109  71.469  1.00  0.00    -0.376 OA 
ENDBRANCH  18  19
ENDBRANCH   3  18
BRANCH   3  22
HETATM   22  S   UNL     1     -12.107  11.348  68.773  1.00  0.00    -0.045 SA 
BRANCH  22  23
HETATM   23  S   UNL     1     -11.274  13.224  68.875  1.00  0.00    -0.283 SA 
BRANCH  23  24
HETATM   24  C   UNL     1     -12.422  14.229  69.887  1.00  0.00    -0.264 C  
BRANCH  24  25
HETATM   25  C   UNL     1     -12.021  14.587  71.316  1.00  0.00    -0.333 C  
HETATM   26  O   UNL     1     -13.083  14.165  72.202  1.00  0.00    -0.349 OA 
HETATM   27  C   UNL     1     -12.057  16.107  73.106  1.00  0.00    -0.621 C  
HETATM   28  C   UNL     1     -13.136  15.067  73.317  1.00  0.00    -0.490 C  
HETATM   29  C   UNL     1     -11.833  16.066  71.611  1.00  0.00    -0.582 C  
ENDBRANCH  24  25
ENDBRANCH  23  24
ENDBRANCH  22  23
ENDBRANCH   3  22
TORSDOF 9
ENDMDL
MODEL      147
REMARK 921   NORMALIZED FREE ENERGY PREDICTED BY IDOCK:   -4.30 KCAL/MOL
REMARK 922        TOTAL FREE ENERGY PREDICTED BY IDOCK:   -7.80 KCAL/MOL
REMARK 923 INTER-LIGAND FREE ENERGY PREDICTED BY IDOCK:   -6.60 KCAL/MOL
REMARK 924 INTRA-LIGAND FREE ENERGY PREDICTED BY IDOCK:   -1.20 KCAL/MOL
REMARK 927      BINDING AFFINITY PREDICTED BY RF-SCORE:    0.00 PKD
ROOT
HETATM    1  C   UNL     1     -11.351   6.465  69.198  1.00  0.00    -0.366 C  
HETATM    2  C   UNL     1     -11.151   6.521  70.702  1.00  0.00    -0.309 C  
HETATM    3  C   UNL     1     -10.209   5.790  71.367  1.00  0.00    -0.216 C  
ENDROOT
BRANCH   2   4
HETATM    4  N   UNL     1     -11.959   7.484  71.315  1.00  0.00    -0.298 N  
HETATM    5  C   UNL     1     -13.342   7.373  71.275  1.00  0.00    -0.271 C  
HETATM    6  O   UNL     1     -14.124   8.185  71.761  1.00  0.00    -0.393 OA 
BRANCH   4   7
HETATM    7  C   UNL     1     -11.371   8.731  71.828  1.00  0.00    -0.339 C  
BRANCH   7   8
HETATM    8  C   UNL     1     -11.310   9.904  70.877  1.00  0.00    -0.446 A  
HETATM    9  H2  UNL     1     -13.130  10.692  72.645  1.00  0.00     0.000 HD 
HETATM   10  H1  UNL     1     -13.706  12.156  71.905  1.00  0.00     0.000 HD 
HETATM   11  N   UNL     1     -13.080  11.351  71.868  1.00  0.00    -0.473 NA 
HETATM   12  C   UNL     1     -12.230  11.086  70.932  1.00  0.00    -0.367 A  
HETATM   13  C   UNL     1     -10.589   9.846  69.729  1.00  0.00    -0.264 A  
HETATM   14  N   UNL     1     -10.655  10.694  68.633  1.00  0.00    -0.190 NA 
HETATM   15  C   UNL     1     -11.745  12.563  67.517  1.00  0.00    -0.439 C  
HETATM   16  N   UNL     1     -12.189  11.944  69.869  1.00  0.00    -0.238 NA 
HETATM   17  C   UNL     1     -11.478  11.699  68.731  1.00  0.00    -0.285 A  
ENDBRANCH   7   8
ENDBRANCH   4   7
ENDBRANCH   2   4
BRANCH   3  18
HETATM   18  C   UNL     1      -9.768   6.054  72.810  1.00  0.00    -0.164 C  
BRANCH  18  19
HETATM   19  C   UNL     1     -10.691   5.468  73.897  1.00  0.00    -0.221 C  
HETATM   20  H   UNL     1     -12.094   4.088  74.025  1.00  0.00     0.000 HD 
HETATM   21  O   UNL     1     -11.526   4.449  73.355  1.00  0.00    -0.300 OA 
ENDBRANCH  18  19
ENDBRANCH   3  18
BRANCH   3  22
HETATM   22  S   UNL     1      -9.400   4.478  70.493  1.00  0.00    -0.165 SA 
BRANCH  22  23
HETATM   23  S   UNL     1      -7.524   5.257  70.184  1.00  0.00    -0.069 SA 
BRANCH  23  24
HETATM   24  C   UNL     1      -7.780   6.913  69.450  1.00  0.00    -0.105 C  
BRANCH  24  25
HETATM   25  C   UNL     1      -7.766   7.054  67.929  1.00  0.00    -0.113 C  
HETATM   26  O   UNL     1      -8.563   8.208  67.576  1.00  0.00    -0.128 OA 
HETATM   27  C   UNL     1      -8.746   6.590  65.846  1.00  0.00    -0.149 C  
HETATM   28  C   UNL     1      -9.177   7.968  66.301  1.00  0.00    -0.184 C  
HETATM   29  C   UNL     1      -8.374   5.905  67.142  1.00  0.00    -0.105 C  
ENDBRANCH  24  25
ENDBRANCH  23  24
ENDBRANCH  22  23
ENDBRANCH   3  22
TORSDOF 9
ENDMDL
MODEL      148
REMARK 921   NORMALIZED FREE ENERGY PREDICTED BY IDOCK:   -4.28 KCAL/MOL
REMARK 922        TOTAL FREE ENERGY PREDICTED BY IDOCK:   -7.78 KCAL/MOL
REMARK 923 INTER-LIGAND FREE ENERGY PREDICTED BY IDOCK:   -6.63 KCAL/MOL
REMARK 924 INTRA-LIGAND FREE ENERGY PREDICTED BY IDOCK:   -1.15 KCAL/MOL
REMARK 927      BINDING AFFINITY PREDICTED BY RF-SCORE:    0.00 PKD
ROOT
HETATM    1  C   UNL     1     -12.521  14.407  66.010  1.00  0.00    -0.305 C  
HETATM    2  C   UNL     1     -11.027  14.165  65.893  1.00  0.00    -0.297 C  
HETATM    3  C   UNL     1     -10.082  15.065  66.295  1.00  0.00    -0.282 C  
ENDROOT
BRANCH   2   4
HETATM    4  N   UNL     1     -10.726  12.878  65.436  1.00  0.00    -0.280 N  
HETATM    5  C   UNL     1     -10.265  12.680  64.143  1.00  0.00    -0.340 C  
HETATM    6  O   UNL     1     -10.004  11.585  63.652  1.00  0.00    -0.305 OA 
BRANCH   4   7
HETATM    7  C   UNL     1     -11.086  11.700  66.240  1.00  0.00    -0.290 C  
BRANCH   7   8
HETATM    8  C   UNL     1     -10.011  11.122  67.131  1.00  0.00    -0.215 A  
HETATM    9  H2  UNL     1     -11.817  11.971  68.886  1.00  0.00     0.000 HD 
HETATM   10  H1  UNL     1     -10.968  11.733  70.384  1.00  0.00     0.000 HD 
HETATM   11  N   UNL     1     -10.971  11.664  69.366  1.00  0.00    -0.196 NA 
HETATM   12  C   UNL     1     -10.007  11.224  68.627  1.00  0.00    -0.204 A  
HETATM   13  C   UNL     1      -8.825  10.701  66.626  1.00  0.00    -0.141 A  
HETATM   14  N   UNL     1      -7.652  10.425  67.312  1.00  0.00    -0.094 NA 
HETATM   15  C   UNL     1      -6.425  10.435  69.415  1.00  0.00    -0.057 C  
HETATM   16  N   UNL     1      -8.858  10.850  69.263  1.00  0.00    -0.038 NA 
HETATM   17  C   UNL     1      -7.702  10.539  68.609  1.00  0.00    -0.106 A  
ENDBRANCH   7   8
ENDBRANCH   4   7
ENDBRANCH   2   4
BRANCH   3  18
HETATM   18  C   UNL     1      -8.599  14.735  66.490  1.00  0.00    -0.075 C  
BRANCH  18  19
HETATM   19  C   UNL     1      -8.244  14.086  67.843  1.00  0.00    -0.158 C  
HETATM   20  H   UNL     1      -6.633  13.399  68.749  1.00  0.00     0.000 HD 
HETATM   21  O   UNL     1      -6.851  13.798  67.916  1.00  0.00    -0.119 OA 
ENDBRANCH  18  19
ENDBRANCH   3  18
BRANCH   3  22
HETATM   22  S   UNL     1     -10.607  16.716  66.667  1.00  0.00    -0.139 SA 
BRANCH  22  23
HETATM   23  S   UNL     1     -10.586  16.725  68.721  1.00  0.00    -0.354 SA 
BRANCH  23  24
HETATM   24  C   UNL     1     -11.881  15.542  69.243  1.00  0.00    -0.353 C  
BRANCH  24  25
HETATM   25  C   UNL     1     -12.525  15.715  70.616  1.00  0.00    -0.417 C  
HETATM   26  O   UNL     1     -11.500  16.137  71.545  1.00  0.00    -0.417 OA 
HETATM   27  C   UNL     1     -13.095  14.817  72.711  1.00  0.00    -0.569 C  
HETATM   28  C   UNL     1     -11.814  15.612  72.844  1.00  0.00    -0.455 C  
HETATM   29  C   UNL     1     -13.125  14.466  71.240  1.00  0.00    -0.421 C  
ENDBRANCH  24  25
ENDBRANCH  23  24
ENDBRANCH  22  23
ENDBRANCH   3  22
TORSDOF 9
ENDMDL
MODEL      149
REMARK 921   NORMALIZED FREE ENERGY PREDICTED BY IDOCK:   -4.23 KCAL/MOL
REMARK 922        TOTAL FREE ENERGY PREDICTED BY IDOCK:   -7.70 KCAL/MOL
REMARK 923 INTER-LIGAND FREE ENERGY PREDICTED BY IDOCK:   -6.19 KCAL/MOL
REMARK 924 INTRA-LIGAND FREE ENERGY PREDICTED BY IDOCK:   -1.51 KCAL/MOL
REMARK 927      BINDING AFFINITY PREDICTED BY RF-SCORE:    0.00 PKD
ROOT
HETATM    1  C   UNL     1     -13.139   7.032  71.281  1.00  0.00    -0.329 C  
HETATM    2  C   UNL     1     -12.022   7.965  71.713  1.00  0.00    -0.298 C  
HETATM    3  C   UNL     1     -10.881   7.542  72.334  1.00  0.00    -0.276 C  
ENDROOT
BRANCH   2   4
HETATM    4  N   UNL     1     -12.238   9.285  71.305  1.00  0.00    -0.320 N  
HETATM    5  C   UNL     1     -12.796  10.210  72.176  1.00  0.00    -0.287 C  
HETATM    6  O   UNL     1     -13.045  11.378  71.892  1.00  0.00    -0.492 OA 
BRANCH   4   7
HETATM    7  C   UNL     1     -12.072   9.664  69.893  1.00  0.00     0.294 C  
BRANCH   7   8
HETATM    8  C   UNL     1     -10.839  10.461  69.536  1.00  0.00    -0.295 A  
HETATM    9  H2  UNL     1     -12.798  12.197  69.079  1.00  0.00     0.000 HD 
HETATM   10  H1  UNL     1     -11.923  13.505  68.339  1.00  0.00     0.000 HD 
HETATM   11  N   UNL     1     -11.906  12.574  68.758  1.00  0.00    -0.314 NA 
HETATM   12  C   UNL     1     -10.864  11.827  68.920  1.00  0.00    -0.223 A  
HETATM   13  C   UNL     1      -9.612   9.885  69.496  1.00  0.00    -0.225 A  
HETATM   14  N   UNL     1      -8.451  10.381  68.921  1.00  0.00    -0.135 NA 
HETATM   15  C   UNL     1      -7.368  12.106  67.588  1.00  0.00    -0.122 C  
HETATM   16  N   UNL     1      -9.675  12.312  68.454  1.00  0.00    -0.211 NA 
HETATM   17  C   UNL     1      -8.532  11.569  68.392  1.00  0.00    -0.159 A  
ENDBRANCH   7   8
ENDBRANCH   4   7
ENDBRANCH   2   4
BRANCH   3  18
HETATM   18  C   UNL     1      -9.615   8.391  72.490  1.00  0.00    -0.358 C  
BRANCH  18  19
HETATM   19  C   UNL     1      -8.744   8.050  73.715  1.00  0.00    -0.265 C  
HETATM   20  H   UNL     1      -6.959   8.521  74.408  1.00  0.00     0.000 HD 
HETATM   21  O   UNL     1      -7.495   8.731  73.653  1.00  0.00    -0.385 OA 
ENDBRANCH  18  19
ENDBRANCH   3  18
BRANCH   3  22
HETATM   22  S   UNL     1     -10.837   5.885  72.958  1.00  0.00    -0.272 SA 
BRANCH  22  23
HETATM   23  S   UNL     1      -9.456   4.995  71.724  1.00  0.00    -0.154 SA 
BRANCH  23  24
HETATM   24  C   UNL     1     -10.213   4.968  70.058  1.00  0.00    -0.269 C  
BRANCH  24  25
HETATM   25  C   UNL     1      -9.879   6.092  69.080  1.00  0.00    -0.148 C  
HETATM   26  O   UNL     1     -11.091   6.456  68.381  1.00  0.00    -0.315 OA 
HETATM   27  C   UNL     1      -9.241   6.775  66.925  1.00  0.00    -0.162 C  
HETATM   28  C   UNL     1     -10.746   6.887  67.056  1.00  0.00    -0.362 C  
HETATM   29  C   UNL     1      -8.884   5.755  67.983  1.00  0.00    -0.109 C  
ENDBRANCH  24  25
ENDBRANCH  23  24
ENDBRANCH  22  23
ENDBRANCH   3  22
TORSDOF 9
ENDMDL
MODEL      150
REMARK 921   NORMALIZED FREE ENERGY PREDICTED BY IDOCK:   -4.23 KCAL/MOL
REMARK 922        TOTAL FREE ENERGY PREDICTED BY IDOCK:   -7.70 KCAL/MOL
REMARK 923 INTER-LIGAND FREE ENERGY PREDICTED BY IDOCK:   -6.83 KCAL/MOL
REMARK 924 INTRA-LIGAND FREE ENERGY PREDICTED BY IDOCK:   -0.86 KCAL/MOL
REMARK 927      BINDING AFFINITY PREDICTED BY RF-SCORE:    0.00 PKD
ROOT
HETATM    1  C   UNL     1      -8.088  10.978  66.470  1.00  0.00    -0.161 C  
HETATM    2  C   UNL     1      -8.732  11.666  67.660  1.00  0.00    -0.156 C  
HETATM    3  C   UNL     1      -9.542  12.760  67.554  1.00  0.00    -0.192 C  
ENDROOT
BRANCH   2   4
HETATM    4  N   UNL     1      -8.496  10.991  68.862  1.00  0.00    -0.148 N  
HETATM    5  C   UNL     1      -7.221  10.951  69.409  1.00  0.00    -0.126 C  
HETATM    6  O   UNL     1      -6.921  10.360  70.442  1.00  0.00    -0.253 OA 
BRANCH   4   7
HETATM    7  C   UNL     1      -9.541  10.143  69.457  1.00  0.00    -0.221 C  
BRANCH   7   8
HETATM    8  C   UNL     1      -9.763   8.786  68.829  1.00  0.00    -0.171 A  
HETATM    9  H2  UNL     1      -7.934   8.268  70.686  1.00  0.00     0.000 HD 
HETATM   10  H1  UNL     1      -7.539   6.616  70.318  1.00  0.00     0.000 HD 
HETATM   11  N   UNL     1      -8.087   7.448  70.099  1.00  0.00    -0.128 NA 
HETATM   12  C   UNL     1      -8.957   7.564  69.150  1.00  0.00    -0.135 A  
HETATM   13  C   UNL     1     -10.535   8.636  67.724  1.00  0.00    -0.224 A  
HETATM   14  N   UNL     1     -10.607   7.544  66.872  1.00  0.00    -0.337 NA 
HETATM   15  C   UNL     1      -9.759   5.356  66.226  1.00  0.00    -0.181 C  
HETATM   16  N   UNL     1      -9.135   6.481  68.337  1.00  0.00    -0.124 NA 
HETATM   17  C   UNL     1      -9.878   6.513  67.194  1.00  0.00    -0.148 A  
ENDBRANCH   7   8
ENDBRANCH   4   7
ENDBRANCH   2   4
BRANCH   3  18
HETATM   18  C   UNL     1     -10.452  13.276  68.674  1.00  0.00    -0.242 C  
BRANCH  18  19
HETATM   19  C   UNL     1     -11.962  13.088  68.431  1.00  0.00    -0.271 C  
HETATM   20  H   UNL     1     -13.160  11.692  67.719  1.00  0.00     0.000 HD 
HETATM   21  O   UNL     1     -12.229  11.807  67.868  1.00  0.00    -0.538 OA 
ENDBRANCH  18  19
ENDBRANCH   3  18
BRANCH   3  22
HETATM   22  S   UNL     1      -9.591  13.616  66.003  1.00  0.00    -0.098 SA 
BRANCH  22  23
HETATM   23  S   UNL     1      -8.945  15.495  66.524  1.00  0.00    -0.332 SA 
BRANCH  23  24
HETATM   24  C   UNL     1     -10.422  16.573  66.450  1.00  0.00    -0.274 C  
BRANCH  24  25
HETATM   25  C   UNL     1     -10.231  18.064  66.184  1.00  0.00    -0.363 C  
HETATM   26  O   UNL     1      -8.824  18.304  65.949  1.00  0.00    -0.501 OA 
HETATM   27  C   UNL     1      -9.765  20.220  66.992  1.00  0.00    -0.598 C  
HETATM   28  C   UNL     1      -8.497  19.618  66.425  1.00  0.00    -0.356 C  
HETATM   29  C   UNL     1     -10.601  19.003  67.319  1.00  0.00    -0.554 C  
ENDBRANCH  24  25
ENDBRANCH  23  24
ENDBRANCH  22  23
ENDBRANCH   3  22
TORSDOF 9
ENDMDL
MODEL      151
REMARK 921   NORMALIZED FREE ENERGY PREDICTED BY IDOCK:   -4.22 KCAL/MOL
REMARK 922        TOTAL FREE ENERGY PREDICTED BY IDOCK:   -7.69 KCAL/MOL
REMARK 923 INTER-LIGAND FREE ENERGY PREDICTED BY IDOCK:   -6.69 KCAL/MOL
REMARK 924 INTRA-LIGAND FREE ENERGY PREDICTED BY IDOCK:   -1.00 KCAL/MOL
REMARK 927      BINDING AFFINITY PREDICTED BY RF-SCORE:    0.00 PKD
ROOT
HETATM    1  C   UNL     1     -10.915   6.604  66.985  1.00  0.00    -0.463 C  
HETATM    2  C   UNL     1      -9.535   6.645  67.616  1.00  0.00    -0.124 C  
HETATM    3  C   UNL     1      -8.564   7.534  67.255  1.00  0.00    -0.118 C  
ENDROOT
BRANCH   2   4
HETATM    4  N   UNL     1      -9.406   5.748  68.682  1.00  0.00    -0.120 N  
HETATM    5  C   UNL     1      -9.356   4.381  68.451  1.00  0.00    -0.147 C  
HETATM    6  O   UNL     1      -9.273   3.525  69.327  1.00  0.00    -0.132 OA 
BRANCH   4   7
HETATM    7  C   UNL     1      -9.530   6.220  70.070  1.00  0.00    -0.155 C  
BRANCH   7   8
HETATM    8  C   UNL     1     -10.752   7.041  70.410  1.00  0.00    -0.259 A  
HETATM    9  H2  UNL     1      -8.922   8.907  69.925  1.00  0.00     0.000 HD 
HETATM   10  H1  UNL     1      -9.774  10.346  70.397  1.00  0.00     0.000 HD 
HETATM   11  N   UNL     1      -9.775   9.331  70.289  1.00  0.00    -0.215 NA 
HETATM   12  C   UNL     1     -10.751   8.532  70.569  1.00  0.00    -0.221 A  
HETATM   13  C   UNL     1     -11.890   6.461  70.864  1.00  0.00    -0.252 A  
HETATM   14  N   UNL     1     -12.973   7.068  71.482  1.00  0.00    -0.382 NA 
HETATM   15  C   UNL     1     -13.965   9.082  72.424  1.00  0.00    -0.517 C  
HETATM   16  N   UNL     1     -11.880   9.092  71.095  1.00  0.00    -0.293 NA 
HETATM   17  C   UNL     1     -12.915   8.364  71.603  1.00  0.00    -0.334 A  
ENDBRANCH   7   8
ENDBRANCH   4   7
ENDBRANCH   2   4
BRANCH   3  18
HETATM   18  C   UNL     1      -7.299   7.814  68.072  1.00  0.00    -0.102 C  
BRANCH  18  19
HETATM   19  C   UNL     1      -6.152   6.804  67.874  1.00  0.00    -0.032 C  
HETATM   20  H   UNL     1      -4.810   5.887  68.991  1.00  0.00     0.000 HD 
HETATM   21  O   UNL     1      -5.516   6.511  69.113  1.00  0.00    -0.012 OA 
ENDBRANCH  18  19
ENDBRANCH   3  18
BRANCH   3  22
HETATM   22  S   UNL     1      -8.801   8.470  65.769  1.00  0.00    -0.178 SA 
BRANCH  22  23
HETATM   23  S   UNL     1      -9.118  10.365  66.496  1.00  0.00    -0.158 SA 
BRANCH  23  24
HETATM   24  C   UNL     1     -10.400  11.108  65.421  1.00  0.00    -0.271 C  
BRANCH  24  25
HETATM   25  C   UNL     1     -10.812  12.558  65.664  1.00  0.00    -0.277 C  
HETATM   26  O   UNL     1     -12.241  12.589  65.890  1.00  0.00    -0.593 OA 
HETATM   27  C   UNL     1     -11.590  14.608  64.821  1.00  0.00    -0.418 C  
HETATM   28  C   UNL     1     -12.758  13.832  65.392  1.00  0.00    -0.472 C  
HETATM   29  C   UNL     1     -10.580  13.525  64.515  1.00  0.00    -0.439 C  
ENDBRANCH  24  25
ENDBRANCH  23  24
ENDBRANCH  22  23
ENDBRANCH   3  22
TORSDOF 9
ENDMDL
MODEL      152
REMARK 921   NORMALIZED FREE ENERGY PREDICTED BY IDOCK:   -4.22 KCAL/MOL
REMARK 922        TOTAL FREE ENERGY PREDICTED BY IDOCK:   -7.68 KCAL/MOL
REMARK 923 INTER-LIGAND FREE ENERGY PREDICTED BY IDOCK:   -6.35 KCAL/MOL
REMARK 924 INTRA-LIGAND FREE ENERGY PREDICTED BY IDOCK:   -1.34 KCAL/MOL
REMARK 927      BINDING AFFINITY PREDICTED BY RF-SCORE:    0.00 PKD
ROOT
HETATM    1  C   UNL     1     -10.629   8.621  67.263  1.00  0.00    -0.308 C  
HETATM    2  C   UNL     1     -10.035   9.658  68.197  1.00  0.00    -0.159 C  
HETATM    3  C   UNL     1      -8.694   9.809  68.405  1.00  0.00    -0.120 C  
ENDROOT
BRANCH   2   4
HETATM    4  N   UNL     1     -11.004  10.514  68.733  1.00  0.00    -0.235 N  
HETATM    5  C   UNL     1     -11.199  10.584  70.105  1.00  0.00    -0.315 C  
HETATM    6  O   UNL     1     -12.043  11.285  70.657  1.00  0.00    -0.355 OA 
BRANCH   4   7
HETATM    7  C   UNL     1     -11.965  11.194  67.852  1.00  0.00     0.083 C  
BRANCH   7   8
HETATM    8  C   UNL     1     -11.489  12.447  67.153  1.00  0.00    -0.423 A  
HETATM    9  H2  UNL     1     -12.340  13.380  69.492  1.00  0.00     0.000 HD 
HETATM   10  H1  UNL     1     -12.224  15.095  69.232  1.00  0.00     0.000 HD 
HETATM   11  N   UNL     1     -12.101  14.150  68.867  1.00  0.00    -0.336 NA 
HETATM   12  C   UNL     1     -11.671  13.835  67.690  1.00  0.00    -0.367 A  
HETATM   13  C   UNL     1     -11.101  12.428  65.854  1.00  0.00    -0.313 A  
HETATM   14  N   UNL     1     -10.920  13.504  64.999  1.00  0.00    -0.318 NA 
HETATM   15  C   UNL     1     -11.102  15.901  64.610  1.00  0.00    -0.368 C  
HETATM   16  N   UNL     1     -11.388  14.863  66.836  1.00  0.00    -0.349 NA 
HETATM   17  C   UNL     1     -11.100  14.687  65.515  1.00  0.00    -0.345 A  
ENDBRANCH   7   8
ENDBRANCH   4   7
ENDBRANCH   2   4
BRANCH   3  18
HETATM   18  C   UNL     1      -8.054  11.029  69.075  1.00  0.00    -0.105 C  
BRANCH  18  19
HETATM   19  C   UNL     1      -7.399  12.039  68.112  1.00  0.00    -0.094 C  
HETATM   20  H   UNL     1      -7.340  12.368  66.168  1.00  0.00     0.000 HD 
HETATM   21  O   UNL     1      -7.743  11.746  66.762  1.00  0.00    -0.149 OA 
ENDBRANCH  18  19
ENDBRANCH   3  18
BRANCH   3  22
HETATM   22  S   UNL     1      -7.610   8.537  67.816  1.00  0.00    -0.099 SA 
BRANCH  22  23
HETATM   23  S   UNL     1      -7.533   7.257  69.421  1.00  0.00    -0.093 SA 
BRANCH  23  24
HETATM   24  C   UNL     1      -9.068   6.262  69.345  1.00  0.00    -0.139 C  
BRANCH  24  25
HETATM   25  C   UNL     1     -10.009   6.270  70.547  1.00  0.00    -0.186 C  
HETATM   26  O   UNL     1     -11.369   6.318  70.054  1.00  0.00    -0.380 OA 
HETATM   27  C   UNL     1     -11.263   7.475  72.126  1.00  0.00    -0.313 C  
HETATM   28  C   UNL     1     -12.173   7.043  70.996  1.00  0.00    -0.374 C  
HETATM   29  C   UNL     1      -9.894   7.460  71.484  1.00  0.00    -0.185 C  
ENDBRANCH  24  25
ENDBRANCH  23  24
ENDBRANCH  22  23
ENDBRANCH   3  22
TORSDOF 9
ENDMDL
MODEL      153
REMARK 921   NORMALIZED FREE ENERGY PREDICTED BY IDOCK:   -4.22 KCAL/MOL
REMARK 922        TOTAL FREE ENERGY PREDICTED BY IDOCK:   -7.67 KCAL/MOL
REMARK 923 INTER-LIGAND FREE ENERGY PREDICTED BY IDOCK:   -6.59 KCAL/MOL
REMARK 924 INTRA-LIGAND FREE ENERGY PREDICTED BY IDOCK:   -1.09 KCAL/MOL
REMARK 927      BINDING AFFINITY PREDICTED BY RF-SCORE:    0.00 PKD
ROOT
HETATM    1  C   UNL     1      -9.811   7.415  67.136  1.00  0.00    -0.253 C  
HETATM    2  C   UNL     1      -8.430   7.936  67.488  1.00  0.00    -0.123 C  
HETATM    3  C   UNL     1      -7.573   8.485  66.577  1.00  0.00    -0.088 C  
ENDROOT
BRANCH   2   4
HETATM    4  N   UNL     1      -8.177   7.897  68.864  1.00  0.00    -0.125 N  
HETATM    5  C   UNL     1      -7.961   6.686  69.505  1.00  0.00    -0.117 C  
HETATM    6  O   UNL     1      -7.760   6.558  70.710  1.00  0.00    -0.097 OA 
BRANCH   4   7
HETATM    7  C   UNL     1      -8.340   9.107  69.685  1.00  0.00    -0.130 C  
BRANCH   7   8
HETATM    8  C   UNL     1      -9.754   9.536  70.001  1.00  0.00    -0.271 A  
HETATM    9  H2  UNL     1      -9.119  11.106  67.952  1.00  0.00     0.000 HD 
HETATM   10  H1  UNL     1     -10.493  12.171  67.906  1.00  0.00     0.000 HD 
HETATM   11  N   UNL     1     -10.019  11.381  68.346  1.00  0.00    -0.198 NA 
HETATM   12  C   UNL     1     -10.449  10.696  69.354  1.00  0.00    -0.225 A  
HETATM   13  C   UNL     1     -10.408   9.069  71.093  1.00  0.00    -0.291 A  
HETATM   14  N   UNL     1     -11.563   9.566  71.677  1.00  0.00    -0.393 NA 
HETATM   15  C   UNL     1     -13.276  11.295  71.747  1.00  0.00    -0.480 C  
HETATM   16  N   UNL     1     -11.634  11.088  69.910  1.00  0.00    -0.307 NA 
HETATM   17  C   UNL     1     -12.121  10.581  71.079  1.00  0.00    -0.387 A  
ENDBRANCH   7   8
ENDBRANCH   4   7
ENDBRANCH   2   4
BRANCH   3  18
HETATM   18  C   UNL     1      -6.328   9.300  66.941  1.00  0.00    -0.066 C  
BRANCH  18  19
HETATM   19  C   UNL     1      -6.583  10.793  67.230  1.00  0.00    -0.075 C  
HETATM   20  H   UNL     1      -5.917  12.534  66.587  1.00  0.00     0.000 HD 
HETATM   21  O   UNL     1      -5.760  11.615  66.409  1.00  0.00    -0.211 OA 
ENDBRANCH  18  19
ENDBRANCH   3  18
BRANCH   3  22
HETATM   22  S   UNL     1      -7.947   8.289  64.857  1.00  0.00    -0.150 SA 
BRANCH  22  23
HETATM   23  S   UNL     1      -8.370  10.216  64.283  1.00  0.00    -0.176 SA 
BRANCH  23  24
HETATM   24  C   UNL     1     -10.095  10.530  64.807  1.00  0.00    -0.336 C  
BRANCH  24  25
HETATM   25  C   UNL     1     -10.643  11.952  64.715  1.00  0.00    -0.299 C  
HETATM   26  O   UNL     1     -11.796  12.048  65.584  1.00  0.00    -0.428 OA 
HETATM   27  C   UNL     1     -12.115  13.493  63.726  1.00  0.00    -0.482 C  
HETATM   28  C   UNL     1     -12.722  12.987  65.018  1.00  0.00    -0.410 C  
HETATM   29  C   UNL     1     -11.148  12.392  63.351  1.00  0.00    -0.465 C  
ENDBRANCH  24  25
ENDBRANCH  23  24
ENDBRANCH  22  23
ENDBRANCH   3  22
TORSDOF 9
ENDMDL
MODEL      154
REMARK 921   NORMALIZED FREE ENERGY PREDICTED BY IDOCK:   -4.19 KCAL/MOL
REMARK 922        TOTAL FREE ENERGY PREDICTED BY IDOCK:   -7.64 KCAL/MOL
REMARK 923 INTER-LIGAND FREE ENERGY PREDICTED BY IDOCK:   -6.57 KCAL/MOL
REMARK 924 INTRA-LIGAND FREE ENERGY PREDICTED BY IDOCK:   -1.07 KCAL/MOL
REMARK 927      BINDING AFFINITY PREDICTED BY RF-SCORE:    0.00 PKD
ROOT
HETATM    1  C   UNL     1     -10.081   9.453  66.500  1.00  0.00    -0.332 C  
HETATM    2  C   UNL     1      -9.445   9.405  67.877  1.00  0.00    -0.132 C  
HETATM    3  C   UNL     1     -10.050   9.876  69.007  1.00  0.00    -0.189 C  
ENDROOT
BRANCH   2   4
HETATM    4  N   UNL     1      -8.222   8.724  67.880  1.00  0.00    -0.110 N  
HETATM    5  C   UNL     1      -7.046   9.389  67.566  1.00  0.00    -0.078 C  
HETATM    6  O   UNL     1      -5.937   8.864  67.518  1.00  0.00    -0.046 OA 
BRANCH   4   7
HETATM    7  C   UNL     1      -8.187   7.259  68.009  1.00  0.00    -0.120 C  
BRANCH   7   8
HETATM    8  C   UNL     1      -8.867   6.457  66.923  1.00  0.00    -0.119 A  
HETATM    9  H2  UNL     1     -10.765   6.645  68.773  1.00  0.00     0.000 HD 
HETATM   10  H1  UNL     1     -11.981   5.590  68.117  1.00  0.00     0.000 HD 
HETATM   11  N   UNL     1     -11.058   6.015  68.026  1.00  0.00    -0.252 NA 
HETATM   12  C   UNL     1     -10.223   5.832  67.057  1.00  0.00    -0.213 A  
HETATM   13  C   UNL     1      -8.183   6.012  65.840  1.00  0.00    -0.129 A  
HETATM   14  N   UNL     1      -8.567   5.046  64.923  1.00  0.00    -0.147 NA 
HETATM   15  C   UNL     1     -10.173   3.344  64.249  1.00  0.00    -0.171 C  
HETATM   16  N   UNL     1     -10.593   4.957  66.075  1.00  0.00    -0.307 NA 
HETATM   17  C   UNL     1      -9.752   4.529  65.091  1.00  0.00    -0.152 A  
ENDBRANCH   7   8
ENDBRANCH   4   7
ENDBRANCH   2   4
BRANCH   3  18
HETATM   18  C   UNL     1      -9.589   9.558  70.433  1.00  0.00    -0.326 C  
BRANCH  18  19
HETATM   19  C   UNL     1     -10.706   9.124  71.402  1.00  0.00    -0.343 C  
HETATM   20  H   UNL     1     -11.945   7.603  71.607  1.00  0.00     0.000 HD 
HETATM   21  O   UNL     1     -11.257   7.871  71.010  1.00  0.00    -0.260 OA 
ENDBRANCH  18  19
ENDBRANCH   3  18
BRANCH   3  22
HETATM   22  S   UNL     1     -11.498  10.880  68.821  1.00  0.00    -0.316 SA 
BRANCH  22  23
HETATM   23  S   UNL     1     -10.694  12.742  68.491  1.00  0.00    -0.251 SA 
BRANCH  23  24
HETATM   24  C   UNL     1     -11.541  13.400  67.008  1.00  0.00    -0.356 C  
BRANCH  24  25
HETATM   25  C   UNL     1     -11.637  12.520  65.765  1.00  0.00    -0.392 C  
HETATM   26  O   UNL     1     -10.374  12.593  65.062  1.00  0.00    -0.289 OA 
HETATM   27  C   UNL     1     -12.118  12.297  63.476  1.00  0.00    -0.649 C  
HETATM   28  C   UNL     1     -10.623  12.454  63.655  1.00  0.00    -0.445 C  
HETATM   29  C   UNL     1     -12.678  12.923  64.734  1.00  0.00    -0.442 C  
ENDBRANCH  24  25
ENDBRANCH  23  24
ENDBRANCH  22  23
ENDBRANCH   3  22
TORSDOF 9
ENDMDL
MODEL      155
REMARK 921   NORMALIZED FREE ENERGY PREDICTED BY IDOCK:   -4.19 KCAL/MOL
REMARK 922        TOTAL FREE ENERGY PREDICTED BY IDOCK:   -7.63 KCAL/MOL
REMARK 923 INTER-LIGAND FREE ENERGY PREDICTED BY IDOCK:   -7.11 KCAL/MOL
REMARK 924 INTRA-LIGAND FREE ENERGY PREDICTED BY IDOCK:   -0.52 KCAL/MOL
REMARK 927      BINDING AFFINITY PREDICTED BY RF-SCORE:    0.00 PKD
ROOT
HETATM    1  C   UNL     1     -10.659   9.033  66.587  1.00  0.00    -0.158 C  
HETATM    2  C   UNL     1      -9.689  10.093  66.099  1.00  0.00    -0.218 C  
HETATM    3  C   UNL     1      -8.375  10.143  66.468  1.00  0.00    -0.124 C  
ENDROOT
BRANCH   2   4
HETATM    4  N   UNL     1     -10.259  10.942  65.145  1.00  0.00    -0.285 N  
HETATM    5  C   UNL     1      -9.704  11.050  63.877  1.00  0.00    -0.292 C  
HETATM    6  O   UNL     1     -10.122  11.789  62.991  1.00  0.00    -0.384 OA 
BRANCH   4   7
HETATM    7  C   UNL     1     -11.322  11.884  65.527  1.00  0.00    -0.277 C  
BRANCH   7   8
HETATM    8  C   UNL     1     -10.898  13.294  65.872  1.00  0.00    -0.289 A  
HETATM    9  H2  UNL     1     -13.000  13.694  64.294  1.00  0.00     0.000 HD 
HETATM   10  H1  UNL     1     -12.944  15.419  64.091  1.00  0.00     0.000 HD 
HETATM   11  N   UNL     1     -12.538  14.579  64.503  1.00  0.00    -0.650 NA 
HETATM   12  C   UNL     1     -11.495  14.528  65.265  1.00  0.00    -0.355 A  
HETATM   13  C   UNL     1      -9.755  13.540  66.559  1.00  0.00    -0.283 A  
HETATM   14  N   UNL     1      -9.085  14.746  66.700  1.00  0.00    -0.268 NA 
HETATM   15  C   UNL     1      -8.891  17.097  66.097  1.00  0.00    -0.220 C  
HETATM   16  N   UNL     1     -10.850  15.706  65.514  1.00  0.00    -0.350 NA 
HETATM   17  C   UNL     1      -9.644  15.785  66.145  1.00  0.00    -0.332 A  
ENDBRANCH   7   8
ENDBRANCH   4   7
ENDBRANCH   2   4
BRANCH   3  18
HETATM   18  C   UNL     1      -7.309  10.985  65.760  1.00  0.00     0.084 C  
BRANCH  18  19
HETATM   19  C   UNL     1      -6.000  10.242  65.429  1.00  0.00    -0.115 C  
HETATM   20  H   UNL     1      -4.332  10.602  64.439  1.00  0.00     0.000 HD 
HETATM   21  O   UNL     1      -5.139  11.060  64.642  1.00  0.00    -0.238 OA 
ENDBRANCH  18  19
ENDBRANCH   3  18
BRANCH   3  22
HETATM   22  S   UNL     1      -7.850   9.130  67.823  1.00  0.00    -0.100 SA 
BRANCH  22  23
HETATM   23  S   UNL     1      -8.518  10.197  69.447  1.00  0.00    -0.164 SA 
BRANCH  23  24
HETATM   24  C   UNL     1      -9.382   8.992  70.519  1.00  0.00    -0.219 C  
BRANCH  24  25
HETATM   25  C   UNL     1     -10.609   9.452  71.303  1.00  0.00    -0.330 C  
HETATM   26  O   UNL     1     -11.437   8.296  71.564  1.00  0.00    -0.256 OA 
HETATM   27  C   UNL     1     -12.835  10.201  71.318  1.00  0.00    -0.508 C  
HETATM   28  C   UNL     1     -12.811   8.711  71.588  1.00  0.00    -0.345 C  
HETATM   29  C   UNL     1     -11.527  10.436  70.598  1.00  0.00    -0.438 C  
ENDBRANCH  24  25
ENDBRANCH  23  24
ENDBRANCH  22  23
ENDBRANCH   3  22
TORSDOF 9
ENDMDL
MODEL      156
REMARK 921   NORMALIZED FREE ENERGY PREDICTED BY IDOCK:   -4.17 KCAL/MOL
REMARK 922        TOTAL FREE ENERGY PREDICTED BY IDOCK:   -7.60 KCAL/MOL
REMARK 923 INTER-LIGAND FREE ENERGY PREDICTED BY IDOCK:   -6.28 KCAL/MOL
REMARK 924 INTRA-LIGAND FREE ENERGY PREDICTED BY IDOCK:   -1.32 KCAL/MOL
REMARK 927      BINDING AFFINITY PREDICTED BY RF-SCORE:    0.00 PKD
ROOT
HETATM    1  C   UNL     1     -10.874   9.591  68.252  1.00  0.00    -0.194 C  
HETATM    2  C   UNL     1      -9.543   9.001  67.822  1.00  0.00    -0.150 C  
HETATM    3  C   UNL     1      -9.408   7.756  67.277  1.00  0.00    -0.145 C  
ENDROOT
BRANCH   2   4
HETATM    4  N   UNL     1      -8.489   9.913  67.942  1.00  0.00    -0.121 N  
HETATM    5  C   UNL     1      -8.083  10.360  69.192  1.00  0.00    -0.151 C  
HETATM    6  O   UNL     1      -7.188  11.177  69.386  1.00  0.00    -0.123 OA 
BRANCH   4   7
HETATM    7  C   UNL     1      -7.932  10.568  66.749  1.00  0.00    -0.121 C  
BRANCH   7   8
HETATM    8  C   UNL     1      -8.916  11.201  65.792  1.00  0.00    -0.207 A  
HETATM    9  H2  UNL     1      -8.954  12.880  67.852  1.00  0.00     0.000 HD 
HETATM   10  H1  UNL     1     -10.255  13.940  67.398  1.00  0.00     0.000 HD 
HETATM   11  N   UNL     1      -9.676  13.130  67.175  1.00  0.00    -0.229 NA 
HETATM   12  C   UNL     1      -9.767  12.390  66.120  1.00  0.00    -0.246 A  
HETATM   13  C   UNL     1      -9.300  10.572  64.654  1.00  0.00    -0.248 A  
HETATM   14  N   UNL     1     -10.380  10.867  63.835  1.00  0.00    -0.356 NA 
HETATM   15  C   UNL     1     -12.387  12.187  63.442  1.00  0.00    -0.648 C  
HETATM   16  N   UNL     1     -10.759  12.697  65.232  1.00  0.00    -0.282 NA 
HETATM   17  C   UNL     1     -11.092  11.905  64.172  1.00  0.00    -0.375 A  
ENDBRANCH   7   8
ENDBRANCH   4   7
ENDBRANCH   2   4
BRANCH   3  18
HETATM   18  C   UNL     1      -8.155   7.262  66.548  1.00  0.00    -0.114 C  
BRANCH  18  19
HETATM   19  C   UNL     1      -7.067   6.652  67.453  1.00  0.00    -0.080 C  
HETATM   20  H   UNL     1      -5.318   7.189  68.191  1.00  0.00     0.000 HD 
HETATM   21  O   UNL     1      -5.988   7.565  67.633  1.00  0.00    -0.036 OA 
ENDBRANCH  18  19
ENDBRANCH   3  18
BRANCH   3  22
HETATM   22  S   UNL     1     -10.790   6.651  67.368  1.00  0.00    -0.373 SA 
BRANCH  22  23
HETATM   23  S   UNL     1     -10.619   5.900  69.273  1.00  0.00    -0.329 SA 
BRANCH  23  24
HETATM   24  C   UNL     1     -12.024   6.597  70.217  1.00  0.00    -0.240 C  
BRANCH  24  25
HETATM   25  C   UNL     1     -11.760   7.183  71.601  1.00  0.00    -0.291 C  
HETATM   26  O   UNL     1     -10.764   8.223  71.469  1.00  0.00    -0.217 OA 
HETATM   27  C   UNL     1     -10.513   7.188  73.592  1.00  0.00    -0.412 C  
HETATM   28  C   UNL     1      -9.980   8.265  72.671  1.00  0.00    -0.287 C  
HETATM   29  C   UNL     1     -11.191   6.230  72.638  1.00  0.00    -0.302 C  
ENDBRANCH  24  25
ENDBRANCH  23  24
ENDBRANCH  22  23
ENDBRANCH   3  22
TORSDOF 9
ENDMDL
MODEL      157
REMARK 921   NORMALIZED FREE ENERGY PREDICTED BY IDOCK:   -4.16 KCAL/MOL
REMARK 922        TOTAL FREE ENERGY PREDICTED BY IDOCK:   -7.59 KCAL/MOL
REMARK 923 INTER-LIGAND FREE ENERGY PREDICTED BY IDOCK:   -6.72 KCAL/MOL
REMARK 924 INTRA-LIGAND FREE ENERGY PREDICTED BY IDOCK:   -0.87 KCAL/MOL
REMARK 927      BINDING AFFINITY PREDICTED BY RF-SCORE:    0.00 PKD
ROOT
HETATM    1  C   UNL     1      -8.234  11.182  68.756  1.00  0.00    -0.135 C  
HETATM    2  C   UNL     1      -8.776  11.632  67.412  1.00  0.00    -0.155 C  
HETATM    3  C   UNL     1      -9.282  10.778  66.475  1.00  0.00    -0.168 C  
ENDROOT
BRANCH   2   4
HETATM    4  N   UNL     1      -8.803  13.026  67.284  1.00  0.00    -0.199 N  
HETATM    5  C   UNL     1      -7.637  13.767  67.410  1.00  0.00    -0.137 C  
HETATM    6  O   UNL     1      -7.575  14.992  67.340  1.00  0.00    -0.177 OA 
BRANCH   4   7
HETATM    7  C   UNL     1     -10.087  13.742  67.223  1.00  0.00    -0.239 C  
BRANCH   7   8
HETATM    8  C   UNL     1     -10.762  14.055  68.538  1.00  0.00    -0.266 A  
HETATM    9  H2  UNL     1     -11.420  11.510  68.144  1.00  0.00     0.000 HD 
HETATM   10  H1  UNL     1     -12.552  11.251  69.438  1.00  0.00     0.000 HD 
HETATM   11  N   UNL     1     -11.920  11.887  68.950  1.00  0.00    -0.288 NA 
HETATM   12  C   UNL     1     -11.691  13.122  69.254  1.00  0.00    -0.321 A  
HETATM   13  C   UNL     1     -10.790  15.316  69.035  1.00  0.00    -0.244 A  
HETATM   14  N   UNL     1     -11.593  15.818  70.049  1.00  0.00    -0.335 NA 
HETATM   15  C   UNL     1     -13.422  15.466  71.617  1.00  0.00    -0.593 C  
HETATM   16  N   UNL     1     -12.389  13.641  70.307  1.00  0.00    -0.336 NA 
HETATM   17  C   UNL     1     -12.388  14.966  70.631  1.00  0.00    -0.344 A  
ENDBRANCH   7   8
ENDBRANCH   4   7
ENDBRANCH   2   4
BRANCH   3  18
HETATM   18  C   UNL     1     -10.117  11.213  65.267  1.00  0.00    -0.329 C  
BRANCH  18  19
HETATM   19  C   UNL     1      -9.864  10.415  63.972  1.00  0.00    -0.289 C  
HETATM   20  H   UNL     1      -8.894  10.665  62.274  1.00  0.00     0.000 HD 
HETATM   21  O   UNL     1      -9.050  11.157  63.071  1.00  0.00    -0.271 OA 
ENDBRANCH  18  19
ENDBRANCH   3  18
BRANCH   3  22
HETATM   22  S   UNL     1      -9.002   9.041  66.692  1.00  0.00    -0.141 SA 
BRANCH  22  23
HETATM   23  S   UNL     1     -10.774   8.419  67.527  1.00  0.00    -0.035 SA 
BRANCH  23  24
HETATM   24  C   UNL     1     -10.541   6.651  67.940  1.00  0.00    -0.247 C  
BRANCH  24  25
HETATM   25  C   UNL     1     -11.112   6.122  69.253  1.00  0.00    -0.393 C  
HETATM   26  O   UNL     1     -11.299   7.242  70.148  1.00  0.00    -0.266 OA 
HETATM   27  C   UNL     1     -10.763   5.317  71.432  1.00  0.00    -0.203 C  
HETATM   28  C   UNL     1     -11.100   6.791  71.496  1.00  0.00    -0.251 C  
HETATM   29  C   UNL     1     -10.236   5.150  70.025  1.00  0.00    -0.354 C  
ENDBRANCH  24  25
ENDBRANCH  23  24
ENDBRANCH  22  23
ENDBRANCH   3  22
TORSDOF 9
ENDMDL
MODEL      158
REMARK 921   NORMALIZED FREE ENERGY PREDICTED BY IDOCK:   -4.15 KCAL/MOL
REMARK 922        TOTAL FREE ENERGY PREDICTED BY IDOCK:   -7.57 KCAL/MOL
REMARK 923 INTER-LIGAND FREE ENERGY PREDICTED BY IDOCK:   -7.18 KCAL/MOL
REMARK 924 INTRA-LIGAND FREE ENERGY PREDICTED BY IDOCK:   -0.39 KCAL/MOL
REMARK 927      BINDING AFFINITY PREDICTED BY RF-SCORE:    0.00 PKD
ROOT
HETATM    1  C   UNL     1     -10.760   9.285  67.630  1.00  0.00    -0.276 C  
HETATM    2  C   UNL     1     -10.662  10.420  68.632  1.00  0.00    -0.218 C  
HETATM    3  C   UNL     1     -11.142  11.677  68.401  1.00  0.00    -0.234 C  
ENDROOT
BRANCH   2   4
HETATM    4  N   UNL     1     -10.129  10.008  69.859  1.00  0.00    -0.247 N  
HETATM    5  C   UNL     1      -8.765   9.791  69.996  1.00  0.00    -0.209 C  
HETATM    6  O   UNL     1      -8.218   9.404  71.024  1.00  0.00    -0.294 OA 
BRANCH   4   7
HETATM    7  C   UNL     1     -11.018   9.600  70.957  1.00  0.00    -0.361 C  
BRANCH   7   8
HETATM    8  C   UNL     1     -10.805   8.220  71.536  1.00  0.00    -0.308 A  
HETATM    9  H2  UNL     1     -11.380   7.697  68.994  1.00  0.00     0.000 HD 
HETATM   10  H1  UNL     1     -11.505   5.963  69.027  1.00  0.00     0.000 HD 
HETATM   11  N   UNL     1     -11.332   6.832  69.534  1.00  0.00    -0.266 NA 
HETATM   12  C   UNL     1     -11.059   6.944  70.792  1.00  0.00    -0.275 A  
HETATM   13  C   UNL     1     -10.627   8.031  72.867  1.00  0.00    -0.329 A  
HETATM   14  N   UNL     1     -10.709   6.845  73.581  1.00  0.00    -0.333 NA 
HETATM   15  C   UNL     1     -11.225   4.466  73.604  1.00  0.00    -0.335 C  
HETATM   16  N   UNL     1     -11.035   5.792  71.526  1.00  0.00    -0.259 NA 
HETATM   17  C   UNL     1     -10.941   5.768  72.886  1.00  0.00    -0.274 A  
ENDBRANCH   7   8
ENDBRANCH   4   7
ENDBRANCH   2   4
BRANCH   3  18
HETATM   18  C   UNL     1     -11.348  12.739  69.486  1.00  0.00    -0.223 C  
BRANCH  18  19
HETATM   19  C   UNL     1     -12.231  13.934  69.075  1.00  0.00    -0.239 C  
HETATM   20  H   UNL     1     -12.071  15.897  68.981  1.00  0.00     0.000 HD 
HETATM   21  O   UNL     1     -11.527  15.161  69.235  1.00  0.00    -0.273 OA 
ENDBRANCH  18  19
ENDBRANCH   3  18
BRANCH   3  22
HETATM   22  S   UNL     1     -11.610  12.099  66.745  1.00  0.00    -0.308 SA 
BRANCH  22  23
HETATM   23  S   UNL     1      -9.812  12.641  65.911  1.00  0.00    -0.210 SA 
BRANCH  23  24
HETATM   24  C   UNL     1      -9.233  14.094  66.862  1.00  0.00    -0.257 C  
BRANCH  24  25
HETATM   25  C   UNL     1      -9.334  15.477  66.224  1.00  0.00    -0.320 C  
HETATM   26  O   UNL     1      -9.210  16.467  67.272  1.00  0.00    -0.212 OA 
HETATM   27  C   UNL     1     -10.645  17.317  65.581  1.00  0.00    -0.173 C  
HETATM   28  C   UNL     1      -9.994  17.615  66.915  1.00  0.00    -0.323 C  
HETATM   29  C   UNL     1     -10.647  15.805  65.534  1.00  0.00    -0.424 C  
ENDBRANCH  24  25
ENDBRANCH  23  24
ENDBRANCH  22  23
ENDBRANCH   3  22
TORSDOF 9
ENDMDL
MODEL      159
REMARK 921   NORMALIZED FREE ENERGY PREDICTED BY IDOCK:   -4.14 KCAL/MOL
REMARK 922        TOTAL FREE ENERGY PREDICTED BY IDOCK:   -7.56 KCAL/MOL
REMARK 923 INTER-LIGAND FREE ENERGY PREDICTED BY IDOCK:   -6.19 KCAL/MOL
REMARK 924 INTRA-LIGAND FREE ENERGY PREDICTED BY IDOCK:   -1.37 KCAL/MOL
REMARK 927      BINDING AFFINITY PREDICTED BY RF-SCORE:    0.00 PKD
ROOT
HETATM    1  C   UNL     1      -9.533   9.567  66.723  1.00  0.00    -0.217 C  
HETATM    2  C   UNL     1      -9.318   9.472  68.222  1.00  0.00    -0.133 C  
HETATM    3  C   UNL     1     -10.200   9.954  69.145  1.00  0.00    -0.205 C  
ENDROOT
BRANCH   2   4
HETATM    4  N   UNL     1      -8.174   8.737  68.554  1.00  0.00    -0.116 N  
HETATM    5  C   UNL     1      -6.975   9.383  68.819  1.00  0.00    -0.064 C  
HETATM    6  O   UNL     1      -5.920   8.816  69.090  1.00  0.00    -0.041 OA 
BRANCH   4   7
HETATM    7  C   UNL     1      -8.168   7.271  68.426  1.00  0.00    -0.125 C  
BRANCH   7   8
HETATM    8  C   UNL     1      -8.953   6.490  69.454  1.00  0.00    -0.132 A  
HETATM    9  H2  UNL     1     -10.651   6.626  67.415  1.00  0.00     0.000 HD 
HETATM   10  H1  UNL     1     -12.088   5.954  68.128  1.00  0.00     0.000 HD 
HETATM   11  N   UNL     1     -11.109   6.222  68.232  1.00  0.00    -0.325 NA 
HETATM   12  C   UNL     1     -10.392   6.098  69.300  1.00  0.00    -0.221 A  
HETATM   13  C   UNL     1      -8.489   6.318  70.717  1.00  0.00    -0.135 A  
HETATM   14  N   UNL     1      -9.190   5.894  71.836  1.00  0.00    -0.148 NA 
HETATM   15  C   UNL     1     -11.320   5.278  72.841  1.00  0.00    -0.368 C  
HETATM   16  N   UNL     1     -11.011   5.595  70.409  1.00  0.00    -0.259 NA 
HETATM   17  C   UNL     1     -10.440   5.575  71.647  1.00  0.00    -0.231 A  
ENDBRANCH   7   8
ENDBRANCH   4   7
ENDBRANCH   2   4
BRANCH   3  18
HETATM   18  C   UNL     1     -10.177   9.598  70.635  1.00  0.00    -0.346 C  
BRANCH  18  19
HETATM   19  C   UNL     1     -11.505   9.823  71.384  1.00  0.00    -0.365 C  
HETATM   20  H   UNL     1     -13.055   8.745  71.955  1.00  0.00     0.000 HD 
HETATM   21  O   UNL     1     -12.237   8.606  71.493  1.00  0.00    -0.296 OA 
ENDBRANCH  18  19
ENDBRANCH   3  18
BRANCH   3  22
HETATM   22  S   UNL     1     -11.495  11.024  68.581  1.00  0.00    -0.322 SA 
BRANCH  22  23
HETATM   23  S   UNL     1     -10.617  12.877  68.718  1.00  0.00    -0.138 SA 
BRANCH  23  24
HETATM   24  C   UNL     1     -11.932  14.016  69.286  1.00  0.00    -0.353 C  
BRANCH  24  25
HETATM   25  C   UNL     1     -11.805  15.503  68.967  1.00  0.00    -0.354 C  
HETATM   26  O   UNL     1     -11.298  15.633  67.618  1.00  0.00    -0.313 OA 
HETATM   27  C   UNL     1     -10.502  17.457  68.915  1.00  0.00    -0.312 C  
HETATM   28  C   UNL     1     -10.498  16.822  67.541  1.00  0.00    -0.319 C  
HETATM   29  C   UNL     1     -10.833  16.295  69.825  1.00  0.00    -0.356 C  
ENDBRANCH  24  25
ENDBRANCH  23  24
ENDBRANCH  22  23
ENDBRANCH   3  22
TORSDOF 9
ENDMDL
MODEL      160
REMARK 921   NORMALIZED FREE ENERGY PREDICTED BY IDOCK:   -4.14 KCAL/MOL
REMARK 922        TOTAL FREE ENERGY PREDICTED BY IDOCK:   -7.55 KCAL/MOL
REMARK 923 INTER-LIGAND FREE ENERGY PREDICTED BY IDOCK:   -6.70 KCAL/MOL
REMARK 924 INTRA-LIGAND FREE ENERGY PREDICTED BY IDOCK:   -0.85 KCAL/MOL
REMARK 927      BINDING AFFINITY PREDICTED BY RF-SCORE:    0.00 PKD
ROOT
HETATM    1  C   UNL     1      -7.651  10.144  68.986  1.00  0.00    -0.096 C  
HETATM    2  C   UNL     1      -8.895  10.112  68.117  1.00  0.00    -0.126 C  
HETATM    3  C   UNL     1      -9.390  11.205  67.464  1.00  0.00    -0.168 C  
ENDROOT
BRANCH   2   4
HETATM    4  N   UNL     1      -9.412   8.821  67.967  1.00  0.00    -0.142 N  
HETATM    5  C   UNL     1      -8.733   7.874  67.213  1.00  0.00    -0.131 C  
HETATM    6  O   UNL     1      -9.127   6.729  67.008  1.00  0.00    -0.124 OA 
BRANCH   4   7
HETATM    7  C   UNL     1     -10.773   8.506  68.429  1.00  0.00    -0.032 C  
BRANCH   7   8
HETATM    8  C   UNL     1     -10.928   8.086  69.872  1.00  0.00    -0.172 A  
HETATM    9  H2  UNL     1     -11.376  10.703  69.983  1.00  0.00     0.000 HD 
HETATM   10  H1  UNL     1     -11.459  10.958  71.700  1.00  0.00     0.000 HD 
HETATM   11  N   UNL     1     -11.331  10.310  70.923  1.00  0.00    -0.336 NA 
HETATM   12  C   UNL     1     -11.116   9.039  71.014  1.00  0.00    -0.289 A  
HETATM   13  C   UNL     1     -10.637   6.825  70.277  1.00  0.00    -0.215 A  
HETATM   14  N   UNL     1     -10.447   6.364  71.571  1.00  0.00    -0.214 NA 
HETATM   15  C   UNL     1     -10.250   6.864  73.945  1.00  0.00    -0.401 C  
HETATM   16  N   UNL     1     -11.014   8.515  72.271  1.00  0.00    -0.359 NA 
HETATM   17  C   UNL     1     -10.614   7.236  72.524  1.00  0.00    -0.247 A  
ENDBRANCH   7   8
ENDBRANCH   4   7
ENDBRANCH   2   4
BRANCH   3  18
HETATM   18  C   UNL     1     -10.431  11.145  66.342  1.00  0.00    -0.311 C  
BRANCH  18  19
HETATM   19  C   UNL     1      -9.923  10.573  65.004  1.00  0.00    -0.322 C  
HETATM   20  H   UNL     1      -8.188  10.276  64.114  1.00  0.00     0.000 HD 
HETATM   21  O   UNL     1      -8.501  10.629  64.938  1.00  0.00    -0.172 OA 
ENDBRANCH  18  19
ENDBRANCH   3  18
BRANCH   3  22
HETATM   22  S   UNL     1      -8.751  12.798  67.902  1.00  0.00    -0.195 SA 
BRANCH  22  23
HETATM   23  S   UNL     1      -9.767  14.040  66.619  1.00  0.00    -0.297 SA 
BRANCH  23  24
HETATM   24  C   UNL     1      -9.131  15.726  66.941  1.00  0.00    -0.235 C  
BRANCH  24  25
HETATM   25  C   UNL     1     -10.063  16.917  66.729  1.00  0.00    -0.294 C  
HETATM   26  O   UNL     1      -9.401  17.857  65.852  1.00  0.00    -0.520 OA 
HETATM   27  C   UNL     1     -10.781  19.061  67.365  1.00  0.00    -0.559 C  
HETATM   28  C   UNL     1      -9.818  19.185  66.204  1.00  0.00    -0.345 C  
HETATM   29  C   UNL     1     -10.416  17.723  67.968  1.00  0.00    -0.399 C  
ENDBRANCH  24  25
ENDBRANCH  23  24
ENDBRANCH  22  23
ENDBRANCH   3  22
TORSDOF 9
ENDMDL
MODEL      161
REMARK 921   NORMALIZED FREE ENERGY PREDICTED BY IDOCK:   -4.13 KCAL/MOL
REMARK 922        TOTAL FREE ENERGY PREDICTED BY IDOCK:   -7.55 KCAL/MOL
REMARK 923 INTER-LIGAND FREE ENERGY PREDICTED BY IDOCK:   -6.12 KCAL/MOL
REMARK 924 INTRA-LIGAND FREE ENERGY PREDICTED BY IDOCK:   -1.43 KCAL/MOL
REMARK 927      BINDING AFFINITY PREDICTED BY RF-SCORE:    0.00 PKD
ROOT
HETATM    1  C   UNL     1      -9.399  10.583  64.576  1.00  0.00    -0.299 C  
HETATM    2  C   UNL     1      -9.031  11.032  65.978  1.00  0.00    -0.197 C  
HETATM    3  C   UNL     1      -9.748  11.950  66.691  1.00  0.00    -0.205 C  
ENDROOT
BRANCH   2   4
HETATM    4  N   UNL     1      -7.945  10.321  66.501  1.00  0.00    -0.115 N  
HETATM    5  C   UNL     1      -6.698  10.921  66.610  1.00  0.00    -0.127 C  
HETATM    6  O   UNL     1      -5.688  10.363  67.030  1.00  0.00    -0.045 OA 
BRANCH   4   7
HETATM    7  C   UNL     1      -8.053   8.876  66.750  1.00  0.00    -0.111 C  
BRANCH   7   8
HETATM    8  C   UNL     1      -8.693   8.448  68.050  1.00  0.00    -0.139 A  
HETATM    9  H2  UNL     1     -10.543   7.798  66.256  1.00  0.00     0.000 HD 
HETATM   10  H1  UNL     1     -11.864   7.334  67.287  1.00  0.00     0.000 HD 
HETATM   11  N   UNL     1     -10.904   7.671  67.201  1.00  0.00    -0.277 NA 
HETATM   12  C   UNL     1     -10.103   7.953  68.175  1.00  0.00    -0.191 A  
HETATM   13  C   UNL     1      -8.126   8.738  69.247  1.00  0.00    -0.110 A  
HETATM   14  N   UNL     1      -8.706   8.682  70.505  1.00  0.00    -0.149 NA 
HETATM   15  C   UNL     1     -10.699   8.334  71.859  1.00  0.00    -0.350 C  
HETATM   16  N   UNL     1     -10.597   7.824  69.442  1.00  0.00    -0.224 NA 
HETATM   17  C   UNL     1      -9.936   8.254  70.555  1.00  0.00    -0.184 A  
ENDBRANCH   7   8
ENDBRANCH   4   7
ENDBRANCH   2   4
BRANCH   3  18
HETATM   18  C   UNL     1      -9.598  12.185  68.198  1.00  0.00    -0.208 C  
BRANCH  18  19
HETATM   19  C   UNL     1     -10.623  11.446  69.082  1.00  0.00    -0.160 C  
HETATM   20  H   UNL     1     -12.449  10.722  68.899  1.00  0.00     0.000 HD 
HETATM   21  O   UNL     1     -11.817  11.177  68.354  1.00  0.00    -0.495 OA 
ENDBRANCH  18  19
ENDBRANCH   3  18
BRANCH   3  22
HETATM   22  S   UNL     1     -10.972  12.902  65.834  1.00  0.00    -0.281 SA 
BRANCH  22  23
HETATM   23  S   UNL     1     -10.124  14.773  65.805  1.00  0.00    -0.361 SA 
BRANCH  23  24
HETATM   24  C   UNL     1     -11.020  15.751  67.066  1.00  0.00    -0.221 C  
BRANCH  24  25
HETATM   25  C   UNL     1     -10.913  15.334  68.531  1.00  0.00    -0.266 C  
HETATM   26  O   UNL     1     -12.097  14.577  68.873  1.00  0.00    -0.301 OA 
HETATM   27  C   UNL     1     -11.367  15.766  70.795  1.00  0.00    -0.419 C  
HETATM   28  C   UNL     1     -12.408  14.809  70.255  1.00  0.00    -0.345 C  
HETATM   29  C   UNL     1     -10.865  16.461  69.549  1.00  0.00    -0.338 C  
ENDBRANCH  24  25
ENDBRANCH  23  24
ENDBRANCH  22  23
ENDBRANCH   3  22
TORSDOF 9
ENDMDL
MODEL      162
REMARK 921   NORMALIZED FREE ENERGY PREDICTED BY IDOCK:   -4.13 KCAL/MOL
REMARK 922        TOTAL FREE ENERGY PREDICTED BY IDOCK:   -7.55 KCAL/MOL
REMARK 923 INTER-LIGAND FREE ENERGY PREDICTED BY IDOCK:   -7.23 KCAL/MOL
REMARK 924 INTRA-LIGAND FREE ENERGY PREDICTED BY IDOCK:   -0.31 KCAL/MOL
REMARK 927      BINDING AFFINITY PREDICTED BY RF-SCORE:    0.00 PKD
ROOT
HETATM    1  C   UNL     1     -11.264  16.002  69.019  1.00  0.00    -0.347 C  
HETATM    2  C   UNL     1      -9.995  15.272  68.620  1.00  0.00    -0.216 C  
HETATM    3  C   UNL     1      -9.985  14.096  67.925  1.00  0.00    -0.231 C  
ENDROOT
BRANCH   2   4
HETATM    4  N   UNL     1      -8.839  15.991  68.941  1.00  0.00    -0.219 N  
HETATM    5  C   UNL     1      -7.734  15.344  69.477  1.00  0.00    -0.210 C  
HETATM    6  O   UNL     1      -6.692  15.901  69.812  1.00  0.00    -0.187 OA 
BRANCH   4   7
HETATM    7  C   UNL     1      -8.846  17.462  68.913  1.00  0.00    -0.153 C  
BRANCH   7   8
HETATM    8  C   UNL     1      -7.941  18.133  67.906  1.00  0.00    -0.249 A  
HETATM    9  H2  UNL     1      -7.592  19.625  70.077  1.00  0.00     0.000 HD 
HETATM   10  H1  UNL     1      -6.628  20.924  69.441  1.00  0.00     0.000 HD 
HETATM   11  N   UNL     1      -7.123  20.048  69.276  1.00  0.00    -0.235 NA 
HETATM   12  C   UNL     1      -7.215  19.421  68.149  1.00  0.00    -0.287 A  
HETATM   13  C   UNL     1      -7.934  17.759  66.602  1.00  0.00    -0.251 A  
HETATM   14  N   UNL     1      -7.400  18.440  65.519  1.00  0.00    -0.531 NA 
HETATM   15  C   UNL     1      -6.338  20.451  64.650  1.00  0.00    -0.342 C  
HETATM   16  N   UNL     1      -6.624  20.005  67.065  1.00  0.00    -0.204 NA 
HETATM   17  C   UNL     1      -6.787  19.559  65.787  1.00  0.00    -0.278 A  
ENDBRANCH   7   8
ENDBRANCH   4   7
ENDBRANCH   2   4
BRANCH   3  18
HETATM   18  C   UNL     1      -8.750  13.508  67.236  1.00  0.00    -0.228 C  
BRANCH  18  19
HETATM   19  C   UNL     1      -8.585  11.981  67.376  1.00  0.00    -0.171 C  
HETATM   20  H   UNL     1      -7.690  10.721  68.601  1.00  0.00     0.000 HD 
HETATM   21  O   UNL     1      -7.792  11.661  68.515  1.00  0.00    -0.129 OA 
ENDBRANCH  18  19
ENDBRANCH   3  18
BRANCH   3  22
HETATM   22  S   UNL     1     -11.512  13.211  67.761  1.00  0.00    -0.334 SA 
BRANCH  22  23
HETATM   23  S   UNL     1     -11.766  12.432  69.645  1.00  0.00    -0.269 SA 
BRANCH  23  24
HETATM   24  C   UNL     1     -10.938  10.800  69.630  1.00  0.00    -0.264 C  
BRANCH  24  25
HETATM   25  C   UNL     1     -11.602   9.632  70.356  1.00  0.00    -0.236 C  
HETATM   26  O   UNL     1     -12.926  10.048  70.763  1.00  0.00    -0.330 OA 
HETATM   27  C   UNL     1     -12.081   8.506  72.361  1.00  0.00    -0.436 C  
HETATM   28  C   UNL     1     -13.262   9.376  71.986  1.00  0.00    -0.449 C  
HETATM   29  C   UNL     1     -10.929   9.166  71.636  1.00  0.00    -0.445 C  
ENDBRANCH  24  25
ENDBRANCH  23  24
ENDBRANCH  22  23
ENDBRANCH   3  22
TORSDOF 9
ENDMDL
MODEL      163
REMARK 921   NORMALIZED FREE ENERGY PREDICTED BY IDOCK:   -4.11 KCAL/MOL
REMARK 922        TOTAL FREE ENERGY PREDICTED BY IDOCK:   -7.52 KCAL/MOL
REMARK 923 INTER-LIGAND FREE ENERGY PREDICTED BY IDOCK:   -6.63 KCAL/MOL
REMARK 924 INTRA-LIGAND FREE ENERGY PREDICTED BY IDOCK:   -0.89 KCAL/MOL
REMARK 927      BINDING AFFINITY PREDICTED BY RF-SCORE:    0.00 PKD
ROOT
HETATM    1  C   UNL     1      -8.688  12.745  67.532  1.00  0.00    -0.185 C  
HETATM    2  C   UNL     1     -10.073  12.745  66.913  1.00  0.00    -0.232 C  
HETATM    3  C   UNL     1     -10.403  12.032  65.796  1.00  0.00    -0.254 C  
ENDROOT
BRANCH   2   4
HETATM    4  N   UNL     1     -11.001  13.464  67.675  1.00  0.00    -0.254 N  
HETATM    5  C   UNL     1     -11.527  12.922  68.838  1.00  0.00    -0.304 C  
HETATM    6  O   UNL     1     -12.364  13.471  69.550  1.00  0.00    -0.268 OA 
BRANCH   4   7
HETATM    7  C   UNL     1     -11.587  14.709  67.153  1.00  0.00    -0.378 C  
BRANCH   7   8
HETATM    8  C   UNL     1     -10.736  15.955  67.233  1.00  0.00    -0.306 A  
HETATM    9  H2  UNL     1     -11.582  15.672  69.737  1.00  0.00     0.000 HD 
HETATM   10  H1  UNL     1     -11.010  17.149  70.454  1.00  0.00     0.000 HD 
HETATM   11  N   UNL     1     -11.088  16.558  69.626  1.00  0.00    -0.292 NA 
HETATM   12  C   UNL     1     -10.622  16.823  68.450  1.00  0.00    -0.354 A  
HETATM   13  C   UNL     1     -10.222  16.534  66.120  1.00  0.00    -0.346 A  
HETATM   14  N   UNL     1      -9.683  17.804  65.987  1.00  0.00    -0.533 NA 
HETATM   15  C   UNL     1      -9.212  19.975  66.983  1.00  0.00    -0.491 C  
HETATM   16  N   UNL     1      -9.996  18.026  68.287  1.00  0.00    -0.349 NA 
HETATM   17  C   UNL     1      -9.616  18.519  67.074  1.00  0.00    -0.298 A  
ENDBRANCH   7   8
ENDBRANCH   4   7
ENDBRANCH   2   4
BRANCH   3  18
HETATM   18  C   UNL     1     -11.839  11.755  65.338  1.00  0.00    -0.029 C  
BRANCH  18  19
HETATM   19  C   UNL     1     -12.222  12.364  63.975  1.00  0.00    -0.490 C  
HETATM   20  H   UNL     1     -13.030  14.033  63.302  1.00  0.00     0.000 HD 
HETATM   21  O   UNL     1     -12.794  13.657  64.142  1.00  0.00    -0.611 OA 
ENDBRANCH  18  19
ENDBRANCH   3  18
BRANCH   3  22
HETATM   22  S   UNL     1      -9.089  11.332  64.835  1.00  0.00     0.035 SA 
BRANCH  22  23
HETATM   23  S   UNL     1      -9.104   9.370  65.446  1.00  0.00    -0.233 SA 
BRANCH  23  24
HETATM   24  C   UNL     1      -7.681   8.574  64.614  1.00  0.00    -0.116 C  
BRANCH  24  25
HETATM   25  C   UNL     1      -7.900   7.245  63.895  1.00  0.00    -0.111 C  
HETATM   26  O   UNL     1      -7.472   6.180  64.776  1.00  0.00    -0.074 OA 
HETATM   27  C   UNL     1      -7.070   5.524  62.528  1.00  0.00    -0.041 C  
HETATM   28  C   UNL     1      -6.961   5.102  63.978  1.00  0.00    -0.048 C  
HETATM   29  C   UNL     1      -7.107   7.034  62.616  1.00  0.00    -0.062 C  
ENDBRANCH  24  25
ENDBRANCH  23  24
ENDBRANCH  22  23
ENDBRANCH   3  22
TORSDOF 9
ENDMDL
MODEL      164
REMARK 921   NORMALIZED FREE ENERGY PREDICTED BY IDOCK:   -4.10 KCAL/MOL
REMARK 922        TOTAL FREE ENERGY PREDICTED BY IDOCK:   -7.50 KCAL/MOL
REMARK 923 INTER-LIGAND FREE ENERGY PREDICTED BY IDOCK:   -7.84 KCAL/MOL
REMARK 924 INTRA-LIGAND FREE ENERGY PREDICTED BY IDOCK:    0.33 KCAL/MOL
REMARK 927      BINDING AFFINITY PREDICTED BY RF-SCORE:    0.00 PKD
ROOT
HETATM    1  C   UNL     1      -9.894  11.319  68.016  1.00  0.00    -0.186 C  
HETATM    2  C   UNL     1     -10.678  12.325  68.837  1.00  0.00    -0.172 C  
HETATM    3  C   UNL     1     -10.579  13.677  68.672  1.00  0.00    -0.248 C  
ENDROOT
BRANCH   2   4
HETATM    4  N   UNL     1     -11.595  11.716  69.700  1.00  0.00    -0.313 N  
HETATM    5  C   UNL     1     -12.269  12.465  70.654  1.00  0.00    -0.278 C  
HETATM    6  O   UNL     1     -13.068  12.007  71.467  1.00  0.00    -0.390 OA 
BRANCH   4   7
HETATM    7  C   UNL     1     -11.707  10.250  69.752  1.00  0.00    -0.191 C  
BRANCH   7   8
HETATM    8  C   UNL     1     -11.197   9.566  70.999  1.00  0.00    -0.432 A  
HETATM    9  H2  UNL     1      -8.954  10.096  69.676  1.00  0.00     0.000 HD 
HETATM   10  H1  UNL     1      -7.783   9.259  70.650  1.00  0.00     0.000 HD 
HETATM   11  N   UNL     1      -8.757   9.518  70.493  1.00  0.00    -0.229 NA 
HETATM   12  C   UNL     1      -9.766   9.185  71.229  1.00  0.00    -0.281 A  
HETATM   13  C   UNL     1     -12.046   9.000  71.893  1.00  0.00    -0.378 A  
HETATM   14  N   UNL     1     -11.747   8.105  72.909  1.00  0.00    -0.282 NA 
HETATM   15  C   UNL     1     -10.099   6.698  74.019  1.00  0.00    -0.373 C  
HETATM   16  N   UNL     1      -9.511   8.377  72.301  1.00  0.00    -0.271 NA 
HETATM   17  C   UNL     1     -10.489   7.801  73.058  1.00  0.00    -0.369 A  
ENDBRANCH   7   8
ENDBRANCH   4   7
ENDBRANCH   2   4
BRANCH   3  18
HETATM   18  C   UNL     1     -11.571  14.695  69.244  1.00  0.00    -0.335 C  
BRANCH  18  19
HETATM   19  C   UNL     1     -10.947  15.800  70.119  1.00  0.00    -0.352 C  
HETATM   20  H   UNL     1     -10.954  16.329  72.019  1.00  0.00     0.000 HD 
HETATM   21  O   UNL     1     -11.339  15.649  71.480  1.00  0.00    -0.381 OA 
ENDBRANCH  18  19
ENDBRANCH   3  18
BRANCH   3  22
HETATM   22  S   UNL     1      -9.244  14.302  67.688  1.00  0.00    -0.203 SA 
BRANCH  22  23
HETATM   23  S   UNL     1     -10.239  15.224  66.145  1.00  0.00    -0.327 SA 
BRANCH  23  24
HETATM   24  C   UNL     1     -10.407  16.980  66.633  1.00  0.00    -0.299 C  
BRANCH  24  25
HETATM   25  C   UNL     1      -9.148  17.836  66.745  1.00  0.00    -0.262 C  
HETATM   26  O   UNL     1      -8.143  17.278  65.866  1.00  0.00    -0.529 OA 
HETATM   27  C   UNL     1      -7.063  18.247  67.747  1.00  0.00    -0.213 C  
HETATM   28  C   UNL     1      -6.849  17.513  66.440  1.00  0.00    -0.273 C  
HETATM   29  C   UNL     1      -8.485  17.883  68.111  1.00  0.00    -0.268 C  
ENDBRANCH  24  25
ENDBRANCH  23  24
ENDBRANCH  22  23
ENDBRANCH   3  22
TORSDOF 9
ENDMDL
MODEL      165
REMARK 921   NORMALIZED FREE ENERGY PREDICTED BY IDOCK:   -4.10 KCAL/MOL
REMARK 922        TOTAL FREE ENERGY PREDICTED BY IDOCK:   -7.50 KCAL/MOL
REMARK 923 INTER-LIGAND FREE ENERGY PREDICTED BY IDOCK:   -6.58 KCAL/MOL
REMARK 924 INTRA-LIGAND FREE ENERGY PREDICTED BY IDOCK:   -0.93 KCAL/MOL
REMARK 927      BINDING AFFINITY PREDICTED BY RF-SCORE:    0.00 PKD
ROOT
HETATM    1  C   UNL     1     -10.767   9.032  67.443  1.00  0.00    -0.231 C  
HETATM    2  C   UNL     1     -10.184   9.400  68.795  1.00  0.00    -0.203 C  
HETATM    3  C   UNL     1      -9.246   8.650  69.444  1.00  0.00    -0.150 C  
ENDROOT
BRANCH   2   4
HETATM    4  N   UNL     1     -10.630  10.646  69.250  1.00  0.00    -0.220 N  
HETATM    5  C   UNL     1     -11.736  10.737  70.082  1.00  0.00    -0.339 C  
HETATM    6  O   UNL     1     -12.210  11.788  70.504  1.00  0.00    -0.358 OA 
BRANCH   4   7
HETATM    7  C   UNL     1     -10.067  11.886  68.693  1.00  0.00    -0.177 C  
BRANCH   7   8
HETATM    8  C   UNL     1     -10.713  12.431  67.440  1.00  0.00    -0.257 A  
HETATM    9  H2  UNL     1      -8.540  11.228  66.492  1.00  0.00     0.000 HD 
HETATM   10  H1  UNL     1      -8.585  11.719  64.825  1.00  0.00     0.000 HD 
HETATM   11  N   UNL     1      -9.010  11.750  65.752  1.00  0.00    -0.082 NA 
HETATM   12  C   UNL     1     -10.087  12.385  66.079  1.00  0.00    -0.251 A  
HETATM   13  C   UNL     1     -11.793  13.248  67.499  1.00  0.00    -0.358 A  
HETATM   14  N   UNL     1     -12.316  14.049  66.496  1.00  0.00    -0.449 NA 
HETATM   15  C   UNL     1     -12.119  14.949  64.242  1.00  0.00    -0.373 C  
HETATM   16  N   UNL     1     -10.696  13.118  65.100  1.00  0.00    -0.304 NA 
HETATM   17  C   UNL     1     -11.728  13.978  65.335  1.00  0.00    -0.342 A  
ENDBRANCH   7   8
ENDBRANCH   4   7
ENDBRANCH   2   4
BRANCH   3  18
HETATM   18  C   UNL     1      -8.413   9.142  70.632  1.00  0.00    -0.246 C  
BRANCH  18  19
HETATM   19  C   UNL     1      -8.608   8.353  71.941  1.00  0.00    -0.186 C  
HETATM   20  H   UNL     1     -10.052   8.029  73.245  1.00  0.00     0.000 HD 
HETATM   21  O   UNL     1      -9.933   8.515  72.438  1.00  0.00    -0.302 OA 
ENDBRANCH  18  19
ENDBRANCH   3  18
BRANCH   3  22
HETATM   22  S   UNL     1      -8.926   7.013  68.844  1.00  0.00    -0.127 SA 
BRANCH  22  23
HETATM   23  S   UNL     1     -10.562   5.975  69.526  1.00  0.00    -0.331 SA 
BRANCH  23  24
HETATM   24  C   UNL     1      -9.904   4.460  70.315  1.00  0.00    -0.214 C  
BRANCH  24  25
HETATM   25  C   UNL     1      -9.907   4.364  71.839  1.00  0.00    -0.180 C  
HETATM   26  O   UNL     1     -10.201   2.995  72.204  1.00  0.00    -0.156 OA 
HETATM   27  C   UNL     1     -11.089   4.439  73.868  1.00  0.00    -0.264 C  
HETATM   28  C   UNL     1     -10.920   2.995  73.446  1.00  0.00    -0.200 C  
HETATM   29  C   UNL     1     -10.955   5.192  72.563  1.00  0.00    -0.276 C  
ENDBRANCH  24  25
ENDBRANCH  23  24
ENDBRANCH  22  23
ENDBRANCH   3  22
TORSDOF 9
ENDMDL
MODEL      166
REMARK 921   NORMALIZED FREE ENERGY PREDICTED BY IDOCK:   -4.10 KCAL/MOL
REMARK 922        TOTAL FREE ENERGY PREDICTED BY IDOCK:   -7.49 KCAL/MOL
REMARK 923 INTER-LIGAND FREE ENERGY PREDICTED BY IDOCK:   -6.31 KCAL/MOL
REMARK 924 INTRA-LIGAND FREE ENERGY PREDICTED BY IDOCK:   -1.18 KCAL/MOL
REMARK 927      BINDING AFFINITY PREDICTED BY RF-SCORE:    0.00 PKD
ROOT
HETATM    1  C   UNL     1     -11.732  13.064  67.160  1.00  0.00    -0.439 C  
HETATM    2  C   UNL     1     -10.354  12.439  67.278  1.00  0.00    -0.215 C  
HETATM    3  C   UNL     1      -9.312  13.025  67.937  1.00  0.00    -0.212 C  
ENDROOT
BRANCH   2   4
HETATM    4  N   UNL     1     -10.302  11.150  66.737  1.00  0.00    -0.232 N  
HETATM    5  C   UNL     1      -9.593  10.904  65.570  1.00  0.00    -0.221 C  
HETATM    6  O   UNL     1      -9.518   9.812  65.013  1.00  0.00    -0.252 OA 
BRANCH   4   7
HETATM    7  C   UNL     1     -11.160  10.082  67.274  1.00  0.00    -0.044 C  
BRANCH   7   8
HETATM    8  C   UNL     1     -10.792   9.521  68.628  1.00  0.00    -0.177 A  
HETATM    9  H2  UNL     1     -12.620  11.350  69.242  1.00  0.00     0.000 HD 
HETATM   10  H1  UNL     1     -12.528  11.348  70.977  1.00  0.00     0.000 HD 
HETATM   11  N   UNL     1     -12.193  10.974  70.089  1.00  0.00    -0.330 NA 
HETATM   12  C   UNL     1     -11.282  10.071  69.933  1.00  0.00    -0.275 A  
HETATM   13  C   UNL     1      -9.769   8.642  68.774  1.00  0.00    -0.166 A  
HETATM   14  N   UNL     1      -9.126   8.264  69.944  1.00  0.00    -0.146 NA 
HETATM   15  C   UNL     1      -8.833   8.564  72.342  1.00  0.00    -0.268 C  
HETATM   16  N   UNL     1     -10.681   9.595  71.063  1.00  0.00    -0.331 NA 
HETATM   17  C   UNL     1      -9.588   8.780  71.048  1.00  0.00    -0.229 A  
ENDBRANCH   7   8
ENDBRANCH   4   7
ENDBRANCH   2   4
BRANCH   3  18
HETATM   18  C   UNL     1      -8.028  12.296  68.349  1.00  0.00    -0.152 C  
BRANCH  18  19
HETATM   19  C   UNL     1      -6.848  12.442  67.367  1.00  0.00    -0.147 C  
HETATM   20  H   UNL     1      -5.225  13.549  67.196  1.00  0.00     0.000 HD 
HETATM   21  O   UNL     1      -5.952  13.460  67.801  1.00  0.00    -0.134 OA 
ENDBRANCH  18  19
ENDBRANCH   3  18
BRANCH   3  22
HETATM   22  S   UNL     1      -9.468  14.728  68.398  1.00  0.00    -0.218 SA 
BRANCH  22  23
HETATM   23  S   UNL     1      -8.971  15.696  66.655  1.00  0.00    -0.310 SA 
BRANCH  23  24
HETATM   24  C   UNL     1      -7.635  16.867  67.093  1.00  0.00    -0.179 C  
BRANCH  24  25
HETATM   25  C   UNL     1      -7.895  18.365  66.955  1.00  0.00    -0.234 C  
HETATM   26  O   UNL     1      -7.577  18.754  65.598  1.00  0.00    -0.494 OA 
HETATM   27  C   UNL     1      -7.100  20.574  67.050  1.00  0.00    -0.351 C  
HETATM   28  C   UNL     1      -7.092  20.105  65.610  1.00  0.00    -0.292 C  
HETATM   29  C   UNL     1      -7.051  19.278  67.828  1.00  0.00    -0.264 C  
ENDBRANCH  24  25
ENDBRANCH  23  24
ENDBRANCH  22  23
ENDBRANCH   3  22
TORSDOF 9
ENDMDL
MODEL      167
REMARK 921   NORMALIZED FREE ENERGY PREDICTED BY IDOCK:   -4.09 KCAL/MOL
REMARK 922        TOTAL FREE ENERGY PREDICTED BY IDOCK:   -7.49 KCAL/MOL
REMARK 923 INTER-LIGAND FREE ENERGY PREDICTED BY IDOCK:   -7.12 KCAL/MOL
REMARK 924 INTRA-LIGAND FREE ENERGY PREDICTED BY IDOCK:   -0.37 KCAL/MOL
REMARK 927      BINDING AFFINITY PREDICTED BY RF-SCORE:    0.00 PKD
ROOT
HETATM    1  C   UNL     1      -9.591  10.670  69.155  1.00  0.00    -0.193 C  
HETATM    2  C   UNL     1      -9.984   9.792  70.329  1.00  0.00    -0.253 C  
HETATM    3  C   UNL     1      -9.082   9.165  71.141  1.00  0.00    -0.205 C  
ENDROOT
BRANCH   2   4
HETATM    4  N   UNL     1     -11.365   9.785  70.555  1.00  0.00    -0.291 N  
HETATM    5  C   UNL     1     -11.955   8.759  71.278  1.00  0.00    -0.301 C  
HETATM    6  O   UNL     1     -13.159   8.661  71.499  1.00  0.00    -0.326 OA 
BRANCH   4   7
HETATM    7  C   UNL     1     -12.236  10.746  69.860  1.00  0.00    -0.313 C  
BRANCH   7   8
HETATM    8  C   UNL     1     -12.574  12.022  70.595  1.00  0.00    -0.255 A  
HETATM    9  H2  UNL     1     -11.168  12.907  68.521  1.00  0.00     0.000 HD 
HETATM   10  H1  UNL     1     -10.992  14.589  68.926  1.00  0.00     0.000 HD 
HETATM   11  N   UNL     1     -11.358  13.668  69.173  1.00  0.00    -0.273 NA 
HETATM   12  C   UNL     1     -12.037  13.374  70.232  1.00  0.00    -0.349 A  
HETATM   13  C   UNL     1     -13.176  12.001  71.810  1.00  0.00    -0.317 A  
HETATM   14  N   UNL     1     -13.289  13.034  72.728  1.00  0.00    -0.418 NA 
HETATM   15  C   UNL     1     -12.716  15.311  73.373  1.00  0.00    -0.661 C  
HETATM   16  N   UNL     1     -12.258  14.382  71.128  1.00  0.00    -0.334 NA 
HETATM   17  C   UNL     1     -12.797  14.185  72.365  1.00  0.00    -0.337 A  
ENDBRANCH   7   8
ENDBRANCH   4   7
ENDBRANCH   2   4
BRANCH   3  18
HETATM   18  C   UNL     1      -9.425   8.548  72.501  1.00  0.00    -0.328 C  
BRANCH  18  19
HETATM   19  C   UNL     1      -8.234   7.928  73.258  1.00  0.00    -0.182 C  
HETATM   20  H   UNL     1      -7.186   8.310  74.886  1.00  0.00     0.000 HD 
HETATM   21  O   UNL     1      -7.920   8.692  74.419  1.00  0.00    -0.366 OA 
ENDBRANCH  18  19
ENDBRANCH   3  18
BRANCH   3  22
HETATM   22  S   UNL     1      -7.390   9.105  70.618  1.00  0.00    -0.123 SA 
BRANCH  22  23
HETATM   23  S   UNL     1      -7.401   7.533  69.296  1.00  0.00    -0.091 SA 
BRANCH  23  24
HETATM   24  C   UNL     1      -8.607   6.327  69.958  1.00  0.00    -0.134 C  
BRANCH  24  25
HETATM   25  C   UNL     1      -9.832   5.974  69.117  1.00  0.00    -0.148 C  
HETATM   26  O   UNL     1      -9.520   4.798  68.336  1.00  0.00    -0.129 OA 
HETATM   27  C   UNL     1     -11.024   6.161  67.102  1.00  0.00    -0.420 C  
HETATM   28  C   UNL     1     -10.235   4.869  67.093  1.00  0.00    -0.162 C  
HETATM   29  C   UNL     1     -10.270   7.013  68.098  1.00  0.00    -0.211 C  
ENDBRANCH  24  25
ENDBRANCH  23  24
ENDBRANCH  22  23
ENDBRANCH   3  22
TORSDOF 9
ENDMDL
MODEL      168
REMARK 921   NORMALIZED FREE ENERGY PREDICTED BY IDOCK:   -4.08 KCAL/MOL
REMARK 922        TOTAL FREE ENERGY PREDICTED BY IDOCK:   -7.46 KCAL/MOL
REMARK 923 INTER-LIGAND FREE ENERGY PREDICTED BY IDOCK:   -6.56 KCAL/MOL
REMARK 924 INTRA-LIGAND FREE ENERGY PREDICTED BY IDOCK:   -0.90 KCAL/MOL
REMARK 927      BINDING AFFINITY PREDICTED BY RF-SCORE:    0.00 PKD
ROOT
HETATM    1  C   UNL     1      -9.932   9.989  69.943  1.00  0.00    -0.280 C  
HETATM    2  C   UNL     1      -9.636  10.097  68.458  1.00  0.00    -0.154 C  
HETATM    3  C   UNL     1     -10.411  10.801  67.582  1.00  0.00    -0.214 C  
ENDROOT
BRANCH   2   4
HETATM    4  N   UNL     1      -8.424   9.492  68.108  1.00  0.00    -0.119 N  
HETATM    5  C   UNL     1      -7.234  10.201  68.189  1.00  0.00    -0.081 C  
HETATM    6  O   UNL     1      -6.132   9.758  67.876  1.00  0.00    -0.050 OA 
BRANCH   4   7
HETATM    7  C   UNL     1      -8.411   8.174  67.455  1.00  0.00    -0.126 C  
BRANCH   7   8
HETATM    8  C   UNL     1      -8.831   6.989  68.293  1.00  0.00    -0.126 A  
HETATM    9  H2  UNL     1     -10.875   7.260  66.617  1.00  0.00     0.000 HD 
HETATM   10  H1  UNL     1     -12.003   6.111  67.272  1.00  0.00     0.000 HD 
HETATM   11  N   UNL     1     -11.088   6.560  67.328  1.00  0.00    -0.390 NA 
HETATM   12  C   UNL     1     -10.174   6.329  68.212  1.00  0.00    -0.169 A  
HETATM   13  C   UNL     1      -8.116   6.602  69.379  1.00  0.00    -0.119 A  
HETATM   14  N   UNL     1      -8.505   5.747  70.400  1.00  0.00    -0.127 NA 
HETATM   15  C   UNL     1     -10.257   4.411  71.435  1.00  0.00    -0.153 C  
HETATM   16  N   UNL     1     -10.472   5.422  69.189  1.00  0.00    -0.230 NA 
HETATM   17  C   UNL     1      -9.686   5.209  70.282  1.00  0.00    -0.203 A  
ENDBRANCH   7   8
ENDBRANCH   4   7
ENDBRANCH   2   4
BRANCH   3  18
HETATM   18  C   UNL     1      -9.978  11.194  66.166  1.00  0.00    -0.273 C  
BRANCH  18  19
HETATM   19  C   UNL     1     -11.010  12.015  65.368  1.00  0.00    -0.300 C  
HETATM   20  H   UNL     1     -11.511  12.284  63.480  1.00  0.00     0.000 HD 
HETATM   21  O   UNL     1     -10.874  11.778  63.971  1.00  0.00    -0.322 OA 
ENDBRANCH  18  19
ENDBRANCH   3  18
BRANCH   3  22
HETATM   22  S   UNL     1     -12.006  11.344  68.129  1.00  0.00     0.021 SA 
BRANCH  22  23
HETATM   23  S   UNL     1     -11.581  13.181  68.946  1.00  0.00    -0.330 SA 
BRANCH  23  24
HETATM   24  C   UNL     1     -12.304  13.163  70.628  1.00  0.00    -0.326 C  
BRANCH  24  25
HETATM   25  C   UNL     1     -12.874  14.460  71.196  1.00  0.00    -0.347 C  
HETATM   26  O   UNL     1     -11.777  15.375  71.422  1.00  0.00    -0.322 OA 
HETATM   27  C   UNL     1     -13.453  15.770  73.058  1.00  0.00    -0.672 C  
HETATM   28  C   UNL     1     -12.093  16.202  72.552  1.00  0.00    -0.550 C  
HETATM   29  C   UNL     1     -13.574  14.354  72.541  1.00  0.00    -0.598 C  
ENDBRANCH  24  25
ENDBRANCH  23  24
ENDBRANCH  22  23
ENDBRANCH   3  22
TORSDOF 9
ENDMDL
MODEL      169
REMARK 921   NORMALIZED FREE ENERGY PREDICTED BY IDOCK:   -4.07 KCAL/MOL
REMARK 922        TOTAL FREE ENERGY PREDICTED BY IDOCK:   -7.45 KCAL/MOL
REMARK 923 INTER-LIGAND FREE ENERGY PREDICTED BY IDOCK:   -6.10 KCAL/MOL
REMARK 924 INTRA-LIGAND FREE ENERGY PREDICTED BY IDOCK:   -1.35 KCAL/MOL
REMARK 927      BINDING AFFINITY PREDICTED BY RF-SCORE:    0.00 PKD
ROOT
HETATM    1  C   UNL     1      -7.843   9.992  68.982  1.00  0.00    -0.101 C  
HETATM    2  C   UNL     1      -8.706   9.603  67.795  1.00  0.00    -0.122 C  
HETATM    3  C   UNL     1      -9.055  10.468  66.798  1.00  0.00    -0.151 C  
ENDROOT
BRANCH   2   4
HETATM    4  N   UNL     1      -9.008   8.237  67.777  1.00  0.00    -0.136 N  
HETATM    5  C   UNL     1      -8.122   7.328  67.217  1.00  0.00    -0.112 C  
HETATM    6  O   UNL     1      -8.319   6.119  67.134  1.00  0.00    -0.106 OA 
BRANCH   4   7
HETATM    7  C   UNL     1     -10.348   7.767  68.159  1.00  0.00    -0.200 C  
BRANCH   7   8
HETATM    8  C   UNL     1     -10.612   7.568  69.633  1.00  0.00    -0.243 A  
HETATM    9  H2  UNL     1     -11.183  10.141  69.288  1.00  0.00     0.000 HD 
HETATM   10  H1  UNL     1     -11.428  10.655  70.930  1.00  0.00     0.000 HD 
HETATM   11  N   UNL     1     -11.203   9.902  70.280  1.00  0.00    -0.280 NA 
HETATM   12  C   UNL     1     -10.941   8.675  70.590  1.00  0.00    -0.240 A  
HETATM   13  C   UNL     1     -10.301   6.404  70.257  1.00  0.00    -0.205 A  
HETATM   14  N   UNL     1     -10.206   6.162  71.619  1.00  0.00    -0.194 NA 
HETATM   15  C   UNL     1     -10.241   7.036  73.891  1.00  0.00    -0.388 C  
HETATM   16  N   UNL     1     -10.927   8.360  71.919  1.00  0.00    -0.282 NA 
HETATM   17  C   UNL     1     -10.495   7.161  72.404  1.00  0.00    -0.218 A  
ENDBRANCH   7   8
ENDBRANCH   4   7
ENDBRANCH   2   4
BRANCH   3  18
HETATM   18  C   UNL     1      -9.640  10.043  65.448  1.00  0.00    -0.342 C  
BRANCH  18  19
HETATM   19  C   UNL     1      -8.602   9.698  64.362  1.00  0.00    -0.191 C  
HETATM   20  H   UNL     1      -8.137   8.151  63.231  1.00  0.00     0.000 HD 
HETATM   21  O   UNL     1      -8.777   8.363  63.900  1.00  0.00     0.035 OA 
ENDBRANCH  18  19
ENDBRANCH   3  18
BRANCH   3  22
HETATM   22  S   UNL     1      -8.768  12.198  67.055  1.00  0.00    -0.191 SA 
BRANCH  22  23
HETATM   23  S   UNL     1     -10.609  12.854  67.686  1.00  0.00    -0.226 SA 
BRANCH  23  24
HETATM   24  C   UNL     1     -11.005  14.312  66.652  1.00  0.00    -0.310 C  
BRANCH  24  25
HETATM   25  C   UNL     1     -11.627  14.090  65.275  1.00  0.00    -0.337 C  
HETATM   26  O   UNL     1     -12.743  13.183  65.426  1.00  0.00    -0.487 OA 
HETATM   27  C   UNL     1     -11.757  12.838  63.292  1.00  0.00    -0.444 C  
HETATM   28  C   UNL     1     -12.863  12.399  64.229  1.00  0.00    -0.258 C  
HETATM   29  C   UNL     1     -10.736  13.440  64.231  1.00  0.00    -0.374 C  
ENDBRANCH  24  25
ENDBRANCH  23  24
ENDBRANCH  22  23
ENDBRANCH   3  22
TORSDOF 9
ENDMDL
MODEL      170
REMARK 921   NORMALIZED FREE ENERGY PREDICTED BY IDOCK:   -4.07 KCAL/MOL
REMARK 922        TOTAL FREE ENERGY PREDICTED BY IDOCK:   -7.45 KCAL/MOL
REMARK 923 INTER-LIGAND FREE ENERGY PREDICTED BY IDOCK:   -6.60 KCAL/MOL
REMARK 924 INTRA-LIGAND FREE ENERGY PREDICTED BY IDOCK:   -0.85 KCAL/MOL
REMARK 927      BINDING AFFINITY PREDICTED BY RF-SCORE:    0.00 PKD
ROOT
HETATM    1  C   UNL     1     -11.867  12.171  69.058  1.00  0.00    -0.361 C  
HETATM    2  C   UNL     1     -10.524  11.839  68.434  1.00  0.00    -0.215 C  
HETATM    3  C   UNL     1      -9.679  12.777  67.913  1.00  0.00    -0.217 C  
ENDROOT
BRANCH   2   4
HETATM    4  N   UNL     1     -10.197  10.484  68.553  1.00  0.00    -0.166 N  
HETATM    5  C   UNL     1      -9.211  10.073  69.440  1.00  0.00    -0.216 C  
HETATM    6  O   UNL     1      -8.843   8.911  69.587  1.00  0.00    -0.135 OA 
BRANCH   4   7
HETATM    7  C   UNL     1     -10.739   9.501  67.602  1.00  0.00    -0.250 C  
BRANCH   7   8
HETATM    8  C   UNL     1     -10.150   9.495  66.211  1.00  0.00    -0.327 A  
HETATM    9  H2  UNL     1      -8.816   7.534  67.410  1.00  0.00     0.000 HD 
HETATM   10  H1  UNL     1      -7.629   7.146  66.200  1.00  0.00     0.000 HD 
HETATM   11  N   UNL     1      -8.424   7.718  66.486  1.00  0.00    -0.126 NA 
HETATM   12  C   UNL     1      -8.982   8.655  65.791  1.00  0.00    -0.197 A  
HETATM   13  C   UNL     1     -10.463  10.455  65.306  1.00  0.00    -0.108 A  
HETATM   14  N   UNL     1      -9.811  10.760  64.121  1.00  0.00    -0.298 NA 
HETATM   15  C   UNL     1      -7.923  10.379  62.632  1.00  0.00    -0.169 C  
HETATM   16  N   UNL     1      -8.434   8.932  64.571  1.00  0.00    -0.174 NA 
HETATM   17  C   UNL     1      -8.797  10.003  63.809  1.00  0.00    -0.231 A  
ENDBRANCH   7   8
ENDBRANCH   4   7
ENDBRANCH   2   4
BRANCH   3  18
HETATM   18  C   UNL     1      -8.206  12.525  67.576  1.00  0.00    -0.175 C  
BRANCH  18  19
HETATM   19  C   UNL     1      -7.205  13.484  68.250  1.00  0.00    -0.111 C  
HETATM   20  H   UNL     1      -5.915  14.868  67.693  1.00  0.00     0.000 HD 
HETATM   21  O   UNL     1      -6.532  14.277  67.278  1.00  0.00    -0.291 OA 
ENDBRANCH  18  19
ENDBRANCH   3  18
BRANCH   3  22
HETATM   22  S   UNL     1     -10.308  14.414  67.656  1.00  0.00    -0.238 SA 
BRANCH  22  23
HETATM   23  S   UNL     1     -10.055  14.662  65.632  1.00  0.00    -0.374 SA 
BRANCH  23  24
HETATM   24  C   UNL     1     -10.597  16.370  65.263  1.00  0.00    -0.299 C  
BRANCH  24  25
HETATM   25  C   UNL     1     -10.288  17.474  66.270  1.00  0.00    -0.335 C  
HETATM   26  O   UNL     1     -10.682  18.739  65.690  1.00  0.00    -0.543 OA 
HETATM   27  C   UNL     1      -8.806  19.096  67.102  1.00  0.00    -0.314 C  
HETATM   28  C   UNL     1      -9.803  19.763  66.178  1.00  0.00    -0.448 C  
HETATM   29  C   UNL     1      -8.825  17.656  66.641  1.00  0.00    -0.283 C  
ENDBRANCH  24  25
ENDBRANCH  23  24
ENDBRANCH  22  23
ENDBRANCH   3  22
TORSDOF 9
ENDMDL
MODEL      171
REMARK 921   NORMALIZED FREE ENERGY PREDICTED BY IDOCK:   -4.06 KCAL/MOL
REMARK 922        TOTAL FREE ENERGY PREDICTED BY IDOCK:   -7.44 KCAL/MOL
REMARK 923 INTER-LIGAND FREE ENERGY PREDICTED BY IDOCK:   -6.27 KCAL/MOL
REMARK 924 INTRA-LIGAND FREE ENERGY PREDICTED BY IDOCK:   -1.17 KCAL/MOL
REMARK 927      BINDING AFFINITY PREDICTED BY RF-SCORE:    0.00 PKD
ROOT
HETATM    1  C   UNL     1     -11.629   6.481  69.838  1.00  0.00    -0.433 C  
HETATM    2  C   UNL     1     -11.012   7.020  71.116  1.00  0.00    -0.247 C  
HETATM    3  C   UNL     1      -9.988   6.406  71.779  1.00  0.00    -0.177 C  
ENDROOT
BRANCH   2   4
HETATM    4  N   UNL     1     -11.529   8.269  71.476  1.00  0.00    -0.263 N  
HETATM    5  C   UNL     1     -12.780   8.368  72.068  1.00  0.00    -0.360 C  
HETATM    6  O   UNL     1     -13.321   9.423  72.390  1.00  0.00    -0.452 OA 
BRANCH   4   7
HETATM    7  C   UNL     1     -10.855   9.505  71.050  1.00  0.00    -0.353 C  
BRANCH   7   8
HETATM    8  C   UNL     1     -11.121   9.980  69.640  1.00  0.00    -0.300 A  
HETATM    9  H2  UNL     1      -9.068   8.325  69.312  1.00  0.00     0.000 HD 
HETATM   10  H1  UNL     1      -8.682   8.595  67.638  1.00  0.00     0.000 HD 
HETATM   11  N   UNL     1      -9.272   8.816  68.441  1.00  0.00    -0.138 NA 
HETATM   12  C   UNL     1     -10.254   9.656  68.461  1.00  0.00    -0.193 A  
HETATM   13  C   UNL     1     -12.018  10.964  69.383  1.00  0.00    -0.322 A  
HETATM   14  N   UNL     1     -12.168  11.703  68.219  1.00  0.00    -0.452 NA 
HETATM   15  C   UNL     1     -11.355  12.257  65.992  1.00  0.00    -0.398 C  
HETATM   16  N   UNL     1     -10.505  10.345  67.308  1.00  0.00    -0.236 NA 
HETATM   17  C   UNL     1     -11.382  11.386  67.229  1.00  0.00    -0.275 A  
ENDBRANCH   7   8
ENDBRANCH   4   7
ENDBRANCH   2   4
BRANCH   3  18
HETATM   18  C   UNL     1      -9.139   7.071  72.867  1.00  0.00    -0.157 C  
BRANCH  18  19
HETATM   19  C   UNL     1      -8.187   6.125  73.626  1.00  0.00    -0.114 C  
HETATM   20  H   UNL     1      -6.246   5.796  73.738  1.00  0.00     0.000 HD 
HETATM   21  O   UNL     1      -6.832   6.378  73.270  1.00  0.00    -0.073 OA 
ENDBRANCH  18  19
ENDBRANCH   3  18
BRANCH   3  22
HETATM   22  S   UNL     1      -9.572   4.746  71.318  1.00  0.00    -0.178 SA 
BRANCH  22  23
HETATM   23  S   UNL     1      -8.072   5.040  69.945  1.00  0.00    -0.074 SA 
BRANCH  23  24
HETATM   24  C   UNL     1      -8.187   3.644  68.767  1.00  0.00    -0.072 C  
BRANCH  24  25
HETATM   25  C   UNL     1      -9.301   3.652  67.724  1.00  0.00    -0.194 C  
HETATM   26  O   UNL     1      -8.787   3.057  66.510  1.00  0.00    -0.130 OA 
HETATM   27  C   UNL     1     -10.387   4.714  65.932  1.00  0.00    -0.315 C  
HETATM   28  C   UNL     1      -9.430   3.675  65.386  1.00  0.00    -0.160 C  
HETATM   29  C   UNL     1      -9.815   5.017  67.299  1.00  0.00    -0.205 C  
ENDBRANCH  24  25
ENDBRANCH  23  24
ENDBRANCH  22  23
ENDBRANCH   3  22
TORSDOF 9
ENDMDL
MODEL      172
REMARK 921   NORMALIZED FREE ENERGY PREDICTED BY IDOCK:   -4.06 KCAL/MOL
REMARK 922        TOTAL FREE ENERGY PREDICTED BY IDOCK:   -7.43 KCAL/MOL
REMARK 923 INTER-LIGAND FREE ENERGY PREDICTED BY IDOCK:   -7.32 KCAL/MOL
REMARK 924 INTRA-LIGAND FREE ENERGY PREDICTED BY IDOCK:   -0.12 KCAL/MOL
REMARK 927      BINDING AFFINITY PREDICTED BY RF-SCORE:    0.00 PKD
ROOT
HETATM    1  C   UNL     1      -8.650  14.072  68.414  1.00  0.00    -0.174 C  
HETATM    2  C   UNL     1      -9.791  14.047  67.414  1.00  0.00    -0.240 C  
HETATM    3  C   UNL     1     -10.474  12.914  67.074  1.00  0.00    -0.238 C  
ENDROOT
BRANCH   2   4
HETATM    4  N   UNL     1     -10.141  15.325  66.967  1.00  0.00    -0.245 N  
HETATM    5  C   UNL     1      -9.810  15.738  65.685  1.00  0.00    -0.322 C  
HETATM    6  O   UNL     1     -10.053  16.849  65.222  1.00  0.00    -0.577 OA 
BRANCH   4   7
HETATM    7  C   UNL     1     -10.677  16.321  67.908  1.00  0.00    -0.329 C  
BRANCH   7   8
HETATM    8  C   UNL     1      -9.764  17.461  68.295  1.00  0.00    -0.299 A  
HETATM    9  H2  UNL     1     -11.736  18.711  67.026  1.00  0.00     0.000 HD 
HETATM   10  H1  UNL     1     -11.108  20.329  66.939  1.00  0.00     0.000 HD 
HETATM   11  N   UNL     1     -10.980  19.362  67.237  1.00  0.00    -0.451 NA 
HETATM   12  C   UNL     1      -9.952  18.882  67.856  1.00  0.00    -0.352 A  
HETATM   13  C   UNL     1      -8.547  17.235  68.849  1.00  0.00    -0.170 A  
HETATM   14  N   UNL     1      -7.492  18.124  68.991  1.00  0.00    -0.217 NA 
HETATM   15  C   UNL     1      -6.556  20.325  68.535  1.00  0.00    -0.323 C  
HETATM   16  N   UNL     1      -8.920  19.742  68.105  1.00  0.00    -0.326 NA 
HETATM   17  C   UNL     1      -7.707  19.344  68.584  1.00  0.00    -0.359 A  
ENDBRANCH   7   8
ENDBRANCH   4   7
ENDBRANCH   2   4
BRANCH   3  18
HETATM   18  C   UNL     1     -11.814  12.900  66.331  1.00  0.00    -0.478 C  
BRANCH  18  19
HETATM   19  C   UNL     1     -11.720  12.654  64.812  1.00  0.00    -0.352 C  
HETATM   20  H   UNL     1     -12.800  13.033  63.207  1.00  0.00     0.000 HD 
HETATM   21  O   UNL     1     -12.859  13.184  64.142  1.00  0.00    -0.651 OA 
ENDBRANCH  18  19
ENDBRANCH   3  18
BRANCH   3  22
HETATM   22  S   UNL     1      -9.796  11.352  67.566  1.00  0.00    -0.180 SA 
BRANCH  22  23
HETATM   23  S   UNL     1      -8.006  11.320  66.559  1.00  0.00    -0.114 SA 
BRANCH  23  24
HETATM   24  C   UNL     1      -7.823   9.618  65.912  1.00  0.00    -0.102 C  
BRANCH  24  25
HETATM   25  C   UNL     1      -7.577   9.421  64.418  1.00  0.00    -0.114 C  
HETATM   26  O   UNL     1      -8.332  10.426  63.701  1.00  0.00    -0.170 OA 
HETATM   27  C   UNL     1      -8.217   8.460  62.372  1.00  0.00    -0.181 C  
HETATM   28  C   UNL     1      -8.738   9.880  62.437  1.00  0.00    -0.217 C  
HETATM   29  C   UNL     1      -8.036   8.098  63.829  1.00  0.00    -0.137 C  
ENDBRANCH  24  25
ENDBRANCH  23  24
ENDBRANCH  22  23
ENDBRANCH   3  22
TORSDOF 9
ENDMDL
MODEL      173
REMARK 921   NORMALIZED FREE ENERGY PREDICTED BY IDOCK:   -4.05 KCAL/MOL
REMARK 922        TOTAL FREE ENERGY PREDICTED BY IDOCK:   -7.43 KCAL/MOL
REMARK 923 INTER-LIGAND FREE ENERGY PREDICTED BY IDOCK:   -7.37 KCAL/MOL
REMARK 924 INTRA-LIGAND FREE ENERGY PREDICTED BY IDOCK:   -0.06 KCAL/MOL
REMARK 927      BINDING AFFINITY PREDICTED BY RF-SCORE:    0.00 PKD
ROOT
HETATM    1  C   UNL     1      -9.132  13.598  66.850  1.00  0.00    -0.249 C  
HETATM    2  C   UNL     1      -9.531  14.993  67.295  1.00  0.00    -0.208 C  
HETATM    3  C   UNL     1     -10.307  15.832  66.547  1.00  0.00    -0.294 C  
ENDROOT
BRANCH   2   4
HETATM    4  N   UNL     1      -9.112  15.280  68.598  1.00  0.00    -0.184 N  
HETATM    5  C   UNL     1      -7.858  14.882  69.039  1.00  0.00    -0.165 C  
HETATM    6  O   UNL     1      -7.423  15.068  70.172  1.00  0.00    -0.038 OA 
BRANCH   4   7
HETATM    7  C   UNL     1     -10.063  15.821  69.583  1.00  0.00    -0.289 C  
BRANCH   7   8
HETATM    8  C   UNL     1     -11.148  14.890  70.072  1.00  0.00    -0.263 A  
HETATM    9  H2  UNL     1     -11.338  16.935  71.760  1.00  0.00     0.000 HD 
HETATM   10  H1  UNL     1     -12.488  16.317  72.908  1.00  0.00     0.000 HD 
HETATM   11  N   UNL     1     -11.944  16.170  72.058  1.00  0.00    -0.517 NA 
HETATM   12  C   UNL     1     -11.947  15.107  71.322  1.00  0.00    -0.344 A  
HETATM   13  C   UNL     1     -11.294  13.643  69.560  1.00  0.00    -0.214 A  
HETATM   14  N   UNL     1     -12.024  12.585  70.079  1.00  0.00    -0.334 NA 
HETATM   15  C   UNL     1     -13.365  11.682  71.900  1.00  0.00    -0.403 C  
HETATM   16  N   UNL     1     -12.725  14.065  71.740  1.00  0.00    -0.330 NA 
HETATM   17  C   UNL     1     -12.692  12.826  71.172  1.00  0.00    -0.263 A  
ENDBRANCH   7   8
ENDBRANCH   4   7
ENDBRANCH   2   4
BRANCH   3  18
HETATM   18  C   UNL     1     -10.986  17.095  67.088  1.00  0.00     0.040 C  
BRANCH  18  19
HETATM   19  C   UNL     1     -10.199  18.404  66.878  1.00  0.00    -0.380 C  
HETATM   20  H   UNL     1     -10.549  20.343  66.973  1.00  0.00     0.000 HD 
HETATM   21  O   UNL     1     -11.033  19.536  67.102  1.00  0.00    -0.492 OA 
ENDBRANCH  18  19
ENDBRANCH   3  18
BRANCH   3  22
HETATM   22  S   UNL     1     -10.595  15.412  64.850  1.00  0.00    -0.252 SA 
BRANCH  22  23
HETATM   23  S   UNL     1     -12.452  14.537  64.930  1.00  0.00    -0.209 SA 
BRANCH  23  24
HETATM   24  C   UNL     1     -12.180  12.835  65.547  1.00  0.00    -0.463 C  
BRANCH  24  25
HETATM   25  C   UNL     1     -11.637  11.782  64.584  1.00  0.00    -0.198 C  
HETATM   26  O   UNL     1     -10.786  10.883  65.332  1.00  0.00    -0.168 OA 
HETATM   27  C   UNL     1      -9.951  11.062  63.115  1.00  0.00    -0.382 C  
HETATM   28  C   UNL     1      -9.742  10.412  64.467  1.00  0.00    -0.330 C  
HETATM   29  C   UNL     1     -10.762  12.293  63.452  1.00  0.00    -0.438 C  
ENDBRANCH  24  25
ENDBRANCH  23  24
ENDBRANCH  22  23
ENDBRANCH   3  22
TORSDOF 9
ENDMDL
MODEL      174
REMARK 921   NORMALIZED FREE ENERGY PREDICTED BY IDOCK:   -4.04 KCAL/MOL
REMARK 922        TOTAL FREE ENERGY PREDICTED BY IDOCK:   -7.41 KCAL/MOL
REMARK 923 INTER-LIGAND FREE ENERGY PREDICTED BY IDOCK:   -6.81 KCAL/MOL
REMARK 924 INTRA-LIGAND FREE ENERGY PREDICTED BY IDOCK:   -0.60 KCAL/MOL
REMARK 927      BINDING AFFINITY PREDICTED BY RF-SCORE:    0.00 PKD
ROOT
HETATM    1  C   UNL     1     -10.982  10.080  68.298  1.00  0.00    -0.278 C  
HETATM    2  C   UNL     1     -11.475  10.878  69.491  1.00  0.00    -0.301 C  
HETATM    3  C   UNL     1     -11.462  12.242  69.546  1.00  0.00    -0.249 C  
ENDROOT
BRANCH   2   4
HETATM    4  N   UNL     1     -12.046  10.068  70.479  1.00  0.00    -0.269 N  
HETATM    5  C   UNL     1     -13.424   9.947  70.580  1.00  0.00     0.070 C  
HETATM    6  O   UNL     1     -14.008   9.282  71.432  1.00  0.00    -0.318 OA 
BRANCH   4   7
HETATM    7  C   UNL     1     -11.211   9.500  71.549  1.00  0.00    -0.367 C  
BRANCH   7   8
HETATM    8  C   UNL     1     -10.294   8.359  71.172  1.00  0.00    -0.264 A  
HETATM    9  H2  UNL     1     -12.705   7.307  70.795  1.00  0.00     0.000 HD 
HETATM   10  H1  UNL     1     -12.301   5.648  70.471  1.00  0.00     0.000 HD 
HETATM   11  N   UNL     1     -11.985   6.592  70.691  1.00  0.00    -0.392 NA 
HETATM   12  C   UNL     1     -10.759   6.971  70.850  1.00  0.00    -0.235 A  
HETATM   13  C   UNL     1      -8.954   8.438  71.362  1.00  0.00    -0.186 A  
HETATM   14  N   UNL     1      -8.025   7.408  71.346  1.00  0.00    -0.095 NA 
HETATM   15  C   UNL     1      -7.576   5.019  71.211  1.00  0.00    -0.090 C  
HETATM   16  N   UNL     1      -9.795   6.009  70.751  1.00  0.00    -0.178 NA 
HETATM   17  C   UNL     1      -8.486   6.220  71.070  1.00  0.00    -0.128 A  
ENDBRANCH   7   8
ENDBRANCH   4   7
ENDBRANCH   2   4
BRANCH   3  18
HETATM   18  C   UNL     1     -12.233  13.074  70.576  1.00  0.00    -0.392 C  
BRANCH  18  19
HETATM   19  C   UNL     1     -11.828  14.559  70.655  1.00  0.00    -0.303 C  
HETATM   20  H   UNL     1     -11.301  15.852  72.048  1.00  0.00     0.000 HD 
HETATM   21  O   UNL     1     -11.552  14.937  72.000  1.00  0.00    -0.363 OA 
ENDBRANCH  18  19
ENDBRANCH   3  18
BRANCH   3  22
HETATM   22  S   UNL     1     -10.537  13.118  68.315  1.00  0.00    -0.253 SA 
BRANCH  22  23
HETATM   23  S   UNL     1     -12.021  13.853  67.099  1.00  0.00    -0.400 SA 
BRANCH  23  24
HETATM   24  C   UNL     1     -11.171  14.805  65.787  1.00  0.00    -0.337 C  
BRANCH  24  25
HETATM   25  C   UNL     1     -10.699  16.224  66.096  1.00  0.00    -0.197 C  
HETATM   26  O   UNL     1      -9.328  16.350  65.656  1.00  0.00    -0.476 OA 
HETATM   27  C   UNL     1      -9.651  17.734  67.559  1.00  0.00    -0.268 C  
HETATM   28  C   UNL     1      -8.650  17.271  66.522  1.00  0.00    -0.264 C  
HETATM   29  C   UNL     1     -10.674  16.620  67.563  1.00  0.00    -0.278 C  
ENDBRANCH  24  25
ENDBRANCH  23  24
ENDBRANCH  22  23
ENDBRANCH   3  22
TORSDOF 9
ENDMDL
MODEL      175
REMARK 921   NORMALIZED FREE ENERGY PREDICTED BY IDOCK:   -4.03 KCAL/MOL
REMARK 922        TOTAL FREE ENERGY PREDICTED BY IDOCK:   -7.38 KCAL/MOL
REMARK 923 INTER-LIGAND FREE ENERGY PREDICTED BY IDOCK:   -5.94 KCAL/MOL
REMARK 924 INTRA-LIGAND FREE ENERGY PREDICTED BY IDOCK:   -1.44 KCAL/MOL
REMARK 927      BINDING AFFINITY PREDICTED BY RF-SCORE:    0.00 PKD
ROOT
HETATM    1  C   UNL     1     -10.107   8.492  66.590  1.00  0.00    -0.364 C  
HETATM    2  C   UNL     1      -9.033   8.708  67.640  1.00  0.00    -0.135 C  
HETATM    3  C   UNL     1      -8.319   7.694  68.213  1.00  0.00    -0.125 C  
ENDROOT
BRANCH   2   4
HETATM    4  N   UNL     1      -8.777  10.064  67.874  1.00  0.00    -0.125 N  
HETATM    5  C   UNL     1      -7.979  10.790  67.001  1.00  0.00    -0.124 C  
HETATM    6  O   UNL     1      -7.681  11.973  67.145  1.00  0.00    -0.157 OA 
BRANCH   4   7
HETATM    7  C   UNL     1      -9.173  10.687  69.146  1.00  0.00    -0.148 C  
BRANCH   7   8
HETATM    8  C   UNL     1     -10.418  10.152  69.815  1.00  0.00    -0.301 A  
HETATM    9  H2  UNL     1     -11.414  11.690  67.890  1.00  0.00     0.000 HD 
HETATM   10  H1  UNL     1     -13.108  11.661  68.279  1.00  0.00     0.000 HD 
HETATM   11  N   UNL     1     -12.160  11.359  68.503  1.00  0.00    -0.567 NA 
HETATM   12  C   UNL     1     -11.811  10.597  69.487  1.00  0.00    -0.273 A  
HETATM   13  C   UNL     1     -10.350   9.423  70.956  1.00  0.00    -0.312 A  
HETATM   14  N   UNL     1     -11.376   9.112  71.836  1.00  0.00    -0.375 NA 
HETATM   15  C   UNL     1     -13.702   9.394  72.495  1.00  0.00    -0.419 C  
HETATM   16  N   UNL     1     -12.801  10.184  70.333  1.00  0.00    -0.176 NA 
HETATM   17  C   UNL     1     -12.565   9.531  71.506  1.00  0.00    -0.373 A  
ENDBRANCH   7   8
ENDBRANCH   4   7
ENDBRANCH   2   4
BRANCH   3  18
HETATM   18  C   UNL     1      -7.032   7.890  69.020  1.00  0.00    -0.058 C  
BRANCH  18  19
HETATM   19  C   UNL     1      -7.167   7.652  70.537  1.00  0.00    -0.062 C  
HETATM   20  H   UNL     1      -7.059   8.718  72.193  1.00  0.00     0.000 HD 
HETATM   21  O   UNL     1      -6.975   8.865  71.259  1.00  0.00    -0.081 OA 
ENDBRANCH  18  19
ENDBRANCH   3  18
BRANCH   3  22
HETATM   22  S   UNL     1      -8.885   6.033  67.966  1.00  0.00    -0.109 SA 
BRANCH  22  23
HETATM   23  S   UNL     1     -10.547   5.958  69.172  1.00  0.00    -0.314 SA 
BRANCH  23  24
HETATM   24  C   UNL     1     -10.086   4.908  70.599  1.00  0.00    -0.236 C  
BRANCH  24  25
HETATM   25  C   UNL     1     -10.083   5.525  71.995  1.00  0.00    -0.186 C  
HETATM   26  O   UNL     1      -8.807   5.237  72.613  1.00  0.00    -0.123 OA 
HETATM   27  C   UNL     1     -10.476   5.313  74.301  1.00  0.00    -0.304 C  
HETATM   28  C   UNL     1      -9.001   5.105  74.029  1.00  0.00    -0.116 C  
HETATM   29  C   UNL     1     -11.116   4.988  72.970  1.00  0.00    -0.378 C  
ENDBRANCH  24  25
ENDBRANCH  23  24
ENDBRANCH  22  23
ENDBRANCH   3  22
TORSDOF 9
ENDMDL
MODEL      176
REMARK 921   NORMALIZED FREE ENERGY PREDICTED BY IDOCK:   -4.02 KCAL/MOL
REMARK 922        TOTAL FREE ENERGY PREDICTED BY IDOCK:   -7.37 KCAL/MOL
REMARK 923 INTER-LIGAND FREE ENERGY PREDICTED BY IDOCK:   -6.54 KCAL/MOL
REMARK 924 INTRA-LIGAND FREE ENERGY PREDICTED BY IDOCK:   -0.83 KCAL/MOL
REMARK 927      BINDING AFFINITY PREDICTED BY RF-SCORE:    0.00 PKD
ROOT
HETATM    1  C   UNL     1     -10.502  13.804  64.727  1.00  0.00    -0.448 C  
HETATM    2  C   UNL     1      -9.988  13.324  66.071  1.00  0.00    -0.292 C  
HETATM    3  C   UNL     1      -9.277  12.170  66.241  1.00  0.00    -0.183 C  
ENDROOT
BRANCH   2   4
HETATM    4  N   UNL     1     -10.223  14.246  67.096  1.00  0.00    -0.253 N  
HETATM    5  C   UNL     1      -9.167  14.919  67.694  1.00  0.00    -0.187 C  
HETATM    6  O   UNL     1      -9.281  15.722  68.616  1.00  0.00    -0.189 OA 
BRANCH   4   7
HETATM    7  C   UNL     1     -11.561  14.366  67.697  1.00  0.00    -0.370 C  
BRANCH   7   8
HETATM    8  C   UNL     1     -11.950  13.323  68.719  1.00  0.00    -0.335 A  
HETATM    9  H2  UNL     1     -11.802  15.538  70.182  1.00  0.00     0.000 HD 
HETATM   10  H1  UNL     1     -11.996  14.895  71.785  1.00  0.00     0.000 HD 
HETATM   11  N   UNL     1     -11.941  14.724  70.781  1.00  0.00    -0.291 NA 
HETATM   12  C   UNL     1     -12.030  13.576  70.195  1.00  0.00    -0.329 A  
HETATM   13  C   UNL     1     -11.993  12.005  68.404  1.00  0.00    -0.194 A  
HETATM   14  N   UNL     1     -12.043  10.920  69.266  1.00  0.00    -0.363 NA 
HETATM   15  C   UNL     1     -11.975  10.077  71.549  1.00  0.00    -0.438 C  
HETATM   16  N   UNL     1     -12.174  12.479  70.996  1.00  0.00    -0.225 NA 
HETATM   17  C   UNL     1     -12.101  11.197  70.538  1.00  0.00    -0.381 A  
ENDBRANCH   7   8
ENDBRANCH   4   7
ENDBRANCH   2   4
BRANCH   3  18
HETATM   18  C   UNL     1      -8.479  11.822  67.501  1.00  0.00    -0.154 C  
BRANCH  18  19
HETATM   19  C   UNL     1      -6.953  12.007  67.384  1.00  0.00    -0.139 C  
HETATM   20  H   UNL     1      -5.439  12.406  68.583  1.00  0.00     0.000 HD 
HETATM   21  O   UNL     1      -6.379  12.292  68.655  1.00  0.00    -0.063 OA 
ENDBRANCH  18  19
ENDBRANCH   3  18
BRANCH   3  22
HETATM   22  S   UNL     1      -9.227  11.016  64.897  1.00  0.00    -0.153 SA 
BRANCH  22  23
HETATM   23  S   UNL     1      -8.919   9.232  65.869  1.00  0.00    -0.199 SA 
BRANCH  23  24
HETATM   24  C   UNL     1     -10.534   8.771  66.596  1.00  0.00    -0.170 C  
BRANCH  24  25
HETATM   25  C   UNL     1     -10.569   7.711  67.695  1.00  0.00    -0.224 C  
HETATM   26  O   UNL     1      -9.232   7.567  68.226  1.00  0.00    -0.139 OA 
HETATM   27  C   UNL     1     -10.336   5.467  68.350  1.00  0.00    -0.243 C  
HETATM   28  C   UNL     1      -9.048   6.206  68.645  1.00  0.00    -0.125 C  
HETATM   29  C   UNL     1     -10.971   6.310  67.266  1.00  0.00    -0.455 C  
ENDBRANCH  24  25
ENDBRANCH  23  24
ENDBRANCH  22  23
ENDBRANCH   3  22
TORSDOF 9
ENDMDL
MODEL      177
REMARK 921   NORMALIZED FREE ENERGY PREDICTED BY IDOCK:   -3.98 KCAL/MOL
REMARK 922        TOTAL FREE ENERGY PREDICTED BY IDOCK:   -7.31 KCAL/MOL
REMARK 923 INTER-LIGAND FREE ENERGY PREDICTED BY IDOCK:   -7.53 KCAL/MOL
REMARK 924 INTRA-LIGAND FREE ENERGY PREDICTED BY IDOCK:    0.23 KCAL/MOL
REMARK 927      BINDING AFFINITY PREDICTED BY RF-SCORE:    0.00 PKD
ROOT
HETATM    1  C   UNL     1     -10.784  14.167  65.379  1.00  0.00    -0.350 C  
HETATM    2  C   UNL     1     -11.007  14.744  66.764  1.00  0.00    -0.327 C  
HETATM    3  C   UNL     1     -11.240  13.982  67.873  1.00  0.00    -0.273 C  
ENDROOT
BRANCH   2   4
HETATM    4  N   UNL     1     -10.836  16.132  66.801  1.00  0.00    -0.228 N  
HETATM    5  C   UNL     1     -10.482  16.828  65.654  1.00  0.00    -0.269 C  
HETATM    6  O   UNL     1     -10.286  18.040  65.603  1.00  0.00    -0.584 OA 
BRANCH   4   7
HETATM    7  C   UNL     1     -10.825  16.847  68.087  1.00  0.00    -0.351 C  
BRANCH   7   8
HETATM    8  C   UNL     1      -9.528  17.508  68.493  1.00  0.00    -0.296 A  
HETATM    9  H2  UNL     1     -11.190  19.573  68.292  1.00  0.00     0.000 HD 
HETATM   10  H1  UNL     1     -10.094  20.907  68.491  1.00  0.00     0.000 HD 
HETATM   11  N   UNL     1     -10.235  19.898  68.445  1.00  0.00    -0.453 NA 
HETATM   12  C   UNL     1      -9.321  18.991  68.561  1.00  0.00    -0.375 A  
HETATM   13  C   UNL     1      -8.369  16.808  68.565  1.00  0.00    -0.243 A  
HETATM   14  N   UNL     1      -7.074  17.300  68.633  1.00  0.00    -0.217 NA 
HETATM   15  C   UNL     1      -5.576  19.218  68.571  1.00  0.00    -0.215 C  
HETATM   16  N   UNL     1      -8.035  19.424  68.724  1.00  0.00    -0.361 NA 
HETATM   17  C   UNL     1      -6.952  18.596  68.680  1.00  0.00    -0.277 A  
ENDBRANCH   7   8
ENDBRANCH   4   7
ENDBRANCH   2   4
BRANCH   3  18
HETATM   18  C   UNL     1     -11.150  14.497  69.313  1.00  0.00    -0.296 C  
BRANCH  18  19
HETATM   19  C   UNL     1     -12.416  14.285  70.166  1.00  0.00    -0.335 C  
HETATM   20  H   UNL     1     -13.623  15.380  71.278  1.00  0.00     0.000 HD 
HETATM   21  O   UNL     1     -12.842  15.510  70.752  1.00  0.00    -0.458 OA 
ENDBRANCH  18  19
ENDBRANCH   3  18
BRANCH   3  22
HETATM   22  S   UNL     1     -11.622  12.267  67.641  1.00  0.00    -0.344 SA 
BRANCH  22  23
HETATM   23  S   UNL     1      -9.990  11.342  68.481  1.00  0.00    -0.196 SA 
BRANCH  23  24
HETATM   24  C   UNL     1      -8.566  11.766  67.413  1.00  0.00    -0.160 C  
BRANCH  24  25
HETATM   25  C   UNL     1      -8.154  10.789  66.314  1.00  0.00    -0.159 C  
HETATM   26  O   UNL     1      -9.003  11.016  65.166  1.00  0.00    -0.197 OA 
HETATM   27  C   UNL     1      -8.424   8.714  65.248  1.00  0.00    -0.196 C  
HETATM   28  C   UNL     1      -9.190   9.770  64.479  1.00  0.00    -0.253 C  
HETATM   29  C   UNL     1      -8.317   9.313  66.632  1.00  0.00    -0.122 C  
ENDBRANCH  24  25
ENDBRANCH  23  24
ENDBRANCH  22  23
ENDBRANCH   3  22
TORSDOF 9
ENDMDL
MODEL      178
REMARK 921   NORMALIZED FREE ENERGY PREDICTED BY IDOCK:   -3.94 KCAL/MOL
REMARK 922        TOTAL FREE ENERGY PREDICTED BY IDOCK:   -7.25 KCAL/MOL
REMARK 923 INTER-LIGAND FREE ENERGY PREDICTED BY IDOCK:   -7.04 KCAL/MOL
REMARK 924 INTRA-LIGAND FREE ENERGY PREDICTED BY IDOCK:   -0.21 KCAL/MOL
REMARK 927      BINDING AFFINITY PREDICTED BY RF-SCORE:    0.00 PKD
ROOT
HETATM    1  C   UNL     1      -8.190   8.212  70.110  1.00  0.00    -0.119 C  
HETATM    2  C   UNL     1      -9.321   7.349  69.582  1.00  0.00    -0.149 C  
HETATM    3  C   UNL     1      -9.649   7.256  68.260  1.00  0.00    -0.148 C  
ENDROOT
BRANCH   2   4
HETATM    4  N   UNL     1      -9.915   6.573  70.584  1.00  0.00    -0.184 N  
HETATM    5  C   UNL     1      -9.192   5.578  71.226  1.00  0.00    -0.146 C  
HETATM    6  O   UNL     1      -9.642   4.834  72.093  1.00  0.00    -0.144 OA 
BRANCH   4   7
HETATM    7  C   UNL     1     -11.363   6.657  70.828  1.00  0.00    -0.336 C  
BRANCH   7   8
HETATM    8  C   UNL     1     -11.896   7.970  71.354  1.00  0.00    -0.326 A  
HETATM    9  H2  UNL     1     -14.031   6.392  71.478  1.00  0.00     0.000 HD 
HETATM   10  H1  UNL     1     -15.269   7.534  71.907  1.00  0.00     0.000 HD 
HETATM   11  N   UNL     1     -14.288   7.355  71.693  1.00  0.00    -0.462 NA 
HETATM   12  C   UNL     1     -13.338   8.232  71.668  1.00  0.00    -0.330 A  
HETATM   13  C   UNL     1     -11.147   9.100  71.323  1.00  0.00    -0.335 A  
HETATM   14  N   UNL     1     -11.569  10.411  71.486  1.00  0.00    -0.072 NA 
HETATM   15  C   UNL     1     -13.408  11.982  71.761  1.00  0.00    -0.338 C  
HETATM   16  N   UNL     1     -13.685   9.529  71.916  1.00  0.00    -0.362 NA 
HETATM   17  C   UNL     1     -12.834  10.582  71.748  1.00  0.00    -0.454 A  
ENDBRANCH   7   8
ENDBRANCH   4   7
ENDBRANCH   2   4
BRANCH   3  18
HETATM   18  C   UNL     1     -10.552   6.171  67.666  1.00  0.00    -0.340 C  
BRANCH  18  19
HETATM   19  C   UNL     1      -9.814   5.012  66.967  1.00  0.00    -0.185 C  
HETATM   20  H   UNL     1     -10.175   3.713  65.528  1.00  0.00     0.000 HD 
HETATM   21  O   UNL     1     -10.630   4.427  65.959  1.00  0.00    -0.211 OA 
ENDBRANCH  18  19
ENDBRANCH   3  18
BRANCH   3  22
HETATM   22  S   UNL     1      -8.944   8.436  67.142  1.00  0.00    -0.140 SA 
BRANCH  22  23
HETATM   23  S   UNL     1     -10.453   9.818  66.961  1.00  0.00    -0.202 SA 
BRANCH  23  24
HETATM   24  C   UNL     1      -9.741  11.222  66.029  1.00  0.00    -0.220 C  
BRANCH  24  25
HETATM   25  C   UNL     1     -10.675  12.111  65.211  1.00  0.00    -0.288 C  
HETATM   26  O   UNL     1     -10.067  13.419  65.097  1.00  0.00    -0.301 OA 
HETATM   27  C   UNL     1     -12.429  13.671  65.134  1.00  0.00    -0.488 C  
HETATM   28  C   UNL     1     -11.109  14.406  65.041  1.00  0.00    -0.380 C  
HETATM   29  C   UNL     1     -12.048  12.371  65.806  1.00  0.00    -0.381 C  
ENDBRANCH  24  25
ENDBRANCH  23  24
ENDBRANCH  22  23
ENDBRANCH   3  22
TORSDOF 9
ENDMDL
MODEL      179
REMARK 921   NORMALIZED FREE ENERGY PREDICTED BY IDOCK:   -3.93 KCAL/MOL
REMARK 922        TOTAL FREE ENERGY PREDICTED BY IDOCK:   -7.24 KCAL/MOL
REMARK 923 INTER-LIGAND FREE ENERGY PREDICTED BY IDOCK:   -6.00 KCAL/MOL
REMARK 924 INTRA-LIGAND FREE ENERGY PREDICTED BY IDOCK:   -1.24 KCAL/MOL
REMARK 927      BINDING AFFINITY PREDICTED BY RF-SCORE:    0.00 PKD
ROOT
HETATM    1  C   UNL     1      -8.254  12.427  67.062  1.00  0.00    -0.141 C  
HETATM    2  C   UNL     1      -9.283  11.330  67.264  1.00  0.00    -0.166 C  
HETATM    3  C   UNL     1      -9.286  10.485  68.337  1.00  0.00    -0.158 C  
ENDROOT
BRANCH   2   4
HETATM    4  N   UNL     1     -10.289  11.353  66.292  1.00  0.00    -0.235 N  
HETATM    5  C   UNL     1     -10.021  10.950  64.992  1.00  0.00    -0.298 C  
HETATM    6  O   UNL     1     -10.835  10.964  64.073  1.00  0.00    -0.297 OA 
BRANCH   4   7
HETATM    7  C   UNL     1     -11.582  11.994  66.576  1.00  0.00    -0.314 C  
BRANCH   7   8
HETATM    8  C   UNL     1     -11.553  13.450  66.979  1.00  0.00    -0.396 A  
HETATM    9  H2  UNL     1     -10.862  13.549  64.414  1.00  0.00     0.000 HD 
HETATM   10  H1  UNL     1     -10.430  15.224  64.246  1.00  0.00     0.000 HD 
HETATM   11  N   UNL     1     -10.761  14.468  64.845  1.00  0.00    -0.420 NA 
HETATM   12  C   UNL     1     -11.066  14.561  66.098  1.00  0.00    -0.334 A  
HETATM   13  C   UNL     1     -11.711  13.830  68.271  1.00  0.00    -0.359 A  
HETATM   14  N   UNL     1     -11.428  15.061  68.842  1.00  0.00    -0.297 NA 
HETATM   15  C   UNL     1     -10.497  17.298  68.601  1.00  0.00    -0.356 C  
HETATM   16  N   UNL     1     -10.894  15.781  66.689  1.00  0.00    -0.285 NA 
HETATM   17  C   UNL     1     -10.999  15.988  68.033  1.00  0.00    -0.341 A  
ENDBRANCH   7   8
ENDBRANCH   4   7
ENDBRANCH   2   4
BRANCH   3  18
HETATM   18  C   UNL     1     -10.469   9.597  68.735  1.00  0.00    -0.238 C  
BRANCH  18  19
HETATM   19  C   UNL     1     -10.590   9.302  70.243  1.00  0.00    -0.235 C  
HETATM   20  H   UNL     1     -11.647   8.120  71.415  1.00  0.00     0.000 HD 
HETATM   21  O   UNL     1     -11.573   8.302  70.486  1.00  0.00    -0.241 OA 
ENDBRANCH  18  19
ENDBRANCH   3  18
BRANCH   3  22
HETATM   22  S   UNL     1      -7.850  10.448  69.374  1.00  0.00    -0.150 SA 
BRANCH  22  23
HETATM   23  S   UNL     1      -6.678   9.041  68.440  1.00  0.00    -0.060 SA 
BRANCH  23  24
HETATM   24  C   UNL     1      -7.452   7.422  68.801  1.00  0.00    -0.101 C  
BRANCH  24  25
HETATM   25  C   UNL     1      -8.322   6.768  67.731  1.00  0.00    -0.119 C  
HETATM   26  O   UNL     1      -7.909   5.388  67.596  1.00  0.00    -0.098 OA 
HETATM   27  C   UNL     1      -8.660   6.174  65.484  1.00  0.00    -0.133 C  
HETATM   28  C   UNL     1      -8.106   4.981  66.234  1.00  0.00    -0.108 C  
HETATM   29  C   UNL     1      -8.212   7.345  66.330  1.00  0.00    -0.122 C  
ENDBRANCH  24  25
ENDBRANCH  23  24
ENDBRANCH  22  23
ENDBRANCH   3  22
TORSDOF 9
ENDMDL
MODEL      180
REMARK 921   NORMALIZED FREE ENERGY PREDICTED BY IDOCK:   -3.91 KCAL/MOL
REMARK 922        TOTAL FREE ENERGY PREDICTED BY IDOCK:   -7.21 KCAL/MOL
REMARK 923 INTER-LIGAND FREE ENERGY PREDICTED BY IDOCK:   -6.77 KCAL/MOL
REMARK 924 INTRA-LIGAND FREE ENERGY PREDICTED BY IDOCK:   -0.44 KCAL/MOL
REMARK 927      BINDING AFFINITY PREDICTED BY RF-SCORE:    0.00 PKD
ROOT
HETATM    1  C   UNL     1     -11.080  13.594  64.558  1.00  0.00    -0.396 C  
HETATM    2  C   UNL     1     -10.363  12.981  65.747  1.00  0.00    -0.286 C  
HETATM    3  C   UNL     1      -9.562  11.879  65.660  1.00  0.00    -0.204 C  
ENDROOT
BRANCH   2   4
HETATM    4  N   UNL     1     -10.523  13.733  66.915  1.00  0.00    -0.271 N  
HETATM    5  C   UNL     1     -11.711  13.680  67.630  1.00  0.00    -0.363 C  
HETATM    6  O   UNL     1     -11.945  14.326  68.648  1.00  0.00    -0.333 OA 
BRANCH   4   7
HETATM    7  C   UNL     1      -9.522  14.744  67.292  1.00  0.00    -0.214 C  
BRANCH   7   8
HETATM    8  C   UNL     1      -9.994  16.177  67.380  1.00  0.00    -0.247 A  
HETATM    9  H2  UNL     1     -10.284  15.633  64.795  1.00  0.00     0.000 HD 
HETATM   10  H1  UNL     1     -10.696  17.200  64.165  1.00  0.00     0.000 HD 
HETATM   11  N   UNL     1     -10.455  16.623  64.972  1.00  0.00    -0.662 NA 
HETATM   12  C   UNL     1     -10.347  17.024  66.195  1.00  0.00    -0.319 A  
HETATM   13  C   UNL     1      -9.873  16.892  68.526  1.00  0.00    -0.267 A  
HETATM   14  N   UNL     1      -9.980  18.264  68.693  1.00  0.00    -0.379 NA 
HETATM   15  C   UNL     1     -10.236  20.466  67.685  1.00  0.00    -0.410 C  
HETATM   16  N   UNL     1     -10.536  18.357  66.430  1.00  0.00    -0.398 NA 
HETATM   17  C   UNL     1     -10.279  18.954  67.629  1.00  0.00    -0.394 A  
ENDBRANCH   7   8
ENDBRANCH   4   7
ENDBRANCH   2   4
BRANCH   3  18
HETATM   18  C   UNL     1      -8.584  11.431  66.751  1.00  0.00    -0.166 C  
BRANCH  18  19
HETATM   19  C   UNL     1      -9.237  10.831  68.012  1.00  0.00    -0.150 C  
HETATM   20  H   UNL     1     -10.956   9.998  68.505  1.00  0.00     0.000 HD 
HETATM   21  O   UNL     1     -10.553  10.368  67.728  1.00  0.00    -0.212 OA 
ENDBRANCH  18  19
ENDBRANCH   3  18
BRANCH   3  22
HETATM   22  S   UNL     1      -9.612  10.926  64.167  1.00  0.00    -0.301 SA 
BRANCH  22  23
HETATM   23  S   UNL     1      -7.794   9.970  64.202  1.00  0.00    -0.140 SA 
BRANCH  23  24
HETATM   24  C   UNL     1      -8.146   8.205  63.868  1.00  0.00    -0.114 C  
BRANCH  24  25
HETATM   25  C   UNL     1      -8.116   7.216  65.030  1.00  0.00    -0.119 C  
HETATM   26  O   UNL     1      -9.144   7.598  65.974  1.00  0.00    -0.166 OA 
HETATM   27  C   UNL     1      -7.332   6.626  67.164  1.00  0.00    -0.083 C  
HETATM   28  C   UNL     1      -8.706   7.248  67.296  1.00  0.00    -0.121 C  
HETATM   29  C   UNL     1      -6.835   7.175  65.846  1.00  0.00    -0.057 C  
ENDBRANCH  24  25
ENDBRANCH  23  24
ENDBRANCH  22  23
ENDBRANCH   3  22
TORSDOF 9
ENDMDL
MODEL      181
REMARK 921   NORMALIZED FREE ENERGY PREDICTED BY IDOCK:   -3.91 KCAL/MOL
REMARK 922        TOTAL FREE ENERGY PREDICTED BY IDOCK:   -7.20 KCAL/MOL
REMARK 923 INTER-LIGAND FREE ENERGY PREDICTED BY IDOCK:   -6.29 KCAL/MOL
REMARK 924 INTRA-LIGAND FREE ENERGY PREDICTED BY IDOCK:   -0.91 KCAL/MOL
REMARK 927      BINDING AFFINITY PREDICTED BY RF-SCORE:    0.00 PKD
ROOT
HETATM    1  C   UNL     1     -11.298  12.519  67.961  1.00  0.00    -0.339 C  
HETATM    2  C   UNL     1     -10.523  12.282  66.678  1.00  0.00    -0.222 C  
HETATM    3  C   UNL     1      -9.537  11.347  66.551  1.00  0.00    -0.198 C  
ENDROOT
BRANCH   2   4
HETATM    4  N   UNL     1     -11.007  13.047  65.611  1.00  0.00    -0.272 N  
HETATM    5  C   UNL     1     -12.272  12.811  65.091  1.00  0.00    -0.477 C  
HETATM    6  O   UNL     1     -12.763  13.414  64.141  1.00  0.00    -0.651 OA 
BRANCH   4   7
HETATM    7  C   UNL     1     -10.114  13.968  64.891  1.00  0.00    -0.256 C  
BRANCH   7   8
HETATM    8  C   UNL     1      -9.852  15.311  65.531  1.00  0.00    -0.362 A  
HETATM    9  H2  UNL     1      -7.846  13.832  66.454  1.00  0.00     0.000 HD 
HETATM   10  H1  UNL     1      -7.132  14.917  67.609  1.00  0.00     0.000 HD 
HETATM   11  N   UNL     1      -7.857  14.744  66.913  1.00  0.00    -0.041 NA 
HETATM   12  C   UNL     1      -8.787  15.566  66.555  1.00  0.00    -0.313 A  
HETATM   13  C   UNL     1     -10.741  16.330  65.427  1.00  0.00    -0.327 A  
HETATM   14  N   UNL     1     -10.797  17.497  66.174  1.00  0.00    -0.071 NA 
HETATM   15  C   UNL     1      -9.940  18.816  68.033  1.00  0.00    -0.401 C  
HETATM   16  N   UNL     1      -8.829  16.772  67.196  1.00  0.00    -0.196 NA 
HETATM   17  C   UNL     1      -9.852  17.663  67.056  1.00  0.00    -0.307 A  
ENDBRANCH   7   8
ENDBRANCH   4   7
ENDBRANCH   2   4
BRANCH   3  18
HETATM   18  C   UNL     1      -8.967  10.865  65.213  1.00  0.00    -0.202 C  
BRANCH  18  19
HETATM   19  C   UNL     1      -7.706   9.984  65.316  1.00  0.00    -0.139 C  
HETATM   20  H   UNL     1      -5.985   9.790  64.371  1.00  0.00     0.000 HD 
HETATM   21  O   UNL     1      -6.763  10.332  64.307  1.00  0.00    -0.124 OA 
ENDBRANCH  18  19
ENDBRANCH   3  18
BRANCH   3  22
HETATM   22  S   UNL     1      -8.904  10.597  68.026  1.00  0.00    -0.133 SA 
BRANCH  22  23
HETATM   23  S   UNL     1     -10.309   9.148  68.413  1.00  0.00    -0.200 SA 
BRANCH  23  24
HETATM   24  C   UNL     1     -10.524   8.225  66.847  1.00  0.00    -0.295 C  
BRANCH  24  25
HETATM   25  C   UNL     1      -9.650   6.999  66.591  1.00  0.00    -0.167 C  
HETATM   26  O   UNL     1     -10.420   5.820  66.920  1.00  0.00    -0.226 OA 
HETATM   27  C   UNL     1      -8.130   5.396  67.388  1.00  0.00    -0.101 C  
HETATM   28  C   UNL     1      -9.526   4.809  67.408  1.00  0.00    -0.146 C  
HETATM   29  C   UNL     1      -8.388   6.885  67.429  1.00  0.00    -0.122 C  
ENDBRANCH  24  25
ENDBRANCH  23  24
ENDBRANCH  22  23
ENDBRANCH   3  22
TORSDOF 9
ENDMDL
MODEL      182
REMARK 921   NORMALIZED FREE ENERGY PREDICTED BY IDOCK:   -3.90 KCAL/MOL
REMARK 922        TOTAL FREE ENERGY PREDICTED BY IDOCK:   -7.20 KCAL/MOL
REMARK 923 INTER-LIGAND FREE ENERGY PREDICTED BY IDOCK:   -6.10 KCAL/MOL
REMARK 924 INTRA-LIGAND FREE ENERGY PREDICTED BY IDOCK:   -1.09 KCAL/MOL
REMARK 927      BINDING AFFINITY PREDICTED BY RF-SCORE:    0.00 PKD
ROOT
HETATM    1  C   UNL     1      -8.477  10.964  69.054  1.00  0.00    -0.110 C  
HETATM    2  C   UNL     1      -9.641  10.135  68.542  1.00  0.00    -0.154 C  
HETATM    3  C   UNL     1      -9.517   9.163  67.592  1.00  0.00    -0.140 C  
ENDROOT
BRANCH   2   4
HETATM    4  N   UNL     1     -10.830  10.398  69.231  1.00  0.00    -0.225 N  
HETATM    5  C   UNL     1     -11.044   9.867  70.495  1.00  0.00    -0.332 C  
HETATM    6  O   UNL     1     -12.067  10.023  71.156  1.00  0.00    -0.322 OA 
BRANCH   4   7
HETATM    7  C   UNL     1     -11.952  11.064  68.551  1.00  0.00    -0.135 C  
BRANCH   7   8
HETATM    8  C   UNL     1     -11.797  12.537  68.252  1.00  0.00    -0.361 A  
HETATM    9  H2  UNL     1     -12.447  11.534  65.879  1.00  0.00     0.000 HD 
HETATM   10  H1  UNL     1     -12.229  12.923  64.855  1.00  0.00     0.000 HD 
HETATM   11  N   UNL     1     -12.192  12.518  65.791  1.00  0.00    -0.626 NA 
HETATM   12  C   UNL     1     -11.852  13.131  66.877  1.00  0.00    -0.386 A  
HETATM   13  C   UNL     1     -11.323  13.402  69.184  1.00  0.00    -0.280 A  
HETATM   14  N   UNL     1     -10.854  14.693  68.994  1.00  0.00    -0.238 NA 
HETATM   15  C   UNL     1     -10.262  16.481  67.451  1.00  0.00    -0.287 C  
HETATM   16  N   UNL     1     -11.469  14.437  66.758  1.00  0.00    -0.357 NA 
HETATM   17  C   UNL     1     -10.917  15.156  67.777  1.00  0.00    -0.306 A  
ENDBRANCH   7   8
ENDBRANCH   4   7
ENDBRANCH   2   4
BRANCH   3  18
HETATM   18  C   UNL     1     -10.584   8.106  67.289  1.00  0.00    -0.344 C  
BRANCH  18  19
HETATM   19  C   UNL     1     -10.291   6.700  67.848  1.00  0.00    -0.189 C  
HETATM   20  H   UNL     1     -11.092   5.456  69.152  1.00  0.00     0.000 HD 
HETATM   21  O   UNL     1     -11.272   6.323  68.809  1.00  0.00    -0.363 OA 
ENDBRANCH  18  19
ENDBRANCH   3  18
BRANCH   3  22
HETATM   22  S   UNL     1      -8.001   9.079  66.677  1.00  0.00    -0.100 SA 
BRANCH  22  23
HETATM   23  S   UNL     1      -8.287  10.512  65.233  1.00  0.00    -0.129 SA 
BRANCH  23  24
HETATM   24  C   UNL     1      -8.944   9.628  63.771  1.00  0.00    -0.217 C  
BRANCH  24  25
HETATM   25  C   UNL     1      -7.975   8.849  62.885  1.00  0.00    -0.159 C  
HETATM   26  O   UNL     1      -7.852   7.511  63.419  1.00  0.00    -0.130 OA 
HETATM   27  C   UNL     1      -5.786   8.132  62.424  1.00  0.00    -0.075 C  
HETATM   28  C   UNL     1      -6.526   7.030  63.153  1.00  0.00    -0.044 C  
HETATM   29  C   UNL     1      -6.551   9.375  62.821  1.00  0.00    -0.097 C  
ENDBRANCH  24  25
ENDBRANCH  23  24
ENDBRANCH  22  23
ENDBRANCH   3  22
TORSDOF 9
ENDMDL
MODEL      183
REMARK 921   NORMALIZED FREE ENERGY PREDICTED BY IDOCK:   -3.90 KCAL/MOL
REMARK 922        TOTAL FREE ENERGY PREDICTED BY IDOCK:   -7.19 KCAL/MOL
REMARK 923 INTER-LIGAND FREE ENERGY PREDICTED BY IDOCK:   -6.20 KCAL/MOL
REMARK 924 INTRA-LIGAND FREE ENERGY PREDICTED BY IDOCK:   -0.99 KCAL/MOL
REMARK 927      BINDING AFFINITY PREDICTED BY RF-SCORE:    0.00 PKD
ROOT
HETATM    1  C   UNL     1      -8.538  12.130  67.540  1.00  0.00    -0.171 C  
HETATM    2  C   UNL     1      -9.166  13.443  67.969  1.00  0.00    -0.209 C  
HETATM    3  C   UNL     1     -10.479  13.573  68.322  1.00  0.00    -0.253 C  
ENDROOT
BRANCH   2   4
HETATM    4  N   UNL     1      -8.230  14.478  68.071  1.00  0.00    -0.136 N  
HETATM    5  C   UNL     1      -7.679  14.810  69.300  1.00  0.00    -0.129 C  
HETATM    6  O   UNL     1      -6.874  15.719  69.484  1.00  0.00    -0.175 OA 
BRANCH   4   7
HETATM    7  C   UNL     1      -7.971  15.362  66.924  1.00  0.00    -0.195 C  
BRANCH   7   8
HETATM    8  C   UNL     1      -8.913  16.527  66.729  1.00  0.00    -0.261 A  
HETATM    9  H2  UNL     1      -9.968  14.665  65.154  1.00  0.00     0.000 HD 
HETATM   10  H1  UNL     1     -11.206  15.574  64.341  1.00  0.00     0.000 HD 
HETATM   11  N   UNL     1     -10.446  15.556  65.021  1.00  0.00    -0.410 NA 
HETATM   12  C   UNL     1     -10.029  16.553  65.729  1.00  0.00    -0.274 A  
HETATM   13  C   UNL     1      -8.647  17.747  67.258  1.00  0.00    -0.233 A  
HETATM   14  N   UNL     1      -9.234  18.963  66.943  1.00  0.00    -0.294 NA 
HETATM   15  C   UNL     1     -10.760  20.228  65.528  1.00  0.00    -0.076 C  
HETATM   16  N   UNL     1     -10.640  17.758  65.524  1.00  0.00    -0.615 NA 
HETATM   17  C   UNL     1     -10.193  18.929  66.061  1.00  0.00    -0.387 A  
ENDBRANCH   7   8
ENDBRANCH   4   7
ENDBRANCH   2   4
BRANCH   3  18
HETATM   18  C   UNL     1     -11.062  14.785  69.056  1.00  0.00    -0.268 C  
BRANCH  18  19
HETATM   19  C   UNL     1     -12.435  14.554  69.717  1.00  0.00    -0.215 C  
HETATM   20  H   UNL     1     -13.510  15.361  71.161  1.00  0.00     0.000 HD 
HETATM   21  O   UNL     1     -12.664  15.503  70.754  1.00  0.00    -0.430 OA 
ENDBRANCH  18  19
ENDBRANCH   3  18
BRANCH   3  22
HETATM   22  S   UNL     1     -11.578  12.232  67.958  1.00  0.00    -0.356 SA 
BRANCH  22  23
HETATM   23  S   UNL     1     -11.391  11.052  69.630  1.00  0.00    -0.306 SA 
BRANCH  23  24
HETATM   24  C   UNL     1     -11.244   9.334  69.019  1.00  0.00     0.165 C  
BRANCH  24  25
HETATM   25  C   UNL     1     -10.236   9.030  67.913  1.00  0.00    -0.221 C  
HETATM   26  O   UNL     1     -10.772   7.964  67.095  1.00  0.00    -0.326 OA 
HETATM   27  C   UNL     1      -8.403   7.785  67.132  1.00  0.00    -0.118 C  
HETATM   28  C   UNL     1      -9.681   7.180  66.590  1.00  0.00    -0.170 C  
HETATM   29  C   UNL     1      -8.875   8.528  68.363  1.00  0.00    -0.139 C  
ENDBRANCH  24  25
ENDBRANCH  23  24
ENDBRANCH  22  23
ENDBRANCH   3  22
TORSDOF 9
ENDMDL
MODEL      184
REMARK 921   NORMALIZED FREE ENERGY PREDICTED BY IDOCK:   -3.89 KCAL/MOL
REMARK 922        TOTAL FREE ENERGY PREDICTED BY IDOCK:   -7.17 KCAL/MOL
REMARK 923 INTER-LIGAND FREE ENERGY PREDICTED BY IDOCK:   -6.30 KCAL/MOL
REMARK 924 INTRA-LIGAND FREE ENERGY PREDICTED BY IDOCK:   -0.87 KCAL/MOL
REMARK 927      BINDING AFFINITY PREDICTED BY RF-SCORE:    0.00 PKD
ROOT
HETATM    1  C   UNL     1     -11.845  10.729  68.471  1.00  0.00    -0.168 C  
HETATM    2  C   UNL     1     -12.024  11.151  69.918  1.00  0.00    -0.363 C  
HETATM    3  C   UNL     1     -12.234  12.443  70.309  1.00  0.00    -0.267 C  
ENDROOT
BRANCH   2   4
HETATM    4  N   UNL     1     -12.063  10.061  70.794  1.00  0.00    -0.309 N  
HETATM    5  C   UNL     1     -13.275   9.585  71.272  1.00  0.00    -0.328 C  
HETATM    6  O   UNL     1     -13.399   8.654  72.063  1.00  0.00    -0.347 OA 
BRANCH   4   7
HETATM    7  C   UNL     1     -10.822   9.536  71.383  1.00  0.00    -0.312 C  
BRANCH   7   8
HETATM    8  C   UNL     1      -9.978   8.633  70.513  1.00  0.00    -0.220 A  
HETATM    9  H2  UNL     1     -11.624   6.916  71.698  1.00  0.00     0.000 HD 
HETATM   10  H1  UNL     1     -10.953   5.397  71.184  1.00  0.00     0.000 HD 
HETATM   11  N   UNL     1     -10.910   6.416  71.167  1.00  0.00    -0.247 NA 
HETATM   12  C   UNL     1     -10.040   7.135  70.539  1.00  0.00    -0.195 A  
HETATM   13  C   UNL     1      -8.903   9.107  69.836  1.00  0.00    -0.169 A  
HETATM   14  N   UNL     1      -7.877   8.384  69.245  1.00  0.00    -0.102 NA 
HETATM   15  C   UNL     1      -6.817   6.229  68.847  1.00  0.00    -0.066 C  
HETATM   16  N   UNL     1      -9.059   6.470  69.860  1.00  0.00    -0.143 NA 
HETATM   17  C   UNL     1      -7.977   7.086  69.304  1.00  0.00    -0.119 A  
ENDBRANCH   7   8
ENDBRANCH   4   7
ENDBRANCH   2   4
BRANCH   3  18
HETATM   18  C   UNL     1     -12.732  12.857  71.697  1.00  0.00    -0.299 C  
BRANCH  18  19
HETATM   19  C   UNL     1     -13.602  14.130  71.729  1.00  0.00    -0.399 C  
HETATM   20  H   UNL     1     -14.285  15.392  73.082  1.00  0.00     0.000 HD 
HETATM   21  O   UNL     1     -13.750  14.608  73.062  1.00  0.00    -0.555 OA 
ENDBRANCH  18  19
ENDBRANCH   3  18
BRANCH   3  22
HETATM   22  S   UNL     1     -11.966  13.728  69.119  1.00  0.00    -0.347 SA 
BRANCH  22  23
HETATM   23  S   UNL     1     -10.001  13.432  68.597  1.00  0.00    -0.069 SA 
BRANCH  23  24
HETATM   24  C   UNL     1      -9.955  13.469  66.768  1.00  0.00    -0.269 C  
BRANCH  24  25
HETATM   25  C   UNL     1      -9.323  12.295  66.024  1.00  0.00    -0.141 C  
HETATM   26  O   UNL     1     -10.377  11.569  65.348  1.00  0.00    -0.252 OA 
HETATM   27  C   UNL     1      -8.677  10.037  65.985  1.00  0.00    -0.152 C  
HETATM   28  C   UNL     1     -10.018  10.180  65.297  1.00  0.00    -0.311 C  
HETATM   29  C   UNL     1      -8.623  11.254  66.881  1.00  0.00    -0.150 C  
ENDBRANCH  24  25
ENDBRANCH  23  24
ENDBRANCH  22  23
ENDBRANCH   3  22
TORSDOF 9
ENDMDL
MODEL      185
REMARK 921   NORMALIZED FREE ENERGY PREDICTED BY IDOCK:   -3.87 KCAL/MOL
REMARK 922        TOTAL FREE ENERGY PREDICTED BY IDOCK:   -7.15 KCAL/MOL
REMARK 923 INTER-LIGAND FREE ENERGY PREDICTED BY IDOCK:   -6.31 KCAL/MOL
REMARK 924 INTRA-LIGAND FREE ENERGY PREDICTED BY IDOCK:   -0.85 KCAL/MOL
REMARK 927      BINDING AFFINITY PREDICTED BY RF-SCORE:    0.00 PKD
ROOT
HETATM    1  C   UNL     1     -10.385   8.476  67.999  1.00  0.00    -0.272 C  
HETATM    2  C   UNL     1      -9.510   9.381  68.846  1.00  0.00    -0.154 C  
HETATM    3  C   UNL     1      -8.177   9.167  69.053  1.00  0.00    -0.115 C  
ENDROOT
BRANCH   2   4
HETATM    4  N   UNL     1     -10.192  10.516  69.299  1.00  0.00    -0.219 N  
HETATM    5  C   UNL     1     -11.303  10.389  70.120  1.00  0.00    -0.323 C  
HETATM    6  O   UNL     1     -11.974  11.328  70.539  1.00  0.00    -0.343 OA 
BRANCH   4   7
HETATM    7  C   UNL     1      -9.873  11.843  68.749  1.00  0.00    -0.065 C  
BRANCH   7   8
HETATM    8  C   UNL     1     -10.428  12.172  67.383  1.00  0.00    -0.233 A  
HETATM    9  H2  UNL     1     -12.038  13.534  69.000  1.00  0.00     0.000 HD 
HETATM   10  H1  UNL     1     -13.240  14.101  67.880  1.00  0.00     0.000 HD 
HETATM   11  N   UNL     1     -12.382  13.572  68.041  1.00  0.00    -0.090 NA 
HETATM   12  C   UNL     1     -11.689  12.947  67.147  1.00  0.00    -0.377 A  
HETATM   13  C   UNL     1      -9.970  11.554  66.266  1.00  0.00    -0.220 A  
HETATM   14  N   UNL     1     -10.550  11.520  65.007  1.00  0.00    -0.287 NA 
HETATM   15  C   UNL     1     -12.440  12.074  63.576  1.00  0.00    -0.654 C  
HETATM   16  N   UNL     1     -12.169  12.962  65.868  1.00  0.00    -0.516 NA 
HETATM   17  C   UNL     1     -11.650  12.204  64.860  1.00  0.00    -0.316 A  
ENDBRANCH   7   8
ENDBRANCH   4   7
ENDBRANCH   2   4
BRANCH   3  18
HETATM   18  C   UNL     1      -7.211  10.211  69.622  1.00  0.00    -0.127 C  
BRANCH  18  19
HETATM   19  C   UNL     1      -6.033   9.640  70.437  1.00  0.00    -0.060 C  
HETATM   20  H   UNL     1      -5.568   9.379  72.336  1.00  0.00     0.000 HD 
HETATM   21  O   UNL     1      -6.293   9.732  71.834  1.00  0.00    -0.300 OA 
ENDBRANCH  18  19
ENDBRANCH   3  18
BRANCH   3  22
HETATM   22  S   UNL     1      -7.502   7.598  68.585  1.00  0.00    -0.106 SA 
BRANCH  22  23
HETATM   23  S   UNL     1      -7.677   6.515  70.322  1.00  0.00    -0.100 SA 
BRANCH  23  24
HETATM   24  C   UNL     1      -8.981   5.269  70.009  1.00  0.00    -0.127 C  
BRANCH  24  25
HETATM   25  C   UNL     1     -10.297   5.373  70.776  1.00  0.00    -0.251 C  
HETATM   26  O   UNL     1     -10.513   6.763  71.115  1.00  0.00    -0.211 OA 
HETATM   27  C   UNL     1     -11.448   5.403  72.824  1.00  0.00    -0.333 C  
HETATM   28  C   UNL     1     -11.221   6.827  72.362  1.00  0.00    -0.264 C  
HETATM   29  C   UNL     1     -10.362   4.636  72.103  1.00  0.00    -0.244 C  
ENDBRANCH  24  25
ENDBRANCH  23  24
ENDBRANCH  22  23
ENDBRANCH   3  22
TORSDOF 9
ENDMDL
MODEL      186
REMARK 921   NORMALIZED FREE ENERGY PREDICTED BY IDOCK:   -3.87 KCAL/MOL
REMARK 922        TOTAL FREE ENERGY PREDICTED BY IDOCK:   -7.15 KCAL/MOL
REMARK 923 INTER-LIGAND FREE ENERGY PREDICTED BY IDOCK:   -5.73 KCAL/MOL
REMARK 924 INTRA-LIGAND FREE ENERGY PREDICTED BY IDOCK:   -1.42 KCAL/MOL
REMARK 927      BINDING AFFINITY PREDICTED BY RF-SCORE:    0.00 PKD
ROOT
HETATM    1  C   UNL     1      -9.805   9.933  65.568  1.00  0.00    -0.381 C  
HETATM    2  C   UNL     1      -8.744   9.659  66.618  1.00  0.00    -0.134 C  
HETATM    3  C   UNL     1      -8.342   8.405  66.979  1.00  0.00    -0.114 C  
ENDROOT
BRANCH   2   4
HETATM    4  N   UNL     1      -8.144  10.831  67.093  1.00  0.00    -0.121 N  
HETATM    5  C   UNL     1      -7.014  11.345  66.473  1.00  0.00    -0.062 C  
HETATM    6  O   UNL     1      -6.410  12.349  66.839  1.00  0.00    -0.169 OA 
BRANCH   4   7
HETATM    7  C   UNL     1      -8.572  11.420  68.371  1.00  0.00    -0.156 C  
BRANCH   7   8
HETATM    8  C   UNL     1      -9.807  10.836  69.017  1.00  0.00    -0.208 A  
HETATM    9  H2  UNL     1     -10.830  12.594  67.306  1.00  0.00     0.000 HD 
HETATM   10  H1  UNL     1     -12.511  12.551  67.745  1.00  0.00     0.000 HD 
HETATM   11  N   UNL     1     -11.563  12.210  67.903  1.00  0.00    -0.333 NA 
HETATM   12  C   UNL     1     -11.200  11.338  68.785  1.00  0.00    -0.250 A  
HETATM   13  C   UNL     1      -9.719   9.984  70.069  1.00  0.00    -0.175 A  
HETATM   14  N   UNL     1     -10.724   9.596  70.942  1.00  0.00    -0.324 NA 
HETATM   15  C   UNL     1     -13.023   9.843  71.704  1.00  0.00    -0.536 C  
HETATM   16  N   UNL     1     -12.172  10.852  69.612  1.00  0.00    -0.323 NA 
HETATM   17  C   UNL     1     -11.914  10.070  70.699  1.00  0.00    -0.313 A  
ENDBRANCH   7   8
ENDBRANCH   4   7
ENDBRANCH   2   4
BRANCH   3  18
HETATM   18  C   UNL     1      -7.074   8.099  67.782  1.00  0.00    -0.087 C  
BRANCH  18  19
HETATM   19  C   UNL     1      -5.935   7.436  66.982  1.00  0.00    -0.042 C  
HETATM   20  H   UNL     1      -5.115   7.614  65.197  1.00  0.00     0.000 HD 
HETATM   21  O   UNL     1      -5.817   8.022  65.690  1.00  0.00    -0.037 OA 
ENDBRANCH  18  19
ENDBRANCH   3  18
BRANCH   3  22
HETATM   22  S   UNL     1      -9.321   7.029  66.441  1.00  0.00    -0.098 SA 
BRANCH  22  23
HETATM   23  S   UNL     1     -10.684   6.844  67.966  1.00  0.00    -0.205 SA 
BRANCH  23  24
HETATM   24  C   UNL     1      -9.897   5.766  69.217  1.00  0.00    -0.170 C  
BRANCH  24  25
HETATM   25  C   UNL     1     -10.704   5.352  70.445  1.00  0.00    -0.206 C  
HETATM   26  O   UNL     1     -11.730   6.347  70.666  1.00  0.00    -0.373 OA 
HETATM   27  C   UNL     1     -11.057   5.462  72.765  1.00  0.00    -0.349 C  
HETATM   28  C   UNL     1     -11.982   6.442  72.076  1.00  0.00    -0.326 C  
HETATM   29  C   UNL     1      -9.943   5.281  71.758  1.00  0.00    -0.245 C  
ENDBRANCH  24  25
ENDBRANCH  23  24
ENDBRANCH  22  23
ENDBRANCH   3  22
TORSDOF 9
ENDMDL
MODEL      187
REMARK 921   NORMALIZED FREE ENERGY PREDICTED BY IDOCK:   -3.86 KCAL/MOL
REMARK 922        TOTAL FREE ENERGY PREDICTED BY IDOCK:   -7.13 KCAL/MOL
REMARK 923 INTER-LIGAND FREE ENERGY PREDICTED BY IDOCK:   -6.29 KCAL/MOL
REMARK 924 INTRA-LIGAND FREE ENERGY PREDICTED BY IDOCK:   -0.84 KCAL/MOL
REMARK 927      BINDING AFFINITY PREDICTED BY RF-SCORE:    0.00 PKD
ROOT
HETATM    1  C   UNL     1      -8.649   7.543  69.781  1.00  0.00    -0.140 C  
HETATM    2  C   UNL     1      -9.289   8.569  70.698  1.00  0.00    -0.174 C  
HETATM    3  C   UNL     1     -10.293   9.408  70.310  1.00  0.00    -0.245 C  
ENDROOT
BRANCH   2   4
HETATM    4  N   UNL     1      -8.815   8.482  72.012  1.00  0.00    -0.209 N  
HETATM    5  C   UNL     1      -7.476   8.712  72.294  1.00  0.00     0.013 C  
HETATM    6  O   UNL     1      -6.972   8.630  73.411  1.00  0.00    -0.295 OA 
BRANCH   4   7
HETATM    7  C   UNL     1      -9.675   7.947  73.079  1.00  0.00    -0.283 C  
BRANCH   7   8
HETATM    8  C   UNL     1      -9.863   6.448  73.123  1.00  0.00    -0.178 A  
HETATM    9  H2  UNL     1     -11.902   7.239  71.613  1.00  0.00     0.000 HD 
HETATM   10  H1  UNL     1     -12.788   5.754  71.439  1.00  0.00     0.000 HD 
HETATM   11  N   UNL     1     -11.981   6.245  71.825  1.00  0.00    -0.305 NA 
HETATM   12  C   UNL     1     -11.049   5.728  72.557  1.00  0.00    -0.279 A  
HETATM   13  C   UNL     1      -9.098   5.663  73.922  1.00  0.00    -0.126 A  
HETATM   14  N   UNL     1      -9.323   4.347  74.296  1.00  0.00    -0.109 NA 
HETATM   15  C   UNL     1     -10.789   2.404  74.276  1.00  0.00    -0.180 C  
HETATM   16  N   UNL     1     -11.174   4.406  72.877  1.00  0.00    -0.118 NA 
HETATM   17  C   UNL     1     -10.373   3.772  73.781  1.00  0.00    -0.169 A  
ENDBRANCH   7   8
ENDBRANCH   4   7
ENDBRANCH   2   4
BRANCH   3  18
HETATM   18  C   UNL     1     -11.168  10.216  71.275  1.00  0.00    -0.143 C  
BRANCH  18  19
HETATM   19  C   UNL     1     -12.549  10.622  70.725  1.00  0.00    -0.386 C  
HETATM   20  H   UNL     1     -14.020  11.834  71.234  1.00  0.00     0.000 HD 
HETATM   21  O   UNL     1     -13.169  11.583  71.573  1.00  0.00    -0.372 OA 
ENDBRANCH  18  19
ENDBRANCH   3  18
BRANCH   3  22
HETATM   22  S   UNL     1     -10.650   9.538  68.580  1.00  0.00    -0.188 SA 
BRANCH  22  23
HETATM   23  S   UNL     1      -9.207  10.852  67.937  1.00  0.00    -0.156 SA 
BRANCH  23  24
HETATM   24  C   UNL     1      -9.700  11.355  66.248  1.00  0.00    -0.212 C  
BRANCH  24  25
HETATM   25  C   UNL     1     -10.540  12.618  66.072  1.00  0.00    -0.270 C  
HETATM   26  O   UNL     1     -11.933  12.256  66.209  1.00  0.00    -0.588 OA 
HETATM   27  C   UNL     1     -11.757  14.059  64.673  1.00  0.00    -0.417 C  
HETATM   28  C   UNL     1     -12.717  13.119  65.372  1.00  0.00    -0.360 C  
HETATM   29  C   UNL     1     -10.448  13.303  64.720  1.00  0.00    -0.402 C  
ENDBRANCH  24  25
ENDBRANCH  23  24
ENDBRANCH  22  23
ENDBRANCH   3  22
TORSDOF 9
ENDMDL
MODEL      188
REMARK 921   NORMALIZED FREE ENERGY PREDICTED BY IDOCK:   -3.86 KCAL/MOL
REMARK 922        TOTAL FREE ENERGY PREDICTED BY IDOCK:   -7.12 KCAL/MOL
REMARK 923 INTER-LIGAND FREE ENERGY PREDICTED BY IDOCK:   -6.32 KCAL/MOL
REMARK 924 INTRA-LIGAND FREE ENERGY PREDICTED BY IDOCK:   -0.80 KCAL/MOL
REMARK 927      BINDING AFFINITY PREDICTED BY RF-SCORE:    0.00 PKD
ROOT
HETATM    1  C   UNL     1      -7.612  10.013  68.519  1.00  0.00    -0.087 C  
HETATM    2  C   UNL     1      -8.605   9.038  67.914  1.00  0.00    -0.125 C  
HETATM    3  C   UNL     1      -9.097   7.950  68.576  1.00  0.00    -0.132 C  
ENDROOT
BRANCH   2   4
HETATM    4  N   UNL     1      -9.046   9.438  66.648  1.00  0.00    -0.145 N  
HETATM    5  C   UNL     1      -8.215   9.319  65.543  1.00  0.00    -0.124 C  
HETATM    6  O   UNL     1      -8.511   9.671  64.404  1.00  0.00    -0.155 OA 
BRANCH   4   7
HETATM    7  C   UNL     1     -10.309  10.179  66.500  1.00  0.00    -0.202 C  
BRANCH   7   8
HETATM    8  C   UNL     1     -10.218  11.593  65.974  1.00  0.00    -0.270 A  
HETATM    9  H2  UNL     1      -9.075  11.792  68.366  1.00  0.00     0.000 HD 
HETATM   10  H1  UNL     1      -8.861  13.512  68.494  1.00  0.00     0.000 HD 
HETATM   11  N   UNL     1      -9.189  12.716  67.948  1.00  0.00    -0.193 NA 
HETATM   12  C   UNL     1      -9.736  12.763  66.778  1.00  0.00    -0.243 A  
HETATM   13  C   UNL     1     -10.824  11.958  64.818  1.00  0.00    -0.307 A  
HETATM   14  N   UNL     1     -11.081  13.239  64.354  1.00  0.00    -0.367 NA 
HETATM   15  C   UNL     1     -11.045  15.640  64.757  1.00  0.00    -0.426 C  
HETATM   16  N   UNL     1      -9.928  14.001  66.233  1.00  0.00    -0.297 NA 
HETATM   17  C   UNL     1     -10.649  14.219  65.096  1.00  0.00    -0.406 A  
ENDBRANCH   7   8
ENDBRANCH   4   7
ENDBRANCH   2   4
BRANCH   3  18
HETATM   18  C   UNL     1     -10.320   7.143  68.128  1.00  0.00    -0.234 C  
BRANCH  18  19
HETATM   19  C   UNL     1     -10.006   5.769  67.502  1.00  0.00    -0.148 C  
HETATM   20  H   UNL     1      -9.301   5.074  65.796  1.00  0.00     0.000 HD 
HETATM   21  O   UNL     1      -9.495   5.920  66.182  1.00  0.00    -0.158 OA 
ENDBRANCH  18  19
ENDBRANCH   3  18
BRANCH   3  22
HETATM   22  S   UNL     1      -8.306   7.464  70.085  1.00  0.00    -0.137 SA 
BRANCH  22  23
HETATM   23  S   UNL     1      -9.256   8.645  71.473  1.00  0.00    -0.266 SA 
BRANCH  23  24
HETATM   24  C   UNL     1     -11.035   8.236  71.348  1.00  0.00    -0.249 C  
BRANCH  24  25
HETATM   25  C   UNL     1     -12.006   9.314  70.874  1.00  0.00    -0.257 C  
HETATM   26  O   UNL     1     -11.289  10.212  69.996  1.00  0.00    -0.253 OA 
HETATM   27  C   UNL     1     -12.959  11.443  71.153  1.00  0.00    -0.349 C  
HETATM   28  C   UNL     1     -11.846  11.529  70.131  1.00  0.00    -0.356 C  
HETATM   29  C   UNL     1     -12.594  10.210  71.950  1.00  0.00    -0.437 C  
ENDBRANCH  24  25
ENDBRANCH  23  24
ENDBRANCH  22  23
ENDBRANCH   3  22
TORSDOF 9
ENDMDL
MODEL      189
REMARK 921   NORMALIZED FREE ENERGY PREDICTED BY IDOCK:   -3.84 KCAL/MOL
REMARK 922        TOTAL FREE ENERGY PREDICTED BY IDOCK:   -7.10 KCAL/MOL
REMARK 923 INTER-LIGAND FREE ENERGY PREDICTED BY IDOCK:   -5.96 KCAL/MOL
REMARK 924 INTRA-LIGAND FREE ENERGY PREDICTED BY IDOCK:   -1.14 KCAL/MOL
REMARK 927      BINDING AFFINITY PREDICTED BY RF-SCORE:    0.00 PKD
ROOT
HETATM    1  C   UNL     1      -9.011   6.547  67.840  1.00  0.00    -0.115 C  
HETATM    2  C   UNL     1      -8.900   7.275  69.167  1.00  0.00    -0.136 C  
HETATM    3  C   UNL     1      -8.019   8.291  69.401  1.00  0.00    -0.113 C  
ENDROOT
BRANCH   2   4
HETATM    4  N   UNL     1      -9.874   6.867  70.086  1.00  0.00    -0.177 N  
HETATM    5  C   UNL     1      -9.579   5.911  71.046  1.00  0.00    -0.166 C  
HETATM    6  O   UNL     1     -10.379   5.476  71.871  1.00  0.00    -0.202 OA 
BRANCH   4   7
HETATM    7  C   UNL     1     -11.274   7.288  69.921  1.00  0.00    -0.170 C  
BRANCH   7   8
HETATM    8  C   UNL     1     -11.733   8.477  70.733  1.00  0.00    -0.228 A  
HETATM    9  H2  UNL     1     -13.387   6.558  71.536  1.00  0.00     0.000 HD 
HETATM   10  H1  UNL     1     -14.498   7.462  72.521  1.00  0.00     0.000 HD 
HETATM   11  N   UNL     1     -13.671   7.458  71.924  1.00  0.00    -0.280 NA 
HETATM   12  C   UNL     1     -12.949   8.483  71.610  1.00  0.00    -0.343 A  
HETATM   13  C   UNL     1     -11.231   9.718  70.516  1.00  0.00    -0.315 A  
HETATM   14  N   UNL     1     -11.735  10.934  70.952  1.00  0.00    -0.261 NA 
HETATM   15  C   UNL     1     -13.514  12.163  72.071  1.00  0.00    -0.388 C  
HETATM   16  N   UNL     1     -13.349   9.696  72.094  1.00  0.00    -0.452 NA 
HETATM   17  C   UNL     1     -12.798  10.881  71.704  1.00  0.00    -0.449 A  
ENDBRANCH   7   8
ENDBRANCH   4   7
ENDBRANCH   2   4
BRANCH   3  18
HETATM   18  C   UNL     1      -8.096   9.247  70.595  1.00  0.00    -0.207 C  
BRANCH  18  19
HETATM   19  C   UNL     1      -7.480   8.714  71.904  1.00  0.00    -0.062 C  
HETATM   20  H   UNL     1      -8.093   8.263  73.724  1.00  0.00     0.000 HD 
HETATM   21  O   UNL     1      -8.473   8.592  72.917  1.00  0.00    -0.403 OA 
ENDBRANCH  18  19
ENDBRANCH   3  18
BRANCH   3  22
HETATM   22  S   UNL     1      -6.726   8.562  68.220  1.00  0.00    -0.066 SA 
BRANCH  22  23
HETATM   23  S   UNL     1      -7.037  10.520  67.679  1.00  0.00    -0.085 SA 
BRANCH  23  24
HETATM   24  C   UNL     1      -8.793  10.631  67.178  1.00  0.00    -0.137 C  
BRANCH  24  25
HETATM   25  C   UNL     1      -9.478  11.996  67.195  1.00  0.00    -0.187 C  
HETATM   26  O   UNL     1     -10.839  11.811  67.651  1.00  0.00    -0.199 OA 
HETATM   27  C   UNL     1     -10.784  13.618  66.109  1.00  0.00    -0.286 C  
HETATM   28  C   UNL     1     -11.673  12.790  67.013  1.00  0.00    -0.374 C  
HETATM   29  C   UNL     1      -9.609  12.700  65.856  1.00  0.00    -0.158 C  
ENDBRANCH  24  25
ENDBRANCH  23  24
ENDBRANCH  22  23
ENDBRANCH   3  22
TORSDOF 9
ENDMDL
MODEL      190
REMARK 921   NORMALIZED FREE ENERGY PREDICTED BY IDOCK:   -3.84 KCAL/MOL
REMARK 922        TOTAL FREE ENERGY PREDICTED BY IDOCK:   -7.09 KCAL/MOL
REMARK 923 INTER-LIGAND FREE ENERGY PREDICTED BY IDOCK:   -6.28 KCAL/MOL
REMARK 924 INTRA-LIGAND FREE ENERGY PREDICTED BY IDOCK:   -0.82 KCAL/MOL
REMARK 927      BINDING AFFINITY PREDICTED BY RF-SCORE:    0.00 PKD
ROOT
HETATM    1  C   UNL     1      -8.235  10.805  68.896  1.00  0.00    -0.149 C  
HETATM    2  C   UNL     1      -9.172  10.695  67.707  1.00  0.00    -0.146 C  
HETATM    3  C   UNL     1      -9.810  11.764  67.146  1.00  0.00    -0.193 C  
ENDROOT
BRANCH   2   4
HETATM    4  N   UNL     1      -9.222   9.400  67.181  1.00  0.00    -0.133 N  
HETATM    5  C   UNL     1      -8.257   8.967  66.283  1.00  0.00    -0.111 C  
HETATM    6  O   UNL     1      -8.240   7.859  65.753  1.00  0.00    -0.115 OA 
BRANCH   4   7
HETATM    7  C   UNL     1     -10.402   8.550  67.406  1.00  0.00    -0.286 C  
BRANCH   7   8
HETATM    8  C   UNL     1     -10.452   7.774  68.701  1.00  0.00    -0.199 A  
HETATM    9  H2  UNL     1      -9.819   5.897  66.929  1.00  0.00     0.000 HD 
HETATM   10  H1  UNL     1      -9.921   4.463  67.906  1.00  0.00     0.000 HD 
HETATM   11  N   UNL     1     -10.006   5.478  67.840  1.00  0.00    -0.139 NA 
HETATM   12  C   UNL     1     -10.328   6.283  68.798  1.00  0.00    -0.205 A  
HETATM   13  C   UNL     1     -10.887   8.345  69.852  1.00  0.00    -0.207 A  
HETATM   14  N   UNL     1     -11.264   7.717  71.029  1.00  0.00    -0.262 NA 
HETATM   15  C   UNL     1     -11.702   5.645  72.230  1.00  0.00    -0.202 C  
HETATM   16  N   UNL     1     -10.619   5.721  70.008  1.00  0.00    -0.283 NA 
HETATM   17  C   UNL     1     -11.144   6.420  71.055  1.00  0.00    -0.294 A  
ENDBRANCH   7   8
ENDBRANCH   4   7
ENDBRANCH   2   4
BRANCH   3  18
HETATM   18  C   UNL     1     -10.494  11.742  65.775  1.00  0.00    -0.302 C  
BRANCH  18  19
HETATM   19  C   UNL     1     -11.386  12.961  65.467  1.00  0.00    -0.307 C  
HETATM   20  H   UNL     1     -13.309  13.337  65.236  1.00  0.00     0.000 HD 
HETATM   21  O   UNL     1     -12.759  12.586  65.426  1.00  0.00    -0.624 OA 
ENDBRANCH  18  19
ENDBRANCH   3  18
BRANCH   3  22
HETATM   22  S   UNL     1      -9.807  13.298  68.033  1.00  0.00    -0.234 SA 
BRANCH  22  23
HETATM   23  S   UNL     1      -8.375  14.376  67.028  1.00  0.00    -0.077 SA 
BRANCH  23  24
HETATM   24  C   UNL     1      -9.236  15.838  66.341  1.00  0.00    -0.312 C  
BRANCH  24  25
HETATM   25  C   UNL     1      -8.793  17.229  66.789  1.00  0.00    -0.247 C  
HETATM   26  O   UNL     1      -9.895  18.142  66.577  1.00  0.00    -0.328 OA 
HETATM   27  C   UNL     1      -7.853  19.318  66.267  1.00  0.00    -0.311 C  
HETATM   28  C   UNL     1      -9.363  19.437  66.260  1.00  0.00    -0.355 C  
HETATM   29  C   UNL     1      -7.629  17.841  66.028  1.00  0.00    -0.255 C  
ENDBRANCH  24  25
ENDBRANCH  23  24
ENDBRANCH  22  23
ENDBRANCH   3  22
TORSDOF 9
ENDMDL
MODEL      191
REMARK 921   NORMALIZED FREE ENERGY PREDICTED BY IDOCK:   -3.83 KCAL/MOL
REMARK 922        TOTAL FREE ENERGY PREDICTED BY IDOCK:   -7.09 KCAL/MOL
REMARK 923 INTER-LIGAND FREE ENERGY PREDICTED BY IDOCK:   -6.22 KCAL/MOL
REMARK 924 INTRA-LIGAND FREE ENERGY PREDICTED BY IDOCK:   -0.87 KCAL/MOL
REMARK 927      BINDING AFFINITY PREDICTED BY RF-SCORE:    0.00 PKD
ROOT
HETATM    1  C   UNL     1     -12.274   6.670  70.479  1.00  0.00    -0.209 C  
HETATM    2  C   UNL     1     -11.040   6.796  71.352  1.00  0.00    -0.254 C  
HETATM    3  C   UNL     1     -10.637   7.967  71.928  1.00  0.00    -0.245 C  
ENDROOT
BRANCH   2   4
HETATM    4  N   UNL     1     -10.425   5.563  71.592  1.00  0.00    -0.225 N  
HETATM    5  C   UNL     1     -10.786   4.799  72.693  1.00  0.00    -0.199 C  
HETATM    6  O   UNL     1     -10.279   3.722  72.994  1.00  0.00    -0.144 OA 
BRANCH   4   7
HETATM    7  C   UNL     1      -9.250   5.152  70.809  1.00  0.00    -0.145 C  
BRANCH   7   8
HETATM    8  C   UNL     1      -9.509   4.557  69.444  1.00  0.00    -0.244 A  
HETATM    9  H2  UNL     1      -9.123   2.400  70.949  1.00  0.00     0.000 HD 
HETATM   10  H1  UNL     1      -9.100   1.148  69.743  1.00  0.00     0.000 HD 
HETATM   11  N   UNL     1      -9.189   2.140  69.964  1.00  0.00    -0.107 NA 
HETATM   12  C   UNL     1      -9.378   3.099  69.119  1.00  0.00    -0.158 A  
HETATM   13  C   UNL     1      -9.616   5.338  68.341  1.00  0.00    -0.134 A  
HETATM   14  N   UNL     1      -9.562   4.952  67.010  1.00  0.00    -0.147 NA 
HETATM   15  C   UNL     1      -9.189   3.189  65.373  1.00  0.00    -0.148 C  
HETATM   16  N   UNL     1      -9.426   2.760  67.797  1.00  0.00    -0.188 NA 
HETATM   17  C   UNL     1      -9.438   3.674  66.785  1.00  0.00    -0.179 A  
ENDBRANCH   7   8
ENDBRANCH   4   7
ENDBRANCH   2   4
BRANCH   3  18
HETATM   18  C   UNL     1      -9.604   8.067  73.055  1.00  0.00    -0.347 C  
BRANCH  18  19
HETATM   19  C   UNL     1      -8.135   8.134  72.593  1.00  0.00    -0.160 C  
HETATM   20  H   UNL     1      -6.420   8.816  73.289  1.00  0.00     0.000 HD 
HETATM   21  O   UNL     1      -7.325   8.775  73.573  1.00  0.00    -0.370 OA 
ENDBRANCH  18  19
ENDBRANCH   3  18
BRANCH   3  22
HETATM   22  S   UNL     1     -11.396   9.471  71.379  1.00  0.00    -0.384 SA 
BRANCH  22  23
HETATM   23  S   UNL     1     -10.336   9.891  69.669  1.00  0.00    -0.258 SA 
BRANCH  23  24
HETATM   24  C   UNL     1     -11.446  10.906  68.626  1.00  0.00    -0.311 C  
BRANCH  24  25
HETATM   25  C   UNL     1     -11.135  12.390  68.449  1.00  0.00    -0.250 C  
HETATM   26  O   UNL     1     -11.624  13.096  69.613  1.00  0.00    -0.283 OA 
HETATM   27  C   UNL     1     -11.797  14.523  67.722  1.00  0.00    -0.390 C  
HETATM   28  C   UNL     1     -12.036  14.411  69.213  1.00  0.00    -0.324 C  
HETATM   29  C   UNL     1     -11.797  13.080  67.269  1.00  0.00    -0.419 C  
ENDBRANCH  24  25
ENDBRANCH  23  24
ENDBRANCH  22  23
ENDBRANCH   3  22
TORSDOF 9
ENDMDL
MODEL      192
REMARK 921   NORMALIZED FREE ENERGY PREDICTED BY IDOCK:   -3.83 KCAL/MOL
REMARK 922        TOTAL FREE ENERGY PREDICTED BY IDOCK:   -7.09 KCAL/MOL
REMARK 923 INTER-LIGAND FREE ENERGY PREDICTED BY IDOCK:   -6.65 KCAL/MOL
REMARK 924 INTRA-LIGAND FREE ENERGY PREDICTED BY IDOCK:   -0.44 KCAL/MOL
REMARK 927      BINDING AFFINITY PREDICTED BY RF-SCORE:    0.00 PKD
ROOT
HETATM    1  C   UNL     1      -7.840  13.632  67.100  1.00  0.00    -0.028 C  
HETATM    2  C   UNL     1      -9.353  13.746  67.105  1.00  0.00    -0.240 C  
HETATM    3  C   UNL     1     -10.190  12.703  67.384  1.00  0.00    -0.217 C  
ENDROOT
BRANCH   2   4
HETATM    4  N   UNL     1      -9.792  15.059  66.906  1.00  0.00    -0.233 N  
HETATM    5  C   UNL     1      -9.993  15.547  65.622  1.00  0.00    -0.360 C  
HETATM    6  O   UNL     1     -10.349  16.692  65.356  1.00  0.00    -0.584 OA 
BRANCH   4   7
HETATM    7  C   UNL     1      -9.850  16.004  68.032  1.00  0.00    -0.222 C  
BRANCH   7   8
HETATM    8  C   UNL     1      -8.704  16.979  68.169  1.00  0.00    -0.233 A  
HETATM    9  H2  UNL     1      -7.843  14.881  69.555  1.00  0.00     0.000 HD 
HETATM   10  H1  UNL     1      -6.391  15.520  70.266  1.00  0.00     0.000 HD 
HETATM   11  N   UNL     1      -7.206  15.669  69.670  1.00  0.00    -0.186 NA 
HETATM   12  C   UNL     1      -7.508  16.760  69.046  1.00  0.00    -0.228 A  
HETATM   13  C   UNL     1      -8.801  18.253  67.715  1.00  0.00    -0.263 A  
HETATM   14  N   UNL     1      -7.982  19.333  68.012  1.00  0.00    -0.293 NA 
HETATM   15  C   UNL     1      -6.128  20.239  69.303  1.00  0.00    -0.371 C  
HETATM   16  N   UNL     1      -6.678  17.830  69.230  1.00  0.00    -0.247 NA 
HETATM   17  C   UNL     1      -6.963  19.087  68.786  1.00  0.00    -0.310 A  
ENDBRANCH   7   8
ENDBRANCH   4   7
ENDBRANCH   2   4
BRANCH   3  18
HETATM   18  C   UNL     1     -11.679  12.852  67.712  1.00  0.00    -0.412 C  
BRANCH  18  19
HETATM   19  C   UNL     1     -12.001  13.122  69.195  1.00  0.00    -0.281 C  
HETATM   20  H   UNL     1     -12.636  14.631  70.295  1.00  0.00     0.000 HD 
HETATM   21  O   UNL     1     -12.437  14.464  69.381  1.00  0.00    -0.248 OA 
ENDBRANCH  18  19
ENDBRANCH   3  18
BRANCH   3  22
HETATM   22  S   UNL     1      -9.503  11.071  67.423  1.00  0.00    -0.160 SA 
BRANCH  22  23
HETATM   23  S   UNL     1      -9.821  10.513  69.375  1.00  0.00    -0.133 SA 
BRANCH  23  24
HETATM   24  C   UNL     1      -8.682   9.116  69.691  1.00  0.00    -0.145 C  
BRANCH  24  25
HETATM   25  C   UNL     1      -9.243   7.696  69.695  1.00  0.00    -0.146 C  
HETATM   26  O   UNL     1      -9.777   7.419  68.380  1.00  0.00    -0.149 OA 
HETATM   27  C   UNL     1     -11.063   6.241  69.993  1.00  0.00    -0.455 C  
HETATM   28  C   UNL     1     -10.892   6.525  68.516  1.00  0.00    -0.288 C  
HETATM   29  C   UNL     1     -10.397   7.432  70.647  1.00  0.00    -0.217 C  
ENDBRANCH  24  25
ENDBRANCH  23  24
ENDBRANCH  22  23
ENDBRANCH   3  22
TORSDOF 9
ENDMDL
MODEL      193
REMARK 921   NORMALIZED FREE ENERGY PREDICTED BY IDOCK:   -3.81 KCAL/MOL
REMARK 922        TOTAL FREE ENERGY PREDICTED BY IDOCK:   -7.05 KCAL/MOL
REMARK 923 INTER-LIGAND FREE ENERGY PREDICTED BY IDOCK:   -6.13 KCAL/MOL
REMARK 924 INTRA-LIGAND FREE ENERGY PREDICTED BY IDOCK:   -0.93 KCAL/MOL
REMARK 927      BINDING AFFINITY PREDICTED BY RF-SCORE:    0.00 PKD
ROOT
HETATM    1  C   UNL     1     -10.670   8.720  67.764  1.00  0.00    -0.193 C  
HETATM    2  C   UNL     1     -10.657   9.020  69.252  1.00  0.00    -0.213 C  
HETATM    3  C   UNL     1     -10.306   8.107  70.204  1.00  0.00    -0.215 C  
ENDROOT
BRANCH   2   4
HETATM    4  N   UNL     1     -10.932  10.363  69.531  1.00  0.00    -0.244 N  
HETATM    5  C   UNL     1     -12.017  10.709  70.324  1.00  0.00    -0.339 C  
HETATM    6  O   UNL     1     -12.347  11.860  70.596  1.00  0.00    -0.356 OA 
BRANCH   4   7
HETATM    7  C   UNL     1     -10.210  11.433  68.826  1.00  0.00    -0.197 C  
BRANCH   7   8
HETATM    8  C   UNL     1     -10.868  12.009  67.593  1.00  0.00    -0.273 A  
HETATM    9  H2  UNL     1      -8.814  10.666  66.574  1.00  0.00     0.000 HD 
HETATM   10  H1  UNL     1      -8.892  11.148  64.905  1.00  0.00     0.000 HD 
HETATM   11  N   UNL     1      -9.278  11.212  65.847  1.00  0.00    -0.202 NA 
HETATM   12  C   UNL     1     -10.300  11.916  66.210  1.00  0.00    -0.224 A  
HETATM   13  C   UNL     1     -11.892  12.893  67.687  1.00  0.00    -0.346 A  
HETATM   14  N   UNL     1     -12.402  13.720  66.697  1.00  0.00    -0.400 NA 
HETATM   15  C   UNL     1     -12.236  14.591  64.430  1.00  0.00    -0.480 C  
HETATM   16  N   UNL     1     -10.899  12.679  65.248  1.00  0.00    -0.281 NA 
HETATM   17  C   UNL     1     -11.865  13.604  65.515  1.00  0.00    -0.362 A  
ENDBRANCH   7   8
ENDBRANCH   4   7
ENDBRANCH   2   4
BRANCH   3  18
HETATM   18  C   UNL     1      -9.974   8.456  71.658  1.00  0.00    -0.302 C  
BRANCH  18  19
HETATM   19  C   UNL     1     -10.833   7.738  72.718  1.00  0.00    -0.379 C  
HETATM   20  H   UNL     1     -12.656   7.883  73.457  1.00  0.00     0.000 HD 
HETATM   21  O   UNL     1     -12.127   8.326  72.804  1.00  0.00    -0.353 OA 
ENDBRANCH  18  19
ENDBRANCH   3  18
BRANCH   3  22
HETATM   22  S   UNL     1     -10.174   6.407  69.721  1.00  0.00    -0.197 SA 
BRANCH  22  23
HETATM   23  S   UNL     1      -8.193   6.006  70.088  1.00  0.00    -0.120 SA 
BRANCH  23  24
HETATM   24  C   UNL     1      -7.265   6.722  68.682  1.00  0.00    -0.085 C  
BRANCH  24  25
HETATM   25  C   UNL     1      -6.589   8.079  68.862  1.00  0.00    -0.049 C  
HETATM   26  O   UNL     1      -6.855   8.540  70.207  1.00  0.00    -0.038 OA 
HETATM   27  C   UNL     1      -6.701  10.423  68.767  1.00  0.00    -0.053 C  
HETATM   28  C   UNL     1      -6.925   9.974  70.195  1.00  0.00    -0.148 C  
HETATM   29  C   UNL     1      -7.081   9.200  67.963  1.00  0.00    -0.078 C  
ENDBRANCH  24  25
ENDBRANCH  23  24
ENDBRANCH  22  23
ENDBRANCH   3  22
TORSDOF 9
ENDMDL
MODEL      194
REMARK 921   NORMALIZED FREE ENERGY PREDICTED BY IDOCK:   -3.81 KCAL/MOL
REMARK 922        TOTAL FREE ENERGY PREDICTED BY IDOCK:   -7.05 KCAL/MOL
REMARK 923 INTER-LIGAND FREE ENERGY PREDICTED BY IDOCK:   -7.24 KCAL/MOL
REMARK 924 INTRA-LIGAND FREE ENERGY PREDICTED BY IDOCK:    0.19 KCAL/MOL
REMARK 927      BINDING AFFINITY PREDICTED BY RF-SCORE:    0.00 PKD
ROOT
HETATM    1  C   UNL     1     -10.580  11.376  67.101  1.00  0.00    -0.279 C  
HETATM    2  C   UNL     1     -11.085  11.743  68.484  1.00  0.00    -0.239 C  
HETATM    3  C   UNL     1     -11.027  13.006  69.000  1.00  0.00    -0.196 C  
ENDROOT
BRANCH   2   4
HETATM    4  N   UNL     1     -11.716  10.671  69.126  1.00  0.00    -0.275 N  
HETATM    5  C   UNL     1     -12.671  10.902  70.106  1.00  0.00    -0.161 C  
HETATM    6  O   UNL     1     -13.252  10.023  70.737  1.00  0.00    -0.348 OA 
BRANCH   4   7
HETATM    7  C   UNL     1     -11.235   9.296  68.925  1.00  0.00     0.193 C  
BRANCH   7   8
HETATM    8  C   UNL     1     -10.461   8.666  70.060  1.00  0.00    -0.229 A  
HETATM    9  H2  UNL     1     -12.547   7.038  69.812  1.00  0.00     0.000 HD 
HETATM   10  H1  UNL     1     -12.331   6.003  71.192  1.00  0.00     0.000 HD 
HETATM   11  N   UNL     1     -11.999   6.791  70.637  1.00  0.00    -0.392 NA 
HETATM   12  C   UNL     1     -10.950   7.508  70.876  1.00  0.00    -0.253 A  
HETATM   13  C   UNL     1      -9.380   9.278  70.604  1.00  0.00    -0.270 A  
HETATM   14  N   UNL     1      -8.749   8.993  71.806  1.00  0.00    -0.353 NA 
HETATM   15  C   UNL     1      -8.711   7.717  73.879  1.00  0.00    -0.302 C  
HETATM   16  N   UNL     1     -10.237   7.207  72.002  1.00  0.00    -0.189 NA 
HETATM   17  C   UNL     1      -9.221   7.982  72.479  1.00  0.00    -0.216 A  
ENDBRANCH   7   8
ENDBRANCH   4   7
ENDBRANCH   2   4
BRANCH   3  18
HETATM   18  C   UNL     1     -11.803  13.472  70.237  1.00  0.00    -0.327 C  
BRANCH  18  19
HETATM   19  C   UNL     1     -11.566  14.940  70.644  1.00  0.00    -0.291 C  
HETATM   20  H   UNL     1     -12.636  16.585  70.845  1.00  0.00     0.000 HD 
HETATM   21  O   UNL     1     -12.781  15.681  70.593  1.00  0.00    -0.454 OA 
ENDBRANCH  18  19
ENDBRANCH   3  18
BRANCH   3  22
HETATM   22  S   UNL     1     -10.032  14.206  68.159  1.00  0.00    -0.237 SA 
BRANCH  22  23
HETATM   23  S   UNL     1     -11.387  15.074  66.882  1.00  0.00    -0.255 SA 
BRANCH  23  24
HETATM   24  C   UNL     1     -10.409  16.138  65.758  1.00  0.00    -0.378 C  
BRANCH  24  25
HETATM   25  C   UNL     1      -9.970  17.516  66.247  1.00  0.00    -0.308 C  
HETATM   26  O   UNL     1     -10.320  17.631  67.645  1.00  0.00    -0.338 OA 
HETATM   27  C   UNL     1     -10.471  19.778  66.638  1.00  0.00    -0.615 C  
HETATM   28  C   UNL     1     -10.629  19.004  67.930  1.00  0.00    -0.358 C  
HETATM   29  C   UNL     1     -10.635  18.709  65.580  1.00  0.00    -0.171 C  
ENDBRANCH  24  25
ENDBRANCH  23  24
ENDBRANCH  22  23
ENDBRANCH   3  22
TORSDOF 9
ENDMDL
MODEL      195
REMARK 921   NORMALIZED FREE ENERGY PREDICTED BY IDOCK:   -3.81 KCAL/MOL
REMARK 922        TOTAL FREE ENERGY PREDICTED BY IDOCK:   -7.05 KCAL/MOL
REMARK 923 INTER-LIGAND FREE ENERGY PREDICTED BY IDOCK:   -6.37 KCAL/MOL
REMARK 924 INTRA-LIGAND FREE ENERGY PREDICTED BY IDOCK:   -0.68 KCAL/MOL
REMARK 927      BINDING AFFINITY PREDICTED BY RF-SCORE:    0.00 PKD
ROOT
HETATM    1  C   UNL     1     -11.852  11.207  68.466  1.00  0.00    -0.330 C  
HETATM    2  C   UNL     1     -10.414  11.683  68.368  1.00  0.00    -0.213 C  
HETATM    3  C   UNL     1     -10.057  12.997  68.267  1.00  0.00    -0.239 C  
ENDROOT
BRANCH   2   4
HETATM    4  N   UNL     1      -9.494  10.638  68.507  1.00  0.00    -0.168 N  
HETATM    5  C   UNL     1      -8.893  10.388  69.732  1.00  0.00     0.066 C  
HETATM    6  O   UNL     1      -8.056   9.513  69.936  1.00  0.00    -0.120 OA 
BRANCH   4   7
HETATM    7  C   UNL     1      -8.994   9.925  67.322  1.00  0.00    -0.135 C  
BRANCH   7   8
HETATM    8  C   UNL     1      -9.268   8.441  67.248  1.00  0.00    -0.165 A  
HETATM    9  H2  UNL     1      -6.624   8.551  66.998  1.00  0.00     0.000 HD 
HETATM   10  H1  UNL     1      -6.252   6.894  66.626  1.00  0.00     0.000 HD 
HETATM   11  N   UNL     1      -6.957   7.600  66.840  1.00  0.00    -0.077 NA 
HETATM   12  C   UNL     1      -8.231   7.405  66.932  1.00  0.00    -0.121 A  
HETATM   13  C   UNL     1     -10.534   7.957  67.194  1.00  0.00    -0.344 A  
HETATM   14  N   UNL     1     -10.949   6.682  66.838  1.00  0.00    -0.381 NA 
HETATM   15  C   UNL     1     -10.375   4.472  65.995  1.00  0.00    -0.276 C  
HETATM   16  N   UNL     1      -8.685   6.140  66.683  1.00  0.00    -0.121 NA 
HETATM   17  C   UNL     1     -10.006   5.824  66.565  1.00  0.00    -0.163 A  
ENDBRANCH   7   8
ENDBRANCH   4   7
ENDBRANCH   2   4
BRANCH   3  18
HETATM   18  C   UNL     1      -8.637  13.528  68.489  1.00  0.00    -0.088 C  
BRANCH  18  19
HETATM   19  C   UNL     1      -7.681  13.364  67.292  1.00  0.00    -0.079 C  
HETATM   20  H   UNL     1      -5.817  13.828  66.843  1.00  0.00     0.000 HD 
HETATM   21  O   UNL     1      -6.406  13.929  67.581  1.00  0.00    -0.195 OA 
ENDBRANCH  18  19
ENDBRANCH   3  18
BRANCH   3  22
HETATM   22  S   UNL     1     -11.326  14.181  67.908  1.00  0.00    -0.311 SA 
BRANCH  22  23
HETATM   23  S   UNL     1     -10.900  14.695  65.965  1.00  0.00    -0.327 SA 
BRANCH  23  24
HETATM   24  C   UNL     1      -9.932  16.246  66.055  1.00  0.00    -0.345 C  
BRANCH  24  25
HETATM   25  C   UNL     1     -10.636  17.527  66.497  1.00  0.00    -0.191 C  
HETATM   26  O   UNL     1     -10.467  18.516  65.455  1.00  0.00    -0.597 OA 
HETATM   27  C   UNL     1     -10.547  19.621  67.557  1.00  0.00    -0.577 C  
HETATM   28  C   UNL     1     -10.413  19.816  66.061  1.00  0.00    -0.506 C  
HETATM   29  C   UNL     1     -10.098  18.190  67.753  1.00  0.00    -0.371 C  
ENDBRANCH  24  25
ENDBRANCH  23  24
ENDBRANCH  22  23
ENDBRANCH   3  22
TORSDOF 9
ENDMDL
MODEL      196
REMARK 921   NORMALIZED FREE ENERGY PREDICTED BY IDOCK:   -3.81 KCAL/MOL
REMARK 922        TOTAL FREE ENERGY PREDICTED BY IDOCK:   -7.05 KCAL/MOL
REMARK 923 INTER-LIGAND FREE ENERGY PREDICTED BY IDOCK:   -5.92 KCAL/MOL
REMARK 924 INTRA-LIGAND FREE ENERGY PREDICTED BY IDOCK:   -1.13 KCAL/MOL
REMARK 927      BINDING AFFINITY PREDICTED BY RF-SCORE:    0.00 PKD
ROOT
HETATM    1  C   UNL     1     -12.099  12.921  66.044  1.00  0.00    -0.484 C  
HETATM    2  C   UNL     1     -10.743  12.481  66.564  1.00  0.00    -0.240 C  
HETATM    3  C   UNL     1      -9.877  13.312  67.216  1.00  0.00    -0.233 C  
ENDROOT
BRANCH   2   4
HETATM    4  N   UNL     1     -10.526  11.109  66.402  1.00  0.00    -0.252 N  
HETATM    5  C   UNL     1      -9.762  10.637  65.344  1.00  0.00    -0.252 C  
HETATM    6  O   UNL     1      -9.544   9.451  65.111  1.00  0.00    -0.256 OA 
BRANCH   4   7
HETATM    7  C   UNL     1     -11.267  10.137  67.220  1.00  0.00     0.053 C  
BRANCH   7   8
HETATM    8  C   UNL     1     -10.746   9.875  68.614  1.00  0.00    -0.256 A  
HETATM    9  H2  UNL     1      -8.868   8.782  67.084  1.00  0.00     0.000 HD 
HETATM   10  H1  UNL     1      -7.876   7.997  68.276  1.00  0.00     0.000 HD 
HETATM   11  N   UNL     1      -8.697   8.566  68.066  1.00  0.00    -0.141 NA 
HETATM   12  C   UNL     1      -9.540   9.039  68.923  1.00  0.00    -0.156 A  
HETATM   13  C   UNL     1     -11.492  10.154  69.712  1.00  0.00    -0.228 A  
HETATM   14  N   UNL     1     -11.295   9.720  71.014  1.00  0.00    -0.359 NA 
HETATM   15  C   UNL     1     -10.047   8.326  72.571  1.00  0.00    -0.376 C  
HETATM   16  N   UNL     1      -9.338   8.717  70.235  1.00  0.00    -0.161 NA 
HETATM   17  C   UNL     1     -10.237   8.989  71.224  1.00  0.00    -0.314 A  
ENDBRANCH   7   8
ENDBRANCH   4   7
ENDBRANCH   2   4
BRANCH   3  18
HETATM   18  C   UNL     1      -8.665  12.838  68.024  1.00  0.00    -0.194 C  
BRANCH  18  19
HETATM   19  C   UNL     1      -7.415  12.493  67.191  1.00  0.00    -0.075 C  
HETATM   20  H   UNL     1      -5.596  13.209  66.931  1.00  0.00     0.000 HD 
HETATM   21  O   UNL     1      -6.366  13.422  67.444  1.00  0.00    -0.272 OA 
ENDBRANCH  18  19
ENDBRANCH   3  18
BRANCH   3  22
HETATM   22  S   UNL     1     -10.200  15.054  67.173  1.00  0.00    -0.252 SA 
BRANCH  22  23
HETATM   23  S   UNL     1      -9.714  15.631  69.084  1.00  0.00    -0.266 SA 
BRANCH  23  24
HETATM   24  C   UNL     1      -8.172  16.606  68.938  1.00  0.00    -0.231 C  
BRANCH  24  25
HETATM   25  C   UNL     1      -7.423  16.602  67.608  1.00  0.00    -0.150 C  
HETATM   26  O   UNL     1      -6.005  16.665  67.888  1.00  0.00    -0.113 OA 
HETATM   27  C   UNL     1      -6.432  17.791  65.841  1.00  0.00    -0.264 C  
HETATM   28  C   UNL     1      -5.358  17.381  66.826  1.00  0.00    -0.174 C  
HETATM   29  C   UNL     1      -7.688  17.778  66.683  1.00  0.00    -0.274 C  
ENDBRANCH  24  25
ENDBRANCH  23  24
ENDBRANCH  22  23
ENDBRANCH   3  22
TORSDOF 9
ENDMDL
MODEL      197
REMARK 921   NORMALIZED FREE ENERGY PREDICTED BY IDOCK:   -3.80 KCAL/MOL
REMARK 922        TOTAL FREE ENERGY PREDICTED BY IDOCK:   -7.04 KCAL/MOL
REMARK 923 INTER-LIGAND FREE ENERGY PREDICTED BY IDOCK:   -6.18 KCAL/MOL
REMARK 924 INTRA-LIGAND FREE ENERGY PREDICTED BY IDOCK:   -0.86 KCAL/MOL
REMARK 927      BINDING AFFINITY PREDICTED BY RF-SCORE:    0.00 PKD
ROOT
HETATM    1  C   UNL     1     -11.540  10.996  69.480  1.00  0.00    -0.384 C  
HETATM    2  C   UNL     1     -10.365  11.583  68.719  1.00  0.00    -0.196 C  
HETATM    3  C   UNL     1     -10.189  12.922  68.517  1.00  0.00    -0.205 C  
ENDROOT
BRANCH   2   4
HETATM    4  N   UNL     1      -9.428  10.613  68.347  1.00  0.00    -0.159 N  
HETATM    5  C   UNL     1      -8.326  10.356  69.148  1.00  0.00    -0.158 C  
HETATM    6  O   UNL     1      -7.443   9.544  68.885  1.00  0.00    -0.072 OA 
BRANCH   4   7
HETATM    7  C   UNL     1      -9.482  10.001  67.010  1.00  0.00    -0.164 C  
BRANCH   7   8
HETATM    8  C   UNL     1      -9.523   8.492  66.948  1.00  0.00    -0.237 A  
HETATM    9  H2  UNL     1      -7.124   9.045  65.947  1.00  0.00     0.000 HD 
HETATM   10  H1  UNL     1      -6.615   7.473  65.405  1.00  0.00     0.000 HD 
HETATM   11  N   UNL     1      -7.331   8.050  65.848  1.00  0.00    -0.075 NA 
HETATM   12  C   UNL     1      -8.473   7.644  66.296  1.00  0.00    -0.139 A  
HETATM   13  C   UNL     1     -10.654   7.802  67.240  1.00  0.00    -0.306 A  
HETATM   14  N   UNL     1     -10.944   6.475  66.960  1.00  0.00    -0.403 NA 
HETATM   15  C   UNL     1     -10.295   4.391  65.881  1.00  0.00    -0.234 C  
HETATM   16  N   UNL     1      -8.770   6.321  66.128  1.00  0.00    -0.142 NA 
HETATM   17  C   UNL     1      -9.998   5.788  66.384  1.00  0.00    -0.131 A  
ENDBRANCH   7   8
ENDBRANCH   4   7
ENDBRANCH   2   4
BRANCH   3  18
HETATM   18  C   UNL     1      -8.878  13.561  68.046  1.00  0.00    -0.181 C  
BRANCH  18  19
HETATM   19  C   UNL     1      -8.519  14.898  68.724  1.00  0.00    -0.172 C  
HETATM   20  H   UNL     1      -8.420  16.804  68.224  1.00  0.00     0.000 HD 
HETATM   21  O   UNL     1      -8.641  15.980  67.806  1.00  0.00    -0.161 OA 
ENDBRANCH  18  19
ENDBRANCH   3  18
BRANCH   3  22
HETATM   22  S   UNL     1     -11.545  14.006  68.871  1.00  0.00    -0.338 SA 
BRANCH  22  23
HETATM   23  S   UNL     1     -12.525  14.078  67.066  1.00  0.00     0.105 SA 
BRANCH  23  24
HETATM   24  C   UNL     1     -11.296  14.681  65.851  1.00  0.00    -0.338 C  
BRANCH  24  25
HETATM   25  C   UNL     1     -11.228  14.012  64.480  1.00  0.00    -0.350 C  
HETATM   26  O   UNL     1     -12.530  13.453  64.186  1.00  0.00    -0.608 OA 
HETATM   27  C   UNL     1     -10.865  12.086  63.185  1.00  0.00    -0.275 C  
HETATM   28  C   UNL     1     -12.353  12.273  63.388  1.00  0.00    -0.517 C  
HETATM   29  C   UNL     1     -10.266  12.844  64.349  1.00  0.00    -0.342 C  
ENDBRANCH  24  25
ENDBRANCH  23  24
ENDBRANCH  22  23
ENDBRANCH   3  22
TORSDOF 9
ENDMDL
MODEL      198
REMARK 921   NORMALIZED FREE ENERGY PREDICTED BY IDOCK:   -3.80 KCAL/MOL
REMARK 922        TOTAL FREE ENERGY PREDICTED BY IDOCK:   -7.03 KCAL/MOL
REMARK 923 INTER-LIGAND FREE ENERGY PREDICTED BY IDOCK:   -5.90 KCAL/MOL
REMARK 924 INTRA-LIGAND FREE ENERGY PREDICTED BY IDOCK:   -1.13 KCAL/MOL
REMARK 927      BINDING AFFINITY PREDICTED BY RF-SCORE:    0.00 PKD
ROOT
HETATM    1  C   UNL     1     -12.169   9.285  71.042  1.00  0.00    -0.322 C  
HETATM    2  C   UNL     1     -10.782   8.783  70.687  1.00  0.00    -0.225 C  
HETATM    3  C   UNL     1     -10.118   9.137  69.548  1.00  0.00    -0.197 C  
ENDROOT
BRANCH   2   4
HETATM    4  N   UNL     1     -10.214   8.010  71.707  1.00  0.00    -0.192 N  
HETATM    5  C   UNL     1      -9.282   8.563  72.573  1.00  0.00    -0.233 C  
HETATM    6  O   UNL     1      -8.715   7.951  73.475  1.00  0.00    -0.207 OA 
BRANCH   4   7
HETATM    7  C   UNL     1     -10.436   6.556  71.749  1.00  0.00    -0.211 C  
BRANCH   7   8
HETATM    8  C   UNL     1      -9.967   5.755  70.557  1.00  0.00    -0.252 A  
HETATM    9  H2  UNL     1      -7.760   5.947  72.025  1.00  0.00     0.000 HD 
HETATM   10  H1  UNL     1      -6.579   5.267  70.947  1.00  0.00     0.000 HD 
HETATM   11  N   UNL     1      -7.550   5.526  71.119  1.00  0.00    -0.099 NA 
HETATM   12  C   UNL     1      -8.540   5.374  70.303  1.00  0.00    -0.124 A  
HETATM   13  C   UNL     1     -10.769   5.552  69.482  1.00  0.00    -0.262 A  
HETATM   14  N   UNL     1     -10.411   5.106  68.219  1.00  0.00    -0.114 NA 
HETATM   15  C   UNL     1      -8.648   4.478  66.661  1.00  0.00    -0.111 C  
HETATM   16  N   UNL     1      -8.255   4.850  69.074  1.00  0.00    -0.082 NA 
HETATM   17  C   UNL     1      -9.155   4.798  68.051  1.00  0.00    -0.117 A  
ENDBRANCH   7   8
ENDBRANCH   4   7
ENDBRANCH   2   4
BRANCH   3  18
HETATM   18  C   UNL     1      -8.620   8.915  69.314  1.00  0.00    -0.133 C  
BRANCH  18  19
HETATM   19  C   UNL     1      -8.256   8.261  67.967  1.00  0.00    -0.128 C  
HETATM   20  H   UNL     1      -6.712   7.324  67.173  1.00  0.00     0.000 HD 
HETATM   21  O   UNL     1      -6.936   7.727  68.003  1.00  0.00    -0.075 OA 
ENDBRANCH  18  19
ENDBRANCH   3  18
BRANCH   3  22
HETATM   22  S   UNL     1     -11.032   9.956  68.270  1.00  0.00    -0.148 SA 
BRANCH  22  23
HETATM   23  S   UNL     1     -10.106  11.788  68.181  1.00  0.00    -0.196 SA 
BRANCH  23  24
HETATM   24  C   UNL     1     -11.167  12.837  67.122  1.00  0.00    -0.292 C  
BRANCH  24  25
HETATM   25  C   UNL     1     -11.619  12.295  65.767  1.00  0.00    -0.388 C  
HETATM   26  O   UNL     1     -10.446  12.118  64.939  1.00  0.00    -0.269 OA 
HETATM   27  C   UNL     1     -12.287  12.692  63.551  1.00  0.00    -0.591 C  
HETATM   28  C   UNL     1     -10.813  12.347  63.570  1.00  0.00    -0.438 C  
HETATM   29  C   UNL     1     -12.536  13.194  64.956  1.00  0.00    -0.499 C  
ENDBRANCH  24  25
ENDBRANCH  23  24
ENDBRANCH  22  23
ENDBRANCH   3  22
TORSDOF 9
ENDMDL
MODEL      199
REMARK 921   NORMALIZED FREE ENERGY PREDICTED BY IDOCK:   -3.79 KCAL/MOL
REMARK 922        TOTAL FREE ENERGY PREDICTED BY IDOCK:   -7.03 KCAL/MOL
REMARK 923 INTER-LIGAND FREE ENERGY PREDICTED BY IDOCK:   -6.10 KCAL/MOL
REMARK 924 INTRA-LIGAND FREE ENERGY PREDICTED BY IDOCK:   -0.93 KCAL/MOL
REMARK 927      BINDING AFFINITY PREDICTED BY RF-SCORE:    0.00 PKD
ROOT
HETATM    1  C   UNL     1     -10.792   8.871  71.598  1.00  0.00    -0.420 C  
HETATM    2  C   UNL     1      -9.881   8.101  70.660  1.00  0.00    -0.181 C  
HETATM    3  C   UNL     1      -9.072   8.696  69.734  1.00  0.00    -0.150 C  
ENDROOT
BRANCH   2   4
HETATM    4  N   UNL     1      -9.877   6.727  70.923  1.00  0.00    -0.186 N  
HETATM    5  C   UNL     1      -8.954   6.182  71.804  1.00  0.00    -0.141 C  
HETATM    6  O   UNL     1      -8.863   4.986  72.071  1.00  0.00    -0.127 OA 
BRANCH   4   7
HETATM    7  C   UNL     1     -10.707   5.814  70.122  1.00  0.00    -0.320 C  
BRANCH   7   8
HETATM    8  C   UNL     1     -10.077   5.225  68.881  1.00  0.00    -0.254 A  
HETATM    9  H2  UNL     1     -11.331   7.367  67.930  1.00  0.00     0.000 HD 
HETATM   10  H1  UNL     1     -11.126   7.144  66.218  1.00  0.00     0.000 HD 
HETATM   11  N   UNL     1     -10.959   6.803  67.165  1.00  0.00    -0.390 NA 
HETATM   12  C   UNL     1     -10.323   5.726  67.490  1.00  0.00    -0.220 A  
HETATM   13  C   UNL     1      -9.452   4.022  68.908  1.00  0.00    -0.167 A  
HETATM   14  N   UNL     1      -9.088   3.222  67.835  1.00  0.00    -0.151 NA 
HETATM   15  C   UNL     1      -9.135   2.821  65.434  1.00  0.00    -0.145 C  
HETATM   16  N   UNL     1      -9.860   4.947  66.468  1.00  0.00    -0.183 NA 
HETATM   17  C   UNL     1      -9.333   3.702  66.649  1.00  0.00    -0.188 A  
ENDBRANCH   7   8
ENDBRANCH   4   7
ENDBRANCH   2   4
BRANCH   3  18
HETATM   18  C   UNL     1      -7.923   7.989  69.007  1.00  0.00    -0.114 C  
BRANCH  18  19
HETATM   19  C   UNL     1      -7.557   8.578  67.631  1.00  0.00    -0.098 C  
HETATM   20  H   UNL     1      -6.151   8.333  66.269  1.00  0.00     0.000 HD 
HETATM   21  O   UNL     1      -6.376   7.970  67.118  1.00  0.00    -0.053 OA 
ENDBRANCH  18  19
ENDBRANCH   3  18
BRANCH   3  22
HETATM   22  S   UNL     1      -9.327  10.413  69.384  1.00  0.00    -0.119 SA 
BRANCH  22  23
HETATM   23  S   UNL     1     -10.860  10.354  68.017  1.00  0.00    -0.287 SA 
BRANCH  23  24
HETATM   24  C   UNL     1     -11.230  12.097  67.600  1.00  0.00    -0.286 C  
BRANCH  24  25
HETATM   25  C   UNL     1     -11.779  12.420  66.212  1.00  0.00    -0.395 C  
HETATM   26  O   UNL     1     -10.663  12.511  65.296  1.00  0.00    -0.272 OA 
HETATM   27  C   UNL     1     -12.360  14.014  64.588  1.00  0.00    -0.425 C  
HETATM   28  C   UNL     1     -10.980  13.474  64.280  1.00  0.00    -0.336 C  
HETATM   29  C   UNL     1     -12.508  13.745  66.069  1.00  0.00    -0.491 C  
ENDBRANCH  24  25
ENDBRANCH  23  24
ENDBRANCH  22  23
ENDBRANCH   3  22
TORSDOF 9
ENDMDL
MODEL      200
REMARK 921   NORMALIZED FREE ENERGY PREDICTED BY IDOCK:   -3.78 KCAL/MOL
REMARK 922        TOTAL FREE ENERGY PREDICTED BY IDOCK:   -7.01 KCAL/MOL
REMARK 923 INTER-LIGAND FREE ENERGY PREDICTED BY IDOCK:   -6.12 KCAL/MOL
REMARK 924 INTRA-LIGAND FREE ENERGY PREDICTED BY IDOCK:   -0.89 KCAL/MOL
REMARK 927      BINDING AFFINITY PREDICTED BY RF-SCORE:    0.00 PKD
ROOT
HETATM    1  C   UNL     1      -8.633   8.209  71.354  1.00  0.00    -0.168 C  
HETATM    2  C   UNL     1      -9.563   7.358  70.509  1.00  0.00    -0.172 C  
HETATM    3  C   UNL     1      -9.184   6.747  69.349  1.00  0.00    -0.143 C  
ENDROOT
BRANCH   2   4
HETATM    4  N   UNL     1     -10.815   7.177  71.107  1.00  0.00    -0.237 N  
HETATM    5  C   UNL     1     -11.009   6.172  72.044  1.00  0.00    -0.258 C  
HETATM    6  O   UNL     1     -12.078   5.925  72.595  1.00  0.00    -0.190 OA 
BRANCH   4   7
HETATM    7  C   UNL     1     -11.991   7.905  70.606  1.00  0.00    -0.048 C  
BRANCH   7   8
HETATM    8  C   UNL     1     -12.242   9.280  71.180  1.00  0.00    -0.373 A  
HETATM    9  H2  UNL     1     -14.073   7.799  72.413  1.00  0.00     0.000 HD 
HETATM   10  H1  UNL     1     -14.994   9.021  73.238  1.00  0.00     0.000 HD 
HETATM   11  N   UNL     1     -14.214   8.788  72.623  1.00  0.00    -0.534 NA 
HETATM   12  C   UNL     1     -13.388   9.623  72.084  1.00  0.00    -0.454 A  
HETATM   13  C   UNL     1     -11.600  10.375  70.701  1.00  0.00    -0.349 A  
HETATM   14  N   UNL     1     -11.916  11.710  70.904  1.00  0.00    -0.202 NA 
HETATM   15  C   UNL     1     -13.448  13.365  71.820  1.00  0.00    -0.452 C  
HETATM   16  N   UNL     1     -13.599  10.950  72.329  1.00  0.00    -0.080 NA 
HETATM   17  C   UNL     1     -12.927  11.950  71.691  1.00  0.00    -0.342 A  
ENDBRANCH   7   8
ENDBRANCH   4   7
ENDBRANCH   2   4
BRANCH   3  18
HETATM   18  C   UNL     1      -9.982   5.640  68.652  1.00  0.00    -0.213 C  
BRANCH  18  19
HETATM   19  C   UNL     1     -10.723   6.072  67.372  1.00  0.00    -0.310 C  
HETATM   20  H   UNL     1     -11.332   7.753  66.539  1.00  0.00     0.000 HD 
HETATM   21  O   UNL     1     -10.875   7.487  67.328  1.00  0.00    -0.299 OA 
ENDBRANCH  18  19
ENDBRANCH   3  18
BRANCH   3  22
HETATM   22  S   UNL     1      -7.640   7.223  68.621  1.00  0.00    -0.117 SA 
BRANCH  22  23
HETATM   23  S   UNL     1      -8.018   9.154  68.029  1.00  0.00    -0.100 SA 
BRANCH  23  24
HETATM   24  C   UNL     1      -7.392   9.287  66.314  1.00  0.00    -0.092 C  
BRANCH  24  25
HETATM   25  C   UNL     1      -8.382   9.161  65.159  1.00  0.00    -0.154 C  
HETATM   26  O   UNL     1      -7.699   8.539  64.046  1.00  0.00    -0.121 OA 
HETATM   27  C   UNL     1      -9.327  10.048  63.199  1.00  0.00    -0.297 C  
HETATM   28  C   UNL     1      -8.252   9.050  62.824  1.00  0.00    -0.184 C  
HETATM   29  C   UNL     1      -8.931  10.462  64.599  1.00  0.00    -0.235 C  
ENDBRANCH  24  25
ENDBRANCH  23  24
ENDBRANCH  22  23
ENDBRANCH   3  22
TORSDOF 9
ENDMDL
MODEL      201
REMARK 921   NORMALIZED FREE ENERGY PREDICTED BY IDOCK:   -3.78 KCAL/MOL
REMARK 922        TOTAL FREE ENERGY PREDICTED BY IDOCK:   -7.00 KCAL/MOL
REMARK 923 INTER-LIGAND FREE ENERGY PREDICTED BY IDOCK:   -6.23 KCAL/MOL
REMARK 924 INTRA-LIGAND FREE ENERGY PREDICTED BY IDOCK:   -0.77 KCAL/MOL
REMARK 927      BINDING AFFINITY PREDICTED BY RF-SCORE:    0.00 PKD
ROOT
HETATM    1  C   UNL     1     -12.530   6.599  70.850  1.00  0.00    -0.183 C  
HETATM    2  C   UNL     1     -11.087   6.869  71.237  1.00  0.00    -0.258 C  
HETATM    3  C   UNL     1     -10.650   8.061  71.741  1.00  0.00    -0.238 C  
ENDROOT
BRANCH   2   4
HETATM    4  N   UNL     1     -10.280   5.732  71.127  1.00  0.00    -0.209 N  
HETATM    5  C   UNL     1     -10.493   4.636  71.951  1.00  0.00    -0.102 C  
HETATM    6  O   UNL     1      -9.817   3.611  71.941  1.00  0.00    -0.159 OA 
BRANCH   4   7
HETATM    7  C   UNL     1      -9.072   5.755  70.289  1.00  0.00    -0.145 C  
BRANCH   7   8
HETATM    8  C   UNL     1      -9.250   5.447  68.820  1.00  0.00    -0.148 A  
HETATM    9  H2  UNL     1      -9.580   8.083  68.901  1.00  0.00     0.000 HD 
HETATM   10  H1  UNL     1     -10.090   8.409  67.271  1.00  0.00     0.000 HD 
HETATM   11  N   UNL     1      -9.798   7.726  67.970  1.00  0.00    -0.158 NA 
HETATM   12  C   UNL     1      -9.679   6.451  67.792  1.00  0.00    -0.121 A  
HETATM   13  C   UNL     1      -9.298   4.171  68.365  1.00  0.00    -0.155 A  
HETATM   14  N   UNL     1      -9.736   3.718  67.130  1.00  0.00    -0.174 NA 
HETATM   15  C   UNL     1     -10.764   4.218  64.980  1.00  0.00    -0.139 C  
HETATM   16  N   UNL     1     -10.009   5.964  66.560  1.00  0.00    -0.164 NA 
HETATM   17  C   UNL     1     -10.105   4.633  66.278  1.00  0.00    -0.265 A  
ENDBRANCH   7   8
ENDBRANCH   4   7
ENDBRANCH   2   4
BRANCH   3  18
HETATM   18  C   UNL     1      -9.298   8.264  72.432  1.00  0.00    -0.338 C  
BRANCH  18  19
HETATM   19  C   UNL     1      -8.210   8.926  71.564  1.00  0.00    -0.082 C  
HETATM   20  H   UNL     1      -6.283   9.323  71.698  1.00  0.00     0.000 HD 
HETATM   21  O   UNL     1      -6.953   8.916  72.233  1.00  0.00    -0.289 OA 
ENDBRANCH  18  19
ENDBRANCH   3  18
BRANCH   3  22
HETATM   22  S   UNL     1     -11.735   9.458  71.639  1.00  0.00    -0.386 SA 
BRANCH  22  23
HETATM   23  S   UNL     1     -11.050  10.417  69.957  1.00  0.00    -0.321 SA 
BRANCH  23  24
HETATM   24  C   UNL     1     -12.150  11.859  69.716  1.00  0.00    -0.252 C  
BRANCH  24  25
HETATM   25  C   UNL     1     -12.291  12.874  70.848  1.00  0.00    -0.275 C  
HETATM   26  O   UNL     1     -13.456  12.520  71.629  1.00  0.00    -0.285 OA 
HETATM   27  C   UNL     1     -13.198  14.881  71.665  1.00  0.00    -0.444 C  
HETATM   28  C   UNL     1     -14.040  13.722  72.154  1.00  0.00    -0.511 C  
HETATM   29  C   UNL     1     -12.525  14.316  70.434  1.00  0.00    -0.426 C  
ENDBRANCH  24  25
ENDBRANCH  23  24
ENDBRANCH  22  23
ENDBRANCH   3  22
TORSDOF 9
ENDMDL
MODEL      202
REMARK 921   NORMALIZED FREE ENERGY PREDICTED BY IDOCK:   -3.77 KCAL/MOL
REMARK 922        TOTAL FREE ENERGY PREDICTED BY IDOCK:   -6.99 KCAL/MOL
REMARK 923 INTER-LIGAND FREE ENERGY PREDICTED BY IDOCK:   -5.48 KCAL/MOL
REMARK 924 INTRA-LIGAND FREE ENERGY PREDICTED BY IDOCK:   -1.51 KCAL/MOL
REMARK 927      BINDING AFFINITY PREDICTED BY RF-SCORE:    0.00 PKD
ROOT
HETATM    1  C   UNL     1     -10.458   7.832  67.532  1.00  0.00    -0.338 C  
HETATM    2  C   UNL     1      -9.743   9.050  68.087  1.00  0.00    -0.152 C  
HETATM    3  C   UNL     1      -8.399   9.260  67.965  1.00  0.00    -0.120 C  
ENDROOT
BRANCH   2   4
HETATM    4  N   UNL     1     -10.626   9.986  68.636  1.00  0.00    -0.203 N  
HETATM    5  C   UNL     1     -11.459  10.734  67.816  1.00  0.00    -0.202 C  
HETATM    6  O   UNL     1     -12.242  11.594  68.210  1.00  0.00    -0.525 OA 
BRANCH   4   7
HETATM    7  C   UNL     1     -10.542  10.342  70.061  1.00  0.00    -0.269 C  
BRANCH   7   8
HETATM    8  C   UNL     1     -10.778   9.233  71.060  1.00  0.00    -0.387 A  
HETATM    9  H2  UNL     1      -8.217   9.828  71.454  1.00  0.00     0.000 HD 
HETATM   10  H1  UNL     1      -7.744   8.567  72.553  1.00  0.00     0.000 HD 
HETATM   11  N   UNL     1      -8.477   8.999  71.990  1.00  0.00    -0.336 NA 
HETATM   12  C   UNL     1      -9.701   8.598  71.888  1.00  0.00    -0.313 A  
HETATM   13  C   UNL     1     -11.943   8.541  71.086  1.00  0.00    -0.272 A  
HETATM   14  N   UNL     1     -12.210   7.337  71.720  1.00  0.00    -0.319 NA 
HETATM   15  C   UNL     1     -11.383   5.431  72.989  1.00  0.00    -0.355 C  
HETATM   16  N   UNL     1     -10.042   7.465  72.571  1.00  0.00    -0.181 NA 
HETATM   17  C   UNL     1     -11.236   6.825  72.418  1.00  0.00    -0.264 A  
ENDBRANCH   7   8
ENDBRANCH   4   7
ENDBRANCH   2   4
BRANCH   3  18
HETATM   18  C   UNL     1      -7.705  10.601  68.221  1.00  0.00    -0.107 C  
BRANCH  18  19
HETATM   19  C   UNL     1      -7.371  11.419  66.958  1.00  0.00    -0.144 C  
HETATM   20  H   UNL     1      -6.659  11.080  65.150  1.00  0.00     0.000 HD 
HETATM   21  O   UNL     1      -6.864  10.576  65.928  1.00  0.00    -0.124 OA 
ENDBRANCH  18  19
ENDBRANCH   3  18
BRANCH   3  22
HETATM   22  S   UNL     1      -7.390   7.907  67.424  1.00  0.00    -0.094 SA 
BRANCH  22  23
HETATM   23  S   UNL     1      -6.419   7.372  69.154  1.00  0.00    -0.040 SA 
BRANCH  23  24
HETATM   24  C   UNL     1      -6.330   5.544  69.136  1.00  0.00    -0.034 C  
BRANCH  24  25
HETATM   25  C   UNL     1      -7.610   4.743  69.368  1.00  0.00    -0.056 C  
HETATM   26  O   UNL     1      -8.087   4.276  68.085  1.00  0.00    -0.088 OA 
HETATM   27  C   UNL     1      -9.954   4.670  69.501  1.00  0.00    -0.266 C  
HETATM   28  C   UNL     1      -9.521   4.210  68.125  1.00  0.00    -0.158 C  
HETATM   29  C   UNL     1      -8.781   5.505  69.965  1.00  0.00    -0.132 C  
ENDBRANCH  24  25
ENDBRANCH  23  24
ENDBRANCH  22  23
ENDBRANCH   3  22
TORSDOF 9
ENDMDL
MODEL      203
REMARK 921   NORMALIZED FREE ENERGY PREDICTED BY IDOCK:   -3.76 KCAL/MOL
REMARK 922        TOTAL FREE ENERGY PREDICTED BY IDOCK:   -6.98 KCAL/MOL
REMARK 923 INTER-LIGAND FREE ENERGY PREDICTED BY IDOCK:   -6.11 KCAL/MOL
REMARK 924 INTRA-LIGAND FREE ENERGY PREDICTED BY IDOCK:   -0.87 KCAL/MOL
REMARK 927      BINDING AFFINITY PREDICTED BY RF-SCORE:    0.00 PKD
ROOT
HETATM    1  C   UNL     1      -9.880  11.074  68.050  1.00  0.00    -0.183 C  
HETATM    2  C   UNL     1      -9.775  10.335  69.372  1.00  0.00    -0.222 C  
HETATM    3  C   UNL     1     -10.792  10.261  70.280  1.00  0.00    -0.286 C  
ENDROOT
BRANCH   2   4
HETATM    4  N   UNL     1      -8.564   9.646  69.507  1.00  0.00    -0.157 N  
HETATM    5  C   UNL     1      -7.396  10.330  69.810  1.00  0.00    -0.165 C  
HETATM    6  O   UNL     1      -6.288   9.810  69.919  1.00  0.00    -0.047 OA 
BRANCH   4   7
HETATM    7  C   UNL     1      -8.469   8.228  69.129  1.00  0.00    -0.127 C  
BRANCH   7   8
HETATM    8  C   UNL     1      -8.150   7.923  67.683  1.00  0.00    -0.124 A  
HETATM    9  H2  UNL     1     -10.806   7.832  67.718  1.00  0.00     0.000 HD 
HETATM   10  H1  UNL     1     -11.144   7.242  66.118  1.00  0.00     0.000 HD 
HETATM   11  N   UNL     1     -10.451   7.519  66.814  1.00  0.00    -0.294 NA 
HETATM   12  C   UNL     1      -9.168   7.514  66.661  1.00  0.00    -0.162 A  
HETATM   13  C   UNL     1      -6.874   7.732  67.266  1.00  0.00    -0.069 A  
HETATM   14  N   UNL     1      -6.438   7.172  66.074  1.00  0.00    -0.050 NA 
HETATM   15  C   UNL     1      -6.985   6.046  63.986  1.00  0.00    -0.050 C  
HETATM   16  N   UNL     1      -8.687   7.059  65.466  1.00  0.00    -0.083 NA 
HETATM   17  C   UNL     1      -7.365   6.827  65.226  1.00  0.00    -0.084 A  
ENDBRANCH   7   8
ENDBRANCH   4   7
ENDBRANCH   2   4
BRANCH   3  18
HETATM   18  C   UNL     1     -10.836   9.276  71.452  1.00  0.00    -0.434 C  
BRANCH  18  19
HETATM   19  C   UNL     1     -11.413   7.886  71.120  1.00  0.00    -0.273 C  
HETATM   20  H   UNL     1     -12.750   6.646  71.874  1.00  0.00     0.000 HD 
HETATM   21  O   UNL     1     -12.394   7.503  72.079  1.00  0.00    -0.298 OA 
ENDBRANCH  18  19
ENDBRANCH   3  18
BRANCH   3  22
HETATM   22  S   UNL     1     -12.183  11.337  70.064  1.00  0.00    -0.296 SA 
BRANCH  22  23
HETATM   23  S   UNL     1     -13.140  11.178  71.875  1.00  0.00    -0.263 SA 
BRANCH  23  24
HETATM   24  C   UNL     1     -13.752  12.856  72.270  1.00  0.00    -0.458 C  
BRANCH  24  25
HETATM   25  C   UNL     1     -12.755  13.909  72.750  1.00  0.00    -0.132 C  
HETATM   26  O   UNL     1     -13.436  14.784  73.679  1.00  0.00    -0.258 OA 
HETATM   27  C   UNL     1     -11.789  16.036  72.512  1.00  0.00    -0.630 C  
HETATM   28  C   UNL     1     -12.870  16.098  73.570  1.00  0.00    -0.549 C  
HETATM   29  C   UNL     1     -12.191  14.835  71.686  1.00  0.00    -0.413 C  
ENDBRANCH  24  25
ENDBRANCH  23  24
ENDBRANCH  22  23
ENDBRANCH   3  22
TORSDOF 9
ENDMDL
MODEL      204
REMARK 921   NORMALIZED FREE ENERGY PREDICTED BY IDOCK:   -3.75 KCAL/MOL
REMARK 922        TOTAL FREE ENERGY PREDICTED BY IDOCK:   -6.97 KCAL/MOL
REMARK 923 INTER-LIGAND FREE ENERGY PREDICTED BY IDOCK:   -5.90 KCAL/MOL
REMARK 924 INTRA-LIGAND FREE ENERGY PREDICTED BY IDOCK:   -1.07 KCAL/MOL
REMARK 927      BINDING AFFINITY PREDICTED BY RF-SCORE:    0.00 PKD
ROOT
HETATM    1  C   UNL     1     -12.012   6.582  70.990  1.00  0.00    -0.358 C  
HETATM    2  C   UNL     1     -10.674   6.757  70.293  1.00  0.00    -0.244 C  
HETATM    3  C   UNL     1      -9.818   7.789  70.549  1.00  0.00    -0.182 C  
ENDROOT
BRANCH   2   4
HETATM    4  N   UNL     1     -10.367   5.686  69.446  1.00  0.00    -0.246 N  
HETATM    5  C   UNL     1      -9.543   4.658  69.882  1.00  0.00    -0.191 C  
HETATM    6  O   UNL     1      -9.201   3.698  69.198  1.00  0.00    -0.131 OA 
BRANCH   4   7
HETATM    7  C   UNL     1     -10.737   5.733  68.024  1.00  0.00    -0.209 C  
BRANCH   7   8
HETATM    8  C   UNL     1     -10.048   6.772  67.169  1.00  0.00    -0.249 A  
HETATM    9  H2  UNL     1      -8.191   4.884  67.389  1.00  0.00     0.000 HD 
HETATM   10  H1  UNL     1      -6.826   5.668  66.651  1.00  0.00     0.000 HD 
HETATM   11  N   UNL     1      -7.806   5.710  66.930  1.00  0.00    -0.101 NA 
HETATM   12  C   UNL     1      -8.608   6.709  66.759  1.00  0.00    -0.118 A  
HETATM   13  C   UNL     1     -10.614   7.982  66.934  1.00  0.00    -0.254 A  
HETATM   14  N   UNL     1     -10.010   9.126  66.433  1.00  0.00    -0.281 NA 
HETATM   15  C   UNL     1      -7.977  10.259  65.720  1.00  0.00    -0.144 C  
HETATM   16  N   UNL     1      -8.086   7.832  66.182  1.00  0.00    -0.108 NA 
HETATM   17  C   UNL     1      -8.755   9.018  66.101  1.00  0.00    -0.147 A  
ENDBRANCH   7   8
ENDBRANCH   4   7
ENDBRANCH   2   4
BRANCH   3  18
HETATM   18  C   UNL     1      -8.349   7.823  70.114  1.00  0.00    -0.128 C  
BRANCH  18  19
HETATM   19  C   UNL     1      -7.348   8.224  71.215  1.00  0.00    -0.078 C  
HETATM   20  H   UNL     1      -6.378   9.846  71.781  1.00  0.00     0.000 HD 
HETATM   21  O   UNL     1      -6.995   9.599  71.102  1.00  0.00    -0.304 OA 
ENDBRANCH  18  19
ENDBRANCH   3  18
BRANCH   3  22
HETATM   22  S   UNL     1     -10.423   9.161  71.492  1.00  0.00    -0.317 SA 
BRANCH  22  23
HETATM   23  S   UNL     1     -11.238  10.361  70.037  1.00  0.00    -0.334 SA 
BRANCH  23  24
HETATM   24  C   UNL     1     -12.296  11.569  70.915  1.00  0.00    -0.359 C  
BRANCH  24  25
HETATM   25  C   UNL     1     -12.608  12.902  70.238  1.00  0.00    -0.013 C  
HETATM   26  O   UNL     1     -11.881  12.954  68.989  1.00  0.00    -0.299 OA 
HETATM   27  C   UNL     1     -12.065  15.156  69.862  1.00  0.00    -0.373 C  
HETATM   28  C   UNL     1     -11.533  14.320  68.717  1.00  0.00    -0.296 C  
HETATM   29  C   UNL     1     -12.183  14.153  70.988  1.00  0.00    -0.432 C  
ENDBRANCH  24  25
ENDBRANCH  23  24
ENDBRANCH  22  23
ENDBRANCH   3  22
TORSDOF 9
ENDMDL
MODEL      205
REMARK 921   NORMALIZED FREE ENERGY PREDICTED BY IDOCK:   -3.75 KCAL/MOL
REMARK 922        TOTAL FREE ENERGY PREDICTED BY IDOCK:   -6.97 KCAL/MOL
REMARK 923 INTER-LIGAND FREE ENERGY PREDICTED BY IDOCK:   -6.11 KCAL/MOL
REMARK 924 INTRA-LIGAND FREE ENERGY PREDICTED BY IDOCK:   -0.86 KCAL/MOL
REMARK 927      BINDING AFFINITY PREDICTED BY RF-SCORE:    0.00 PKD
ROOT
HETATM    1  C   UNL     1     -10.172   9.267  66.587  1.00  0.00    -0.323 C  
HETATM    2  C   UNL     1      -9.774   9.794  67.954  1.00  0.00    -0.144 C  
HETATM    3  C   UNL     1      -9.778   9.034  69.088  1.00  0.00    -0.167 C  
ENDROOT
BRANCH   2   4
HETATM    4  N   UNL     1      -9.296  11.108  67.904  1.00  0.00    -0.157 N  
HETATM    5  C   UNL     1      -8.016  11.374  67.441  1.00  0.00    -0.139 C  
HETATM    6  O   UNL     1      -7.508  12.491  67.389  1.00  0.00    -0.142 OA 
BRANCH   4   7
HETATM    7  C   UNL     1     -10.057  12.201  68.530  1.00  0.00    -0.187 C  
BRANCH   7   8
HETATM    8  C   UNL     1     -10.611  13.265  67.611  1.00  0.00    -0.242 A  
HETATM    9  H2  UNL     1     -11.939  11.094  66.844  1.00  0.00     0.000 HD 
HETATM   10  H1  UNL     1     -12.771  11.689  65.438  1.00  0.00     0.000 HD 
HETATM   11  N   UNL     1     -12.133  11.872  66.213  1.00  0.00    -0.438 NA 
HETATM   12  C   UNL     1     -11.548  12.995  66.472  1.00  0.00    -0.356 A  
HETATM   13  C   UNL     1     -10.086  14.515  67.580  1.00  0.00    -0.228 A  
HETATM   14  N   UNL     1     -10.273  15.498  66.620  1.00  0.00    -0.268 NA 
HETATM   15  C   UNL     1     -11.209  16.148  64.468  1.00  0.00    -0.275 C  
HETATM   16  N   UNL     1     -11.773  14.027  65.606  1.00  0.00    -0.342 NA 
HETATM   17  C   UNL     1     -11.090  15.207  65.647  1.00  0.00    -0.334 A  
ENDBRANCH   7   8
ENDBRANCH   4   7
ENDBRANCH   2   4
BRANCH   3  18
HETATM   18  C   UNL     1      -9.089   9.429  70.398  1.00  0.00    -0.302 C  
BRANCH  18  19
HETATM   19  C   UNL     1      -7.594   9.065  70.489  1.00  0.00    -0.110 C  
HETATM   20  H   UNL     1      -5.923   9.917  71.097  1.00  0.00     0.000 HD 
HETATM   21  O   UNL     1      -6.844  10.142  71.040  1.00  0.00    -0.341 OA 
ENDBRANCH  18  19
ENDBRANCH   3  18
BRANCH   3  22
HETATM   22  S   UNL     1     -10.588   7.459  69.034  1.00  0.00    -0.156 SA 
BRANCH  22  23
HETATM   23  S   UNL     1     -11.785   7.529  70.702  1.00  0.00    -0.161 SA 
BRANCH  23  24
HETATM   24  C   UNL     1     -11.393   6.023  71.666  1.00  0.00    -0.252 C  
BRANCH  24  25
HETATM   25  C   UNL     1     -10.446   6.138  72.858  1.00  0.00    -0.217 C  
HETATM   26  O   UNL     1     -10.455   7.512  73.310  1.00  0.00    -0.329 OA 
HETATM   27  C   UNL     1      -8.300   6.592  73.700  1.00  0.00    -0.125 C  
HETATM   28  C   UNL     1      -9.160   7.830  73.840  1.00  0.00    -0.239 C  
HETATM   29  C   UNL     1      -8.983   5.829  72.587  1.00  0.00    -0.131 C  
ENDBRANCH  24  25
ENDBRANCH  23  24
ENDBRANCH  22  23
ENDBRANCH   3  22
TORSDOF 9
ENDMDL
MODEL      206
REMARK 921   NORMALIZED FREE ENERGY PREDICTED BY IDOCK:   -3.74 KCAL/MOL
REMARK 922        TOTAL FREE ENERGY PREDICTED BY IDOCK:   -6.95 KCAL/MOL
REMARK 923 INTER-LIGAND FREE ENERGY PREDICTED BY IDOCK:   -5.86 KCAL/MOL
REMARK 924 INTRA-LIGAND FREE ENERGY PREDICTED BY IDOCK:   -1.09 KCAL/MOL
REMARK 927      BINDING AFFINITY PREDICTED BY RF-SCORE:    0.00 PKD
ROOT
HETATM    1  C   UNL     1      -7.661  10.653  68.640  1.00  0.00    -0.103 C  
HETATM    2  C   UNL     1      -8.478  10.362  67.395  1.00  0.00    -0.121 C  
HETATM    3  C   UNL     1      -8.114   9.450  66.446  1.00  0.00    -0.108 C  
ENDROOT
BRANCH   2   4
HETATM    4  N   UNL     1      -9.698  11.047  67.383  1.00  0.00    -0.168 N  
HETATM    5  C   UNL     1     -10.822  10.494  67.979  1.00  0.00    -0.263 C  
HETATM    6  O   UNL     1     -11.936  11.012  67.991  1.00  0.00    -0.623 OA 
BRANCH   4   7
HETATM    7  C   UNL     1      -9.863  12.259  66.565  1.00  0.00    -0.229 C  
BRANCH   7   8
HETATM    8  C   UNL     1     -10.140  13.550  67.300  1.00  0.00    -0.235 A  
HETATM    9  H2  UNL     1     -12.378  13.186  65.913  1.00  0.00     0.000 HD 
HETATM   10  H1  UNL     1     -13.209  14.682  66.216  1.00  0.00     0.000 HD 
HETATM   11  N   UNL     1     -12.385  14.100  66.367  1.00  0.00    -0.454 NA 
HETATM   12  C   UNL     1     -11.350  14.407  67.077  1.00  0.00    -0.346 A  
HETATM   13  C   UNL     1      -9.177  14.172  68.024  1.00  0.00    -0.195 A  
HETATM   14  N   UNL     1      -9.173  15.473  68.505  1.00  0.00    -0.190 NA 
HETATM   15  C   UNL     1     -10.252  17.653  68.604  1.00  0.00    -0.377 C  
HETATM   16  N   UNL     1     -11.338  15.646  67.653  1.00  0.00    -0.280 NA 
HETATM   17  C   UNL     1     -10.246  16.176  68.275  1.00  0.00    -0.248 A  
ENDBRANCH   7   8
ENDBRANCH   4   7
ENDBRANCH   2   4
BRANCH   3  18
HETATM   18  C   UNL     1      -9.050   8.906  65.363  1.00  0.00    -0.222 C  
BRANCH  18  19
HETATM   19  C   UNL     1      -8.644   9.241  63.915  1.00  0.00    -0.192 C  
HETATM   20  H   UNL     1      -7.908  10.783  62.929  1.00  0.00     0.000 HD 
HETATM   21  O   UNL     1      -8.158  10.576  63.822  1.00  0.00    -0.135 OA 
ENDBRANCH  18  19
ENDBRANCH   3  18
BRANCH   3  22
HETATM   22  S   UNL     1      -6.462   8.810  66.496  1.00  0.00    -0.063 SA 
BRANCH  22  23
HETATM   23  S   UNL     1      -6.769   6.869  67.098  1.00  0.00    -0.065 SA 
BRANCH  23  24
HETATM   24  C   UNL     1      -7.677   6.972  68.684  1.00  0.00    -0.120 C  
BRANCH  24  25
HETATM   25  C   UNL     1      -8.880   6.058  68.903  1.00  0.00    -0.120 C  
HETATM   26  O   UNL     1     -10.081   6.839  68.703  1.00  0.00    -0.149 OA 
HETATM   27  C   UNL     1     -10.513   5.173  70.340  1.00  0.00    -0.287 C  
HETATM   28  C   UNL     1     -11.111   6.325  69.562  1.00  0.00    -0.408 C  
HETATM   29  C   UNL     1      -9.030   5.463  70.293  1.00  0.00    -0.158 C  
ENDBRANCH  24  25
ENDBRANCH  23  24
ENDBRANCH  22  23
ENDBRANCH   3  22
TORSDOF 9
ENDMDL
MODEL      207
REMARK 921   NORMALIZED FREE ENERGY PREDICTED BY IDOCK:   -3.74 KCAL/MOL
REMARK 922        TOTAL FREE ENERGY PREDICTED BY IDOCK:   -6.94 KCAL/MOL
REMARK 923 INTER-LIGAND FREE ENERGY PREDICTED BY IDOCK:   -5.82 KCAL/MOL
REMARK 924 INTRA-LIGAND FREE ENERGY PREDICTED BY IDOCK:   -1.12 KCAL/MOL
REMARK 927      BINDING AFFINITY PREDICTED BY RF-SCORE:    0.00 PKD
ROOT
HETATM    1  C   UNL     1      -8.455  10.554  69.277  1.00  0.00    -0.138 C  
HETATM    2  C   UNL     1      -9.685   9.666  69.227  1.00  0.00    -0.185 C  
HETATM    3  C   UNL     1      -9.633   8.301  69.239  1.00  0.00    -0.164 C  
ENDROOT
BRANCH   2   4
HETATM    4  N   UNL     1     -10.877  10.397  69.281  1.00  0.00    -0.225 N  
HETATM    5  C   UNL     1     -11.461  10.701  70.502  1.00  0.00    -0.317 C  
HETATM    6  O   UNL     1     -12.517  11.312  70.640  1.00  0.00    -0.342 OA 
BRANCH   4   7
HETATM    7  C   UNL     1     -11.636  10.674  68.052  1.00  0.00    -0.099 C  
BRANCH   7   8
HETATM    8  C   UNL     1     -11.257  11.915  67.277  1.00  0.00    -0.376 A  
HETATM    9  H2  UNL     1      -9.992   9.996  65.944  1.00  0.00     0.000 HD 
HETATM   10  H1  UNL     1      -9.042  10.931  64.828  1.00  0.00     0.000 HD 
HETATM   11  N   UNL     1      -9.719  10.914  65.591  1.00  0.00    -0.219 NA 
HETATM   12  C   UNL     1     -10.263  11.941  66.156  1.00  0.00    -0.226 A  
HETATM   13  C   UNL     1     -11.589  13.154  67.719  1.00  0.00    -0.337 A  
HETATM   14  N   UNL     1     -11.084  14.376  67.301  1.00  0.00    -0.301 NA 
HETATM   15  C   UNL     1      -9.485  15.605  65.938  1.00  0.00    -0.376 C  
HETATM   16  N   UNL     1      -9.869  13.172  65.714  1.00  0.00    -0.244 NA 
HETATM   17  C   UNL     1     -10.216  14.339  66.329  1.00  0.00    -0.301 A  
ENDBRANCH   7   8
ENDBRANCH   4   7
ENDBRANCH   2   4
BRANCH   3  18
HETATM   18  C   UNL     1     -10.836   7.392  69.512  1.00  0.00    -0.201 C  
BRANCH  18  19
HETATM   19  C   UNL     1     -10.991   6.931  70.974  1.00  0.00    -0.252 C  
HETATM   20  H   UNL     1     -12.461   6.481  72.210  1.00  0.00     0.000 HD 
HETATM   21  O   UNL     1     -12.366   6.766  71.309  1.00  0.00    -0.363 OA 
ENDBRANCH  18  19
ENDBRANCH   3  18
BRANCH   3  22
HETATM   22  S   UNL     1      -8.064   7.524  68.975  1.00  0.00    -0.128 SA 
BRANCH  22  23
HETATM   23  S   UNL     1      -7.841   7.677  66.939  1.00  0.00    -0.113 SA 
BRANCH  23  24
HETATM   24  C   UNL     1      -9.229   6.734  66.209  1.00  0.00    -0.127 C  
BRANCH  24  25
HETATM   25  C   UNL     1      -8.951   5.351  65.623  1.00  0.00    -0.156 C  
HETATM   26  O   UNL     1      -8.693   5.504  64.208  1.00  0.00    -0.070 OA 
HETATM   27  C   UNL     1      -9.740   3.403  64.574  1.00  0.00    -0.167 C  
HETATM   28  C   UNL     1      -9.156   4.328  63.527  1.00  0.00    -0.138 C  
HETATM   29  C   UNL     1     -10.087   4.346  65.704  1.00  0.00    -0.256 C  
ENDBRANCH  24  25
ENDBRANCH  23  24
ENDBRANCH  22  23
ENDBRANCH   3  22
TORSDOF 9
ENDMDL
MODEL      208
REMARK 921   NORMALIZED FREE ENERGY PREDICTED BY IDOCK:   -3.74 KCAL/MOL
REMARK 922        TOTAL FREE ENERGY PREDICTED BY IDOCK:   -6.94 KCAL/MOL
REMARK 923 INTER-LIGAND FREE ENERGY PREDICTED BY IDOCK:   -5.97 KCAL/MOL
REMARK 924 INTRA-LIGAND FREE ENERGY PREDICTED BY IDOCK:   -0.97 KCAL/MOL
REMARK 927      BINDING AFFINITY PREDICTED BY RF-SCORE:    0.00 PKD
ROOT
HETATM    1  C   UNL     1      -9.239   8.937  66.634  1.00  0.00    -0.215 C  
HETATM    2  C   UNL     1      -9.561   9.333  68.063  1.00  0.00    -0.142 C  
HETATM    3  C   UNL     1     -10.059   8.466  68.994  1.00  0.00    -0.203 C  
ENDROOT
BRANCH   2   4
HETATM    4  N   UNL     1      -9.187  10.649  68.353  1.00  0.00    -0.152 N  
HETATM    5  C   UNL     1      -7.848  10.988  68.483  1.00  0.00    -0.129 C  
HETATM    6  O   UNL     1      -7.433  12.109  68.763  1.00  0.00    -0.114 OA 
BRANCH   4   7
HETATM    7  C   UNL     1     -10.202  11.646  68.726  1.00  0.00    -0.177 C  
BRANCH   7   8
HETATM    8  C   UNL     1     -10.603  12.647  67.667  1.00  0.00    -0.232 A  
HETATM    9  H2  UNL     1     -11.988  13.462  69.784  1.00  0.00     0.000 HD 
HETATM   10  H1  UNL     1     -12.987  14.697  69.078  1.00  0.00     0.000 HD 
HETATM   11  N   UNL     1     -12.265  13.987  68.954  1.00  0.00    -0.309 NA 
HETATM   12  C   UNL     1     -11.666  13.689  67.849  1.00  0.00    -0.360 A  
HETATM   13  C   UNL     1     -10.220  12.501  66.375  1.00  0.00    -0.244 A  
HETATM   14  N   UNL     1     -10.725  13.143  65.254  1.00  0.00    -0.295 NA 
HETATM   15  C   UNL     1     -12.382  14.645  64.292  1.00  0.00    -0.375 C  
HETATM   16  N   UNL     1     -12.062  14.362  66.728  1.00  0.00    -0.412 NA 
HETATM   17  C   UNL     1     -11.653  14.033  65.469  1.00  0.00    -0.332 A  
ENDBRANCH   7   8
ENDBRANCH   4   7
ENDBRANCH   2   4
BRANCH   3  18
HETATM   18  C   UNL     1     -10.092   8.739  70.501  1.00  0.00    -0.233 C  
BRANCH  18  19
HETATM   19  C   UNL     1      -8.727   8.656  71.212  1.00  0.00    -0.194 C  
HETATM   20  H   UNL     1      -7.043   7.647  71.019  1.00  0.00     0.000 HD 
HETATM   21  O   UNL     1      -7.885   7.697  70.581  1.00  0.00    -0.094 OA 
ENDBRANCH  18  19
ENDBRANCH   3  18
BRANCH   3  22
HETATM   22  S   UNL     1     -10.663   6.897  68.434  1.00  0.00    -0.190 SA 
BRANCH  22  23
HETATM   23  S   UNL     1     -11.256   6.009  70.189  1.00  0.00    -0.266 SA 
BRANCH  23  24
HETATM   24  C   UNL     1      -9.880   4.911  70.688  1.00  0.00    -0.219 C  
BRANCH  24  25
HETATM   25  C   UNL     1      -9.668   4.625  72.172  1.00  0.00    -0.165 C  
HETATM   26  O   UNL     1     -10.381   3.411  72.505  1.00  0.00    -0.165 OA 
HETATM   27  C   UNL     1     -10.387   4.847  74.398  1.00  0.00    -0.325 C  
HETATM   28  C   UNL     1     -10.834   3.502  73.863  1.00  0.00    -0.220 C  
HETATM   29  C   UNL     1     -10.203   5.667  73.140  1.00  0.00    -0.212 C  
ENDBRANCH  24  25
ENDBRANCH  23  24
ENDBRANCH  22  23
ENDBRANCH   3  22
TORSDOF 9
ENDMDL
MODEL      209
REMARK 921   NORMALIZED FREE ENERGY PREDICTED BY IDOCK:   -3.72 KCAL/MOL
REMARK 922        TOTAL FREE ENERGY PREDICTED BY IDOCK:   -6.92 KCAL/MOL
REMARK 923 INTER-LIGAND FREE ENERGY PREDICTED BY IDOCK:   -6.15 KCAL/MOL
REMARK 924 INTRA-LIGAND FREE ENERGY PREDICTED BY IDOCK:   -0.77 KCAL/MOL
REMARK 927      BINDING AFFINITY PREDICTED BY RF-SCORE:    0.00 PKD
ROOT
HETATM    1  C   UNL     1     -10.764   8.211  67.366  1.00  0.00    -0.247 C  
HETATM    2  C   UNL     1     -10.405   9.680  67.499  1.00  0.00    -0.241 C  
HETATM    3  C   UNL     1      -9.919  10.436  66.471  1.00  0.00    -0.217 C  
ENDROOT
BRANCH   2   4
HETATM    4  N   UNL     1     -10.732  10.200  68.756  1.00  0.00    -0.210 N  
HETATM    5  C   UNL     1     -11.839  11.022  68.911  1.00  0.00    -0.308 C  
HETATM    6  O   UNL     1     -12.182  11.542  69.969  1.00  0.00    -0.299 OA 
BRANCH   4   7
HETATM    7  C   UNL     1      -9.802  10.057  69.886  1.00  0.00    -0.224 C  
BRANCH   7   8
HETATM    8  C   UNL     1     -10.147   9.024  70.933  1.00  0.00    -0.329 A  
HETATM    9  H2  UNL     1      -7.585   9.518  71.436  1.00  0.00     0.000 HD 
HETATM   10  H1  UNL     1      -7.237   8.305  72.632  1.00  0.00     0.000 HD 
HETATM   11  N   UNL     1      -7.915   8.736  72.004  1.00  0.00    -0.349 NA 
HETATM   12  C   UNL     1      -9.151   8.389  71.856  1.00  0.00    -0.221 A  
HETATM   13  C   UNL     1     -11.347   8.391  70.934  1.00  0.00    -0.268 A  
HETATM   14  N   UNL     1     -11.709   7.242  71.621  1.00  0.00    -0.271 NA 
HETATM   15  C   UNL     1     -11.050   5.380  73.044  1.00  0.00    -0.368 C  
HETATM   16  N   UNL     1      -9.585   7.318  72.584  1.00  0.00    -0.147 NA 
HETATM   17  C   UNL     1     -10.801   6.728  72.402  1.00  0.00    -0.238 A  
ENDBRANCH   7   8
ENDBRANCH   4   7
ENDBRANCH   2   4
BRANCH   3  18
HETATM   18  C   UNL     1      -9.852  11.967  66.479  1.00  0.00    -0.225 C  
BRANCH  18  19
HETATM   19  C   UNL     1     -10.836  12.671  65.524  1.00  0.00    -0.279 C  
HETATM   20  H   UNL     1     -12.775  12.659  65.164  1.00  0.00     0.000 HD 
HETATM   21  O   UNL     1     -12.169  12.225  65.752  1.00  0.00    -0.622 OA 
ENDBRANCH  18  19
ENDBRANCH   3  18
BRANCH   3  22
HETATM   22  S   UNL     1      -9.375   9.601  65.006  1.00  0.00    -0.226 SA 
BRANCH  22  23
HETATM   23  S   UNL     1      -7.702   8.609  65.668  1.00  0.00    -0.094 SA 
BRANCH  23  24
HETATM   24  C   UNL     1      -7.679   7.011  64.777  1.00  0.00    -0.115 C  
BRANCH  24  25
HETATM   25  C   UNL     1      -7.885   5.723  65.570  1.00  0.00    -0.102 C  
HETATM   26  O   UNL     1      -9.230   5.252  65.324  1.00  0.00    -0.137 OA 
HETATM   27  C   UNL     1      -8.599   4.650  67.534  1.00  0.00    -0.103 C  
HETATM   28  C   UNL     1      -9.704   4.582  66.501  1.00  0.00    -0.207 C  
HETATM   29  C   UNL     1      -7.785   5.842  67.082  1.00  0.00    -0.101 C  
ENDBRANCH  24  25
ENDBRANCH  23  24
ENDBRANCH  22  23
ENDBRANCH   3  22
TORSDOF 9
ENDMDL
MODEL      210
REMARK 921   NORMALIZED FREE ENERGY PREDICTED BY IDOCK:   -3.72 KCAL/MOL
REMARK 922        TOTAL FREE ENERGY PREDICTED BY IDOCK:   -6.92 KCAL/MOL
REMARK 923 INTER-LIGAND FREE ENERGY PREDICTED BY IDOCK:   -5.85 KCAL/MOL
REMARK 924 INTRA-LIGAND FREE ENERGY PREDICTED BY IDOCK:   -1.07 KCAL/MOL
REMARK 927      BINDING AFFINITY PREDICTED BY RF-SCORE:    0.00 PKD
ROOT
HETATM    1  C   UNL     1     -10.283   9.264  66.449  1.00  0.00    -0.298 C  
HETATM    2  C   UNL     1      -9.106  10.150  66.815  1.00  0.00    -0.139 C  
HETATM    3  C   UNL     1      -9.171  11.146  67.747  1.00  0.00    -0.153 C  
ENDROOT
BRANCH   2   4
HETATM    4  N   UNL     1      -7.923   9.761  66.177  1.00  0.00    -0.108 N  
HETATM    5  C   UNL     1      -7.770   9.938  64.810  1.00  0.00    -0.138 C  
HETATM    6  O   UNL     1      -6.779   9.600  64.167  1.00  0.00    -0.101 OA 
BRANCH   4   7
HETATM    7  C   UNL     1      -6.912   8.976  66.901  1.00  0.00    -0.078 C  
BRANCH   7   8
HETATM    8  C   UNL     1      -7.386   7.722  67.598  1.00  0.00    -0.092 A  
HETATM    9  H2  UNL     1      -7.572   7.058  65.032  1.00  0.00     0.000 HD 
HETATM   10  H1  UNL     1      -8.374   5.519  65.139  1.00  0.00     0.000 HD 
HETATM   11  N   UNL     1      -7.984   6.332  65.618  1.00  0.00    -0.109 NA 
HETATM   12  C   UNL     1      -7.960   6.529  66.895  1.00  0.00    -0.112 A  
HETATM   13  C   UNL     1      -7.581   7.689  68.940  1.00  0.00    -0.101 A  
HETATM   14  N   UNL     1      -8.271   6.743  69.682  1.00  0.00    -0.129 NA 
HETATM   15  C   UNL     1      -9.674   4.754  69.720  1.00  0.00    -0.272 C  
HETATM   16  N   UNL     1      -8.546   5.577  67.680  1.00  0.00    -0.109 NA 
HETATM   17  C   UNL     1      -8.757   5.732  69.019  1.00  0.00    -0.112 A  
ENDBRANCH   7   8
ENDBRANCH   4   7
ENDBRANCH   2   4
BRANCH   3  18
HETATM   18  C   UNL     1      -7.949  11.833  68.366  1.00  0.00    -0.147 C  
BRANCH  18  19
HETATM   19  C   UNL     1      -7.093  12.658  67.385  1.00  0.00    -0.138 C  
HETATM   20  H   UNL     1      -5.404  13.676  67.427  1.00  0.00     0.000 HD 
HETATM   21  O   UNL     1      -5.932  13.168  68.032  1.00  0.00    -0.090 OA 
ENDBRANCH  18  19
ENDBRANCH   3  18
BRANCH   3  22
HETATM   22  S   UNL     1     -10.770  11.647  68.323  1.00  0.00    -0.226 SA 
BRANCH  22  23
HETATM   23  S   UNL     1     -10.804  13.641  67.826  1.00  0.00    -0.257 SA 
BRANCH  23  24
HETATM   24  C   UNL     1     -12.220  13.850  66.685  1.00  0.00    -0.424 C  
BRANCH  24  25
HETATM   25  C   UNL     1     -12.006  13.602  65.194  1.00  0.00    -0.372 C  
HETATM   26  O   UNL     1     -13.070  12.743  64.722  1.00  0.00    -0.813 OA 
HETATM   27  C   UNL     1     -11.103  12.283  63.472  1.00  0.00    -0.533 C  
HETATM   28  C   UNL     1     -12.561  11.921  63.661  1.00  0.00    -0.439 C  
HETATM   29  C   UNL     1     -10.725  12.880  64.809  1.00  0.00    -0.354 C  
ENDBRANCH  24  25
ENDBRANCH  23  24
ENDBRANCH  22  23
ENDBRANCH   3  22
TORSDOF 9
ENDMDL
MODEL      211
REMARK 921   NORMALIZED FREE ENERGY PREDICTED BY IDOCK:   -3.72 KCAL/MOL
REMARK 922        TOTAL FREE ENERGY PREDICTED BY IDOCK:   -6.91 KCAL/MOL
REMARK 923 INTER-LIGAND FREE ENERGY PREDICTED BY IDOCK:   -6.02 KCAL/MOL
REMARK 924 INTRA-LIGAND FREE ENERGY PREDICTED BY IDOCK:   -0.89 KCAL/MOL
REMARK 927      BINDING AFFINITY PREDICTED BY RF-SCORE:    0.00 PKD
ROOT
HETATM    1  C   UNL     1      -7.809   8.893  68.631  1.00  0.00    -0.102 C  
HETATM    2  C   UNL     1      -9.057   8.938  69.494  1.00  0.00    -0.146 C  
HETATM    3  C   UNL     1      -9.991   9.931  69.422  1.00  0.00    -0.212 C  
ENDROOT
BRANCH   2   4
HETATM    4  N   UNL     1      -9.200   7.795  70.289  1.00  0.00    -0.156 N  
HETATM    5  C   UNL     1      -8.341   7.567  71.355  1.00  0.00    -0.107 C  
HETATM    6  O   UNL     1      -8.378   6.581  72.085  1.00  0.00    -0.108 OA 
BRANCH   4   7
HETATM    7  C   UNL     1     -10.121   6.721  69.889  1.00  0.00    -0.180 C  
BRANCH   7   8
HETATM    8  C   UNL     1      -9.698   5.851  68.728  1.00  0.00    -0.161 A  
HETATM    9  H2  UNL     1     -10.981   7.840  67.519  1.00  0.00     0.000 HD 
HETATM   10  H1  UNL     1     -11.029   7.263  65.880  1.00  0.00     0.000 HD 
HETATM   11  N   UNL     1     -10.745   7.109  66.848  1.00  0.00    -0.332 NA 
HETATM   12  C   UNL     1     -10.116   6.077  67.306  1.00  0.00    -0.169 A  
HETATM   13  C   UNL     1      -9.127   4.637  68.925  1.00  0.00    -0.119 A  
HETATM   14  N   UNL     1      -8.951   3.614  68.006  1.00  0.00    -0.118 NA 
HETATM   15  C   UNL     1      -9.353   2.741  65.768  1.00  0.00    -0.037 C  
HETATM   16  N   UNL     1      -9.834   5.078  66.418  1.00  0.00    -0.179 NA 
HETATM   17  C   UNL     1      -9.341   3.861  66.787  1.00  0.00    -0.186 A  
ENDBRANCH   7   8
ENDBRANCH   4   7
ENDBRANCH   2   4
BRANCH   3  18
HETATM   18  C   UNL     1     -11.394   9.846  70.032  1.00  0.00    -0.303 C  
BRANCH  18  19
HETATM   19  C   UNL     1     -11.435   9.716  71.567  1.00  0.00    -0.369 C  
HETATM   20  H   UNL     1     -12.746   9.985  73.016  1.00  0.00     0.000 HD 
HETATM   21  O   UNL     1     -12.720  10.066  72.070  1.00  0.00    -0.391 OA 
ENDBRANCH  18  19
ENDBRANCH   3  18
BRANCH   3  22
HETATM   22  S   UNL     1      -9.580  11.398  68.518  1.00  0.00    -0.170 SA 
BRANCH  22  23
HETATM   23  S   UNL     1     -11.433  12.133  68.019  1.00  0.00    -0.340 SA 
BRANCH  23  24
HETATM   24  C   UNL     1     -11.423  13.897  68.507  1.00  0.00    -0.311 C  
BRANCH  24  25
HETATM   25  C   UNL     1     -12.225  14.325  69.734  1.00  0.00    -0.339 C  
HETATM   26  O   UNL     1     -11.498  15.382  70.401  1.00  0.00    -0.274 OA 
HETATM   27  C   UNL     1     -12.676  14.115  72.029  1.00  0.00    -0.392 C  
HETATM   28  C   UNL     1     -11.751  15.294  71.812  1.00  0.00    -0.418 C  
HETATM   29  C   UNL     1     -12.438  13.265  70.801  1.00  0.00    -0.403 C  
ENDBRANCH  24  25
ENDBRANCH  23  24
ENDBRANCH  22  23
ENDBRANCH   3  22
TORSDOF 9
ENDMDL
MODEL      212
REMARK 921   NORMALIZED FREE ENERGY PREDICTED BY IDOCK:   -3.71 KCAL/MOL
REMARK 922        TOTAL FREE ENERGY PREDICTED BY IDOCK:   -6.91 KCAL/MOL
REMARK 923 INTER-LIGAND FREE ENERGY PREDICTED BY IDOCK:   -6.43 KCAL/MOL
REMARK 924 INTRA-LIGAND FREE ENERGY PREDICTED BY IDOCK:   -0.47 KCAL/MOL
REMARK 927      BINDING AFFINITY PREDICTED BY RF-SCORE:    0.00 PKD
ROOT
HETATM    1  C   UNL     1     -11.228  10.411  68.632  1.00  0.00    -0.305 C  
HETATM    2  C   UNL     1     -10.290  11.053  67.628  1.00  0.00    -0.191 C  
HETATM    3  C   UNL     1      -8.929  11.003  67.725  1.00  0.00    -0.140 C  
ENDROOT
BRANCH   2   4
HETATM    4  N   UNL     1     -10.969  11.604  66.535  1.00  0.00    -0.289 N  
HETATM    5  C   UNL     1     -10.684  11.182  65.244  1.00  0.00    -0.203 C  
HETATM    6  O   UNL     1     -11.210  11.630  64.229  1.00  0.00    -0.341 OA 
BRANCH   4   7
HETATM    7  C   UNL     1     -11.840  12.775  66.714  1.00  0.00    -0.382 C  
BRANCH   7   8
HETATM    8  C   UNL     1     -11.170  14.129  66.760  1.00  0.00    -0.330 A  
HETATM    9  H2  UNL     1     -12.199  13.913  69.201  1.00  0.00     0.000 HD 
HETATM   10  H1  UNL     1     -11.893  15.502  69.836  1.00  0.00     0.000 HD 
HETATM   11  N   UNL     1     -11.817  14.848  69.057  1.00  0.00    -0.308 NA 
HETATM   12  C   UNL     1     -11.283  15.090  67.905  1.00  0.00    -0.323 A  
HETATM   13  C   UNL     1     -10.635  14.691  65.647  1.00  0.00    -0.332 A  
HETATM   14  N   UNL     1     -10.256  16.010  65.453  1.00  0.00    -0.507 NA 
HETATM   15  C   UNL     1     -10.165  18.291  66.300  1.00  0.00    -0.414 C  
HETATM   16  N   UNL     1     -10.807  16.352  67.694  1.00  0.00    -0.312 NA 
HETATM   17  C   UNL     1     -10.384  16.804  66.479  1.00  0.00    -0.301 A  
ENDBRANCH   7   8
ENDBRANCH   4   7
ENDBRANCH   2   4
BRANCH   3  18
HETATM   18  C   UNL     1      -7.966  11.352  66.585  1.00  0.00    -0.148 C  
BRANCH  18  19
HETATM   19  C   UNL     1      -6.645  12.015  67.022  1.00  0.00    -0.108 C  
HETATM   20  H   UNL     1      -4.771  12.071  66.408  1.00  0.00     0.000 HD 
HETATM   21  O   UNL     1      -5.585  11.661  66.139  1.00  0.00    -0.252 OA 
ENDBRANCH  18  19
ENDBRANCH   3  18
BRANCH   3  22
HETATM   22  S   UNL     1      -8.221  10.448  69.251  1.00  0.00    -0.142 SA 
BRANCH  22  23
HETATM   23  S   UNL     1      -7.334   8.679  68.700  1.00  0.00    -0.082 SA 
BRANCH  23  24
HETATM   24  C   UNL     1      -8.571   7.371  69.030  1.00  0.00    -0.133 C  
BRANCH  24  25
HETATM   25  C   UNL     1      -8.686   6.203  68.054  1.00  0.00    -0.113 C  
HETATM   26  O   UNL     1      -9.636   6.567  67.025  1.00  0.00    -0.134 OA 
HETATM   27  C   UNL     1      -9.756   4.222  67.387  1.00  0.00    -0.210 C  
HETATM   28  C   UNL     1     -10.310   5.379  66.584  1.00  0.00    -0.275 C  
HETATM   29  C   UNL     1      -9.212   4.898  68.626  1.00  0.00    -0.159 C  
ENDBRANCH  24  25
ENDBRANCH  23  24
ENDBRANCH  22  23
ENDBRANCH   3  22
TORSDOF 9
ENDMDL
MODEL      213
REMARK 921   NORMALIZED FREE ENERGY PREDICTED BY IDOCK:   -3.70 KCAL/MOL
REMARK 922        TOTAL FREE ENERGY PREDICTED BY IDOCK:   -6.89 KCAL/MOL
REMARK 923 INTER-LIGAND FREE ENERGY PREDICTED BY IDOCK:   -6.80 KCAL/MOL
REMARK 924 INTRA-LIGAND FREE ENERGY PREDICTED BY IDOCK:   -0.09 KCAL/MOL
REMARK 927      BINDING AFFINITY PREDICTED BY RF-SCORE:    0.00 PKD
ROOT
HETATM    1  C   UNL     1     -10.525   8.965  67.423  1.00  0.00    -0.347 C  
HETATM    2  C   UNL     1     -10.789   9.233  68.893  1.00  0.00    -0.099 C  
HETATM    3  C   UNL     1     -10.853   8.252  69.841  1.00  0.00    -0.213 C  
ENDROOT
BRANCH   2   4
HETATM    4  N   UNL     1     -10.847  10.599  69.187  1.00  0.00    -0.220 N  
HETATM    5  C   UNL     1     -11.973  11.143  69.790  1.00  0.00    -0.357 C  
HETATM    6  O   UNL     1     -12.118  12.332  70.057  1.00  0.00    -0.314 OA 
BRANCH   4   7
HETATM    7  C   UNL     1      -9.812  11.514  68.681  1.00  0.00    -0.177 C  
BRANCH   7   8
HETATM    8  C   UNL     1     -10.286  12.774  67.994  1.00  0.00    -0.228 A  
HETATM    9  H2  UNL     1     -11.623  10.876  66.700  1.00  0.00     0.000 HD 
HETATM   10  H1  UNL     1     -12.359  11.795  65.422  1.00  0.00     0.000 HD 
HETATM   11  N   UNL     1     -11.761  11.780  66.249  1.00  0.00    -0.470 NA 
HETATM   12  C   UNL     1     -11.163  12.796  66.779  1.00  0.00    -0.295 A  
HETATM   13  C   UNL     1      -9.729  13.980  68.267  1.00  0.00    -0.225 A  
HETATM   14  N   UNL     1      -9.836  15.156  67.540  1.00  0.00    -0.219 NA 
HETATM   15  C   UNL     1     -10.632  16.298  65.542  1.00  0.00    -0.369 C  
HETATM   16  N   UNL     1     -11.313  14.000  66.153  1.00  0.00    -0.315 NA 
HETATM   17  C   UNL     1     -10.604  15.116  66.488  1.00  0.00    -0.304 A  
ENDBRANCH   7   8
ENDBRANCH   4   7
ENDBRANCH   2   4
BRANCH   3  18
HETATM   18  C   UNL     1     -10.796   8.502  71.351  1.00  0.00    -0.327 C  
BRANCH  18  19
HETATM   19  C   UNL     1     -12.005   7.975  72.150  1.00  0.00    -0.348 C  
HETATM   20  H   UNL     1     -13.644   8.710  72.963  1.00  0.00     0.000 HD 
HETATM   21  O   UNL     1     -12.900   9.035  72.471  1.00  0.00    -0.404 OA 
ENDBRANCH  18  19
ENDBRANCH   3  18
BRANCH   3  22
HETATM   22  S   UNL     1     -10.957   6.570  69.295  1.00  0.00    -0.340 SA 
BRANCH  22  23
HETATM   23  S   UNL     1      -9.219   5.765  70.039  1.00  0.00    -0.148 SA 
BRANCH  23  24
HETATM   24  C   UNL     1      -9.662   4.103  70.665  1.00  0.00    -0.203 C  
BRANCH  24  25
HETATM   25  C   UNL     1      -9.750   3.885  72.174  1.00  0.00    -0.159 C  
HETATM   26  O   UNL     1     -10.899   4.612  72.668  1.00  0.00    -0.202 OA 
HETATM   27  C   UNL     1      -9.225   4.587  74.353  1.00  0.00    -0.118 C  
HETATM   28  C   UNL     1     -10.622   5.055  74.005  1.00  0.00    -0.298 C  
HETATM   29  C   UNL     1      -8.582   4.399  72.997  1.00  0.00    -0.101 C  
ENDBRANCH  24  25
ENDBRANCH  23  24
ENDBRANCH  22  23
ENDBRANCH   3  22
TORSDOF 9
ENDMDL
MODEL      214
REMARK 921   NORMALIZED FREE ENERGY PREDICTED BY IDOCK:   -3.69 KCAL/MOL
REMARK 922        TOTAL FREE ENERGY PREDICTED BY IDOCK:   -6.87 KCAL/MOL
REMARK 923 INTER-LIGAND FREE ENERGY PREDICTED BY IDOCK:   -5.99 KCAL/MOL
REMARK 924 INTRA-LIGAND FREE ENERGY PREDICTED BY IDOCK:   -0.88 KCAL/MOL
REMARK 927      BINDING AFFINITY PREDICTED BY RF-SCORE:    0.00 PKD
ROOT
HETATM    1  C   UNL     1      -8.835   9.362  67.943  1.00  0.00    -0.124 C  
HETATM    2  C   UNL     1      -9.380   9.515  69.351  1.00  0.00    -0.180 C  
HETATM    3  C   UNL     1     -10.598  10.062  69.636  1.00  0.00    -0.252 C  
ENDROOT
BRANCH   2   4
HETATM    4  N   UNL     1      -8.547   8.934  70.314  1.00  0.00    -0.151 N  
HETATM    5  C   UNL     1      -7.334   9.522  70.643  1.00  0.00    -0.120 C  
HETATM    6  O   UNL     1      -6.532   9.066  71.453  1.00  0.00    -0.074 OA 
BRANCH   4   7
HETATM    7  C   UNL     1      -8.842   7.593  70.841  1.00  0.00    -0.146 C  
BRANCH   7   8
HETATM    8  C   UNL     1      -8.985   6.476  69.833  1.00  0.00    -0.143 A  
HETATM    9  H2  UNL     1     -11.512   7.136  70.322  1.00  0.00     0.000 HD 
HETATM   10  H1  UNL     1     -12.359   5.885  69.462  1.00  0.00     0.000 HD 
HETATM   11  N   UNL     1     -11.469   6.299  69.739  1.00  0.00    -0.440 NA 
HETATM   12  C   UNL     1     -10.293   5.867  69.425  1.00  0.00    -0.247 A  
HETATM   13  C   UNL     1      -7.913   5.754  69.421  1.00  0.00    -0.097 A  
HETATM   14  N   UNL     1      -7.906   4.542  68.747  1.00  0.00    -0.071 NA 
HETATM   15  C   UNL     1      -9.158   2.655  67.854  1.00  0.00    -0.227 C  
HETATM   16  N   UNL     1     -10.230   4.724  68.680  1.00  0.00    -0.056 NA 
HETATM   17  C   UNL     1      -9.070   4.053  68.426  1.00  0.00    -0.137 A  
ENDBRANCH   7   8
ENDBRANCH   4   7
ENDBRANCH   2   4
BRANCH   3  18
HETATM   18  C   UNL     1     -11.307   9.941  70.988  1.00  0.00    -0.460 C  
BRANCH  18  19
HETATM   19  C   UNL     1     -12.692  10.612  71.066  1.00  0.00    -0.415 C  
HETATM   20  H   UNL     1     -14.249  10.603  72.277  1.00  0.00     0.000 HD 
HETATM   21  O   UNL     1     -13.395  10.189  72.229  1.00  0.00    -0.415 OA 
ENDBRANCH  18  19
ENDBRANCH   3  18
BRANCH   3  22
HETATM   22  S   UNL     1     -11.448  10.925  68.342  1.00  0.00    -0.274 SA 
BRANCH  22  23
HETATM   23  S   UNL     1     -10.482  12.739  68.326  1.00  0.00    -0.244 SA 
BRANCH  23  24
HETATM   24  C   UNL     1     -11.771  13.999  68.640  1.00  0.00    -0.354 C  
BRANCH  24  25
HETATM   25  C   UNL     1     -11.341  15.402  69.061  1.00  0.00    -0.316 C  
HETATM   26  O   UNL     1     -11.596  16.302  67.958  1.00  0.00    -0.208 OA 
HETATM   27  C   UNL     1      -9.690  17.070  69.150  1.00  0.00    -0.165 C  
HETATM   28  C   UNL     1     -10.609  17.344  67.978  1.00  0.00    -0.389 C  
HETATM   29  C   UNL     1      -9.868  15.586  69.381  1.00  0.00    -0.283 C  
ENDBRANCH  24  25
ENDBRANCH  23  24
ENDBRANCH  22  23
ENDBRANCH   3  22
TORSDOF 9
ENDMDL
MODEL      215
REMARK 921   NORMALIZED FREE ENERGY PREDICTED BY IDOCK:   -3.68 KCAL/MOL
REMARK 922        TOTAL FREE ENERGY PREDICTED BY IDOCK:   -6.85 KCAL/MOL
REMARK 923 INTER-LIGAND FREE ENERGY PREDICTED BY IDOCK:   -6.06 KCAL/MOL
REMARK 924 INTRA-LIGAND FREE ENERGY PREDICTED BY IDOCK:   -0.79 KCAL/MOL
REMARK 927      BINDING AFFINITY PREDICTED BY RF-SCORE:    0.00 PKD
ROOT
HETATM    1  C   UNL     1     -10.621   7.056  67.195  1.00  0.00    -0.412 C  
HETATM    2  C   UNL     1     -10.252   8.255  68.048  1.00  0.00    -0.214 C  
HETATM    3  C   UNL     1     -10.426   8.303  69.402  1.00  0.00    -0.220 C  
ENDROOT
BRANCH   2   4
HETATM    4  N   UNL     1      -9.613   9.260  67.314  1.00  0.00    -0.149 N  
HETATM    5  C   UNL     1      -8.232   9.390  67.352  1.00  0.00    -0.121 C  
HETATM    6  O   UNL     1      -7.594  10.257  66.763  1.00  0.00    -0.102 OA 
BRANCH   4   7
HETATM    7  C   UNL     1     -10.399  10.318  66.660  1.00  0.00    -0.219 C  
BRANCH   7   8
HETATM    8  C   UNL     1     -10.509  11.639  67.385  1.00  0.00    -0.239 A  
HETATM    9  H2  UNL     1     -12.347  10.157  68.605  1.00  0.00     0.000 HD 
HETATM   10  H1  UNL     1     -13.118  11.342  69.617  1.00  0.00     0.000 HD 
HETATM   11  N   UNL     1     -12.403  11.125  68.922  1.00  0.00    -0.459 NA 
HETATM   12  C   UNL     1     -11.560  11.958  68.405  1.00  0.00    -0.317 A  
HETATM   13  C   UNL     1      -9.827  12.734  66.967  1.00  0.00    -0.231 A  
HETATM   14  N   UNL     1     -10.032  14.058  67.325  1.00  0.00    -0.239 NA 
HETATM   15  C   UNL     1     -11.373  15.703  68.518  1.00  0.00    -0.361 C  
HETATM   16  N   UNL     1     -11.658  13.263  68.796  1.00  0.00    -0.289 NA 
HETATM   17  C   UNL     1     -10.964  14.279  68.209  1.00  0.00    -0.247 A  
ENDBRANCH   7   8
ENDBRANCH   4   7
ENDBRANCH   2   4
BRANCH   3  18
HETATM   18  C   UNL     1      -9.782   9.344  70.322  1.00  0.00    -0.292 C  
BRANCH  18  19
HETATM   19  C   UNL     1      -8.652   8.813  71.226  1.00  0.00    -0.203 C  
HETATM   20  H   UNL     1      -6.987   7.776  71.017  1.00  0.00     0.000 HD 
HETATM   21  O   UNL     1      -7.684   8.103  70.460  1.00  0.00    -0.080 OA 
ENDBRANCH  18  19
ENDBRANCH   3  18
BRANCH   3  22
HETATM   22  S   UNL     1     -11.419   7.046  70.160  1.00  0.00    -0.220 SA 
BRANCH  22  23
HETATM   23  S   UNL     1     -10.094   5.485  70.322  1.00  0.00    -0.258 SA 
BRANCH  23  24
HETATM   24  C   UNL     1      -9.702   5.341  72.104  1.00  0.00    -0.164 C  
BRANCH  24  25
HETATM   25  C   UNL     1      -9.750   3.963  72.759  1.00  0.00    -0.138 C  
HETATM   26  O   UNL     1      -9.664   2.965  71.715  1.00  0.00    -0.138 OA 
HETATM   27  C   UNL     1     -10.998   2.110  73.485  1.00  0.00    -0.286 C  
HETATM   28  C   UNL     1     -10.411   1.809  72.123  1.00  0.00    -0.128 C  
HETATM   29  C   UNL     1     -11.020   3.622  73.518  1.00  0.00    -0.333 C  
ENDBRANCH  24  25
ENDBRANCH  23  24
ENDBRANCH  22  23
ENDBRANCH   3  22
TORSDOF 9
ENDMDL
MODEL      216
REMARK 921   NORMALIZED FREE ENERGY PREDICTED BY IDOCK:   -3.68 KCAL/MOL
REMARK 922        TOTAL FREE ENERGY PREDICTED BY IDOCK:   -6.85 KCAL/MOL
REMARK 923 INTER-LIGAND FREE ENERGY PREDICTED BY IDOCK:   -6.33 KCAL/MOL
REMARK 924 INTRA-LIGAND FREE ENERGY PREDICTED BY IDOCK:   -0.52 KCAL/MOL
REMARK 927      BINDING AFFINITY PREDICTED BY RF-SCORE:    0.00 PKD
ROOT
HETATM    1  C   UNL     1      -9.934  12.140  65.709  1.00  0.00    -0.271 C  
HETATM    2  C   UNL     1     -10.089  12.571  67.156  1.00  0.00    -0.214 C  
HETATM    3  C   UNL     1      -9.890  13.850  67.590  1.00  0.00    -0.236 C  
ENDROOT
BRANCH   2   4
HETATM    4  N   UNL     1     -10.567  11.541  67.974  1.00  0.00    -0.183 N  
HETATM    5  C   UNL     1     -11.899  11.508  68.359  1.00  0.00    -0.283 C  
HETATM    6  O   UNL     1     -12.395  10.659  69.095  1.00  0.00    -0.341 OA 
BRANCH   4   7
HETATM    7  C   UNL     1      -9.631  10.598  68.605  1.00  0.00    -0.179 C  
BRANCH   7   8
HETATM    8  C   UNL     1      -9.708   9.155  68.162  1.00  0.00    -0.174 A  
HETATM    9  H2  UNL     1      -8.933   8.939  70.695  1.00  0.00     0.000 HD 
HETATM   10  H1  UNL     1      -8.602   7.236  70.802  1.00  0.00     0.000 HD 
HETATM   11  N   UNL     1      -8.906   8.028  70.236  1.00  0.00    -0.144 NA 
HETATM   12  C   UNL     1      -9.260   7.990  68.994  1.00  0.00    -0.148 A  
HETATM   13  C   UNL     1      -9.936   8.824  66.867  1.00  0.00    -0.257 A  
HETATM   14  N   UNL     1      -9.752   7.594  66.253  1.00  0.00    -0.117 NA 
HETATM   15  C   UNL     1      -8.955   5.298  66.399  1.00  0.00    -0.128 C  
HETATM   16  N   UNL     1      -9.187   6.780  68.364  1.00  0.00    -0.125 NA 
HETATM   17  C   UNL     1      -9.353   6.620  67.020  1.00  0.00    -0.141 A  
ENDBRANCH   7   8
ENDBRANCH   4   7
ENDBRANCH   2   4
BRANCH   3  18
HETATM   18  C   UNL     1     -10.342  14.382  68.954  1.00  0.00    -0.233 C  
BRANCH  18  19
HETATM   19  C   UNL     1     -11.628  15.232  68.933  1.00  0.00    -0.347 C  
HETATM   20  H   UNL     1     -13.441  15.148  69.706  1.00  0.00     0.000 HD 
HETATM   21  O   UNL     1     -12.649  14.624  69.718  1.00  0.00    -0.250 OA 
ENDBRANCH  18  19
ENDBRANCH   3  18
BRANCH   3  22
HETATM   22  S   UNL     1      -9.104  14.992  66.487  1.00  0.00    -0.273 SA 
BRANCH  22  23
HETATM   23  S   UNL     1     -10.711  15.900  65.585  1.00  0.00    -0.312 SA 
BRANCH  23  24
HETATM   24  C   UNL     1     -10.300  17.681  65.498  1.00  0.00     0.012 C  
BRANCH  24  25
HETATM   25  C   UNL     1     -10.599  18.564  66.707  1.00  0.00    -0.354 C  
HETATM   26  O   UNL     1     -10.413  19.944  66.315  1.00  0.00    -0.470 OA 
HETATM   27  C   UNL     1      -9.839  19.716  68.608  1.00  0.00    -0.519 C  
HETATM   28  C   UNL     1      -9.953  20.687  67.453  1.00  0.00    -0.316 C  
HETATM   29  C   UNL     1      -9.696  18.379  67.915  1.00  0.00    -0.325 C  
ENDBRANCH  24  25
ENDBRANCH  23  24
ENDBRANCH  22  23
ENDBRANCH   3  22
TORSDOF 9
ENDMDL
MODEL      217
REMARK 921   NORMALIZED FREE ENERGY PREDICTED BY IDOCK:   -3.67 KCAL/MOL
REMARK 922        TOTAL FREE ENERGY PREDICTED BY IDOCK:   -6.85 KCAL/MOL
REMARK 923 INTER-LIGAND FREE ENERGY PREDICTED BY IDOCK:   -5.88 KCAL/MOL
REMARK 924 INTRA-LIGAND FREE ENERGY PREDICTED BY IDOCK:   -0.97 KCAL/MOL
REMARK 927      BINDING AFFINITY PREDICTED BY RF-SCORE:    0.00 PKD
ROOT
HETATM    1  C   UNL     1      -9.964   9.214  71.347  1.00  0.00    -0.373 C  
HETATM    2  C   UNL     1     -10.605   8.576  70.128  1.00  0.00    -0.232 C  
HETATM    3  C   UNL     1     -10.404   9.016  68.851  1.00  0.00    -0.215 C  
ENDROOT
BRANCH   2   4
HETATM    4  N   UNL     1     -11.331   7.423  70.446  1.00  0.00    -0.271 N  
HETATM    5  C   UNL     1     -12.468   7.503  71.236  1.00  0.00    -0.323 C  
HETATM    6  O   UNL     1     -13.147   6.541  71.585  1.00  0.00    -0.188 OA 
BRANCH   4   7
HETATM    7  C   UNL     1     -10.791   6.093  70.125  1.00  0.00    -0.329 C  
BRANCH   7   8
HETATM    8  C   UNL     1      -9.685   5.569  71.011  1.00  0.00    -0.229 A  
HETATM    9  H2  UNL     1      -8.353   7.009  69.218  1.00  0.00     0.000 HD 
HETATM   10  H1  UNL     1      -6.709   6.616  69.624  1.00  0.00     0.000 HD 
HETATM   11  N   UNL     1      -7.704   6.494  69.813  1.00  0.00    -0.110 NA 
HETATM   12  C   UNL     1      -8.223   5.749  70.733  1.00  0.00    -0.123 A  
HETATM   13  C   UNL     1      -9.931   4.659  71.986  1.00  0.00    -0.189 A  
HETATM   14  N   UNL     1      -9.017   3.875  72.676  1.00  0.00    -0.104 NA 
HETATM   15  C   UNL     1      -6.717   3.131  72.959  1.00  0.00    -0.029 C  
HETATM   16  N   UNL     1      -7.359   5.025  71.505  1.00  0.00    -0.078 NA 
HETATM   17  C   UNL     1      -7.761   4.066  72.388  1.00  0.00    -0.080 A  
ENDBRANCH   7   8
ENDBRANCH   4   7
ENDBRANCH   2   4
BRANCH   3  18
HETATM   18  C   UNL     1     -10.765   8.218  67.594  1.00  0.00    -0.195 C  
BRANCH  18  19
HETATM   19  C   UNL     1      -9.568   7.790  66.722  1.00  0.00    -0.212 C  
HETATM   20  H   UNL     1      -8.810   6.113  66.012  1.00  0.00     0.000 HD 
HETATM   21  O   UNL     1      -9.548   6.377  66.550  1.00  0.00    -0.161 OA 
ENDBRANCH  18  19
ENDBRANCH   3  18
BRANCH   3  22
HETATM   22  S   UNL     1      -9.626  10.591  68.624  1.00  0.00    -0.178 SA 
BRANCH  22  23
HETATM   23  S   UNL     1     -11.217  11.884  68.764  1.00  0.00    -0.283 SA 
BRANCH  23  24
HETATM   24  C   UNL     1     -11.676  12.307  67.044  1.00  0.00    -0.329 C  
BRANCH  24  25
HETATM   25  C   UNL     1     -11.690  13.775  66.626  1.00  0.00    -0.394 C  
HETATM   26  O   UNL     1     -10.895  13.909  65.425  1.00  0.00    -0.298 OA 
HETATM   27  C   UNL     1     -10.707  15.908  66.696  1.00  0.00    -0.270 C  
HETATM   28  C   UNL     1     -10.279  15.206  65.424  1.00  0.00    -0.372 C  
HETATM   29  C   UNL     1     -11.079  14.760  67.608  1.00  0.00    -0.311 C  
ENDBRANCH  24  25
ENDBRANCH  23  24
ENDBRANCH  22  23
ENDBRANCH   3  22
TORSDOF 9
ENDMDL
MODEL      218
REMARK 921   NORMALIZED FREE ENERGY PREDICTED BY IDOCK:   -3.67 KCAL/MOL
REMARK 922        TOTAL FREE ENERGY PREDICTED BY IDOCK:   -6.83 KCAL/MOL
REMARK 923 INTER-LIGAND FREE ENERGY PREDICTED BY IDOCK:   -5.93 KCAL/MOL
REMARK 924 INTRA-LIGAND FREE ENERGY PREDICTED BY IDOCK:   -0.91 KCAL/MOL
REMARK 927      BINDING AFFINITY PREDICTED BY RF-SCORE:    0.00 PKD
ROOT
HETATM    1  C   UNL     1      -7.250  12.124  67.339  1.00  0.00    -0.147 C  
HETATM    2  C   UNL     1      -8.200  11.238  68.123  1.00  0.00    -0.140 C  
HETATM    3  C   UNL     1      -9.559  11.363  68.084  1.00  0.00    -0.190 C  
ENDROOT
BRANCH   2   4
HETATM    4  N   UNL     1      -7.536  10.208  68.801  1.00  0.00    -0.085 N  
HETATM    5  C   UNL     1      -7.123  10.382  70.114  1.00  0.00    -0.117 C  
HETATM    6  O   UNL     1      -6.512   9.544  70.772  1.00  0.00    -0.078 OA 
BRANCH   4   7
HETATM    7  C   UNL     1      -7.084   9.011  68.075  1.00  0.00    -0.079 C  
BRANCH   7   8
HETATM    8  C   UNL     1      -8.151   8.046  67.612  1.00  0.00    -0.124 A  
HETATM    9  H2  UNL     1      -8.096   7.626  70.236  1.00  0.00     0.000 HD 
HETATM   10  H1  UNL     1      -9.150   6.252  70.379  1.00  0.00     0.000 HD 
HETATM   11  N   UNL     1      -8.698   6.942  69.778  1.00  0.00    -0.141 NA 
HETATM   12  C   UNL     1      -8.814   7.032  68.494  1.00  0.00    -0.124 A  
HETATM   13  C   UNL     1      -8.395   7.841  66.294  1.00  0.00    -0.131 A  
HETATM   14  N   UNL     1      -9.110   6.809  65.706  1.00  0.00    -0.023 NA 
HETATM   15  C   UNL     1     -10.299   4.699  65.959  1.00  0.00    -0.318 C  
HETATM   16  N   UNL     1      -9.587   6.092  67.874  1.00  0.00    -0.115 NA 
HETATM   17  C   UNL     1      -9.658   5.951  66.519  1.00  0.00    -0.156 A  
ENDBRANCH   7   8
ENDBRANCH   4   7
ENDBRANCH   2   4
BRANCH   3  18
HETATM   18  C   UNL     1     -10.542  10.305  68.595  1.00  0.00    -0.232 C  
BRANCH  18  19
HETATM   19  C   UNL     1     -10.799  10.328  70.114  1.00  0.00    -0.302 C  
HETATM   20  H   UNL     1     -12.353  10.339  71.328  1.00  0.00     0.000 HD 
HETATM   21  O   UNL     1     -12.195  10.325  70.392  1.00  0.00    -0.278 OA 
ENDBRANCH  18  19
ENDBRANCH   3  18
BRANCH   3  22
HETATM   22  S   UNL     1     -10.240  12.823  67.346  1.00  0.00    -0.223 SA 
BRANCH  22  23
HETATM   23  S   UNL     1     -11.864  13.198  68.546  1.00  0.00    -0.309 SA 
BRANCH  23  24
HETATM   24  C   UNL     1     -11.292  14.395  69.808  1.00  0.00    -0.237 C  
BRANCH  24  25
HETATM   25  C   UNL     1     -12.021  14.456  71.148  1.00  0.00    -0.316 C  
HETATM   26  O   UNL     1     -13.443  14.392  70.891  1.00  0.00    -0.329 OA 
HETATM   27  C   UNL     1     -13.072  15.724  72.822  1.00  0.00    -0.596 C  
HETATM   28  C   UNL     1     -14.127  15.151  71.899  1.00  0.00    -0.552 C  
HETATM   29  C   UNL     1     -11.830  15.725  71.960  1.00  0.00    -0.582 C  
ENDBRANCH  24  25
ENDBRANCH  23  24
ENDBRANCH  22  23
ENDBRANCH   3  22
TORSDOF 9
ENDMDL
MODEL      219
REMARK 921   NORMALIZED FREE ENERGY PREDICTED BY IDOCK:   -3.65 KCAL/MOL
REMARK 922        TOTAL FREE ENERGY PREDICTED BY IDOCK:   -6.81 KCAL/MOL
REMARK 923 INTER-LIGAND FREE ENERGY PREDICTED BY IDOCK:   -6.06 KCAL/MOL
REMARK 924 INTRA-LIGAND FREE ENERGY PREDICTED BY IDOCK:   -0.75 KCAL/MOL
REMARK 927      BINDING AFFINITY PREDICTED BY RF-SCORE:    0.00 PKD
ROOT
HETATM    1  C   UNL     1      -7.686   6.891  71.556  1.00  0.00    -0.095 C  
HETATM    2  C   UNL     1      -9.125   6.451  71.357  1.00  0.00    -0.145 C  
HETATM    3  C   UNL     1     -10.165   7.321  71.187  1.00  0.00    -0.190 C  
ENDROOT
BRANCH   2   4
HETATM    4  N   UNL     1      -9.253   5.062  71.254  1.00  0.00    -0.142 N  
HETATM    5  C   UNL     1     -10.012   4.354  72.175  1.00  0.00    -0.185 C  
HETATM    6  O   UNL     1     -10.154   3.135  72.175  1.00  0.00    -0.166 OA 
BRANCH   4   7
HETATM    7  C   UNL     1      -8.424   4.308  70.300  1.00  0.00    -0.069 C  
BRANCH   7   8
HETATM    8  C   UNL     1      -8.929   4.210  68.879  1.00  0.00    -0.162 A  
HETATM    9  H2  UNL     1      -9.128   1.702  69.734  1.00  0.00     0.000 HD 
HETATM   10  H1  UNL     1      -9.555   0.878  68.263  1.00  0.00     0.000 HD 
HETATM   11  N   UNL     1      -9.326   1.754  68.734  1.00  0.00    -0.157 NA 
HETATM   12  C   UNL     1      -9.264   2.923  68.187  1.00  0.00    -0.196 A  
HETATM   13  C   UNL     1      -8.859   5.265  68.030  1.00  0.00    -0.105 A  
HETATM   14  N   UNL     1      -9.001   5.265  66.650  1.00  0.00    -0.116 NA 
HETATM   15  C   UNL     1      -9.273   3.994  64.592  1.00  0.00    -0.151 C  
HETATM   16  N   UNL     1      -9.489   2.992  66.842  1.00  0.00    -0.108 NA 
HETATM   17  C   UNL     1      -9.282   4.117  66.100  1.00  0.00    -0.150 A  
ENDBRANCH   7   8
ENDBRANCH   4   7
ENDBRANCH   2   4
BRANCH   3  18
HETATM   18  C   UNL     1     -11.551   6.922  70.670  1.00  0.00    -0.402 C  
BRANCH  18  19
HETATM   19  C   UNL     1     -12.607   6.659  71.762  1.00  0.00    -0.274 C  
HETATM   20  H   UNL     1     -14.513   7.062  72.070  1.00  0.00     0.000 HD 
HETATM   21  O   UNL     1     -13.862   7.225  71.398  1.00  0.00    -0.394 OA 
ENDBRANCH  18  19
ENDBRANCH   3  18
BRANCH   3  22
HETATM   22  S   UNL     1      -9.884   9.035  71.535  1.00  0.00    -0.279 SA 
BRANCH  22  23
HETATM   23  S   UNL     1     -11.524   9.926  70.675  1.00  0.00    -0.358 SA 
BRANCH  23  24
HETATM   24  C   UNL     1     -10.940  10.632  69.091  1.00  0.00    -0.247 C  
BRANCH  24  25
HETATM   25  C   UNL     1     -11.763  11.734  68.429  1.00  0.00    -0.325 C  
HETATM   26  O   UNL     1     -11.886  11.421  67.022  1.00  0.00    -0.530 OA 
HETATM   27  C   UNL     1     -11.851  13.782  67.283  1.00  0.00    -0.436 C  
HETATM   28  C   UNL     1     -11.949  12.650  66.282  1.00  0.00    -0.374 C  
HETATM   29  C   UNL     1     -11.170  13.132  68.466  1.00  0.00    -0.307 C  
ENDBRANCH  24  25
ENDBRANCH  23  24
ENDBRANCH  22  23
ENDBRANCH   3  22
TORSDOF 9
ENDMDL
MODEL      220
REMARK 921   NORMALIZED FREE ENERGY PREDICTED BY IDOCK:   -3.63 KCAL/MOL
REMARK 922        TOTAL FREE ENERGY PREDICTED BY IDOCK:   -6.78 KCAL/MOL
REMARK 923 INTER-LIGAND FREE ENERGY PREDICTED BY IDOCK:   -6.28 KCAL/MOL
REMARK 924 INTRA-LIGAND FREE ENERGY PREDICTED BY IDOCK:   -0.50 KCAL/MOL
REMARK 927      BINDING AFFINITY PREDICTED BY RF-SCORE:    0.00 PKD
ROOT
HETATM    1  C   UNL     1      -7.590  10.722  67.899  1.00  0.00    -0.091 C  
HETATM    2  C   UNL     1      -9.075  10.812  68.201  1.00  0.00    -0.151 C  
HETATM    3  C   UNL     1      -9.798  11.967  68.106  1.00  0.00    -0.192 C  
ENDROOT
BRANCH   2   4
HETATM    4  N   UNL     1      -9.642   9.564  68.477  1.00  0.00    -0.141 N  
HETATM    5  C   UNL     1      -9.259   8.850  69.604  1.00  0.00    -0.152 C  
HETATM    6  O   UNL     1      -9.684   7.739  69.907  1.00  0.00    -0.174 OA 
BRANCH   4   7
HETATM    7  C   UNL     1     -10.494   8.896  67.481  1.00  0.00    -0.269 C  
BRANCH   7   8
HETATM    8  C   UNL     1      -9.840   7.847  66.612  1.00  0.00    -0.311 A  
HETATM    9  H2  UNL     1     -11.454   6.399  68.149  1.00  0.00     0.000 HD 
HETATM   10  H1  UNL     1     -10.975   4.785  67.713  1.00  0.00     0.000 HD 
HETATM   11  N   UNL     1     -10.855   5.791  67.590  1.00  0.00    -0.236 NA 
HETATM   12  C   UNL     1     -10.017   6.369  66.794  1.00  0.00    -0.171 A  
HETATM   13  C   UNL     1      -8.825   8.159  65.769  1.00  0.00    -0.135 A  
HETATM   14  N   UNL     1      -7.942   7.296  65.136  1.00  0.00    -0.123 NA 
HETATM   15  C   UNL     1      -7.114   5.027  64.833  1.00  0.00    -0.062 C  
HETATM   16  N   UNL     1      -9.185   5.559  66.075  1.00  0.00    -0.159 NA 
HETATM   17  C   UNL     1      -8.136   6.023  65.336  1.00  0.00    -0.132 A  
ENDBRANCH   7   8
ENDBRANCH   4   7
ENDBRANCH   2   4
BRANCH   3  18
HETATM   18  C   UNL     1     -11.328  12.031  68.088  1.00  0.00    -0.349 C  
BRANCH  18  19
HETATM   19  C   UNL     1     -12.010  11.818  69.454  1.00  0.00    -0.298 C  
HETATM   20  H   UNL     1     -13.168  10.468  70.307  1.00  0.00     0.000 HD 
HETATM   21  O   UNL     1     -12.748  10.600  69.465  1.00  0.00    -0.229 OA 
ENDBRANCH  18  19
ENDBRANCH   3  18
BRANCH   3  22
HETATM   22  S   UNL     1      -8.913  13.493  67.938  1.00  0.00    -0.210 SA 
BRANCH  22  23
HETATM   23  S   UNL     1     -10.421  14.883  68.061  1.00  0.00    -0.249 SA 
BRANCH  23  24
HETATM   24  C   UNL     1      -9.610  16.470  68.478  1.00  0.00    -0.233 C  
BRANCH  24  25
HETATM   25  C   UNL     1     -10.322  17.774  68.128  1.00  0.00    -0.391 C  
HETATM   26  O   UNL     1     -10.291  17.933  66.690  1.00  0.00    -0.353 OA 
HETATM   27  C   UNL     1     -10.222  20.082  67.701  1.00  0.00    -0.548 C  
HETATM   28  C   UNL     1     -10.236  19.334  66.384  1.00  0.00    -0.449 C  
HETATM   29  C   UNL     1      -9.698  19.048  68.673  1.00  0.00    -0.468 C  
ENDBRANCH  24  25
ENDBRANCH  23  24
ENDBRANCH  22  23
ENDBRANCH   3  22
TORSDOF 9
ENDMDL
MODEL      221
REMARK 921   NORMALIZED FREE ENERGY PREDICTED BY IDOCK:   -3.62 KCAL/MOL
REMARK 922        TOTAL FREE ENERGY PREDICTED BY IDOCK:   -6.76 KCAL/MOL
REMARK 923 INTER-LIGAND FREE ENERGY PREDICTED BY IDOCK:   -5.70 KCAL/MOL
REMARK 924 INTRA-LIGAND FREE ENERGY PREDICTED BY IDOCK:   -1.07 KCAL/MOL
REMARK 927      BINDING AFFINITY PREDICTED BY RF-SCORE:    0.00 PKD
ROOT
HETATM    1  C   UNL     1      -7.555   9.898  69.724  1.00  0.00    -0.151 C  
HETATM    2  C   UNL     1      -8.566   9.856  68.593  1.00  0.00    -0.119 C  
HETATM    3  C   UNL     1      -9.085  10.972  68.000  1.00  0.00    -0.152 C  
ENDROOT
BRANCH   2   4
HETATM    4  N   UNL     1      -8.822   8.554  68.149  1.00  0.00    -0.142 N  
HETATM    5  C   UNL     1      -7.846   7.838  67.470  1.00  0.00    -0.122 C  
HETATM    6  O   UNL     1      -7.995   6.703  67.023  1.00  0.00    -0.106 OA 
BRANCH   4   7
HETATM    7  C   UNL     1     -10.183   8.001  68.210  1.00  0.00    -0.205 C  
BRANCH   7   8
HETATM    8  C   UNL     1     -10.613   7.375  69.516  1.00  0.00    -0.244 A  
HETATM    9  H2  UNL     1     -11.035   9.963  69.952  1.00  0.00     0.000 HD 
HETATM   10  H1  UNL     1     -11.434   9.958  71.644  1.00  0.00     0.000 HD 
HETATM   11  N   UNL     1     -11.172   9.430  70.811  1.00  0.00    -0.278 NA 
HETATM   12  C   UNL     1     -10.997   8.152  70.740  1.00  0.00    -0.244 A  
HETATM   13  C   UNL     1     -10.421   6.056  69.765  1.00  0.00    -0.255 A  
HETATM   14  N   UNL     1     -10.484   5.396  70.983  1.00  0.00    -0.241 NA 
HETATM   15  C   UNL     1     -10.728   5.522  73.402  1.00  0.00    -0.317 C  
HETATM   16  N   UNL     1     -11.140   7.440  71.897  1.00  0.00    -0.237 NA 
HETATM   17  C   UNL     1     -10.813   6.121  72.015  1.00  0.00    -0.247 A  
ENDBRANCH   7   8
ENDBRANCH   4   7
ENDBRANCH   2   4
BRANCH   3  18
HETATM   18  C   UNL     1      -9.843  10.973  66.670  1.00  0.00    -0.235 C  
BRANCH  18  19
HETATM   19  C   UNL     1     -11.282  11.521  66.735  1.00  0.00    -0.285 C  
HETATM   20  H   UNL     1     -12.847  11.365  67.927  1.00  0.00     0.000 HD 
HETATM   21  O   UNL     1     -11.960  11.027  67.886  1.00  0.00    -0.620 OA 
ENDBRANCH  18  19
ENDBRANCH   3  18
BRANCH   3  22
HETATM   22  S   UNL     1      -8.821  12.535  68.792  1.00  0.00     0.281 SA 
BRANCH  22  23
HETATM   23  S   UNL     1      -7.750  13.564  67.373  1.00  0.00    -0.094 SA 
BRANCH  23  24
HETATM   24  C   UNL     1      -8.381  15.282  67.412  1.00  0.00    -0.181 C  
BRANCH  24  25
HETATM   25  C   UNL     1      -9.742  15.579  66.789  1.00  0.00    -0.239 C  
HETATM   26  O   UNL     1     -10.767  15.149  67.715  1.00  0.00    -0.265 OA 
HETATM   27  C   UNL     1     -11.574  14.874  65.498  1.00  0.00    -0.263 C  
HETATM   28  C   UNL     1     -11.911  14.713  66.965  1.00  0.00    -0.337 C  
HETATM   29  C   UNL     1     -10.061  14.854  65.492  1.00  0.00    -0.400 C  
ENDBRANCH  24  25
ENDBRANCH  23  24
ENDBRANCH  22  23
ENDBRANCH   3  22
TORSDOF 9
ENDMDL
MODEL      222
REMARK 921   NORMALIZED FREE ENERGY PREDICTED BY IDOCK:   -3.62 KCAL/MOL
REMARK 922        TOTAL FREE ENERGY PREDICTED BY IDOCK:   -6.76 KCAL/MOL
REMARK 923 INTER-LIGAND FREE ENERGY PREDICTED BY IDOCK:   -7.04 KCAL/MOL
REMARK 924 INTRA-LIGAND FREE ENERGY PREDICTED BY IDOCK:    0.28 KCAL/MOL
REMARK 927      BINDING AFFINITY PREDICTED BY RF-SCORE:    0.00 PKD
ROOT
HETATM    1  C   UNL     1      -9.301  11.973  68.047  1.00  0.00    -0.196 C  
HETATM    2  C   UNL     1     -10.459  12.711  68.692  1.00  0.00    -0.205 C  
HETATM    3  C   UNL     1     -10.672  14.053  68.554  1.00  0.00    -0.256 C  
ENDROOT
BRANCH   2   4
HETATM    4  N   UNL     1     -11.345  11.850  69.348  1.00  0.00    -0.268 N  
HETATM    5  C   UNL     1     -11.882  12.196  70.580  1.00  0.00    -0.092 C  
HETATM    6  O   UNL     1     -12.643  11.490  71.236  1.00  0.00    -0.383 OA 
BRANCH   4   7
HETATM    7  C   UNL     1     -11.561  10.483  68.849  1.00  0.00    -0.196 C  
BRANCH   7   8
HETATM    8  C   UNL     1     -10.477   9.469  69.135  1.00  0.00    -0.224 A  
HETATM    9  H2  UNL     1     -10.866   9.175  66.522  1.00  0.00     0.000 HD 
HETATM   10  H1  UNL     1      -9.882   7.781  66.190  1.00  0.00     0.000 HD 
HETATM   11  N   UNL     1     -10.234   8.453  66.871  1.00  0.00    -0.294 NA 
HETATM   12  C   UNL     1      -9.960   8.480  68.134  1.00  0.00    -0.181 A  
HETATM   13  C   UNL     1     -10.081   9.196  70.403  1.00  0.00    -0.218 A  
HETATM   14  N   UNL     1      -9.333   8.118  70.852  1.00  0.00    -0.148 NA 
HETATM   15  C   UNL     1      -8.253   5.992  70.363  1.00  0.00    -0.116 C  
HETATM   16  N   UNL     1      -9.148   7.492  68.613  1.00  0.00    -0.135 NA 
HETATM   17  C   UNL     1      -8.916   7.285  69.941  1.00  0.00    -0.142 A  
ENDBRANCH   7   8
ENDBRANCH   4   7
ENDBRANCH   2   4
BRANCH   3  18
HETATM   18  C   UNL     1     -11.981  14.763  68.913  1.00  0.00    -0.298 C  
BRANCH  18  19
HETATM   19  C   UNL     1     -11.892  15.741  70.102  1.00  0.00    -0.355 C  
HETATM   20  H   UNL     1     -12.916  16.138  71.740  1.00  0.00     0.000 HD 
HETATM   21  O   UNL     1     -12.971  15.536  71.008  1.00  0.00    -0.457 OA 
ENDBRANCH  18  19
ENDBRANCH   3  18
BRANCH   3  22
HETATM   22  S   UNL     1      -9.370  15.038  67.865  1.00  0.00    -0.184 SA 
BRANCH  22  23
HETATM   23  S   UNL     1      -9.859  15.067  65.870  1.00  0.00    -0.352 SA 
BRANCH  23  24
HETATM   24  C   UNL     1     -11.640  14.656  65.782  1.00  0.00    -0.328 C  
BRANCH  24  25
HETATM   25  C   UNL     1     -12.056  13.310  65.193  1.00  0.00    -0.413 C  
HETATM   26  O   UNL     1     -10.947  12.393  65.337  1.00  0.00    -0.283 OA 
HETATM   27  C   UNL     1     -12.145  11.845  63.360  1.00  0.00    -0.539 C  
HETATM   28  C   UNL     1     -10.967  11.472  64.236  1.00  0.00    -0.341 C  
HETATM   29  C   UNL     1     -12.382  13.297  63.709  1.00  0.00    -0.440 C  
ENDBRANCH  24  25
ENDBRANCH  23  24
ENDBRANCH  22  23
ENDBRANCH   3  22
TORSDOF 9
ENDMDL
MODEL      223
REMARK 921   NORMALIZED FREE ENERGY PREDICTED BY IDOCK:   -3.60 KCAL/MOL
REMARK 922        TOTAL FREE ENERGY PREDICTED BY IDOCK:   -6.74 KCAL/MOL
REMARK 923 INTER-LIGAND FREE ENERGY PREDICTED BY IDOCK:   -5.56 KCAL/MOL
REMARK 924 INTRA-LIGAND FREE ENERGY PREDICTED BY IDOCK:   -1.18 KCAL/MOL
REMARK 927      BINDING AFFINITY PREDICTED BY RF-SCORE:    0.00 PKD
ROOT
HETATM    1  C   UNL     1     -10.416   9.709  67.175  1.00  0.00    -0.317 C  
HETATM    2  C   UNL     1      -9.917   9.571  68.601  1.00  0.00    -0.167 C  
HETATM    3  C   UNL     1     -10.693   9.802  69.701  1.00  0.00    -0.242 C  
ENDROOT
BRANCH   2   4
HETATM    4  N   UNL     1      -8.610   9.075  68.666  1.00  0.00    -0.128 N  
HETATM    5  C   UNL     1      -7.529   9.943  68.707  1.00  0.00    -0.079 C  
HETATM    6  O   UNL     1      -6.352   9.593  68.737  1.00  0.00    -0.046 OA 
BRANCH   4   7
HETATM    7  C   UNL     1      -8.351   7.638  68.484  1.00  0.00    -0.129 C  
BRANCH   7   8
HETATM    8  C   UNL     1      -8.825   6.711  69.579  1.00  0.00    -0.139 A  
HETATM    9  H2  UNL     1      -6.334   7.256  70.326  1.00  0.00     0.000 HD 
HETATM   10  H1  UNL     1      -6.138   6.165  71.665  1.00  0.00     0.000 HD 
HETATM   11  N   UNL     1      -6.734   6.533  70.924  1.00  0.00    -0.053 NA 
HETATM   12  C   UNL     1      -7.948   6.171  70.668  1.00  0.00    -0.111 A  
HETATM   13  C   UNL     1     -10.023   6.079  69.501  1.00  0.00    -0.178 A  
HETATM   14  N   UNL     1     -10.472   5.001  70.249  1.00  0.00    -0.232 NA 
HETATM   15  C   UNL     1     -10.001   3.287  71.911  1.00  0.00    -0.209 C  
HETATM   16  N   UNL     1      -8.474   5.174  71.440  1.00  0.00    -0.122 NA 
HETATM   17  C   UNL     1      -9.666   4.566  71.176  1.00  0.00    -0.186 A  
ENDBRANCH   7   8
ENDBRANCH   4   7
ENDBRANCH   2   4
BRANCH   3  18
HETATM   18  C   UNL     1     -10.329   9.370  71.124  1.00  0.00    -0.377 C  
BRANCH  18  19
HETATM   19  C   UNL     1     -11.510   8.870  71.981  1.00  0.00    -0.361 C  
HETATM   20  H   UNL     1     -12.832   7.408  71.926  1.00  0.00     0.000 HD 
HETATM   21  O   UNL     1     -12.105   7.716  71.398  1.00  0.00    -0.298 OA 
ENDBRANCH  18  19
ENDBRANCH   3  18
BRANCH   3  22
HETATM   22  S   UNL     1     -12.254  10.608  69.465  1.00  0.00    -0.038 SA 
BRANCH  22  23
HETATM   23  S   UNL     1     -11.945  12.424  70.375  1.00  0.00    -0.136 SA 
BRANCH  23  24
HETATM   24  C   UNL     1     -11.979  13.671  69.036  1.00  0.00    -0.353 C  
BRANCH  24  25
HETATM   25  C   UNL     1     -11.716  13.217  67.602  1.00  0.00    -0.369 C  
HETATM   26  O   UNL     1     -10.285  13.111  67.417  1.00  0.00    -0.229 OA 
HETATM   27  C   UNL     1     -11.279  13.756  65.358  1.00  0.00    -0.306 C  
HETATM   28  C   UNL     1      -9.974  13.428  66.052  1.00  0.00    -0.293 C  
HETATM   29  C   UNL     1     -12.182  14.157  66.503  1.00  0.00    -0.463 C  
ENDBRANCH  24  25
ENDBRANCH  23  24
ENDBRANCH  22  23
ENDBRANCH   3  22
TORSDOF 9
ENDMDL
MODEL      224
REMARK 921   NORMALIZED FREE ENERGY PREDICTED BY IDOCK:   -3.59 KCAL/MOL
REMARK 922        TOTAL FREE ENERGY PREDICTED BY IDOCK:   -6.72 KCAL/MOL
REMARK 923 INTER-LIGAND FREE ENERGY PREDICTED BY IDOCK:   -5.89 KCAL/MOL
REMARK 924 INTRA-LIGAND FREE ENERGY PREDICTED BY IDOCK:   -0.83 KCAL/MOL
REMARK 927      BINDING AFFINITY PREDICTED BY RF-SCORE:    0.00 PKD
ROOT
HETATM    1  C   UNL     1      -8.214  10.594  69.322  1.00  0.00    -0.122 C  
HETATM    2  C   UNL     1      -9.417   9.843  68.780  1.00  0.00    -0.157 C  
HETATM    3  C   UNL     1      -9.340   8.905  67.791  1.00  0.00    -0.141 C  
ENDROOT
BRANCH   2   4
HETATM    4  N   UNL     1     -10.592  10.136  69.482  1.00  0.00    -0.228 N  
HETATM    5  C   UNL     1     -10.724   9.775  70.815  1.00  0.00    -0.323 C  
HETATM    6  O   UNL     1     -11.728   9.967  71.496  1.00  0.00    -0.365 OA 
BRANCH   4   7
HETATM    7  C   UNL     1     -11.776  10.641  68.771  1.00  0.00    -0.188 C  
BRANCH   7   8
HETATM    8  C   UNL     1     -11.907  12.140  68.632  1.00  0.00    -0.358 A  
HETATM    9  H2  UNL     1     -12.220  11.302  66.130  1.00  0.00     0.000 HD 
HETATM   10  H1  UNL     1     -12.235  12.812  65.269  1.00  0.00     0.000 HD 
HETATM   11  N   UNL     1     -12.164  12.321  66.160  1.00  0.00    -0.585 NA 
HETATM   12  C   UNL     1     -12.010  12.863  67.323  1.00  0.00    -0.309 A  
HETATM   13  C   UNL     1     -11.665  12.970  69.677  1.00  0.00    -0.297 A  
HETATM   14  N   UNL     1     -11.458  14.341  69.651  1.00  0.00    -0.274 NA 
HETATM   15  C   UNL     1     -11.161  16.372  68.342  1.00  0.00    -0.324 C  
HETATM   16  N   UNL     1     -11.895  14.223  67.363  1.00  0.00    -0.399 NA 
HETATM   17  C   UNL     1     -11.551  14.917  68.486  1.00  0.00    -0.323 A  
ENDBRANCH   7   8
ENDBRANCH   4   7
ENDBRANCH   2   4
BRANCH   3  18
HETATM   18  C   UNL     1     -10.458   7.914  67.450  1.00  0.00    -0.360 C  
BRANCH  18  19
HETATM   19  C   UNL     1     -10.563   6.695  68.387  1.00  0.00    -0.242 C  
HETATM   20  H   UNL     1      -9.455   5.817  69.763  1.00  0.00     0.000 HD 
HETATM   21  O   UNL     1      -9.390   6.568  69.185  1.00  0.00    -0.134 OA 
ENDBRANCH  18  19
ENDBRANCH   3  18
BRANCH   3  22
HETATM   22  S   UNL     1      -7.831   8.784  66.871  1.00  0.00    -0.102 SA 
BRANCH  22  23
HETATM   23  S   UNL     1      -8.501   8.223  65.012  1.00  0.00    -0.074 SA 
BRANCH  23  24
HETATM   24  C   UNL     1      -7.226   7.098  64.336  1.00  0.00    -0.067 C  
BRANCH  24  25
HETATM   25  C   UNL     1      -7.484   5.593  64.366  1.00  0.00    -0.073 C  
HETATM   26  O   UNL     1      -7.841   5.170  63.029  1.00  0.00    -0.068 OA 
HETATM   27  C   UNL     1      -8.985   3.802  64.598  1.00  0.00    -0.125 C  
HETATM   28  C   UNL     1      -8.756   4.069  63.126  1.00  0.00    -0.106 C  
HETATM   29  C   UNL     1      -8.633   5.124  65.242  1.00  0.00    -0.148 C  
ENDBRANCH  24  25
ENDBRANCH  23  24
ENDBRANCH  22  23
ENDBRANCH   3  22
TORSDOF 9
ENDMDL
MODEL      225
REMARK 921   NORMALIZED FREE ENERGY PREDICTED BY IDOCK:   -3.59 KCAL/MOL
REMARK 922        TOTAL FREE ENERGY PREDICTED BY IDOCK:   -6.72 KCAL/MOL
REMARK 923 INTER-LIGAND FREE ENERGY PREDICTED BY IDOCK:   -6.02 KCAL/MOL
REMARK 924 INTRA-LIGAND FREE ENERGY PREDICTED BY IDOCK:   -0.70 KCAL/MOL
REMARK 927      BINDING AFFINITY PREDICTED BY RF-SCORE:    0.00 PKD
ROOT
HETATM    1  C   UNL     1     -10.729  14.485  66.155  1.00  0.00    -0.310 C  
HETATM    2  C   UNL     1     -10.715  13.707  67.458  1.00  0.00    -0.259 C  
HETATM    3  C   UNL     1     -10.559  12.352  67.530  1.00  0.00    -0.219 C  
ENDROOT
BRANCH   2   4
HETATM    4  N   UNL     1     -10.768  14.541  68.581  1.00  0.00    -0.245 N  
HETATM    5  C   UNL     1     -11.987  14.867  69.159  1.00  0.00    -0.278 C  
HETATM    6  O   UNL     1     -12.126  15.612  70.125  1.00  0.00    -0.366 OA 
BRANCH   4   7
HETATM    7  C   UNL     1      -9.563  15.248  69.039  1.00  0.00    -0.237 C  
BRANCH   7   8
HETATM    8  C   UNL     1      -9.191  16.517  68.307  1.00  0.00    -0.214 A  
HETATM    9  H2  UNL     1      -7.356  14.798  67.446  1.00  0.00     0.000 HD 
HETATM   10  H1  UNL     1      -6.307  15.850  66.544  1.00  0.00     0.000 HD 
HETATM   11  N   UNL     1      -7.144  15.740  67.117  1.00  0.00    -0.207 NA 
HETATM   12  C   UNL     1      -7.961  16.678  67.466  1.00  0.00    -0.168 A  
HETATM   13  C   UNL     1      -9.806  17.695  68.578  1.00  0.00    -0.346 A  
HETATM   14  N   UNL     1      -9.401  18.973  68.222  1.00  0.00    -0.327 NA 
HETATM   15  C   UNL     1      -7.712  20.414  67.223  1.00  0.00    -0.372 C  
HETATM   16  N   UNL     1      -7.658  17.947  67.061  1.00  0.00    -0.196 NA 
HETATM   17  C   UNL     1      -8.320  19.056  67.499  1.00  0.00    -0.278 A  
ENDBRANCH   7   8
ENDBRANCH   4   7
ENDBRANCH   2   4
BRANCH   3  18
HETATM   18  C   UNL     1     -10.222  11.586  68.813  1.00  0.00    -0.204 C  
BRANCH  18  19
HETATM   19  C   UNL     1     -11.437  11.156  69.658  1.00  0.00    -0.310 C  
HETATM   20  H   UNL     1     -11.980   9.598  70.739  1.00  0.00     0.000 HD 
HETATM   21  O   UNL     1     -11.231   9.863  70.218  1.00  0.00    -0.260 OA 
ENDBRANCH  18  19
ENDBRANCH   3  18
BRANCH   3  22
HETATM   22  S   UNL     1     -10.701  11.417  66.032  1.00  0.00    -0.238 SA 
BRANCH  22  23
HETATM   23  S   UNL     1      -8.789  10.708  65.781  1.00  0.00    -0.189 SA 
BRANCH  23  24
HETATM   24  C   UNL     1      -8.683   9.179  66.782  1.00  0.00    -0.127 C  
BRANCH  24  25
HETATM   25  C   UNL     1      -9.142   7.861  66.162  1.00  0.00    -0.163 C  
HETATM   26  O   UNL     1      -9.332   6.903  67.229  1.00  0.00    -0.130 OA 
HETATM   27  C   UNL     1      -8.614   5.748  65.281  1.00  0.00    -0.129 C  
HETATM   28  C   UNL     1      -9.025   5.593  66.730  1.00  0.00    -0.116 C  
HETATM   29  C   UNL     1      -8.167   7.192  65.208  1.00  0.00    -0.128 C  
ENDBRANCH  24  25
ENDBRANCH  23  24
ENDBRANCH  22  23
ENDBRANCH   3  22
TORSDOF 9
ENDMDL
MODEL      226
REMARK 921   NORMALIZED FREE ENERGY PREDICTED BY IDOCK:   -3.59 KCAL/MOL
REMARK 922        TOTAL FREE ENERGY PREDICTED BY IDOCK:   -6.71 KCAL/MOL
REMARK 923 INTER-LIGAND FREE ENERGY PREDICTED BY IDOCK:   -5.96 KCAL/MOL
REMARK 924 INTRA-LIGAND FREE ENERGY PREDICTED BY IDOCK:   -0.75 KCAL/MOL
REMARK 927      BINDING AFFINITY PREDICTED BY RF-SCORE:    0.00 PKD
ROOT
HETATM    1  C   UNL     1     -10.317   8.463  67.668  1.00  0.00    -0.317 C  
HETATM    2  C   UNL     1      -9.688   9.243  68.808  1.00  0.00    -0.157 C  
HETATM    3  C   UNL     1      -8.529   8.873  69.428  1.00  0.00    -0.124 C  
ENDROOT
BRANCH   2   4
HETATM    4  N   UNL     1     -10.363  10.439  69.076  1.00  0.00    -0.201 N  
HETATM    5  C   UNL     1     -11.569  10.427  69.762  1.00  0.00    -0.269 C  
HETATM    6  O   UNL     1     -12.240  11.424  70.015  1.00  0.00    -0.309 OA 
BRANCH   4   7
HETATM    7  C   UNL     1      -9.917  11.699  68.462  1.00  0.00    -0.194 C  
BRANCH   7   8
HETATM    8  C   UNL     1     -10.482  12.037  67.102  1.00  0.00    -0.244 A  
HETATM    9  H2  UNL     1     -11.893  13.606  68.718  1.00  0.00     0.000 HD 
HETATM   10  H1  UNL     1     -13.070  14.254  67.614  1.00  0.00     0.000 HD 
HETATM   11  N   UNL     1     -12.264  13.648  67.768  1.00  0.00    -0.266 NA 
HETATM   12  C   UNL     1     -11.667  12.927  66.876  1.00  0.00    -0.382 A  
HETATM   13  C   UNL     1     -10.125  11.340  65.995  1.00  0.00    -0.239 A  
HETATM   14  N   UNL     1     -10.748  11.324  64.755  1.00  0.00    -0.305 NA 
HETATM   15  C   UNL     1     -12.620  12.019  63.363  1.00  0.00    -0.592 C  
HETATM   16  N   UNL     1     -12.185  12.949  65.613  1.00  0.00    -0.473 NA 
HETATM   17  C   UNL     1     -11.778  12.111  64.617  1.00  0.00    -0.332 A  
ENDBRANCH   7   8
ENDBRANCH   4   7
ENDBRANCH   2   4
BRANCH   3  18
HETATM   18  C   UNL     1      -7.708   9.787  70.344  1.00  0.00    -0.159 C  
BRANCH  18  19
HETATM   19  C   UNL     1      -6.401  10.328  69.730  1.00  0.00    -0.071 C  
HETATM   20  H   UNL     1      -5.759  10.919  67.962  1.00  0.00     0.000 HD 
HETATM   21  O   UNL     1      -6.564  10.585  68.339  1.00  0.00    -0.055 OA 
ENDBRANCH  18  19
ENDBRANCH   3  18
BRANCH   3  22
HETATM   22  S   UNL     1      -7.898   7.247  69.117  1.00  0.00    -0.119 SA 
BRANCH  22  23
HETATM   23  S   UNL     1      -9.025   6.094  70.391  1.00  0.00    -0.150 SA 
BRANCH  23  24
HETATM   24  C   UNL     1      -9.908   4.891  69.332  1.00  0.00    -0.211 C  
BRANCH  24  25
HETATM   25  C   UNL     1      -9.098   4.015  68.380  1.00  0.00    -0.137 C  
HETATM   26  O   UNL     1      -9.318   4.490  67.032  1.00  0.00    -0.126 OA 
HETATM   27  C   UNL     1      -8.970   2.141  66.970  1.00  0.00    -0.150 C  
HETATM   28  C   UNL     1      -9.242   3.374  66.134  1.00  0.00    -0.163 C  
HETATM   29  C   UNL     1      -9.471   2.543  68.339  1.00  0.00    -0.217 C  
ENDBRANCH  24  25
ENDBRANCH  23  24
ENDBRANCH  22  23
ENDBRANCH   3  22
TORSDOF 9
ENDMDL
MODEL      227
REMARK 921   NORMALIZED FREE ENERGY PREDICTED BY IDOCK:   -3.58 KCAL/MOL
REMARK 922        TOTAL FREE ENERGY PREDICTED BY IDOCK:   -6.70 KCAL/MOL
REMARK 923 INTER-LIGAND FREE ENERGY PREDICTED BY IDOCK:   -6.08 KCAL/MOL
REMARK 924 INTRA-LIGAND FREE ENERGY PREDICTED BY IDOCK:   -0.62 KCAL/MOL
REMARK 927      BINDING AFFINITY PREDICTED BY RF-SCORE:    0.00 PKD
ROOT
HETATM    1  C   UNL     1     -10.258  17.535  68.664  1.00  0.00    -0.373 C  
HETATM    2  C   UNL     1      -9.134  16.572  68.328  1.00  0.00    -0.214 C  
HETATM    3  C   UNL     1      -9.313  15.417  67.622  1.00  0.00    -0.203 C  
ENDROOT
BRANCH   2   4
HETATM    4  N   UNL     1      -7.881  17.052  68.723  1.00  0.00    -0.253 N  
HETATM    5  C   UNL     1      -7.029  16.259  69.478  1.00  0.00    -0.171 C  
HETATM    6  O   UNL     1      -5.926  16.610  69.889  1.00  0.00    -0.212 OA 
BRANCH   4   7
HETATM    7  C   UNL     1      -7.530  18.467  68.524  1.00  0.00    -0.297 C  
BRANCH   7   8
HETATM    8  C   UNL     1      -6.798  18.820  67.249  1.00  0.00    -0.207 A  
HETATM    9  H2  UNL     1      -7.835  21.155  67.984  1.00  0.00     0.000 HD 
HETATM   10  H1  UNL     1      -7.457  22.140  66.603  1.00  0.00     0.000 HD 
HETATM   11  N   UNL     1      -7.411  21.229  67.059  1.00  0.00    -0.371 NA 
HETATM   12  C   UNL     1      -6.867  20.159  66.579  1.00  0.00    -0.226 A  
HETATM   13  C   UNL     1      -6.239  17.864  66.467  1.00  0.00    -0.181 A  
HETATM   14  N   UNL     1      -5.800  17.980  65.157  1.00  0.00    -0.062 NA 
HETATM   15  C   UNL     1      -5.605  19.335  63.144  1.00  0.00    -0.261 C  
HETATM   16  N   UNL     1      -6.333  20.244  65.324  1.00  0.00    -0.249 NA 
HETATM   17  C   UNL     1      -5.891  19.164  64.620  1.00  0.00    -0.284 A  
ENDBRANCH   7   8
ENDBRANCH   4   7
ENDBRANCH   2   4
BRANCH   3  18
HETATM   18  C   UNL     1      -8.179  14.600  66.997  1.00  0.00    -0.188 C  
BRANCH  18  19
HETATM   19  C   UNL     1      -7.834  13.288  67.729  1.00  0.00    -0.157 C  
HETATM   20  H   UNL     1      -6.516  11.830  67.562  1.00  0.00     0.000 HD 
HETATM   21  O   UNL     1      -6.728  12.638  67.110  1.00  0.00    -0.138 OA 
ENDBRANCH  18  19
ENDBRANCH   3  18
BRANCH   3  22
HETATM   22  S   UNL     1     -10.971  14.847  67.362  1.00  0.00    -0.323 SA 
BRANCH  22  23
HETATM   23  S   UNL     1     -10.806  13.833  65.583  1.00  0.00    -0.295 SA 
BRANCH  23  24
HETATM   24  C   UNL     1     -11.360  12.122  65.926  1.00  0.00    -0.356 C  
BRANCH  24  25
HETATM   25  C   UNL     1     -10.314  11.067  66.277  1.00  0.00    -0.251 C  
HETATM   26  O   UNL     1      -9.529  10.799  65.092  1.00  0.00    -0.198 OA 
HETATM   27  C   UNL     1      -9.674   8.809  66.381  1.00  0.00    -0.335 C  
HETATM   28  C   UNL     1      -9.111   9.426  65.119  1.00  0.00    -0.225 C  
HETATM   29  C   UNL     1     -10.845   9.710  66.706  1.00  0.00    -0.051 C  
ENDBRANCH  24  25
ENDBRANCH  23  24
ENDBRANCH  22  23
ENDBRANCH   3  22
TORSDOF 9
ENDMDL
MODEL      228
REMARK 921   NORMALIZED FREE ENERGY PREDICTED BY IDOCK:   -3.57 KCAL/MOL
REMARK 922        TOTAL FREE ENERGY PREDICTED BY IDOCK:   -6.68 KCAL/MOL
REMARK 923 INTER-LIGAND FREE ENERGY PREDICTED BY IDOCK:   -5.78 KCAL/MOL
REMARK 924 INTRA-LIGAND FREE ENERGY PREDICTED BY IDOCK:   -0.90 KCAL/MOL
REMARK 927      BINDING AFFINITY PREDICTED BY RF-SCORE:    0.00 PKD
ROOT
HETATM    1  C   UNL     1      -7.415  11.333  66.716  1.00  0.00    -0.146 C  
HETATM    2  C   UNL     1      -8.662  10.526  66.407  1.00  0.00    -0.145 C  
HETATM    3  C   UNL     1      -8.997   9.372  67.056  1.00  0.00    -0.130 C  
ENDROOT
BRANCH   2   4
HETATM    4  N   UNL     1      -9.486  11.152  65.465  1.00  0.00    -0.215 N  
HETATM    5  C   UNL     1      -9.678  10.587  64.212  1.00  0.00    -0.330 C  
HETATM    6  O   UNL     1     -10.360  11.082  63.318  1.00  0.00    -0.345 OA 
BRANCH   4   7
HETATM    7  C   UNL     1      -9.993  12.512  65.706  1.00  0.00    -0.259 C  
BRANCH   7   8
HETATM    8  C   UNL     1     -10.802  12.729  66.964  1.00  0.00    -0.282 A  
HETATM    9  H2  UNL     1      -8.973  14.651  67.118  1.00  0.00     0.000 HD 
HETATM   10  H1  UNL     1      -9.277  15.278  68.710  1.00  0.00     0.000 HD 
HETATM   11  N   UNL     1      -9.518  14.609  67.979  1.00  0.00    -0.202 NA 
HETATM   12  C   UNL     1     -10.447  13.712  68.038  1.00  0.00    -0.248 A  
HETATM   13  C   UNL     1     -11.767  11.855  67.344  1.00  0.00    -0.256 A  
HETATM   14  N   UNL     1     -12.385  11.747  68.580  1.00  0.00    -0.236 NA 
HETATM   15  C   UNL     1     -12.521  12.462  70.903  1.00  0.00    -0.367 C  
HETATM   16  N   UNL     1     -11.152  13.626  69.205  1.00  0.00    -0.250 NA 
HETATM   17  C   UNL     1     -12.033  12.621  69.480  1.00  0.00    -0.270 A  
ENDBRANCH   7   8
ENDBRANCH   4   7
ENDBRANCH   2   4
BRANCH   3  18
HETATM   18  C   UNL     1     -10.381   8.717  66.998  1.00  0.00    -0.368 C  
BRANCH  18  19
HETATM   19  C   UNL     1     -10.376   7.196  66.744  1.00  0.00    -0.227 C  
HETATM   20  H   UNL     1     -11.375   5.613  67.366  1.00  0.00     0.000 HD 
HETATM   21  O   UNL     1     -11.378   6.550  67.523  1.00  0.00    -0.284 OA 
ENDBRANCH  18  19
ENDBRANCH   3  18
BRANCH   3  22
HETATM   22  S   UNL     1      -7.770   8.603  68.077  1.00  0.00    -0.103 SA 
BRANCH  22  23
HETATM   23  S   UNL     1      -8.439   9.050  69.968  1.00  0.00    -0.162 SA 
BRANCH  23  24
HETATM   24  C   UNL     1      -7.989   7.616  71.012  1.00  0.00    -0.094 C  
BRANCH  24  25
HETATM   25  C   UNL     1      -9.104   6.732  71.567  1.00  0.00    -0.145 C  
HETATM   26  O   UNL     1      -8.699   6.264  72.874  1.00  0.00    -0.126 OA 
HETATM   27  C   UNL     1     -10.044   4.598  71.845  1.00  0.00    -0.266 C  
HETATM   28  C   UNL     1      -9.260   4.959  73.088  1.00  0.00    -0.118 C  
HETATM   29  C   UNL     1      -9.416   5.470  70.781  1.00  0.00    -0.209 C  
ENDBRANCH  24  25
ENDBRANCH  23  24
ENDBRANCH  22  23
ENDBRANCH   3  22
TORSDOF 9
ENDMDL
MODEL      229
REMARK 921   NORMALIZED FREE ENERGY PREDICTED BY IDOCK:   -3.54 KCAL/MOL
REMARK 922        TOTAL FREE ENERGY PREDICTED BY IDOCK:   -6.64 KCAL/MOL
REMARK 923 INTER-LIGAND FREE ENERGY PREDICTED BY IDOCK:   -6.55 KCAL/MOL
REMARK 924 INTRA-LIGAND FREE ENERGY PREDICTED BY IDOCK:   -0.09 KCAL/MOL
REMARK 927      BINDING AFFINITY PREDICTED BY RF-SCORE:    0.00 PKD
ROOT
HETATM    1  C   UNL     1     -11.444  12.428  64.966  1.00  0.00    -0.378 C  
HETATM    2  C   UNL     1     -10.665  12.274  66.260  1.00  0.00    -0.259 C  
HETATM    3  C   UNL     1      -9.863  11.205  66.538  1.00  0.00    -0.208 C  
ENDROOT
BRANCH   2   4
HETATM    4  N   UNL     1     -10.770  13.399  67.086  1.00  0.00    -0.263 N  
HETATM    5  C   UNL     1     -11.938  13.647  67.793  1.00  0.00    -0.352 C  
HETATM    6  O   UNL     1     -12.125  14.621  68.516  1.00  0.00    -0.284 OA 
BRANCH   4   7
HETATM    7  C   UNL     1      -9.732  14.441  67.059  1.00  0.00    -0.254 C  
BRANCH   7   8
HETATM    8  C   UNL     1     -10.178  15.846  66.727  1.00  0.00    -0.283 A  
HETATM    9  H2  UNL     1     -11.069  14.452  64.647  1.00  0.00     0.000 HD 
HETATM   10  H1  UNL     1     -11.628  15.726  63.604  1.00  0.00     0.000 HD 
HETATM   11  N   UNL     1     -11.200  15.452  64.489  1.00  0.00    -0.345 NA 
HETATM   12  C   UNL     1     -10.807  16.248  65.427  1.00  0.00    -0.273 A  
HETATM   13  C   UNL     1      -9.793  16.906  67.480  1.00  0.00    -0.260 A  
HETATM   14  N   UNL     1      -9.865  18.254  67.160  1.00  0.00    -0.311 NA 
HETATM   15  C   UNL     1     -10.366  19.973  65.511  1.00  0.00    -0.282 C  
HETATM   16  N   UNL     1     -10.942  17.588  65.201  1.00  0.00    -0.606 NA 
HETATM   17  C   UNL     1     -10.412  18.546  66.014  1.00  0.00    -0.400 A  
ENDBRANCH   7   8
ENDBRANCH   4   7
ENDBRANCH   2   4
BRANCH   3  18
HETATM   18  C   UNL     1      -8.830  11.168  67.668  1.00  0.00    -0.136 C  
BRANCH  18  19
HETATM   19  C   UNL     1      -7.432  11.700  67.296  1.00  0.00    -0.143 C  
HETATM   20  H   UNL     1      -5.603  11.625  68.031  1.00  0.00     0.000 HD 
HETATM   21  O   UNL     1      -6.464  11.298  68.261  1.00  0.00    -0.055 OA 
ENDBRANCH  18  19
ENDBRANCH   3  18
BRANCH   3  22
HETATM   22  S   UNL     1      -9.983   9.779  65.492  1.00  0.00    -0.157 SA 
BRANCH  22  23
HETATM   23  S   UNL     1      -9.310   8.280  66.726  1.00  0.00    -0.197 SA 
BRANCH  23  24
HETATM   24  C   UNL     1     -10.720   7.132  66.938  1.00  0.00    -0.293 C  
BRANCH  24  25
HETATM   25  C   UNL     1     -10.443   5.632  66.999  1.00  0.00    -0.281 C  
HETATM   26  O   UNL     1      -9.411   5.403  67.985  1.00  0.00    -0.109 OA 
HETATM   27  C   UNL     1      -9.208   3.771  66.271  1.00  0.00    -0.172 C  
HETATM   28  C   UNL     1      -8.633   4.266  67.581  1.00  0.00    -0.103 C  
HETATM   29  C   UNL     1      -9.914   4.993  65.726  1.00  0.00    -0.147 C  
ENDBRANCH  24  25
ENDBRANCH  23  24
ENDBRANCH  22  23
ENDBRANCH   3  22
TORSDOF 9
ENDMDL
MODEL      230
REMARK 921   NORMALIZED FREE ENERGY PREDICTED BY IDOCK:   -3.54 KCAL/MOL
REMARK 922        TOTAL FREE ENERGY PREDICTED BY IDOCK:   -6.64 KCAL/MOL
REMARK 923 INTER-LIGAND FREE ENERGY PREDICTED BY IDOCK:   -5.58 KCAL/MOL
REMARK 924 INTRA-LIGAND FREE ENERGY PREDICTED BY IDOCK:   -1.06 KCAL/MOL
REMARK 927      BINDING AFFINITY PREDICTED BY RF-SCORE:    0.00 PKD
ROOT
HETATM    1  C   UNL     1     -10.869   8.562  67.695  1.00  0.00    -0.072 C  
HETATM    2  C   UNL     1     -10.420   9.112  69.036  1.00  0.00    -0.221 C  
HETATM    3  C   UNL     1      -9.776   8.366  69.982  1.00  0.00    -0.176 C  
ENDROOT
BRANCH   2   4
HETATM    4  N   UNL     1     -10.635  10.489  69.151  1.00  0.00    -0.214 N  
HETATM    5  C   UNL     1     -11.823  10.974  69.679  1.00  0.00    -0.342 C  
HETATM    6  O   UNL     1     -12.106  12.164  69.790  1.00  0.00    -0.290 OA 
BRANCH   4   7
HETATM    7  C   UNL     1      -9.704  11.442  68.528  1.00  0.00    -0.197 C  
BRANCH   7   8
HETATM    8  C   UNL     1      -9.634  11.447  67.018  1.00  0.00    -0.192 A  
HETATM    9  H2  UNL     1     -12.060  12.427  67.486  1.00  0.00     0.000 HD 
HETATM   10  H1  UNL     1     -12.713  12.491  65.876  1.00  0.00     0.000 HD 
HETATM   11  N   UNL     1     -11.929  12.262  66.487  1.00  0.00    -0.626 NA 
HETATM   12  C   UNL     1     -10.786  11.783  66.120  1.00  0.00    -0.291 A  
HETATM   13  C   UNL     1      -8.594  10.882  66.357  1.00  0.00    -0.160 A  
HETATM   14  N   UNL     1      -8.515  10.547  65.013  1.00  0.00    -0.175 NA 
HETATM   15  C   UNL     1      -9.617  10.361  62.851  1.00  0.00    -0.331 C  
HETATM   16  N   UNL     1     -10.622  11.522  64.789  1.00  0.00    -0.290 NA 
HETATM   17  C   UNL     1      -9.548  10.853  64.281  1.00  0.00    -0.272 A  
ENDBRANCH   7   8
ENDBRANCH   4   7
ENDBRANCH   2   4
BRANCH   3  18
HETATM   18  C   UNL     1      -9.034   8.950  71.188  1.00  0.00    -0.305 C  
BRANCH  18  19
HETATM   19  C   UNL     1      -8.367   7.914  72.114  1.00  0.00    -0.131 C  
HETATM   20  H   UNL     1      -7.463   7.896  73.867  1.00  0.00     0.000 HD 
HETATM   21  O   UNL     1      -7.874   8.535  73.296  1.00  0.00    -0.352 OA 
ENDBRANCH  18  19
ENDBRANCH   3  18
BRANCH   3  22
HETATM   22  S   UNL     1      -9.748   6.606  69.780  1.00  0.00    -0.159 SA 
BRANCH  22  23
HETATM   23  S   UNL     1      -8.154   6.341  68.511  1.00  0.00    -0.109 SA 
BRANCH  23  24
HETATM   24  C   UNL     1      -8.767   5.285  67.147  1.00  0.00    -0.107 C  
BRANCH  24  25
HETATM   25  C   UNL     1      -8.919   5.896  65.756  1.00  0.00    -0.120 C  
HETATM   26  O   UNL     1      -8.532   4.900  64.781  1.00  0.00    -0.132 OA 
HETATM   27  C   UNL     1      -7.979   7.052  63.940  1.00  0.00    -0.069 C  
HETATM   28  C   UNL     1      -7.956   5.566  63.648  1.00  0.00    -0.108 C  
HETATM   29  C   UNL     1      -8.044   7.099  65.450  1.00  0.00    -0.137 C  
ENDBRANCH  24  25
ENDBRANCH  23  24
ENDBRANCH  22  23
ENDBRANCH   3  22
TORSDOF 9
ENDMDL
MODEL      231
REMARK 921   NORMALIZED FREE ENERGY PREDICTED BY IDOCK:   -3.52 KCAL/MOL
REMARK 922        TOTAL FREE ENERGY PREDICTED BY IDOCK:   -6.61 KCAL/MOL
REMARK 923 INTER-LIGAND FREE ENERGY PREDICTED BY IDOCK:   -6.16 KCAL/MOL
REMARK 924 INTRA-LIGAND FREE ENERGY PREDICTED BY IDOCK:   -0.45 KCAL/MOL
REMARK 927      BINDING AFFINITY PREDICTED BY RF-SCORE:    0.00 PKD
ROOT
HETATM    1  C   UNL     1      -9.104   9.622  67.206  1.00  0.00    -0.150 C  
HETATM    2  C   UNL     1      -9.444  10.617  68.300  1.00  0.00    -0.159 C  
HETATM    3  C   UNL     1     -10.062  11.813  68.070  1.00  0.00    -0.192 C  
ENDROOT
BRANCH   2   4
HETATM    4  N   UNL     1      -9.159  10.126  69.579  1.00  0.00    -0.207 N  
HETATM    5  C   UNL     1      -7.845   9.939  69.984  1.00  0.00    -0.180 C  
HETATM    6  O   UNL     1      -7.506   9.488  71.075  1.00  0.00    -0.300 OA 
BRANCH   4   7
HETATM    7  C   UNL     1     -10.237   9.607  70.435  1.00  0.00    -0.288 C  
BRANCH   7   8
HETATM    8  C   UNL     1     -10.374   8.106  70.532  1.00  0.00    -0.211 A  
HETATM    9  H2  UNL     1      -9.660   8.780  73.002  1.00  0.00     0.000 HD 
HETATM   10  H1  UNL     1      -9.413   7.216  73.719  1.00  0.00     0.000 HD 
HETATM   11  N   UNL     1      -9.668   7.765  72.898  1.00  0.00    -0.223 NA 
HETATM   12  C   UNL     1      -9.999   7.299  71.739  1.00  0.00    -0.171 A  
HETATM   13  C   UNL     1     -10.592   7.343  69.432  1.00  0.00    -0.226 A  
HETATM   14  N   UNL     1     -10.455   5.969  69.302  1.00  0.00    -0.233 NA 
HETATM   15  C   UNL     1      -9.772   3.848  70.284  1.00  0.00    -0.245 C  
HETATM   16  N   UNL     1      -9.971   5.942  71.584  1.00  0.00    -0.172 NA 
HETATM   17  C   UNL     1     -10.119   5.318  70.380  1.00  0.00    -0.254 A  
ENDBRANCH   7   8
ENDBRANCH   4   7
ENDBRANCH   2   4
BRANCH   3  18
HETATM   18  C   UNL     1     -10.700  12.681  69.159  1.00  0.00    -0.061 C  
BRANCH  18  19
HETATM   19  C   UNL     1     -12.201  12.428  69.404  1.00  0.00    -0.065 C  
HETATM   20  H   UNL     1     -13.512  10.997  69.053  1.00  0.00     0.000 HD 
HETATM   21  O   UNL     1     -12.587  11.153  68.902  1.00  0.00    -0.358 OA 
ENDBRANCH  18  19
ENDBRANCH   3  18
BRANCH   3  22
HETATM   22  S   UNL     1     -10.183  12.380  66.396  1.00  0.00    -0.239 SA 
BRANCH  22  23
HETATM   23  S   UNL     1      -9.272  14.219  66.495  1.00  0.00    -0.191 SA 
BRANCH  23  24
HETATM   24  C   UNL     1     -10.337  15.360  65.539  1.00  0.00    -0.387 C  
BRANCH  24  25
HETATM   25  C   UNL     1     -10.803  16.656  66.197  1.00  0.00    -0.024 C  
HETATM   26  O   UNL     1      -9.990  17.739  65.687  1.00  0.00    -0.548 OA 
HETATM   27  C   UNL     1     -10.603  18.231  67.928  1.00  0.00    -0.392 C  
HETATM   28  C   UNL     1      -9.847  18.730  66.715  1.00  0.00    -0.343 C  
HETATM   29  C   UNL     1     -10.652  16.736  67.707  1.00  0.00    -0.341 C  
ENDBRANCH  24  25
ENDBRANCH  23  24
ENDBRANCH  22  23
ENDBRANCH   3  22
TORSDOF 9
ENDMDL
MODEL      232
REMARK 921   NORMALIZED FREE ENERGY PREDICTED BY IDOCK:   -3.51 KCAL/MOL
REMARK 922        TOTAL FREE ENERGY PREDICTED BY IDOCK:   -6.59 KCAL/MOL
REMARK 923 INTER-LIGAND FREE ENERGY PREDICTED BY IDOCK:   -4.98 KCAL/MOL
REMARK 924 INTRA-LIGAND FREE ENERGY PREDICTED BY IDOCK:   -1.61 KCAL/MOL
REMARK 927      BINDING AFFINITY PREDICTED BY RF-SCORE:    0.00 PKD
ROOT
HETATM    1  C   UNL     1      -8.838   7.492  72.167  1.00  0.00    -0.153 C  
HETATM    2  C   UNL     1      -9.573   6.525  71.258  1.00  0.00    -0.166 C  
HETATM    3  C   UNL     1      -8.965   5.494  70.601  1.00  0.00    -0.144 C  
ENDROOT
BRANCH   2   4
HETATM    4  N   UNL     1     -10.957   6.736  71.256  1.00  0.00    -0.242 N  
HETATM    5  C   UNL     1     -11.763   6.125  72.206  1.00  0.00    -0.302 C  
HETATM    6  O   UNL     1     -12.985   6.232  72.261  1.00  0.00    -0.081 OA 
BRANCH   4   7
HETATM    7  C   UNL     1     -11.601   7.435  70.134  1.00  0.00    -0.066 C  
BRANCH   7   8
HETATM    8  C   UNL     1     -11.319   8.913  69.993  1.00  0.00    -0.050 A  
HETATM    9  H2  UNL     1     -12.826   8.821  72.181  1.00  0.00     0.000 HD 
HETATM   10  H1  UNL     1     -13.086  10.514  72.481  1.00  0.00     0.000 HD 
HETATM   11  N   UNL     1     -12.663   9.789  71.900  1.00  0.00    -0.404 NA 
HETATM   12  C   UNL     1     -11.941   9.978  70.845  1.00  0.00    -0.361 A  
HETATM   13  C   UNL     1     -10.685   9.411  68.903  1.00  0.00    -0.178 A  
HETATM   14  N   UNL     1     -10.608  10.731  68.486  1.00  0.00    -0.182 NA 
HETATM   15  C   UNL     1     -11.294  13.047  68.788  1.00  0.00    -0.332 C  
HETATM   16  N   UNL     1     -11.755  11.270  70.444  1.00  0.00    -0.329 NA 
HETATM   17  C   UNL     1     -11.174  11.614  69.259  1.00  0.00    -0.265 A  
ENDBRANCH   7   8
ENDBRANCH   4   7
ENDBRANCH   2   4
BRANCH   3  18
HETATM   18  C   UNL     1      -9.709   4.325  69.946  1.00  0.00    -0.291 C  
BRANCH  18  19
HETATM   19  C   UNL     1      -9.142   2.927  70.262  1.00  0.00    -0.117 C  
HETATM   20  H   UNL     1      -9.108   1.145  69.417  1.00  0.00     0.000 HD 
HETATM   21  O   UNL     1      -9.458   2.007  69.222  1.00  0.00    -0.120 OA 
ENDBRANCH  18  19
ENDBRANCH   3  18
BRANCH   3  22
HETATM   22  S   UNL     1      -7.195   5.471  70.542  1.00  0.00    -0.072 SA 
BRANCH  22  23
HETATM   23  S   UNL     1      -6.804   6.528  68.824  1.00  0.00    -0.072 SA 
BRANCH  23  24
HETATM   24  C   UNL     1      -7.088   5.364  67.441  1.00  0.00    -0.070 C  
BRANCH  24  25
HETATM   25  C   UNL     1      -8.317   5.559  66.556  1.00  0.00    -0.109 C  
HETATM   26  O   UNL     1      -9.181   6.530  67.191  1.00  0.00    -0.124 OA 
HETATM   27  C   UNL     1     -10.522   4.973  65.998  1.00  0.00    -0.289 C  
HETATM   28  C   UNL     1     -10.543   6.211  66.871  1.00  0.00    -0.312 C  
HETATM   29  C   UNL     1      -9.194   4.337  66.344  1.00  0.00    -0.150 C  
ENDBRANCH  24  25
ENDBRANCH  23  24
ENDBRANCH  22  23
ENDBRANCH   3  22
TORSDOF 9
ENDMDL
MODEL      233
REMARK 921   NORMALIZED FREE ENERGY PREDICTED BY IDOCK:   -3.48 KCAL/MOL
REMARK 922        TOTAL FREE ENERGY PREDICTED BY IDOCK:   -6.55 KCAL/MOL
REMARK 923 INTER-LIGAND FREE ENERGY PREDICTED BY IDOCK:   -6.66 KCAL/MOL
REMARK 924 INTRA-LIGAND FREE ENERGY PREDICTED BY IDOCK:    0.12 KCAL/MOL
REMARK 927      BINDING AFFINITY PREDICTED BY RF-SCORE:    0.00 PKD
ROOT
HETATM    1  C   UNL     1     -11.378  10.340  70.462  1.00  0.00    -0.422 C  
HETATM    2  C   UNL     1     -10.588   9.803  69.283  1.00  0.00    -0.221 C  
HETATM    3  C   UNL     1     -10.519  10.429  68.071  1.00  0.00    -0.196 C  
ENDROOT
BRANCH   2   4
HETATM    4  N   UNL     1      -9.850   8.660  69.608  1.00  0.00    -0.183 N  
HETATM    5  C   UNL     1      -8.466   8.665  69.511  1.00  0.00    -0.129 C  
HETATM    6  O   UNL     1      -7.744   7.701  69.750  1.00  0.00    -0.094 OA 
BRANCH   4   7
HETATM    7  C   UNL     1     -10.531   7.380  69.856  1.00  0.00    -0.231 C  
BRANCH   7   8
HETATM    8  C   UNL     1     -10.030   6.177  69.092  1.00  0.00    -0.190 A  
HETATM    9  H2  UNL     1     -11.277   7.576  67.208  1.00  0.00     0.000 HD 
HETATM   10  H1  UNL     1     -11.225   6.464  65.873  1.00  0.00     0.000 HD 
HETATM   11  N   UNL     1     -10.992   6.666  66.846  1.00  0.00    -0.381 NA 
HETATM   12  C   UNL     1     -10.372   5.880  67.663  1.00  0.00    -0.212 A  
HETATM   13  C   UNL     1      -9.450   5.128  69.726  1.00  0.00    -0.150 A  
HETATM   14  N   UNL     1      -9.206   3.856  69.230  1.00  0.00    -0.141 NA 
HETATM   15  C   UNL     1      -9.469   2.247  67.422  1.00  0.00    -0.032 C  
HETATM   16  N   UNL     1     -10.025   4.645  67.193  1.00  0.00    -0.193 NA 
HETATM   17  C   UNL     1      -9.532   3.650  67.985  1.00  0.00    -0.161 A  
ENDBRANCH   7   8
ENDBRANCH   4   7
ENDBRANCH   2   4
BRANCH   3  18
HETATM   18  C   UNL     1      -9.494  10.096  66.982  1.00  0.00    -0.197 C  
BRANCH  18  19
HETATM   19  C   UNL     1     -10.068   9.969  65.557  1.00  0.00    -0.255 C  
HETATM   20  H   UNL     1      -9.420  10.160  63.704  1.00  0.00     0.000 HD 
HETATM   21  O   UNL     1      -9.066  10.239  64.582  1.00  0.00    -0.189 OA 
ENDBRANCH  18  19
ENDBRANCH   3  18
BRANCH   3  22
HETATM   22  S   UNL     1     -11.654  11.750  67.748  1.00  0.00    -0.276 SA 
BRANCH  22  23
HETATM   23  S   UNL     1     -10.647  13.378  68.495  1.00  0.00    -0.247 SA 
BRANCH  23  24
HETATM   24  C   UNL     1     -11.893  14.370  69.397  1.00  0.00    -0.325 C  
BRANCH  24  25
HETATM   25  C   UNL     1     -11.970  14.249  70.917  1.00  0.00    -0.320 C  
HETATM   26  O   UNL     1     -13.137  13.463  71.248  1.00  0.00    -0.311 OA 
HETATM   27  C   UNL     1     -12.772  15.056  72.972  1.00  0.00    -0.560 C  
HETATM   28  C   UNL     1     -13.658  13.920  72.505  1.00  0.00    -0.576 C  
HETATM   29  C   UNL     1     -12.145  15.547  71.687  1.00  0.00    -0.471 C  
ENDBRANCH  24  25
ENDBRANCH  23  24
ENDBRANCH  22  23
ENDBRANCH   3  22
TORSDOF 9
ENDMDL
MODEL      234
REMARK 921   NORMALIZED FREE ENERGY PREDICTED BY IDOCK:   -3.48 KCAL/MOL
REMARK 922        TOTAL FREE ENERGY PREDICTED BY IDOCK:   -6.54 KCAL/MOL
REMARK 923 INTER-LIGAND FREE ENERGY PREDICTED BY IDOCK:   -5.87 KCAL/MOL
REMARK 924 INTRA-LIGAND FREE ENERGY PREDICTED BY IDOCK:   -0.68 KCAL/MOL
REMARK 927      BINDING AFFINITY PREDICTED BY RF-SCORE:    0.00 PKD
ROOT
HETATM    1  C   UNL     1     -10.407   9.285  66.827  1.00  0.00    -0.296 C  
HETATM    2  C   UNL     1      -9.084   9.917  67.222  1.00  0.00    -0.135 C  
HETATM    3  C   UNL     1      -8.861  11.264  67.226  1.00  0.00    -0.150 C  
ENDROOT
BRANCH   2   4
HETATM    4  N   UNL     1      -8.159   8.976  67.689  1.00  0.00    -0.108 N  
HETATM    5  C   UNL     1      -7.707   7.961  66.858  1.00  0.00    -0.099 C  
HETATM    6  O   UNL     1      -6.920   7.081  67.193  1.00  0.00    -0.072 OA 
BRANCH   4   7
HETATM    7  C   UNL     1      -7.809   8.922  69.116  1.00  0.00    -0.093 C  
BRANCH   7   8
HETATM    8  C   UNL     1      -8.844   8.348  70.055  1.00  0.00    -0.137 A  
HETATM    9  H2  UNL     1      -7.529   6.182  69.254  1.00  0.00     0.000 HD 
HETATM   10  H1  UNL     1      -8.504   4.920  69.947  1.00  0.00     0.000 HD 
HETATM   11  N   UNL     1      -8.345   5.918  69.806  1.00  0.00    -0.122 NA 
HETATM   12  C   UNL     1      -9.078   6.881  70.261  1.00  0.00    -0.153 A  
HETATM   13  C   UNL     1      -9.828   9.119  70.582  1.00  0.00    -0.249 A  
HETATM   14  N   UNL     1     -10.995   8.709  71.207  1.00  0.00    -0.250 NA 
HETATM   15  C   UNL     1     -12.473   6.886  71.856  1.00  0.00    -0.350 C  
HETATM   16  N   UNL     1     -10.194   6.531  70.967  1.00  0.00    -0.188 NA 
HETATM   17  C   UNL     1     -11.152   7.423  71.351  1.00  0.00    -0.239 A  
ENDBRANCH   7   8
ENDBRANCH   4   7
ENDBRANCH   2   4
BRANCH   3  18
HETATM   18  C   UNL     1      -7.671  11.942  67.913  1.00  0.00    -0.131 C  
BRANCH  18  19
HETATM   19  C   UNL     1      -6.335  11.854  67.150  1.00  0.00    -0.151 C  
HETATM   20  H   UNL     1      -4.704  12.943  66.940  1.00  0.00     0.000 HD 
HETATM   21  O   UNL     1      -5.528  12.998  67.410  1.00  0.00    -0.300 OA 
ENDBRANCH  18  19
ENDBRANCH   3  18
BRANCH   3  22
HETATM   22  S   UNL     1     -10.049  12.309  66.430  1.00  0.00    -0.231 SA 
BRANCH  22  23
HETATM   23  S   UNL     1      -9.303  14.184  66.813  1.00  0.00    -0.279 SA 
BRANCH  23  24
HETATM   24  C   UNL     1     -10.363  15.348  65.880  1.00  0.00    -0.341 C  
BRANCH  24  25
HETATM   25  C   UNL     1     -10.624  16.735  66.463  1.00  0.00    -0.198 C  
HETATM   26  O   UNL     1      -9.767  17.680  65.781  1.00  0.00    -0.537 OA 
HETATM   27  C   UNL     1     -10.084  18.409  68.020  1.00  0.00    -0.392 C  
HETATM   28  C   UNL     1      -9.417  18.727  66.699  1.00  0.00    -0.330 C  
HETATM   29  C   UNL     1     -10.306  16.915  67.938  1.00  0.00    -0.332 C  
ENDBRANCH  24  25
ENDBRANCH  23  24
ENDBRANCH  22  23
ENDBRANCH   3  22
TORSDOF 9
ENDMDL
MODEL      235
REMARK 921   NORMALIZED FREE ENERGY PREDICTED BY IDOCK:   -3.44 KCAL/MOL
REMARK 922        TOTAL FREE ENERGY PREDICTED BY IDOCK:   -6.49 KCAL/MOL
REMARK 923 INTER-LIGAND FREE ENERGY PREDICTED BY IDOCK:   -5.07 KCAL/MOL
REMARK 924 INTRA-LIGAND FREE ENERGY PREDICTED BY IDOCK:   -1.42 KCAL/MOL
REMARK 927      BINDING AFFINITY PREDICTED BY RF-SCORE:    0.00 PKD
ROOT
HETATM    1  C   UNL     1      -9.582   6.446  69.446  1.00  0.00    -0.152 C  
HETATM    2  C   UNL     1      -9.037   7.863  69.446  1.00  0.00    -0.145 C  
HETATM    3  C   UNL     1      -7.715   8.165  69.286  1.00  0.00    -0.104 C  
ENDROOT
BRANCH   2   4
HETATM    4  N   UNL     1     -10.050   8.826  69.513  1.00  0.00    -0.196 N  
HETATM    5  C   UNL     1     -10.290   9.513  70.695  1.00  0.00    -0.302 C  
HETATM    6  O   UNL     1     -11.173  10.352  70.850  1.00  0.00    -0.311 OA 
BRANCH   4   7
HETATM    7  C   UNL     1     -11.005   8.981  68.405  1.00  0.00     0.090 C  
BRANCH   7   8
HETATM    8  C   UNL     1     -10.595   9.887  67.268  1.00  0.00    -0.316 A  
HETATM    9  H2  UNL     1     -12.168  11.462  68.721  1.00  0.00     0.000 HD 
HETATM   10  H1  UNL     1     -12.294  12.856  67.689  1.00  0.00     0.000 HD 
HETATM   11  N   UNL     1     -11.916  11.921  67.844  1.00  0.00    -0.577 NA 
HETATM   12  C   UNL     1     -11.151  11.261  67.039  1.00  0.00    -0.293 A  
HETATM   13  C   UNL     1      -9.890   9.418  66.208  1.00  0.00    -0.281 A  
HETATM   14  N   UNL     1      -9.691  10.024  64.977  1.00  0.00    -0.309 NA 
HETATM   15  C   UNL     1     -10.188  11.866  63.464  1.00  0.00    -0.485 C  
HETATM   16  N   UNL     1     -10.846  11.855  65.847  1.00  0.00    -0.287 NA 
HETATM   17  C   UNL     1     -10.203  11.213  64.830  1.00  0.00    -0.306 A  
ENDBRANCH   7   8
ENDBRANCH   4   7
ENDBRANCH   2   4
BRANCH   3  18
HETATM   18  C   UNL     1      -7.179   9.563  68.963  1.00  0.00    -0.071 C  
BRANCH  18  19
HETATM   19  C   UNL     1      -6.817  10.426  70.187  1.00  0.00    -0.153 C  
HETATM   20  H   UNL     1      -5.201  10.874  71.226  1.00  0.00     0.000 HD 
HETATM   21  O   UNL     1      -5.424  10.341  70.471  1.00  0.00    -0.053 OA 
ENDBRANCH  18  19
ENDBRANCH   3  18
BRANCH   3  22
HETATM   22  S   UNL     1      -6.538   6.846  69.409  1.00  0.00    -0.050 SA 
BRANCH  22  23
HETATM   23  S   UNL     1      -5.936   6.983  71.369  1.00  0.00    -0.037 SA 
BRANCH  23  24
HETATM   24  C   UNL     1      -7.467   7.188  72.351  1.00  0.00    -0.088 C  
BRANCH  24  25
HETATM   25  C   UNL     1      -8.111   5.952  72.974  1.00  0.00    -0.117 C  
HETATM   26  O   UNL     1      -7.724   4.799  72.193  1.00  0.00    -0.088 OA 
HETATM   27  C   UNL     1      -9.902   4.435  73.068  1.00  0.00    -0.180 C  
HETATM   28  C   UNL     1      -8.792   3.840  72.228  1.00  0.00    -0.100 C  
HETATM   29  C   UNL     1      -9.630   5.921  72.987  1.00  0.00    -0.158 C  
ENDBRANCH  24  25
ENDBRANCH  23  24
ENDBRANCH  22  23
ENDBRANCH   3  22
TORSDOF 9
ENDMDL
MODEL      236
REMARK 921   NORMALIZED FREE ENERGY PREDICTED BY IDOCK:   -3.43 KCAL/MOL
REMARK 922        TOTAL FREE ENERGY PREDICTED BY IDOCK:   -6.48 KCAL/MOL
REMARK 923 INTER-LIGAND FREE ENERGY PREDICTED BY IDOCK:   -6.18 KCAL/MOL
REMARK 924 INTRA-LIGAND FREE ENERGY PREDICTED BY IDOCK:   -0.29 KCAL/MOL
REMARK 927      BINDING AFFINITY PREDICTED BY RF-SCORE:    0.00 PKD
ROOT
HETATM    1  C   UNL     1     -11.239  15.300  69.289  1.00  0.00    -0.291 C  
HETATM    2  C   UNL     1      -9.860  15.118  68.681  1.00  0.00    -0.218 C  
HETATM    3  C   UNL     1      -9.507  14.046  67.913  1.00  0.00    -0.210 C  
ENDROOT
BRANCH   2   4
HETATM    4  N   UNL     1      -9.028  16.222  68.899  1.00  0.00    -0.238 N  
HETATM    5  C   UNL     1      -7.739  16.047  69.381  1.00  0.00    -0.173 C  
HETATM    6  O   UNL     1      -6.954  16.959  69.626  1.00  0.00    -0.158 OA 
BRANCH   4   7
HETATM    7  C   UNL     1      -9.569  17.588  68.821  1.00  0.00    -0.277 C  
BRANCH   7   8
HETATM    8  C   UNL     1      -8.968  18.506  67.782  1.00  0.00    -0.289 A  
HETATM    9  H2  UNL     1      -9.706  16.403  66.335  1.00  0.00     0.000 HD 
HETATM   10  H1  UNL     1      -9.016  16.799  64.789  1.00  0.00     0.000 HD 
HETATM   11  N   UNL     1      -9.168  17.056  65.765  1.00  0.00    -0.521 NA 
HETATM   12  C   UNL     1      -8.745  18.128  66.349  1.00  0.00    -0.231 A  
HETATM   13  C   UNL     1      -8.333  19.652  68.133  1.00  0.00    -0.311 A  
HETATM   14  N   UNL     1      -7.494  20.438  67.358  1.00  0.00    -0.306 NA 
HETATM   15  C   UNL     1      -6.292  20.752  65.264  1.00  0.00    -0.267 C  
HETATM   16  N   UNL     1      -7.990  18.986  65.600  1.00  0.00    -0.380 NA 
HETATM   17  C   UNL     1      -7.328  20.058  66.122  1.00  0.00    -0.298 A  
ENDBRANCH   7   8
ENDBRANCH   4   7
ENDBRANCH   2   4
BRANCH   3  18
HETATM   18  C   UNL     1      -8.255  13.986  67.032  1.00  0.00    -0.078 C  
BRANCH  18  19
HETATM   19  C   UNL     1      -7.057  13.236  67.646  1.00  0.00    -0.159 C  
HETATM   20  H   UNL     1      -5.091  13.252  67.482  1.00  0.00     0.000 HD 
HETATM   21  O   UNL     1      -5.830  13.714  67.104  1.00  0.00    -0.256 OA 
ENDBRANCH  18  19
ENDBRANCH   3  18
BRANCH   3  22
HETATM   22  S   UNL     1     -10.592  12.645  67.887  1.00  0.00    -0.226 SA 
BRANCH  22  23
HETATM   23  S   UNL     1     -10.204  11.830  66.042  1.00  0.00    -0.240 SA 
BRANCH  23  24
HETATM   24  C   UNL     1      -9.026  10.460  66.335  1.00  0.00    -0.149 C  
BRANCH  24  25
HETATM   25  C   UNL     1      -9.259   9.532  67.524  1.00  0.00    -0.126 C  
HETATM   26  O   UNL     1      -8.118   8.650  67.637  1.00  0.00    -0.106 OA 
HETATM   27  C   UNL     1     -10.059   7.492  68.372  1.00  0.00    -0.200 C  
HETATM   28  C   UNL     1      -8.563   7.389  68.160  1.00  0.00    -0.123 C  
HETATM   29  C   UNL     1     -10.459   8.605  67.429  1.00  0.00    -0.351 C  
ENDBRANCH  24  25
ENDBRANCH  23  24
ENDBRANCH  22  23
ENDBRANCH   3  22
TORSDOF 9
ENDMDL
MODEL      237
REMARK 921   NORMALIZED FREE ENERGY PREDICTED BY IDOCK:   -3.37 KCAL/MOL
REMARK 922        TOTAL FREE ENERGY PREDICTED BY IDOCK:   -6.38 KCAL/MOL
REMARK 923 INTER-LIGAND FREE ENERGY PREDICTED BY IDOCK:   -6.20 KCAL/MOL
REMARK 924 INTRA-LIGAND FREE ENERGY PREDICTED BY IDOCK:   -0.18 KCAL/MOL
REMARK 927      BINDING AFFINITY PREDICTED BY RF-SCORE:    0.00 PKD
ROOT
HETATM    1  C   UNL     1     -10.612   8.836  67.261  1.00  0.00    -0.303 C  
HETATM    2  C   UNL     1     -10.617   9.379  68.678  1.00  0.00    -0.200 C  
HETATM    3  C   UNL     1     -10.569   8.589  69.791  1.00  0.00    -0.224 C  
ENDROOT
BRANCH   2   4
HETATM    4  N   UNL     1     -10.563  10.776  68.717  1.00  0.00    -0.187 N  
HETATM    5  C   UNL     1     -11.668  11.512  69.120  1.00  0.00    -0.329 C  
HETATM    6  O   UNL     1     -11.717  12.739  69.158  1.00  0.00    -0.290 OA 
BRANCH   4   7
HETATM    7  C   UNL     1      -9.417  11.493  68.138  1.00  0.00    -0.184 C  
BRANCH   7   8
HETATM    8  C   UNL     1      -9.709  12.469  67.022  1.00  0.00    -0.213 A  
HETATM    9  H2  UNL     1      -8.378  13.970  68.766  1.00  0.00     0.000 HD 
HETATM   10  H1  UNL     1      -8.547  15.546  68.051  1.00  0.00     0.000 HD 
HETATM   11  N   UNL     1      -8.746  14.546  68.008  1.00  0.00    -0.160 NA 
HETATM   12  C   UNL     1      -9.418  13.938  67.086  1.00  0.00    -0.246 A  
HETATM   13  C   UNL     1     -10.510  12.133  65.980  1.00  0.00    -0.247 A  
HETATM   14  N   UNL     1     -11.103  12.974  65.051  1.00  0.00    -0.287 NA 
HETATM   15  C   UNL     1     -11.567  15.244  64.302  1.00  0.00    -0.204 C  
HETATM   16  N   UNL     1      -9.947  14.712  66.092  1.00  0.00    -0.289 NA 
HETATM   17  C   UNL     1     -10.823  14.242  65.159  1.00  0.00    -0.378 A  
ENDBRANCH   7   8
ENDBRANCH   4   7
ENDBRANCH   2   4
BRANCH   3  18
HETATM   18  C   UNL     1     -10.252   9.098  71.200  1.00  0.00    -0.384 C  
BRANCH  18  19
HETATM   19  C   UNL     1     -10.287   8.027  72.308  1.00  0.00    -0.271 C  
HETATM   20  H   UNL     1     -11.623   7.233  73.523  1.00  0.00     0.000 HD 
HETATM   21  O   UNL     1     -11.601   7.893  72.841  1.00  0.00    -0.383 OA 
ENDBRANCH  18  19
ENDBRANCH   3  18
BRANCH   3  22
HETATM   22  S   UNL     1     -10.838   6.849  69.591  1.00  0.00    -0.263 SA 
BRANCH  22  23
HETATM   23  S   UNL     1      -8.987   6.191  68.989  1.00  0.00    -0.125 SA 
BRANCH  23  24
HETATM   24  C   UNL     1      -9.163   4.393  68.697  1.00  0.00    -0.135 C  
BRANCH  24  25
HETATM   25  C   UNL     1      -9.564   3.909  67.306  1.00  0.00    -0.180 C  
HETATM   26  O   UNL     1      -8.362   3.751  66.519  1.00  0.00    -0.102 OA 
HETATM   27  C   UNL     1     -10.139   4.400  65.082  1.00  0.00    -0.193 C  
HETATM   28  C   UNL     1      -8.670   4.037  65.146  1.00  0.00    -0.120 C  
HETATM   29  C   UNL     1     -10.439   4.849  66.494  1.00  0.00    -0.299 C  
ENDBRANCH  24  25
ENDBRANCH  23  24
ENDBRANCH  22  23
ENDBRANCH   3  22
TORSDOF 9
ENDMDL
MODEL      238
REMARK 921   NORMALIZED FREE ENERGY PREDICTED BY IDOCK:   -3.36 KCAL/MOL
REMARK 922        TOTAL FREE ENERGY PREDICTED BY IDOCK:   -6.37 KCAL/MOL
REMARK 923 INTER-LIGAND FREE ENERGY PREDICTED BY IDOCK:   -5.62 KCAL/MOL
REMARK 924 INTRA-LIGAND FREE ENERGY PREDICTED BY IDOCK:   -0.76 KCAL/MOL
REMARK 927      BINDING AFFINITY PREDICTED BY RF-SCORE:    0.00 PKD
ROOT
HETATM    1  C   UNL     1     -11.885   7.167  70.811  1.00  0.00    -0.367 C  
HETATM    2  C   UNL     1     -10.575   7.378  70.074  1.00  0.00    -0.232 C  
HETATM    3  C   UNL     1     -10.005   8.603  69.879  1.00  0.00    -0.186 C  
ENDROOT
BRANCH   2   4
HETATM    4  N   UNL     1      -9.962   6.172  69.715  1.00  0.00    -0.165 N  
HETATM    5  C   UNL     1      -8.816   5.743  70.371  1.00  0.00    -0.142 C  
HETATM    6  O   UNL     1      -8.200   4.716  70.103  1.00  0.00    -0.067 OA 
BRANCH   4   7
HETATM    7  C   UNL     1     -10.394   5.447  68.511  1.00  0.00    -0.149 C  
BRANCH   7   8
HETATM    8  C   UNL     1      -9.729   5.825  67.207  1.00  0.00    -0.140 A  
HETATM    9  H2  UNL     1      -8.942   3.309  67.546  1.00  0.00     0.000 HD 
HETATM   10  H1  UNL     1      -7.793   3.139  66.253  1.00  0.00     0.000 HD 
HETATM   11  N   UNL     1      -8.459   3.730  66.752  1.00  0.00    -0.103 NA 
HETATM   12  C   UNL     1      -8.750   4.958  66.475  1.00  0.00    -0.112 A  
HETATM   13  C   UNL     1      -9.763   7.097  66.739  1.00  0.00    -0.192 A  
HETATM   14  N   UNL     1      -8.983   7.664  65.742  1.00  0.00    -0.107 NA 
HETATM   15  C   UNL     1      -7.131   7.443  64.177  1.00  0.00    -0.070 C  
HETATM   16  N   UNL     1      -8.075   5.537  65.438  1.00  0.00    -0.117 NA 
HETATM   17  C   UNL     1      -8.142   6.867  65.145  1.00  0.00    -0.132 A  
ENDBRANCH   7   8
ENDBRANCH   4   7
ENDBRANCH   2   4
BRANCH   3  18
HETATM   18  C   UNL     1      -8.556   8.824  69.435  1.00  0.00    -0.133 C  
BRANCH  18  19
HETATM   19  C   UNL     1      -7.591   9.282  70.546  1.00  0.00    -0.139 C  
HETATM   20  H   UNL     1      -6.504  10.874  70.965  1.00  0.00     0.000 HD 
HETATM   21  O   UNL     1      -7.098  10.591  70.280  1.00  0.00    -0.228 OA 
ENDBRANCH  18  19
ENDBRANCH   3  18
BRANCH   3  22
HETATM   22  S   UNL     1     -10.986  10.041  70.212  1.00  0.00    -0.333 SA 
BRANCH  22  23
HETATM   23  S   UNL     1     -10.385  11.328  68.728  1.00  0.00    -0.195 SA 
BRANCH  23  24
HETATM   24  C   UNL     1     -11.819  12.416  68.395  1.00  0.00    -0.309 C  
BRANCH  24  25
HETATM   25  C   UNL     1     -11.878  13.168  67.067  1.00  0.00    -0.379 C  
HETATM   26  O   UNL     1     -12.340  12.250  66.049  1.00  0.00    -0.609 OA 
HETATM   27  C   UNL     1     -10.846  13.808  65.056  1.00  0.00    -0.377 C  
HETATM   28  C   UNL     1     -11.735  12.610  64.798  1.00  0.00    -0.352 C  
HETATM   29  C   UNL     1     -10.559  13.704  66.538  1.00  0.00    -0.282 C  
ENDBRANCH  24  25
ENDBRANCH  23  24
ENDBRANCH  22  23
ENDBRANCH   3  22
TORSDOF 9
ENDMDL
MODEL      239
REMARK 921   NORMALIZED FREE ENERGY PREDICTED BY IDOCK:   -3.35 KCAL/MOL
REMARK 922        TOTAL FREE ENERGY PREDICTED BY IDOCK:   -6.36 KCAL/MOL
REMARK 923 INTER-LIGAND FREE ENERGY PREDICTED BY IDOCK:   -5.56 KCAL/MOL
REMARK 924 INTRA-LIGAND FREE ENERGY PREDICTED BY IDOCK:   -0.80 KCAL/MOL
REMARK 927      BINDING AFFINITY PREDICTED BY RF-SCORE:    0.00 PKD
ROOT
HETATM    1  C   UNL     1      -7.421  12.544  67.681  1.00  0.00    -0.139 C  
HETATM    2  C   UNL     1      -8.923  12.416  67.861  1.00  0.00    -0.184 C  
HETATM    3  C   UNL     1      -9.710  13.405  68.378  1.00  0.00    -0.201 C  
ENDROOT
BRANCH   2   4
HETATM    4  N   UNL     1      -9.427  11.221  67.335  1.00  0.00    -0.165 N  
HETATM    5  C   UNL     1      -9.601  11.073  65.967  1.00  0.00    -0.215 C  
HETATM    6  O   UNL     1     -10.061  10.072  65.424  1.00  0.00    -0.310 OA 
BRANCH   4   7
HETATM    7  C   UNL     1      -9.971  10.187  68.228  1.00  0.00    -0.148 C  
BRANCH   7   8
HETATM    8  C   UNL     1      -9.042   9.060  68.619  1.00  0.00    -0.137 A  
HETATM    9  H2  UNL     1     -10.750   7.856  66.976  1.00  0.00     0.000 HD 
HETATM   10  H1  UNL     1     -10.274   6.194  67.156  1.00  0.00     0.000 HD 
HETATM   11  N   UNL     1     -10.133   7.171  67.414  1.00  0.00    -0.182 NA 
HETATM   12  C   UNL     1      -9.250   7.624  68.240  1.00  0.00    -0.139 A  
HETATM   13  C   UNL     1      -8.094   9.224  69.574  1.00  0.00    -0.111 A  
HETATM   14  N   UNL     1      -7.375   8.245  70.243  1.00  0.00    -0.054 NA 
HETATM   15  C   UNL     1      -6.997   5.880  70.681  1.00  0.00    -0.062 C  
HETATM   16  N   UNL     1      -8.450   6.706  68.858  1.00  0.00    -0.123 NA 
HETATM   17  C   UNL     1      -7.601   7.014  69.881  1.00  0.00    -0.102 A  
ENDBRANCH   7   8
ENDBRANCH   4   7
ENDBRANCH   2   4
BRANCH   3  18
HETATM   18  C   UNL     1     -11.238  13.438  68.277  1.00  0.00    -0.310 C  
BRANCH  18  19
HETATM   19  C   UNL     1     -11.987  12.748  69.434  1.00  0.00    -0.263 C  
HETATM   20  H   UNL     1     -12.529  13.179  71.280  1.00  0.00     0.000 HD 
HETATM   21  O   UNL     1     -12.067  13.605  70.568  1.00  0.00    -0.338 OA 
ENDBRANCH  18  19
ENDBRANCH   3  18
BRANCH   3  22
HETATM   22  S   UNL     1      -8.914  14.773  69.176  1.00  0.00    -0.016 SA 
BRANCH  22  23
HETATM   23  S   UNL     1      -8.462  15.997  67.589  1.00  0.00    -0.161 SA 
BRANCH  23  24
HETATM   24  C   UNL     1      -7.891  17.576  68.317  1.00  0.00    -0.253 C  
BRANCH  24  25
HETATM   25  C   UNL     1      -8.867  18.747  68.392  1.00  0.00    -0.342 C  
HETATM   26  O   UNL     1     -10.186  18.256  68.058  1.00  0.00    -0.348 OA 
HETATM   27  C   UNL     1      -9.998  20.509  67.327  1.00  0.00    -0.528 C  
HETATM   28  C   UNL     1     -10.916  19.308  67.408  1.00  0.00    -0.337 C  
HETATM   29  C   UNL     1      -8.621  19.891  67.423  1.00  0.00    -0.392 C  
ENDBRANCH  24  25
ENDBRANCH  23  24
ENDBRANCH  22  23
ENDBRANCH   3  22
TORSDOF 9
ENDMDL
MODEL      240
REMARK 921   NORMALIZED FREE ENERGY PREDICTED BY IDOCK:   -3.35 KCAL/MOL
REMARK 922        TOTAL FREE ENERGY PREDICTED BY IDOCK:   -6.35 KCAL/MOL
REMARK 923 INTER-LIGAND FREE ENERGY PREDICTED BY IDOCK:   -6.21 KCAL/MOL
REMARK 924 INTRA-LIGAND FREE ENERGY PREDICTED BY IDOCK:   -0.14 KCAL/MOL
REMARK 927      BINDING AFFINITY PREDICTED BY RF-SCORE:    0.00 PKD
ROOT
HETATM    1  C   UNL     1     -10.682  10.138  67.901  1.00  0.00    -0.317 C  
HETATM    2  C   UNL     1     -11.015   9.989  69.374  1.00  0.00    -0.244 C  
HETATM    3  C   UNL     1     -10.527   8.986  70.162  1.00  0.00    -0.214 C  
ENDROOT
BRANCH   2   4
HETATM    4  N   UNL     1     -11.783  11.052  69.860  1.00  0.00    -0.314 N  
HETATM    5  C   UNL     1     -12.413  10.959  71.093  1.00  0.00    -0.405 C  
HETATM    6  O   UNL     1     -13.127  11.831  71.582  1.00  0.00    -0.441 OA 
BRANCH   4   7
HETATM    7  C   UNL     1     -12.105  12.196  68.992  1.00  0.00    -0.153 C  
BRANCH   7   8
HETATM    8  C   UNL     1     -11.293  13.455  69.187  1.00  0.00    -0.333 A  
HETATM    9  H2  UNL     1     -13.479  13.954  70.614  1.00  0.00     0.000 HD 
HETATM   10  H1  UNL     1     -13.229  15.620  71.041  1.00  0.00     0.000 HD 
HETATM   11  N   UNL     1     -12.891  14.786  70.561  1.00  0.00    -0.345 NA 
HETATM   12  C   UNL     1     -11.790  14.681  69.892  1.00  0.00    -0.319 A  
HETATM   13  C   UNL     1     -10.145  13.669  68.498  1.00  0.00    -0.219 A  
HETATM   14  N   UNL     1      -9.451  14.860  68.340  1.00  0.00    -0.202 NA 
HETATM   15  C   UNL     1      -9.344  17.265  68.703  1.00  0.00    -0.267 C  
HETATM   16  N   UNL     1     -11.020  15.804  69.784  1.00  0.00    -0.286 NA 
HETATM   17  C   UNL     1      -9.932  15.896  68.967  1.00  0.00    -0.233 A  
ENDBRANCH   7   8
ENDBRANCH   4   7
ENDBRANCH   2   4
BRANCH   3  18
HETATM   18  C   UNL     1     -10.578   8.985  71.693  1.00  0.00    -0.434 C  
BRANCH  18  19
HETATM   19  C   UNL     1     -11.217   7.734  72.327  1.00  0.00    -0.312 C  
HETATM   20  H   UNL     1     -11.037   6.693  73.993  1.00  0.00     0.000 HD 
HETATM   21  O   UNL     1     -10.643   7.464  73.602  1.00  0.00    -0.370 OA 
ENDBRANCH  18  19
ENDBRANCH   3  18
BRANCH   3  22
HETATM   22  S   UNL     1      -9.734   7.614  69.369  1.00  0.00    -0.166 SA 
BRANCH  22  23
HETATM   23  S   UNL     1      -7.744   8.064  69.614  1.00  0.00    -0.104 SA 
BRANCH  23  24
HETATM   24  C   UNL     1      -6.871   6.457  69.694  1.00  0.00    -0.065 C  
BRANCH  24  25
HETATM   25  C   UNL     1      -7.103   5.554  70.903  1.00  0.00    -0.069 C  
HETATM   26  O   UNL     1      -8.179   4.642  70.585  1.00  0.00    -0.080 OA 
HETATM   27  C   UNL     1      -8.239   5.115  72.912  1.00  0.00    -0.109 C  
HETATM   28  C   UNL     1      -8.899   4.341  71.790  1.00  0.00    -0.115 C  
HETATM   29  C   UNL     1      -7.545   6.244  72.183  1.00  0.00    -0.095 C  
ENDBRANCH  24  25
ENDBRANCH  23  24
ENDBRANCH  22  23
ENDBRANCH   3  22
TORSDOF 9
ENDMDL
MODEL      241
REMARK 921   NORMALIZED FREE ENERGY PREDICTED BY IDOCK:   -3.35 KCAL/MOL
REMARK 922        TOTAL FREE ENERGY PREDICTED BY IDOCK:   -6.35 KCAL/MOL
REMARK 923 INTER-LIGAND FREE ENERGY PREDICTED BY IDOCK:   -5.06 KCAL/MOL
REMARK 924 INTRA-LIGAND FREE ENERGY PREDICTED BY IDOCK:   -1.30 KCAL/MOL
REMARK 927      BINDING AFFINITY PREDICTED BY RF-SCORE:    0.00 PKD
ROOT
HETATM    1  C   UNL     1     -10.626   8.350  67.536  1.00  0.00    -0.285 C  
HETATM    2  C   UNL     1      -9.845   9.374  68.338  1.00  0.00    -0.160 C  
HETATM    3  C   UNL     1      -8.642   9.887  67.944  1.00  0.00    -0.125 C  
ENDROOT
BRANCH   2   4
HETATM    4  N   UNL     1     -10.543   9.817  69.467  1.00  0.00    -0.220 N  
HETATM    5  C   UNL     1     -11.455  10.858  69.367  1.00  0.00    -0.302 C  
HETATM    6  O   UNL     1     -12.088  11.326  70.309  1.00  0.00    -0.320 OA 
BRANCH   4   7
HETATM    7  C   UNL     1     -10.175   9.333  70.807  1.00  0.00    -0.286 C  
BRANCH   7   8
HETATM    8  C   UNL     1     -10.659   7.955  71.195  1.00  0.00    -0.238 A  
HETATM    9  H2  UNL     1     -12.929   9.315  70.954  1.00  0.00     0.000 HD 
HETATM   10  H1  UNL     1     -14.081   8.156  71.548  1.00  0.00     0.000 HD 
HETATM   11  N   UNL     1     -13.110   8.386  71.336  1.00  0.00    -0.268 NA 
HETATM   12  C   UNL     1     -12.086   7.616  71.506  1.00  0.00    -0.310 A  
HETATM   13  C   UNL     1      -9.792   6.977  71.557  1.00  0.00    -0.172 A  
HETATM   14  N   UNL     1     -10.070   5.782  72.204  1.00  0.00    -0.180 NA 
HETATM   15  C   UNL     1     -11.697   4.356  73.320  1.00  0.00    -0.134 C  
HETATM   16  N   UNL     1     -12.318   6.388  72.056  1.00  0.00    -0.303 NA 
HETATM   17  C   UNL     1     -11.326   5.543  72.459  1.00  0.00    -0.265 A  
ENDBRANCH   7   8
ENDBRANCH   4   7
ENDBRANCH   2   4
BRANCH   3  18
HETATM   18  C   UNL     1      -7.992  11.134  68.550  1.00  0.00    -0.143 C  
BRANCH  18  19
HETATM   19  C   UNL     1      -7.826  12.324  67.584  1.00  0.00    -0.156 C  
HETATM   20  H   UNL     1      -8.975  13.417  66.411  1.00  0.00     0.000 HD 
HETATM   21  O   UNL     1      -9.077  12.683  67.006  1.00  0.00    -0.201 OA 
ENDBRANCH  18  19
ENDBRANCH   3  18
BRANCH   3  22
HETATM   22  S   UNL     1      -7.796   9.093  66.604  1.00  0.00    -0.100 SA 
BRANCH  22  23
HETATM   23  S   UNL     1      -6.875   7.517  67.547  1.00  0.00    -0.073 SA 
BRANCH  23  24
HETATM   24  C   UNL     1      -6.611   6.244  66.259  1.00  0.00    -0.048 C  
BRANCH  24  25
HETATM   25  C   UNL     1      -7.637   5.124  66.111  1.00  0.00    -0.087 C  
HETATM   26  O   UNL     1      -8.943   5.725  65.958  1.00  0.00    -0.147 OA 
HETATM   27  C   UNL     1      -9.182   3.653  67.095  1.00  0.00    -0.212 C  
HETATM   28  C   UNL     1      -9.922   4.853  66.543  1.00  0.00    -0.232 C  
HETATM   29  C   UNL     1      -7.780   4.182  67.295  1.00  0.00    -0.088 C  
ENDBRANCH  24  25
ENDBRANCH  23  24
ENDBRANCH  22  23
ENDBRANCH   3  22
TORSDOF 9
ENDMDL
MODEL      242
REMARK 921   NORMALIZED FREE ENERGY PREDICTED BY IDOCK:   -3.32 KCAL/MOL
REMARK 922        TOTAL FREE ENERGY PREDICTED BY IDOCK:   -6.31 KCAL/MOL
REMARK 923 INTER-LIGAND FREE ENERGY PREDICTED BY IDOCK:   -5.88 KCAL/MOL
REMARK 924 INTRA-LIGAND FREE ENERGY PREDICTED BY IDOCK:   -0.43 KCAL/MOL
REMARK 927      BINDING AFFINITY PREDICTED BY RF-SCORE:    0.00 PKD
ROOT
HETATM    1  C   UNL     1     -10.759   8.900  67.729  1.00  0.00    -0.204 C  
HETATM    2  C   UNL     1     -10.623  10.027  68.736  1.00  0.00    -0.217 C  
HETATM    3  C   UNL     1     -10.911  11.332  68.454  1.00  0.00    -0.219 C  
ENDROOT
BRANCH   2   4
HETATM    4  N   UNL     1     -10.280   9.568  70.012  1.00  0.00    -0.226 N  
HETATM    5  C   UNL     1     -11.265   9.280  70.946  1.00  0.00    -0.306 C  
HETATM    6  O   UNL     1     -11.052   8.900  72.094  1.00  0.00    -0.362 OA 
BRANCH   4   7
HETATM    7  C   UNL     1      -8.877   9.580  70.454  1.00  0.00    -0.234 C  
BRANCH   7   8
HETATM    8  C   UNL     1      -8.258   8.248  70.811  1.00  0.00    -0.115 A  
HETATM    9  H2  UNL     1      -8.041   9.610  73.083  1.00  0.00     0.000 HD 
HETATM   10  H1  UNL     1      -7.076   8.523  74.036  1.00  0.00     0.000 HD 
HETATM   11  N   UNL     1      -7.545   8.721  73.152  1.00  0.00    -0.371 NA 
HETATM   12  C   UNL     1      -7.570   7.956  72.110  1.00  0.00    -0.089 A  
HETATM   13  C   UNL     1      -8.041   7.295  69.871  1.00  0.00    -0.127 A  
HETATM   14  N   UNL     1      -7.241   6.166  69.966  1.00  0.00    -0.071 NA 
HETATM   15  C   UNL     1      -5.630   4.864  71.245  1.00  0.00    -0.012 C  
HETATM   16  N   UNL     1      -6.872   6.784  72.185  1.00  0.00    -0.062 NA 
HETATM   17  C   UNL     1      -6.659   5.966  71.115  1.00  0.00    -0.049 A  
ENDBRANCH   7   8
ENDBRANCH   4   7
ENDBRANCH   2   4
BRANCH   3  18
HETATM   18  C   UNL     1     -11.094  12.426  69.511  1.00  0.00    -0.083 C  
BRANCH  18  19
HETATM   19  C   UNL     1     -12.381  12.317  70.352  1.00  0.00    -0.228 C  
HETATM   20  H   UNL     1     -13.356  13.414  71.669  1.00  0.00     0.000 HD 
HETATM   21  O   UNL     1     -12.563  13.481  71.152  1.00  0.00    -0.350 OA 
ENDBRANCH  18  19
ENDBRANCH   3  18
BRANCH   3  22
HETATM   22  S   UNL     1     -11.143  11.787  66.757  1.00  0.00    -0.317 SA 
BRANCH  22  23
HETATM   23  S   UNL     1     -12.100  13.598  66.921  1.00  0.00    -0.354 SA 
BRANCH  23  24
HETATM   24  C   UNL     1     -11.132  14.772  65.904  1.00  0.00    -0.340 C  
BRANCH  24  25
HETATM   25  C   UNL     1     -10.204  15.761  66.606  1.00  0.00    -0.285 C  
HETATM   26  O   UNL     1     -10.688  15.954  67.955  1.00  0.00    -0.294 OA 
HETATM   27  C   UNL     1      -9.685  17.972  67.204  1.00  0.00    -0.297 C  
HETATM   28  C   UNL     1     -10.385  17.296  68.364  1.00  0.00    -0.366 C  
HETATM   29  C   UNL     1     -10.138  17.158  66.013  1.00  0.00    -0.303 C  
ENDBRANCH  24  25
ENDBRANCH  23  24
ENDBRANCH  22  23
ENDBRANCH   3  22
TORSDOF 9
ENDMDL
MODEL      243
REMARK 921   NORMALIZED FREE ENERGY PREDICTED BY IDOCK:   -3.32 KCAL/MOL
REMARK 922        TOTAL FREE ENERGY PREDICTED BY IDOCK:   -6.31 KCAL/MOL
REMARK 923 INTER-LIGAND FREE ENERGY PREDICTED BY IDOCK:   -5.12 KCAL/MOL
REMARK 924 INTRA-LIGAND FREE ENERGY PREDICTED BY IDOCK:   -1.19 KCAL/MOL
REMARK 927      BINDING AFFINITY PREDICTED BY RF-SCORE:    0.00 PKD
ROOT
HETATM    1  C   UNL     1     -10.561   7.850  67.557  1.00  0.00    -0.312 C  
HETATM    2  C   UNL     1      -9.517   7.819  68.657  1.00  0.00    -0.152 C  
HETATM    3  C   UNL     1      -8.239   7.373  68.475  1.00  0.00    -0.125 C  
ENDROOT
BRANCH   2   4
HETATM    4  N   UNL     1      -9.972   8.401  69.845  1.00  0.00    -0.187 N  
HETATM    5  C   UNL     1     -10.838   7.710  70.681  1.00  0.00    -0.237 C  
HETATM    6  O   UNL     1     -11.307   8.155  71.725  1.00  0.00    -0.253 OA 
BRANCH   4   7
HETATM    7  C   UNL     1      -9.710   9.821  70.126  1.00  0.00    -0.248 C  
BRANCH   7   8
HETATM    8  C   UNL     1     -10.307  10.831  69.174  1.00  0.00    -0.238 A  
HETATM    9  H2  UNL     1     -12.450   9.891  70.434  1.00  0.00     0.000 HD 
HETATM   10  H1  UNL     1     -13.730  10.639  69.527  1.00  0.00     0.000 HD 
HETATM   11  N   UNL     1     -12.728  10.503  69.667  1.00  0.00    -0.097 NA 
HETATM   12  C   UNL     1     -11.779  11.030  68.967  1.00  0.00    -0.333 A  
HETATM   13  C   UNL     1      -9.552  11.447  68.231  1.00  0.00    -0.192 A  
HETATM   14  N   UNL     1      -9.981  12.157  67.120  1.00  0.00    -0.199 NA 
HETATM   15  C   UNL     1     -11.825  12.893  65.711  1.00  0.00    -0.469 C  
HETATM   16  N   UNL     1     -12.148  11.818  67.914  1.00  0.00    -0.559 NA 
HETATM   17  C   UNL     1     -11.270  12.292  66.985  1.00  0.00    -0.310 A  
ENDBRANCH   7   8
ENDBRANCH   4   7
ENDBRANCH   2   4
BRANCH   3  18
HETATM   18  C   UNL     1      -7.087   7.623  69.453  1.00  0.00    -0.075 C  
BRANCH  18  19
HETATM   19  C   UNL     1      -5.954   8.521  68.918  1.00  0.00    -0.044 C  
HETATM   20  H   UNL     1      -5.787  10.223  67.935  1.00  0.00     0.000 HD 
HETATM   21  O   UNL     1      -6.485   9.670  68.265  1.00  0.00    -0.056 OA 
ENDBRANCH  18  19
ENDBRANCH   3  18
BRANCH   3  22
HETATM   22  S   UNL     1      -7.868   6.491  66.984  1.00  0.00    -0.109 SA 
BRANCH  22  23
HETATM   23  S   UNL     1      -7.662   4.562  67.662  1.00  0.00    -0.085 SA 
BRANCH  23  24
HETATM   24  C   UNL     1      -9.243   3.723  67.279  1.00  0.00    -0.183 C  
BRANCH  24  25
HETATM   25  C   UNL     1      -9.491   3.237  65.853  1.00  0.00    -0.081 C  
HETATM   26  O   UNL     1      -8.222   3.202  65.161  1.00  0.00    -0.092 OA 
HETATM   27  C   UNL     1      -9.932   3.725  63.598  1.00  0.00    -0.181 C  
HETATM   28  C   UNL     1      -8.447   3.489  63.773  1.00  0.00    -0.090 C  
HETATM   29  C   UNL     1     -10.380   4.115  64.989  1.00  0.00    -0.209 C  
ENDBRANCH  24  25
ENDBRANCH  23  24
ENDBRANCH  22  23
ENDBRANCH   3  22
TORSDOF 9
ENDMDL
MODEL      244
REMARK 921   NORMALIZED FREE ENERGY PREDICTED BY IDOCK:   -3.32 KCAL/MOL
REMARK 922        TOTAL FREE ENERGY PREDICTED BY IDOCK:   -6.30 KCAL/MOL
REMARK 923 INTER-LIGAND FREE ENERGY PREDICTED BY IDOCK:   -5.02 KCAL/MOL
REMARK 924 INTRA-LIGAND FREE ENERGY PREDICTED BY IDOCK:   -1.29 KCAL/MOL
REMARK 927      BINDING AFFINITY PREDICTED BY RF-SCORE:    0.00 PKD
ROOT
HETATM    1  C   UNL     1     -10.943   9.073  67.452  1.00  0.00     0.040 C  
HETATM    2  C   UNL     1     -10.556  10.319  68.227  1.00  0.00    -0.221 C  
HETATM    3  C   UNL     1      -9.872  11.367  67.681  1.00  0.00    -0.176 C  
ENDROOT
BRANCH   2   4
HETATM    4  N   UNL     1     -11.072  10.324  69.527  1.00  0.00    -0.248 N  
HETATM    5  C   UNL     1     -12.210  11.058  69.830  1.00  0.00    -0.318 C  
HETATM    6  O   UNL     1     -12.714  11.140  70.947  1.00  0.00    -0.357 OA 
BRANCH   4   7
HETATM    7  C   UNL     1     -10.309   9.725  70.633  1.00  0.00    -0.261 C  
BRANCH   7   8
HETATM    8  C   UNL     1     -10.561   8.265  70.930  1.00  0.00    -0.239 A  
HETATM    9  H2  UNL     1     -12.551   9.466  72.219  1.00  0.00     0.000 HD 
HETATM   10  H1  UNL     1     -13.247   8.128  73.085  1.00  0.00     0.000 HD 
HETATM   11  N   UNL     1     -12.533   8.470  72.440  1.00  0.00    -0.380 NA 
HETATM   12  C   UNL     1     -11.609   7.763  71.877  1.00  0.00    -0.287 A  
HETATM   13  C   UNL     1      -9.674   7.306  70.565  1.00  0.00    -0.176 A  
HETATM   14  N   UNL     1      -9.607   5.992  71.002  1.00  0.00    -0.171 NA 
HETATM   15  C   UNL     1     -10.433   4.255  72.495  1.00  0.00    -0.222 C  
HETATM   16  N   UNL     1     -11.557   6.438  72.202  1.00  0.00    -0.300 NA 
HETATM   17  C   UNL     1     -10.537   5.611  71.832  1.00  0.00    -0.232 A  
ENDBRANCH   7   8
ENDBRANCH   4   7
ENDBRANCH   2   4
BRANCH   3  18
HETATM   18  C   UNL     1      -9.748  12.751  68.327  1.00  0.00    -0.216 C  
BRANCH  18  19
HETATM   19  C   UNL     1     -10.378  13.907  67.527  1.00  0.00    -0.245 C  
HETATM   20  H   UNL     1     -12.188  14.530  67.048  1.00  0.00     0.000 HD 
HETATM   21  O   UNL     1     -11.799  13.817  67.541  1.00  0.00    -0.351 OA 
ENDBRANCH  18  19
ENDBRANCH   3  18
BRANCH   3  22
HETATM   22  S   UNL     1      -9.119  11.136  66.094  1.00  0.00    -0.205 SA 
BRANCH  22  23
HETATM   23  S   UNL     1      -7.148  10.837  66.589  1.00  0.00    -0.140 SA 
BRANCH  23  24
HETATM   24  C   UNL     1      -6.911   9.023  66.641  1.00  0.00    -0.080 C  
BRANCH  24  25
HETATM   25  C   UNL     1      -7.049   8.302  67.979  1.00  0.00    -0.086 C  
HETATM   26  O   UNL     1      -6.823   9.264  69.035  1.00  0.00    -0.054 OA 
HETATM   27  C   UNL     1      -6.056   7.135  69.760  1.00  0.00    -0.027 C  
HETATM   28  C   UNL     1      -6.220   8.589  70.150  1.00  0.00    -0.034 C  
HETATM   29  C   UNL     1      -6.052   7.188  68.248  1.00  0.00    -0.034 C  
ENDBRANCH  24  25
ENDBRANCH  23  24
ENDBRANCH  22  23
ENDBRANCH   3  22
TORSDOF 9
ENDMDL
MODEL      245
REMARK 921   NORMALIZED FREE ENERGY PREDICTED BY IDOCK:   -3.31 KCAL/MOL
REMARK 922        TOTAL FREE ENERGY PREDICTED BY IDOCK:   -6.29 KCAL/MOL
REMARK 923 INTER-LIGAND FREE ENERGY PREDICTED BY IDOCK:   -5.51 KCAL/MOL
REMARK 924 INTRA-LIGAND FREE ENERGY PREDICTED BY IDOCK:   -0.78 KCAL/MOL
REMARK 927      BINDING AFFINITY PREDICTED BY RF-SCORE:    0.00 PKD
ROOT
HETATM    1  C   UNL     1      -6.228  10.745  66.233  1.00  0.00    -0.130 C  
HETATM    2  C   UNL     1      -7.570  10.301  66.784  1.00  0.00    -0.107 C  
HETATM    3  C   UNL     1      -8.244  10.970  67.766  1.00  0.00    -0.117 C  
ENDROOT
BRANCH   2   4
HETATM    4  N   UNL     1      -8.093   9.198  66.099  1.00  0.00    -0.106 N  
HETATM    5  C   UNL     1      -8.127   7.948  66.700  1.00  0.00    -0.107 C  
HETATM    6  O   UNL     1      -8.541   6.924  66.163  1.00  0.00    -0.132 OA 
BRANCH   4   7
HETATM    7  C   UNL     1      -8.421   9.299  64.669  1.00  0.00    -0.178 C  
BRANCH   7   8
HETATM    8  C   UNL     1      -9.471  10.312  64.275  1.00  0.00    -0.365 A  
HETATM    9  H2  UNL     1      -7.597  10.677  62.426  1.00  0.00     0.000 HD 
HETATM   10  H1  UNL     1      -8.201  12.087  61.608  1.00  0.00     0.000 HD 
HETATM   11  N   UNL     1      -8.319  11.392  62.347  1.00  0.00    -0.226 NA 
HETATM   12  C   UNL     1      -9.296  11.332  63.191  1.00  0.00    -0.311 A  
HETATM   13  C   UNL     1     -10.551  10.552  65.059  1.00  0.00    -0.039 A  
HETATM   14  N   UNL     1     -11.432  11.621  64.998  1.00  0.00    -0.183 NA 
HETATM   15  C   UNL     1     -12.027  13.768  64.016  1.00  0.00    -0.451 C  
HETATM   16  N   UNL     1     -10.244  12.312  63.113  1.00  0.00    -0.300 NA 
HETATM   17  C   UNL     1     -11.228  12.483  64.042  1.00  0.00    -0.403 A  
ENDBRANCH   7   8
ENDBRANCH   4   7
ENDBRANCH   2   4
BRANCH   3  18
HETATM   18  C   UNL     1      -9.718  10.742  68.114  1.00  0.00    -0.169 C  
BRANCH  18  19
HETATM   19  C   UNL     1      -9.992  10.340  69.576  1.00  0.00    -0.228 C  
HETATM   20  H   UNL     1     -11.104  10.975  71.077  1.00  0.00     0.000 HD 
HETATM   21  O   UNL     1     -10.935  11.223  70.176  1.00  0.00    -0.079 OA 
ENDBRANCH  18  19
ENDBRANCH   3  18
BRANCH   3  22
HETATM   22  S   UNL     1      -7.376  12.225  68.666  1.00  0.00    -0.085 SA 
BRANCH  22  23
HETATM   23  S   UNL     1      -7.950  13.937  67.687  1.00  0.00    -0.189 SA 
BRANCH  23  24
HETATM   24  C   UNL     1      -9.672  14.264  68.212  1.00  0.00    -0.221 C  
BRANCH  24  25
HETATM   25  C   UNL     1     -10.263  15.651  67.972  1.00  0.00    -0.227 C  
HETATM   26  O   UNL     1     -10.077  15.985  66.578  1.00  0.00    -0.263 OA 
HETATM   27  C   UNL     1      -9.979  17.980  67.864  1.00  0.00    -0.335 C  
HETATM   28  C   UNL     1      -9.905  17.406  66.465  1.00  0.00    -0.304 C  
HETATM   29  C   UNL     1      -9.622  16.796  68.736  1.00  0.00    -0.260 C  
ENDBRANCH  24  25
ENDBRANCH  23  24
ENDBRANCH  22  23
ENDBRANCH   3  22
TORSDOF 9
ENDMDL
MODEL      246
REMARK 921   NORMALIZED FREE ENERGY PREDICTED BY IDOCK:   -3.31 KCAL/MOL
REMARK 922        TOTAL FREE ENERGY PREDICTED BY IDOCK:   -6.29 KCAL/MOL
REMARK 923 INTER-LIGAND FREE ENERGY PREDICTED BY IDOCK:   -5.41 KCAL/MOL
REMARK 924 INTRA-LIGAND FREE ENERGY PREDICTED BY IDOCK:   -0.88 KCAL/MOL
REMARK 927      BINDING AFFINITY PREDICTED BY RF-SCORE:    0.00 PKD
ROOT
HETATM    1  C   UNL     1     -10.197   9.614  66.885  1.00  0.00    -0.304 C  
HETATM    2  C   UNL     1      -9.801   9.554  68.349  1.00  0.00    -0.158 C  
HETATM    3  C   UNL     1     -10.597   9.995  69.367  1.00  0.00    -0.233 C  
ENDROOT
BRANCH   2   4
HETATM    4  N   UNL     1      -8.582   8.897  68.548  1.00  0.00    -0.133 N  
HETATM    5  C   UNL     1      -7.384   9.525  68.237  1.00  0.00    -0.077 C  
HETATM    6  O   UNL     1      -6.274   9.013  68.354  1.00  0.00    -0.052 OA 
BRANCH   4   7
HETATM    7  C   UNL     1      -8.556   7.467  68.891  1.00  0.00    -0.129 C  
BRANCH   7   8
HETATM    8  C   UNL     1      -8.751   6.486  67.758  1.00  0.00    -0.115 A  
HETATM    9  H2  UNL     1     -11.250   7.086  68.438  1.00  0.00     0.000 HD 
HETATM   10  H1  UNL     1     -12.144   5.955  67.466  1.00  0.00     0.000 HD 
HETATM   11  N   UNL     1     -11.239   6.329  67.754  1.00  0.00    -0.254 NA 
HETATM   12  C   UNL     1     -10.081   5.936  67.336  1.00  0.00    -0.169 A  
HETATM   13  C   UNL     1      -7.705   5.818  67.212  1.00  0.00    -0.101 A  
HETATM   14  N   UNL     1      -7.737   4.700  66.392  1.00  0.00    -0.091 NA 
HETATM   15  C   UNL     1      -9.043   2.944  65.325  1.00  0.00    -0.149 C  
HETATM   16  N   UNL     1     -10.060   4.896  66.451  1.00  0.00    -0.231 NA 
HETATM   17  C   UNL     1      -8.918   4.259  66.063  1.00  0.00    -0.123 A  
ENDBRANCH   7   8
ENDBRANCH   4   7
ENDBRANCH   2   4
BRANCH   3  18
HETATM   18  C   UNL     1     -10.375   9.663  70.846  1.00  0.00    -0.334 C  
BRANCH  18  19
HETATM   19  C   UNL     1     -11.390   8.676  71.456  1.00  0.00    -0.289 C  
HETATM   20  H   UNL     1     -11.935   6.799  71.192  1.00  0.00     0.000 HD 
HETATM   21  O   UNL     1     -11.310   7.407  70.816  1.00  0.00    -0.269 OA 
ENDBRANCH  18  19
ENDBRANCH   3  18
BRANCH   3  22
HETATM   22  S   UNL     1     -12.014  10.975  68.953  1.00  0.00    -0.154 SA 
BRANCH  22  23
HETATM   23  S   UNL     1     -12.314  12.053  70.677  1.00  0.00    -0.215 SA 
BRANCH  23  24
HETATM   24  C   UNL     1     -12.519  13.794  70.152  1.00  0.00    -0.267 C  
BRANCH  24  25
HETATM   25  C   UNL     1     -11.396  14.461  69.362  1.00  0.00    -0.281 C  
HETATM   26  O   UNL     1     -10.991  15.654  70.074  1.00  0.00    -0.270 OA 
HETATM   27  C   UNL     1     -10.709  16.019  67.743  1.00  0.00    -0.323 C  
HETATM   28  C   UNL     1     -10.557  16.633  69.119  1.00  0.00    -0.340 C  
HETATM   29  C   UNL     1     -11.749  14.943  67.966  1.00  0.00    -0.344 C  
ENDBRANCH  24  25
ENDBRANCH  23  24
ENDBRANCH  22  23
ENDBRANCH   3  22
TORSDOF 9
ENDMDL
MODEL      247
REMARK 921   NORMALIZED FREE ENERGY PREDICTED BY IDOCK:   -3.29 KCAL/MOL
REMARK 922        TOTAL FREE ENERGY PREDICTED BY IDOCK:   -6.26 KCAL/MOL
REMARK 923 INTER-LIGAND FREE ENERGY PREDICTED BY IDOCK:   -5.37 KCAL/MOL
REMARK 924 INTRA-LIGAND FREE ENERGY PREDICTED BY IDOCK:   -0.89 KCAL/MOL
REMARK 927      BINDING AFFINITY PREDICTED BY RF-SCORE:    0.00 PKD
ROOT
HETATM    1  C   UNL     1     -10.565  10.092  68.526  1.00  0.00    -0.245 C  
HETATM    2  C   UNL     1      -9.186  10.724  68.494  1.00  0.00    -0.174 C  
HETATM    3  C   UNL     1      -8.965  12.047  68.237  1.00  0.00    -0.186 C  
ENDROOT
BRANCH   2   4
HETATM    4  N   UNL     1      -8.177   9.829  68.867  1.00  0.00    -0.112 N  
HETATM    5  C   UNL     1      -7.936   9.559  70.207  1.00  0.00    -0.175 C  
HETATM    6  O   UNL     1      -7.055   8.810  70.623  1.00  0.00    -0.049 OA 
BRANCH   4   7
HETATM    7  C   UNL     1      -7.225   9.322  67.867  1.00  0.00    -0.079 C  
BRANCH   7   8
HETATM    8  C   UNL     1      -7.686   8.171  67.003  1.00  0.00    -0.096 A  
HETATM    9  H2  UNL     1      -6.378   6.934  68.958  1.00  0.00     0.000 HD 
HETATM   10  H1  UNL     1      -6.369   5.297  68.374  1.00  0.00     0.000 HD 
HETATM   11  N   UNL     1      -6.641   6.270  68.230  1.00  0.00    -0.059 NA 
HETATM   12  C   UNL     1      -7.286   6.742  67.214  1.00  0.00    -0.085 A  
HETATM   13  C   UNL     1      -8.281   8.382  65.803  1.00  0.00    -0.131 A  
HETATM   14  N   UNL     1      -8.494   7.469  64.780  1.00  0.00     0.002 NA 
HETATM   15  C   UNL     1      -8.147   5.230  63.891  1.00  0.00    -0.117 C  
HETATM   16  N   UNL     1      -7.603   5.863  66.218  1.00  0.00    -0.092 NA 
HETATM   17  C   UNL     1      -8.118   6.243  65.014  1.00  0.00    -0.136 A  
ENDBRANCH   7   8
ENDBRANCH   4   7
ENDBRANCH   2   4
BRANCH   3  18
HETATM   18  C   UNL     1      -7.645  12.774  68.510  1.00  0.00    -0.120 C  
BRANCH  18  19
HETATM   19  C   UNL     1      -6.679  12.851  67.311  1.00  0.00    -0.047 C  
HETATM   20  H   UNL     1      -5.027  13.817  66.833  1.00  0.00     0.000 HD 
HETATM   21  O   UNL     1      -5.622  13.770  67.572  1.00  0.00    -0.336 OA 
ENDBRANCH  18  19
ENDBRANCH   3  18
BRANCH   3  22
HETATM   22  S   UNL     1     -10.309  13.006  67.593  1.00  0.00    -0.225 SA 
BRANCH  22  23
HETATM   23  S   UNL     1     -10.321  14.632  68.849  1.00  0.00    -0.240 SA 
BRANCH  23  24
HETATM   24  C   UNL     1     -12.032  14.764  69.485  1.00  0.00    -0.311 C  
BRANCH  24  25
HETATM   25  C   UNL     1     -12.275  14.588  70.982  1.00  0.00    -0.339 C  
HETATM   26  O   UNL     1     -13.604  15.074  71.283  1.00  0.00    -0.405 OA 
HETATM   27  C   UNL     1     -12.202  15.465  73.160  1.00  0.00    -0.567 C  
HETATM   28  C   UNL     1     -13.605  15.615  72.613  1.00  0.00    -0.579 C  
HETATM   29  C   UNL     1     -11.358  15.368  71.909  1.00  0.00    -0.466 C  
ENDBRANCH  24  25
ENDBRANCH  23  24
ENDBRANCH  22  23
ENDBRANCH   3  22
TORSDOF 9
ENDMDL
MODEL      248
REMARK 921   NORMALIZED FREE ENERGY PREDICTED BY IDOCK:   -3.29 KCAL/MOL
REMARK 922        TOTAL FREE ENERGY PREDICTED BY IDOCK:   -6.26 KCAL/MOL
REMARK 923 INTER-LIGAND FREE ENERGY PREDICTED BY IDOCK:   -5.72 KCAL/MOL
REMARK 924 INTRA-LIGAND FREE ENERGY PREDICTED BY IDOCK:   -0.54 KCAL/MOL
REMARK 927      BINDING AFFINITY PREDICTED BY RF-SCORE:    0.00 PKD
ROOT
HETATM    1  C   UNL     1     -10.656   8.961  67.622  1.00  0.00    -0.292 C  
HETATM    2  C   UNL     1     -10.730   9.289  69.102  1.00  0.00    -0.183 C  
HETATM    3  C   UNL     1     -10.084   8.574  70.069  1.00  0.00    -0.192 C  
ENDROOT
BRANCH   2   4
HETATM    4  N   UNL     1     -11.439  10.469  69.355  1.00  0.00    -0.260 N  
HETATM    5  C   UNL     1     -11.933  10.735  70.624  1.00  0.00    -0.367 C  
HETATM    6  O   UNL     1     -12.587  11.729  70.926  1.00  0.00    -0.349 OA 
BRANCH   4   7
HETATM    7  C   UNL     1     -11.849  11.343  68.245  1.00  0.00    -0.249 C  
BRANCH   7   8
HETATM    8  C   UNL     1     -11.213  12.712  68.178  1.00  0.00    -0.311 A  
HETATM    9  H2  UNL     1      -9.103  11.096  68.179  1.00  0.00     0.000 HD 
HETATM   10  H1  UNL     1      -7.803  12.241  68.323  1.00  0.00     0.000 HD 
HETATM   11  N   UNL     1      -8.806  12.069  68.259  1.00  0.00    -0.184 NA 
HETATM   12  C   UNL     1      -9.738  12.964  68.271  1.00  0.00    -0.217 A  
HETATM   13  C   UNL     1     -11.952  13.842  68.300  1.00  0.00    -0.357 A  
HETATM   14  N   UNL     1     -11.509  15.132  68.549  1.00  0.00    -0.305 NA 
HETATM   15  C   UNL     1      -9.662  16.627  69.077  1.00  0.00    -0.260 C  
HETATM   16  N   UNL     1      -9.347  14.264  68.420  1.00  0.00    -0.205 NA 
HETATM   17  C   UNL     1     -10.218  15.293  68.630  1.00  0.00    -0.223 A  
ENDBRANCH   7   8
ENDBRANCH   4   7
ENDBRANCH   2   4
BRANCH   3  18
HETATM   18  C   UNL     1      -9.875   9.055  71.508  1.00  0.00    -0.381 C  
BRANCH  18  19
HETATM   19  C   UNL     1     -10.287   8.050  72.602  1.00  0.00    -0.329 C  
HETATM   20  H   UNL     1     -11.923   7.102  73.166  1.00  0.00     0.000 HD 
HETATM   21  O   UNL     1     -11.668   7.721  72.492  1.00  0.00    -0.344 OA 
ENDBRANCH  18  19
ENDBRANCH   3  18
BRANCH   3  22
HETATM   22  S   UNL     1      -9.392   7.005  69.623  1.00  0.00    -0.147 SA 
BRANCH  22  23
HETATM   23  S   UNL     1      -7.374   7.380  69.711  1.00  0.00    -0.085 SA 
BRANCH  23  24
HETATM   24  C   UNL     1      -7.082   8.819  68.618  1.00  0.00    -0.072 C  
BRANCH  24  25
HETATM   25  C   UNL     1      -6.731   8.571  67.153  1.00  0.00    -0.063 C  
HETATM   26  O   UNL     1      -7.252   9.671  66.372  1.00  0.00    -0.091 OA 
HETATM   27  C   UNL     1      -7.317   7.697  65.053  1.00  0.00    -0.073 C  
HETATM   28  C   UNL     1      -7.618   9.181  65.074  1.00  0.00    -0.106 C  
HETATM   29  C   UNL     1      -7.331   7.327  66.519  1.00  0.00    -0.080 C  
ENDBRANCH  24  25
ENDBRANCH  23  24
ENDBRANCH  22  23
ENDBRANCH   3  22
TORSDOF 9
ENDMDL
MODEL      249
REMARK 921   NORMALIZED FREE ENERGY PREDICTED BY IDOCK:   -3.29 KCAL/MOL
REMARK 922        TOTAL FREE ENERGY PREDICTED BY IDOCK:   -6.26 KCAL/MOL
REMARK 923 INTER-LIGAND FREE ENERGY PREDICTED BY IDOCK:   -4.97 KCAL/MOL
REMARK 924 INTRA-LIGAND FREE ENERGY PREDICTED BY IDOCK:   -1.29 KCAL/MOL
REMARK 927      BINDING AFFINITY PREDICTED BY RF-SCORE:    0.00 PKD
ROOT
HETATM    1  C   UNL     1     -12.699   6.893  70.845  1.00  0.00    -0.196 C  
HETATM    2  C   UNL     1     -11.643   7.842  71.380  1.00  0.00    -0.276 C  
HETATM    3  C   UNL     1     -10.625   7.454  72.204  1.00  0.00    -0.220 C  
ENDROOT
BRANCH   2   4
HETATM    4  N   UNL     1     -11.760   9.130  70.849  1.00  0.00    -0.284 N  
HETATM    5  C   UNL     1     -12.394  10.134  71.568  1.00  0.00    -0.408 C  
HETATM    6  O   UNL     1     -12.565  11.282  71.167  1.00  0.00    -0.385 OA 
BRANCH   4   7
HETATM    7  C   UNL     1     -11.403   9.392  69.446  1.00  0.00     0.110 C  
BRANCH   7   8
HETATM    8  C   UNL     1     -10.207   8.651  68.893  1.00  0.00    -0.221 A  
HETATM    9  H2  UNL     1      -9.077  10.619  70.276  1.00  0.00     0.000 HD 
HETATM   10  H1  UNL     1      -7.407  10.425  69.833  1.00  0.00     0.000 HD 
HETATM   11  N   UNL     1      -8.372  10.107  69.744  1.00  0.00    -0.167 NA 
HETATM   12  C   UNL     1      -8.789   9.119  69.023  1.00  0.00    -0.139 A  
HETATM   13  C   UNL     1     -10.352   7.643  67.998  1.00  0.00    -0.205 A  
HETATM   14  N   UNL     1      -9.382   7.069  67.190  1.00  0.00    -0.138 NA 
HETATM   15  C   UNL     1      -7.088   7.079  66.374  1.00  0.00    -0.074 C  
HETATM   16  N   UNL     1      -7.855   8.458  68.277  1.00  0.00    -0.109 NA 
HETATM   17  C   UNL     1      -8.168   7.520  67.338  1.00  0.00    -0.116 A  
ENDBRANCH   7   8
ENDBRANCH   4   7
ENDBRANCH   2   4
BRANCH   3  18
HETATM   18  C   UNL     1      -9.380   8.296  72.499  1.00  0.00    -0.350 C  
BRANCH  18  19
HETATM   19  C   UNL     1      -8.697   8.008  73.850  1.00  0.00    -0.244 C  
HETATM   20  H   UNL     1      -6.939   8.318  74.688  1.00  0.00     0.000 HD 
HETATM   21  O   UNL     1      -7.359   8.496  73.855  1.00  0.00    -0.295 OA 
ENDBRANCH  18  19
ENDBRANCH   3  18
BRANCH   3  22
HETATM   22  S   UNL     1     -10.719   5.847  72.945  1.00  0.00    -0.265 SA 
BRANCH  22  23
HETATM   23  S   UNL     1      -9.241   4.824  71.949  1.00  0.00    -0.140 SA 
BRANCH  23  24
HETATM   24  C   UNL     1      -9.884   4.529  70.261  1.00  0.00    -0.229 C  
BRANCH  24  25
HETATM   25  C   UNL     1      -8.963   3.887  69.225  1.00  0.00    -0.116 C  
HETATM   26  O   UNL     1      -9.647   3.890  67.951  1.00  0.00    -0.178 OA 
HETATM   27  C   UNL     1      -8.247   1.975  68.065  1.00  0.00    -0.071 C  
HETATM   28  C   UNL     1      -9.232   2.737  67.204  1.00  0.00    -0.146 C  
HETATM   29  C   UNL     1      -8.593   2.433  69.464  1.00  0.00    -0.111 C  
ENDBRANCH  24  25
ENDBRANCH  23  24
ENDBRANCH  22  23
ENDBRANCH   3  22
TORSDOF 9
ENDMDL
MODEL      250
REMARK 921   NORMALIZED FREE ENERGY PREDICTED BY IDOCK:   -3.28 KCAL/MOL
REMARK 922        TOTAL FREE ENERGY PREDICTED BY IDOCK:   -6.25 KCAL/MOL
REMARK 923 INTER-LIGAND FREE ENERGY PREDICTED BY IDOCK:   -5.25 KCAL/MOL
REMARK 924 INTRA-LIGAND FREE ENERGY PREDICTED BY IDOCK:   -1.00 KCAL/MOL
REMARK 927      BINDING AFFINITY PREDICTED BY RF-SCORE:    0.00 PKD
ROOT
HETATM    1  C   UNL     1     -11.243  10.105  68.946  1.00  0.00    -0.220 C  
HETATM    2  C   UNL     1      -9.758   9.968  69.228  1.00  0.00    -0.215 C  
HETATM    3  C   UNL     1      -8.810  10.808  68.717  1.00  0.00    -0.163 C  
ENDROOT
BRANCH   2   4
HETATM    4  N   UNL     1      -9.480   8.960  70.158  1.00  0.00    -0.171 N  
HETATM    5  C   UNL     1      -9.688   9.175  71.513  1.00  0.00    -0.243 C  
HETATM    6  O   UNL     1      -9.445   8.357  72.396  1.00  0.00    -0.252 OA 
BRANCH   4   7
HETATM    7  C   UNL     1      -8.772   7.739  69.741  1.00  0.00    -0.139 C  
BRANCH   7   8
HETATM    8  C   UNL     1      -9.249   7.068  68.474  1.00  0.00    -0.137 A  
HETATM    9  H2  UNL     1     -11.260   6.621  70.153  1.00  0.00     0.000 HD 
HETATM   10  H1  UNL     1     -12.249   5.544  69.213  1.00  0.00     0.000 HD 
HETATM   11  N   UNL     1     -11.402   6.109  69.282  1.00  0.00    -0.392 NA 
HETATM   12  C   UNL     1     -10.493   6.238  68.373  1.00  0.00    -0.227 A  
HETATM   13  C   UNL     1      -8.439   6.943  67.393  1.00  0.00    -0.121 A  
HETATM   14  N   UNL     1      -8.608   6.122  66.288  1.00  0.00    -0.131 NA 
HETATM   15  C   UNL     1      -9.878   4.364  65.182  1.00  0.00    -0.193 C  
HETATM   16  N   UNL     1     -10.659   5.521  67.223  1.00  0.00    -0.240 NA 
HETATM   17  C   UNL     1      -9.703   5.415  66.256  1.00  0.00    -0.162 A  
ENDBRANCH   7   8
ENDBRANCH   4   7
ENDBRANCH   2   4
BRANCH   3  18
HETATM   18  C   UNL     1      -7.369  10.899  69.226  1.00  0.00    -0.125 C  
BRANCH  18  19
HETATM   19  C   UNL     1      -6.372   9.937  68.550  1.00  0.00    -0.050 C  
HETATM   20  H   UNL     1      -5.556   9.702  66.770  1.00  0.00     0.000 HD 
HETATM   21  O   UNL     1      -6.170  10.294  67.186  1.00  0.00    -0.060 OA 
ENDBRANCH  18  19
ENDBRANCH   3  18
BRANCH   3  22
HETATM   22  S   UNL     1      -9.287  11.906  67.411  1.00  0.00    -0.180 SA 
BRANCH  22  23
HETATM   23  S   UNL     1      -7.905  13.417  67.590  1.00  0.00    -0.186 SA 
BRANCH  23  24
HETATM   24  C   UNL     1      -8.778  14.802  68.408  1.00  0.00    -0.169 C  
BRANCH  24  25
HETATM   25  C   UNL     1      -9.003  16.093  67.625  1.00  0.00    -0.191 C  
HETATM   26  O   UNL     1      -9.696  17.027  68.486  1.00  0.00    -0.259 OA 
HETATM   27  C   UNL     1     -10.373  17.407  66.241  1.00  0.00    -0.330 C  
HETATM   28  C   UNL     1     -10.543  17.857  67.676  1.00  0.00    -0.387 C  
HETATM   29  C   UNL     1      -9.876  15.986  66.387  1.00  0.00    -0.308 C  
ENDBRANCH  24  25
ENDBRANCH  23  24
ENDBRANCH  22  23
ENDBRANCH   3  22
TORSDOF 9
ENDMDL
MODEL      251
REMARK 921   NORMALIZED FREE ENERGY PREDICTED BY IDOCK:   -3.25 KCAL/MOL
REMARK 922        TOTAL FREE ENERGY PREDICTED BY IDOCK:   -6.20 KCAL/MOL
REMARK 923 INTER-LIGAND FREE ENERGY PREDICTED BY IDOCK:   -5.50 KCAL/MOL
REMARK 924 INTRA-LIGAND FREE ENERGY PREDICTED BY IDOCK:   -0.71 KCAL/MOL
REMARK 927      BINDING AFFINITY PREDICTED BY RF-SCORE:    0.00 PKD
ROOT
HETATM    1  C   UNL     1      -9.115  11.809  67.510  1.00  0.00    -0.175 C  
HETATM    2  C   UNL     1      -7.724  11.870  68.114  1.00  0.00    -0.126 C  
HETATM    3  C   UNL     1      -7.022  13.030  68.282  1.00  0.00    -0.101 C  
ENDROOT
BRANCH   2   4
HETATM    4  N   UNL     1      -7.288  10.626  68.582  1.00  0.00    -0.088 N  
HETATM    5  C   UNL     1      -6.931   9.624  67.691  1.00  0.00    -0.087 C  
HETATM    6  O   UNL     1      -6.565   8.497  68.014  1.00  0.00    -0.056 OA 
BRANCH   4   7
HETATM    7  C   UNL     1      -7.395  10.289  70.010  1.00  0.00    -0.149 C  
BRANCH   7   8
HETATM    8  C   UNL     1      -8.511   9.352  70.412  1.00  0.00    -0.247 A  
HETATM    9  H2  UNL     1      -6.336   7.928  70.964  1.00  0.00     0.000 HD 
HETATM   10  H1  UNL     1      -7.035   6.389  71.368  1.00  0.00     0.000 HD 
HETATM   11  N   UNL     1      -7.173   7.357  71.077  1.00  0.00    -0.067 NA 
HETATM   12  C   UNL     1      -8.307   7.929  70.838  1.00  0.00    -0.115 A  
HETATM   13  C   UNL     1      -9.809   9.647  70.155  1.00  0.00    -0.262 A  
HETATM   14  N   UNL     1     -10.903   8.796  70.189  1.00  0.00    -0.228 NA 
HETATM   15  C   UNL     1     -11.767   6.535  70.447  1.00  0.00    -0.439 C  
HETATM   16  N   UNL     1      -9.428   7.157  70.949  1.00  0.00    -0.160 NA 
HETATM   17  C   UNL     1     -10.668   7.568  70.558  1.00  0.00    -0.235 A  
ENDBRANCH   7   8
ENDBRANCH   4   7
ENDBRANCH   2   4
BRANCH   3  18
HETATM   18  C   UNL     1      -5.778  13.169  69.164  1.00  0.00    -0.076 C  
BRANCH  18  19
HETATM   19  C   UNL     1      -6.032  13.745  70.571  1.00  0.00    -0.161 C  
HETATM   20  H   UNL     1      -5.652  15.414  71.551  1.00  0.00     0.000 HD 
HETATM   21  O   UNL     1      -5.495  15.058  70.685  1.00  0.00    -0.129 OA 
ENDBRANCH  18  19
ENDBRANCH   3  18
BRANCH   3  22
HETATM   22  S   UNL     1      -7.615  14.488  67.469  1.00  0.00    -0.186 SA 
BRANCH  22  23
HETATM   23  S   UNL     1      -8.971  15.220  68.826  1.00  0.00    -0.213 SA 
BRANCH  23  24
HETATM   24  C   UNL     1     -10.520  15.498  67.891  1.00  0.00    -0.266 C  
BRANCH  24  25
HETATM   25  C   UNL     1     -10.839  14.585  66.710  1.00  0.00    -0.305 C  
HETATM   26  O   UNL     1     -10.674  15.348  65.492  1.00  0.00    -0.336 OA 
HETATM   27  C   UNL     1     -12.396  13.745  65.164  1.00  0.00    -0.476 C  
HETATM   28  C   UNL     1     -11.606  14.862  64.515  1.00  0.00    -0.352 C  
HETATM   29  C   UNL     1     -12.257  14.045  66.640  1.00  0.00    -0.463 C  
ENDBRANCH  24  25
ENDBRANCH  23  24
ENDBRANCH  22  23
ENDBRANCH   3  22
TORSDOF 9
ENDMDL
MODEL      252
REMARK 921   NORMALIZED FREE ENERGY PREDICTED BY IDOCK:   -3.23 KCAL/MOL
REMARK 922        TOTAL FREE ENERGY PREDICTED BY IDOCK:   -6.17 KCAL/MOL
REMARK 923 INTER-LIGAND FREE ENERGY PREDICTED BY IDOCK:   -5.25 KCAL/MOL
REMARK 924 INTRA-LIGAND FREE ENERGY PREDICTED BY IDOCK:   -0.91 KCAL/MOL
REMARK 927      BINDING AFFINITY PREDICTED BY RF-SCORE:    0.00 PKD
ROOT
HETATM    1  C   UNL     1      -7.693   7.826  70.288  1.00  0.00    -0.089 C  
HETATM    2  C   UNL     1      -8.803   8.104  71.286  1.00  0.00    -0.146 C  
HETATM    3  C   UNL     1      -9.822   8.984  71.058  1.00  0.00    -0.282 C  
ENDROOT
BRANCH   2   4
HETATM    4  N   UNL     1      -8.730   7.278  72.413  1.00  0.00    -0.118 N  
HETATM    5  C   UNL     1      -7.777   7.511  73.395  1.00  0.00    -0.103 C  
HETATM    6  O   UNL     1      -7.625   6.822  74.400  1.00  0.00    -0.100 OA 
BRANCH   4   7
HETATM    7  C   UNL     1      -9.516   6.037  72.479  1.00  0.00    -0.147 C  
BRANCH   7   8
HETATM    8  C   UNL     1      -9.242   4.994  71.420  1.00  0.00    -0.184 A  
HETATM    9  H2  UNL     1      -7.222   4.642  73.110  1.00  0.00     0.000 HD 
HETATM   10  H1  UNL     1      -6.247   3.499  72.236  1.00  0.00     0.000 HD 
HETATM   11  N   UNL     1      -7.089   4.074  72.273  1.00  0.00    -0.050 NA 
HETATM   12  C   UNL     1      -8.004   4.151  71.364  1.00  0.00    -0.077 A  
HETATM   13  C   UNL     1      -9.976   4.933  70.281  1.00  0.00    -0.251 A  
HETATM   14  N   UNL     1      -9.684   4.251  69.110  1.00  0.00    -0.179 NA 
HETATM   15  C   UNL     1      -8.106   2.916  67.823  1.00  0.00    -0.079 C  
HETATM   16  N   UNL     1      -7.810   3.423  70.225  1.00  0.00    -0.046 NA 
HETATM   17  C   UNL     1      -8.591   3.541  69.113  1.00  0.00    -0.074 A  
ENDBRANCH   7   8
ENDBRANCH   4   7
ENDBRANCH   2   4
BRANCH   3  18
HETATM   18  C   UNL     1     -11.110   9.050  71.885  1.00  0.00    -0.433 C  
BRANCH  18  19
HETATM   19  C   UNL     1     -12.376   8.540  71.170  1.00  0.00    -0.206 C  
HETATM   20  H   UNL     1     -13.264   6.810  70.838  1.00  0.00     0.000 HD 
HETATM   21  O   UNL     1     -12.483   7.125  71.278  1.00  0.00    -0.356 OA 
ENDBRANCH  18  19
ENDBRANCH   3  18
BRANCH   3  22
HETATM   22  S   UNL     1      -9.676  10.091  69.682  1.00  0.00    -0.215 SA 
BRANCH  22  23
HETATM   23  S   UNL     1     -10.309   8.922  68.116  1.00  0.00    -0.198 SA 
BRANCH  23  24
HETATM   24  C   UNL     1     -10.744  10.080  66.767  1.00  0.00    -0.101 C  
BRANCH  24  25
HETATM   25  C   UNL     1     -10.803  11.575  67.072  1.00  0.00    -0.273 C  
HETATM   26  O   UNL     1     -12.043  12.096  66.540  1.00  0.00    -0.627 OA 
HETATM   27  C   UNL     1     -10.384  13.791  66.416  1.00  0.00    -0.290 C  
HETATM   28  C   UNL     1     -11.832  13.455  66.131  1.00  0.00    -0.385 C  
HETATM   29  C   UNL     1      -9.719  12.433  66.442  1.00  0.00    -0.246 C  
ENDBRANCH  24  25
ENDBRANCH  23  24
ENDBRANCH  22  23
ENDBRANCH   3  22
TORSDOF 9
ENDMDL
MODEL      253
REMARK 921   NORMALIZED FREE ENERGY PREDICTED BY IDOCK:   -3.20 KCAL/MOL
REMARK 922        TOTAL FREE ENERGY PREDICTED BY IDOCK:   -6.12 KCAL/MOL
REMARK 923 INTER-LIGAND FREE ENERGY PREDICTED BY IDOCK:   -5.85 KCAL/MOL
REMARK 924 INTRA-LIGAND FREE ENERGY PREDICTED BY IDOCK:   -0.27 KCAL/MOL
REMARK 927      BINDING AFFINITY PREDICTED BY RF-SCORE:    0.00 PKD
ROOT
HETATM    1  C   UNL     1      -7.541  10.817  67.658  1.00  0.00    -0.096 C  
HETATM    2  C   UNL     1      -8.805  10.851  66.819  1.00  0.00    -0.145 C  
HETATM    3  C   UNL     1      -8.846  10.509  65.498  1.00  0.00    -0.184 C  
ENDROOT
BRANCH   2   4
HETATM    4  N   UNL     1      -9.941  11.162  67.575  1.00  0.00    -0.180 N  
HETATM    5  C   UNL     1     -11.028  11.791  66.985  1.00  0.00    -0.285 C  
HETATM    6  O   UNL     1     -12.051  12.124  67.578  1.00  0.00    -0.534 OA 
BRANCH   4   7
HETATM    7  C   UNL     1      -9.924  11.018  69.038  1.00  0.00    -0.167 C  
BRANCH   7   8
HETATM    8  C   UNL     1     -10.747   9.896  69.628  1.00  0.00    -0.277 A  
HETATM    9  H2  UNL     1     -12.074  12.059  70.416  1.00  0.00     0.000 HD 
HETATM   10  H1  UNL     1     -13.252  11.360  71.487  1.00  0.00     0.000 HD 
HETATM   11  N   UNL     1     -12.462  11.224  70.855  1.00  0.00    -0.391 NA 
HETATM   12  C   UNL     1     -11.906  10.096  70.557  1.00  0.00    -0.321 A  
HETATM   13  C   UNL     1     -10.327   8.607  69.575  1.00  0.00    -0.214 A  
HETATM   14  N   UNL     1     -10.799   7.523  70.299  1.00  0.00    -0.243 NA 
HETATM   15  C   UNL     1     -12.256   6.674  72.055  1.00  0.00    -0.337 C  
HETATM   16  N   UNL     1     -12.397   8.980  71.174  1.00  0.00    -0.282 NA 
HETATM   17  C   UNL     1     -11.802   7.755  71.098  1.00  0.00    -0.291 A  
ENDBRANCH   7   8
ENDBRANCH   4   7
ENDBRANCH   2   4
BRANCH   3  18
HETATM   18  C   UNL     1     -10.133  10.225  64.716  1.00  0.00    -0.336 C  
BRANCH  18  19
HETATM   19  C   UNL     1     -10.210  10.876  63.321  1.00  0.00    -0.257 C  
HETATM   20  H   UNL     1     -10.570  12.663  62.566  1.00  0.00     0.000 HD 
HETATM   21  O   UNL     1     -10.523  12.262  63.426  1.00  0.00    -0.435 OA 
ENDBRANCH  18  19
ENDBRANCH   3  18
BRANCH   3  22
HETATM   22  S   UNL     1      -7.309  10.329  64.635  1.00  0.00    -0.033 SA 
BRANCH  22  23
HETATM   23  S   UNL     1      -6.753   8.416  65.138  1.00  0.00    -0.064 SA 
BRANCH  23  24
HETATM   24  C   UNL     1      -8.310   7.494  65.412  1.00  0.00    -0.124 C  
BRANCH  24  25
HETATM   25  C   UNL     1      -8.249   5.976  65.559  1.00  0.00    -0.142 C  
HETATM   26  O   UNL     1      -9.579   5.500  65.871  1.00  0.00    -0.144 OA 
HETATM   27  C   UNL     1      -7.990   4.084  66.927  1.00  0.00    -0.096 C  
HETATM   28  C   UNL     1      -9.467   4.336  66.704  1.00  0.00    -0.187 C  
HETATM   29  C   UNL     1      -7.373   5.442  66.679  1.00  0.00    -0.086 C  
ENDBRANCH  24  25
ENDBRANCH  23  24
ENDBRANCH  22  23
ENDBRANCH   3  22
TORSDOF 9
ENDMDL
MODEL      254
REMARK 921   NORMALIZED FREE ENERGY PREDICTED BY IDOCK:   -3.20 KCAL/MOL
REMARK 922        TOTAL FREE ENERGY PREDICTED BY IDOCK:   -6.12 KCAL/MOL
REMARK 923 INTER-LIGAND FREE ENERGY PREDICTED BY IDOCK:   -5.57 KCAL/MOL
REMARK 924 INTRA-LIGAND FREE ENERGY PREDICTED BY IDOCK:   -0.55 KCAL/MOL
REMARK 927      BINDING AFFINITY PREDICTED BY RF-SCORE:    0.00 PKD
ROOT
HETATM    1  C   UNL     1      -9.189  12.178  67.450  1.00  0.00    -0.182 C  
HETATM    2  C   UNL     1      -7.767  12.146  67.981  1.00  0.00    -0.134 C  
HETATM    3  C   UNL     1      -7.005  13.264  68.168  1.00  0.00    -0.114 C  
ENDROOT
BRANCH   2   4
HETATM    4  N   UNL     1      -7.365  10.862  68.362  1.00  0.00    -0.089 N  
HETATM    5  C   UNL     1      -7.108   9.891  67.404  1.00  0.00    -0.085 C  
HETATM    6  O   UNL     1      -6.779   8.734  67.650  1.00  0.00    -0.064 OA 
BRANCH   4   7
HETATM    7  C   UNL     1      -7.408  10.458  69.776  1.00  0.00    -0.154 C  
BRANCH   7   8
HETATM    8  C   UNL     1      -8.497   9.491  70.180  1.00  0.00    -0.227 A  
HETATM    9  H2  UNL     1      -6.284   8.163  70.814  1.00  0.00     0.000 HD 
HETATM   10  H1  UNL     1      -6.935   6.610  71.245  1.00  0.00     0.000 HD 
HETATM   11  N   UNL     1      -7.102   7.564  70.926  1.00  0.00    -0.058 NA 
HETATM   12  C   UNL     1      -8.251   8.089  70.649  1.00  0.00    -0.114 A  
HETATM   13  C   UNL     1      -9.800   9.731  69.890  1.00  0.00    -0.243 A  
HETATM   14  N   UNL     1     -10.863   8.841  69.925  1.00  0.00    -0.226 NA 
HETATM   15  C   UNL     1     -11.650   6.557  70.227  1.00  0.00    -0.473 C  
HETATM   16  N   UNL     1      -9.345   7.278  70.759  1.00  0.00    -0.160 NA 
HETATM   17  C   UNL     1     -10.591   7.633  70.332  1.00  0.00    -0.230 A  
ENDBRANCH   7   8
ENDBRANCH   4   7
ENDBRANCH   2   4
BRANCH   3  18
HETATM   18  C   UNL     1      -5.712  13.302  68.988  1.00  0.00    -0.076 C  
BRANCH  18  19
HETATM   19  C   UNL     1      -5.899  13.565  70.496  1.00  0.00    -0.164 C  
HETATM   20  H   UNL     1      -5.737  15.089  71.738  1.00  0.00     0.000 HD 
HETATM   21  O   UNL     1      -5.622  14.927  70.809  1.00  0.00    -0.139 OA 
ENDBRANCH  18  19
ENDBRANCH   3  18
BRANCH   3  22
HETATM   22  S   UNL     1      -7.570  14.787  67.462  1.00  0.00    -0.200 SA 
BRANCH  22  23
HETATM   23  S   UNL     1      -8.699  15.578  68.985  1.00  0.00    -0.251 SA 
BRANCH  23  24
HETATM   24  C   UNL     1      -9.979  16.609  68.180  1.00  0.00    -0.259 C  
BRANCH  24  25
HETATM   25  C   UNL     1      -9.652  18.063  67.849  1.00  0.00    -0.284 C  
HETATM   26  O   UNL     1     -10.853  18.693  67.348  1.00  0.00    -0.439 OA 
HETATM   27  C   UNL     1      -8.970  19.678  66.285  1.00  0.00    -0.420 C  
HETATM   28  C   UNL     1     -10.481  19.695  66.390  1.00  0.00    -0.513 C  
HETATM   29  C   UNL     1      -8.613  18.288  66.764  1.00  0.00    -0.271 C  
ENDBRANCH  24  25
ENDBRANCH  23  24
ENDBRANCH  22  23
ENDBRANCH   3  22
TORSDOF 9
ENDMDL
MODEL      255
REMARK 921   NORMALIZED FREE ENERGY PREDICTED BY IDOCK:   -3.20 KCAL/MOL
REMARK 922        TOTAL FREE ENERGY PREDICTED BY IDOCK:   -6.12 KCAL/MOL
REMARK 923 INTER-LIGAND FREE ENERGY PREDICTED BY IDOCK:   -4.39 KCAL/MOL
REMARK 924 INTRA-LIGAND FREE ENERGY PREDICTED BY IDOCK:   -1.73 KCAL/MOL
REMARK 927      BINDING AFFINITY PREDICTED BY RF-SCORE:    0.00 PKD
ROOT
HETATM    1  C   UNL     1      -8.020   6.439  67.967  1.00  0.00    -0.109 C  
HETATM    2  C   UNL     1      -8.378   7.769  68.603  1.00  0.00    -0.129 C  
HETATM    3  C   UNL     1      -7.457   8.725  68.926  1.00  0.00    -0.083 C  
ENDROOT
BRANCH   2   4
HETATM    4  N   UNL     1      -9.760   7.954  68.719  1.00  0.00    -0.156 N  
HETATM    5  C   UNL     1     -10.397   7.760  69.936  1.00  0.00    -0.223 C  
HETATM    6  O   UNL     1     -11.606   7.873  70.119  1.00  0.00    -0.111 OA 
BRANCH   4   7
HETATM    7  C   UNL     1     -10.586   8.152  67.518  1.00  0.00    -0.221 C  
BRANCH   7   8
HETATM    8  C   UNL     1     -10.631   9.547  66.938  1.00  0.00    -0.241 A  
HETATM    9  H2  UNL     1      -9.103   8.246  65.195  1.00  0.00     0.000 HD 
HETATM   10  H1  UNL     1      -8.566   9.551  64.179  1.00  0.00     0.000 HD 
HETATM   11  N   UNL     1      -9.115   9.244  64.983  1.00  0.00    -0.212 NA 
HETATM   12  C   UNL     1      -9.824   9.997  65.758  1.00  0.00    -0.278 A  
HETATM   13  C   UNL     1     -11.204  10.575  67.612  1.00  0.00    -0.265 A  
HETATM   14  N   UNL     1     -11.078  11.934  67.367  1.00  0.00    -0.261 NA 
HETATM   15  C   UNL     1     -10.021  13.728  66.105  1.00  0.00    -0.318 C  
HETATM   16  N   UNL     1      -9.809  11.339  65.502  1.00  0.00    -0.220 NA 
HETATM   17  C   UNL     1     -10.357  12.270  66.334  1.00  0.00    -0.225 A  
ENDBRANCH   7   8
ENDBRANCH   4   7
ENDBRANCH   2   4
BRANCH   3  18
HETATM   18  C   UNL     1      -7.802  10.180  69.262  1.00  0.00    -0.134 C  
BRANCH  18  19
HETATM   19  C   UNL     1      -7.278  11.227  68.260  1.00  0.00    -0.080 C  
HETATM   20  H   UNL     1      -7.434  13.172  67.971  1.00  0.00     0.000 HD 
HETATM   21  O   UNL     1      -7.758  12.526  68.589  1.00  0.00    -0.120 OA 
ENDBRANCH  18  19
ENDBRANCH   3  18
BRANCH   3  22
HETATM   22  S   UNL     1      -5.744   8.275  68.905  1.00  0.00    -0.040 SA 
BRANCH  22  23
HETATM   23  S   UNL     1      -5.519   7.342  70.721  1.00  0.00    -0.027 SA 
BRANCH  23  24
HETATM   24  C   UNL     1      -6.398   8.390  71.937  1.00  0.00    -0.064 C  
BRANCH  24  25
HETATM   25  C   UNL     1      -7.281   7.717  72.986  1.00  0.00    -0.088 C  
HETATM   26  O   UNL     1      -7.541   6.362  72.553  1.00  0.00    -0.098 OA 
HETATM   27  C   UNL     1      -9.424   7.155  73.765  1.00  0.00    -0.286 C  
HETATM   28  C   UNL     1      -8.843   5.974  73.016  1.00  0.00    -0.121 C  
HETATM   29  C   UNL     1      -8.655   8.328  73.199  1.00  0.00    -0.278 C  
ENDBRANCH  24  25
ENDBRANCH  23  24
ENDBRANCH  22  23
ENDBRANCH   3  22
TORSDOF 9
ENDMDL
MODEL      256
REMARK 921   NORMALIZED FREE ENERGY PREDICTED BY IDOCK:   -3.19 KCAL/MOL
REMARK 922        TOTAL FREE ENERGY PREDICTED BY IDOCK:   -6.11 KCAL/MOL
REMARK 923 INTER-LIGAND FREE ENERGY PREDICTED BY IDOCK:   -5.60 KCAL/MOL
REMARK 924 INTRA-LIGAND FREE ENERGY PREDICTED BY IDOCK:   -0.51 KCAL/MOL
REMARK 927      BINDING AFFINITY PREDICTED BY RF-SCORE:    0.00 PKD
ROOT
HETATM    1  C   UNL     1      -7.377  11.325  66.720  1.00  0.00    -0.146 C  
HETATM    2  C   UNL     1      -8.593  10.463  66.437  1.00  0.00    -0.132 C  
HETATM    3  C   UNL     1      -8.857   9.290  67.085  1.00  0.00    -0.127 C  
ENDROOT
BRANCH   2   4
HETATM    4  N   UNL     1      -9.470  11.055  65.521  1.00  0.00    -0.208 N  
HETATM    5  C   UNL     1      -9.661  10.496  64.266  1.00  0.00    -0.307 C  
HETATM    6  O   UNL     1     -10.388  10.964  63.394  1.00  0.00    -0.337 OA 
BRANCH   4   7
HETATM    7  C   UNL     1     -10.041  12.384  65.792  1.00  0.00    -0.253 C  
BRANCH   7   8
HETATM    8  C   UNL     1     -10.834  12.543  67.068  1.00  0.00    -0.287 A  
HETATM    9  H2  UNL     1      -9.117  14.567  67.201  1.00  0.00     0.000 HD 
HETATM   10  H1  UNL     1      -9.421  15.161  68.806  1.00  0.00     0.000 HD 
HETATM   11  N   UNL     1      -9.639  14.485  68.074  1.00  0.00    -0.212 NA 
HETATM   12  C   UNL     1     -10.514  13.536  68.144  1.00  0.00    -0.244 A  
HETATM   13  C   UNL     1     -11.738  11.611  67.460  1.00  0.00    -0.214 A  
HETATM   14  N   UNL     1     -12.322  11.456  68.708  1.00  0.00    -0.419 NA 
HETATM   15  C   UNL     1     -12.448  12.143  71.041  1.00  0.00    -0.369 C  
HETATM   16  N   UNL     1     -11.186  13.399  69.325  1.00  0.00    -0.246 NA 
HETATM   17  C   UNL     1     -12.001  12.342  69.609  1.00  0.00    -0.274 A  
ENDBRANCH   7   8
ENDBRANCH   4   7
ENDBRANCH   2   4
BRANCH   3  18
HETATM   18  C   UNL     1     -10.209   8.571  67.059  1.00  0.00    -0.371 C  
BRANCH  18  19
HETATM   19  C   UNL     1     -10.177   7.132  66.509  1.00  0.00    -0.061 C  
HETATM   20  H   UNL     1     -11.118   5.429  66.831  1.00  0.00     0.000 HD 
HETATM   21  O   UNL     1     -11.138   6.315  67.170  1.00  0.00    -0.358 OA 
ENDBRANCH  18  19
ENDBRANCH   3  18
BRANCH   3  22
HETATM   22  S   UNL     1      -7.569   8.573  68.069  1.00  0.00    -0.099 SA 
BRANCH  22  23
HETATM   23  S   UNL     1      -8.613   7.274  69.270  1.00  0.00    -0.137 SA 
BRANCH  23  24
HETATM   24  C   UNL     1      -7.486   5.868  69.590  1.00  0.00    -0.076 C  
BRANCH  24  25
HETATM   25  C   UNL     1      -7.826   4.503  68.996  1.00  0.00    -0.070 C  
HETATM   26  O   UNL     1      -7.903   4.644  67.558  1.00  0.00    -0.089 OA 
HETATM   27  C   UNL     1      -9.438   2.967  68.248  1.00  0.00    -0.216 C  
HETATM   28  C   UNL     1      -8.877   3.715  67.058  1.00  0.00    -0.127 C  
HETATM   29  C   UNL     1      -9.164   3.908  69.400  1.00  0.00    -0.221 C  
ENDBRANCH  24  25
ENDBRANCH  23  24
ENDBRANCH  22  23
ENDBRANCH   3  22
TORSDOF 9
ENDMDL
MODEL      257
REMARK 921   NORMALIZED FREE ENERGY PREDICTED BY IDOCK:   -3.19 KCAL/MOL
REMARK 922        TOTAL FREE ENERGY PREDICTED BY IDOCK:   -6.11 KCAL/MOL
REMARK 923 INTER-LIGAND FREE ENERGY PREDICTED BY IDOCK:   -5.73 KCAL/MOL
REMARK 924 INTRA-LIGAND FREE ENERGY PREDICTED BY IDOCK:   -0.38 KCAL/MOL
REMARK 927      BINDING AFFINITY PREDICTED BY RF-SCORE:    0.00 PKD
ROOT
HETATM    1  C   UNL     1     -10.701   9.293  67.944  1.00  0.00    -0.248 C  
HETATM    2  C   UNL     1     -10.804   9.361  69.456  1.00  0.00    -0.213 C  
HETATM    3  C   UNL     1     -10.088   8.560  70.300  1.00  0.00    -0.186 C  
ENDROOT
BRANCH   2   4
HETATM    4  N   UNL     1     -11.624  10.408  69.892  1.00  0.00    -0.273 N  
HETATM    5  C   UNL     1     -12.264  10.336  71.120  1.00  0.00    -0.397 C  
HETATM    6  O   UNL     1     -13.021  11.194  71.567  1.00  0.00    -0.429 OA 
BRANCH   4   7
HETATM    7  C   UNL     1     -11.985  11.500  68.975  1.00  0.00    -0.311 C  
BRANCH   7   8
HETATM    8  C   UNL     1     -11.133  12.747  69.024  1.00  0.00    -0.285 A  
HETATM    9  H2  UNL     1     -13.303  13.479  70.373  1.00  0.00     0.000 HD 
HETATM   10  H1  UNL     1     -13.001  15.176  70.602  1.00  0.00     0.000 HD 
HETATM   11  N   UNL     1     -12.689  14.281  70.225  1.00  0.00    -0.314 NA 
HETATM   12  C   UNL     1     -11.592  14.063  69.578  1.00  0.00    -0.295 A  
HETATM   13  C   UNL     1      -9.978  12.843  68.320  1.00  0.00    -0.234 A  
HETATM   14  N   UNL     1      -9.246  13.984  68.027  1.00  0.00    -0.194 NA 
HETATM   15  C   UNL     1      -9.063  16.410  68.105  1.00  0.00    -0.201 C  
HETATM   16  N   UNL     1     -10.786  15.141  69.343  1.00  0.00    -0.250 NA 
HETATM   17  C   UNL     1      -9.695  15.101  68.526  1.00  0.00    -0.214 A  
ENDBRANCH   7   8
ENDBRANCH   4   7
ENDBRANCH   2   4
BRANCH   3  18
HETATM   18  C   UNL     1      -9.924   8.813  71.802  1.00  0.00    -0.396 C  
BRANCH  18  19
HETATM   19  C   UNL     1     -10.232   7.604  72.708  1.00  0.00    -0.279 C  
HETATM   20  H   UNL     1     -11.749   6.390  73.050  1.00  0.00     0.000 HD 
HETATM   21  O   UNL     1     -11.559   7.135  72.492  1.00  0.00    -0.275 OA 
ENDBRANCH  18  19
ENDBRANCH   3  18
BRANCH   3  22
HETATM   22  S   UNL     1      -9.247   7.162  69.609  1.00  0.00    -0.145 SA 
BRANCH  22  23
HETATM   23  S   UNL     1      -7.341   7.885  69.354  1.00  0.00    -0.083 SA 
BRANCH  23  24
HETATM   24  C   UNL     1      -6.867   7.459  67.639  1.00  0.00    -0.078 C  
BRANCH  24  25
HETATM   25  C   UNL     1      -7.292   6.106  67.073  1.00  0.00    -0.083 C  
HETATM   26  O   UNL     1      -6.173   5.550  66.345  1.00  0.00    -0.032 OA 
HETATM   27  C   UNL     1      -8.190   4.845  65.306  1.00  0.00    -0.122 C  
HETATM   28  C   UNL     1      -6.679   4.764  65.256  1.00  0.00    -0.048 C  
HETATM   29  C   UNL     1      -8.435   6.125  66.073  1.00  0.00    -0.141 C  
ENDBRANCH  24  25
ENDBRANCH  23  24
ENDBRANCH  22  23
ENDBRANCH   3  22
TORSDOF 9
ENDMDL
MODEL      258
REMARK 921   NORMALIZED FREE ENERGY PREDICTED BY IDOCK:   -3.17 KCAL/MOL
REMARK 922        TOTAL FREE ENERGY PREDICTED BY IDOCK:   -6.08 KCAL/MOL
REMARK 923 INTER-LIGAND FREE ENERGY PREDICTED BY IDOCK:   -6.95 KCAL/MOL
REMARK 924 INTRA-LIGAND FREE ENERGY PREDICTED BY IDOCK:    0.87 KCAL/MOL
REMARK 927      BINDING AFFINITY PREDICTED BY RF-SCORE:    0.00 PKD
ROOT
HETATM    1  C   UNL     1      -7.929  14.108  67.368  1.00  0.00    -0.201 C  
HETATM    2  C   UNL     1      -9.427  14.071  67.129  1.00  0.00    -0.241 C  
HETATM    3  C   UNL     1     -10.219  13.008  67.456  1.00  0.00    -0.221 C  
ENDROOT
BRANCH   2   4
HETATM    4  N   UNL     1      -9.923  15.286  66.644  1.00  0.00    -0.246 N  
HETATM    5  C   UNL     1     -10.175  15.453  65.290  1.00  0.00    -0.357 C  
HETATM    6  O   UNL     1     -10.583  16.491  64.776  1.00  0.00    -0.684 OA 
BRANCH   4   7
HETATM    7  C   UNL     1      -9.990  16.466  67.520  1.00  0.00    -0.250 C  
BRANCH   7   8
HETATM    8  C   UNL     1      -9.158  17.664  67.123  1.00  0.00    -0.247 A  
HETATM    9  H2  UNL     1      -7.398  15.676  67.003  1.00  0.00     0.000 HD 
HETATM   10  H1  UNL     1      -5.921  16.551  66.728  1.00  0.00     0.000 HD 
HETATM   11  N   UNL     1      -6.931  16.574  66.874  1.00  0.00    -0.214 NA 
HETATM   12  C   UNL     1      -7.675  17.630  66.910  1.00  0.00    -0.216 A  
HETATM   13  C   UNL     1      -9.654  18.924  67.195  1.00  0.00    -0.306 A  
HETATM   14  N   UNL     1      -8.957  20.122  67.152  1.00  0.00    -0.346 NA 
HETATM   15  C   UNL     1      -6.815  21.277  67.096  1.00  0.00    -0.322 C  
HETATM   16  N   UNL     1      -7.047  18.836  66.778  1.00  0.00    -0.209 NA 
HETATM   17  C   UNL     1      -7.669  20.034  66.974  1.00  0.00    -0.294 A  
ENDBRANCH   7   8
ENDBRANCH   4   7
ENDBRANCH   2   4
BRANCH   3  18
HETATM   18  C   UNL     1     -11.748  13.057  67.528  1.00  0.00    -0.421 C  
BRANCH  18  19
HETATM   19  C   UNL     1     -12.454  13.483  66.226  1.00  0.00    -0.326 C  
HETATM   20  H   UNL     1     -13.080  12.628  64.562  1.00  0.00     0.000 HD 
HETATM   21  O   UNL     1     -12.645  12.366  65.364  1.00  0.00    -0.637 OA 
ENDBRANCH  18  19
ENDBRANCH   3  18
BRANCH   3  22
HETATM   22  S   UNL     1      -9.430  11.478  67.876  1.00  0.00    -0.183 SA 
BRANCH  22  23
HETATM   23  S   UNL     1     -10.374  10.146  66.630  1.00  0.00    -0.183 SA 
BRANCH  23  24
HETATM   24  C   UNL     1     -10.527   8.589  67.580  1.00  0.00    -0.258 C  
BRANCH  24  25
HETATM   25  C   UNL     1      -9.409   7.554  67.480  1.00  0.00    -0.138 C  
HETATM   26  O   UNL     1      -8.342   7.956  68.371  1.00  0.00    -0.123 OA 
HETATM   27  C   UNL     1      -7.399   6.836  66.500  1.00  0.00    -0.074 C  
HETATM   28  C   UNL     1      -7.092   7.529  67.810  1.00  0.00    -0.085 C  
HETATM   29  C   UNL     1      -8.746   7.409  66.121  1.00  0.00    -0.172 C  
ENDBRANCH  24  25
ENDBRANCH  23  24
ENDBRANCH  22  23
ENDBRANCH   3  22
TORSDOF 9
ENDMDL
MODEL      259
REMARK 921   NORMALIZED FREE ENERGY PREDICTED BY IDOCK:   -3.17 KCAL/MOL
REMARK 922        TOTAL FREE ENERGY PREDICTED BY IDOCK:   -6.08 KCAL/MOL
REMARK 923 INTER-LIGAND FREE ENERGY PREDICTED BY IDOCK:   -5.33 KCAL/MOL
REMARK 924 INTRA-LIGAND FREE ENERGY PREDICTED BY IDOCK:   -0.75 KCAL/MOL
REMARK 927      BINDING AFFINITY PREDICTED BY RF-SCORE:    0.00 PKD
ROOT
HETATM    1  C   UNL     1      -9.852   9.729  66.198  1.00  0.00    -0.329 C  
HETATM    2  C   UNL     1      -9.762   9.887  67.705  1.00  0.00    -0.155 C  
HETATM    3  C   UNL     1      -9.959   8.862  68.586  1.00  0.00    -0.177 C  
ENDROOT
BRANCH   2   4
HETATM    4  N   UNL     1      -9.344  11.167  68.086  1.00  0.00    -0.170 N  
HETATM    5  C   UNL     1      -7.995  11.489  68.110  1.00  0.00    -0.136 C  
HETATM    6  O   UNL     1      -7.541  12.576  68.457  1.00  0.00    -0.123 OA 
BRANCH   4   7
HETATM    7  C   UNL     1     -10.304  12.121  68.663  1.00  0.00    -0.195 C  
BRANCH   7   8
HETATM    8  C   UNL     1     -10.723  13.284  67.793  1.00  0.00    -0.256 A  
HETATM    9  H2  UNL     1     -12.130  11.270  66.779  1.00  0.00     0.000 HD 
HETATM   10  H1  UNL     1     -12.822  12.018  65.371  1.00  0.00     0.000 HD 
HETATM   11  N   UNL     1     -12.229  12.102  66.197  1.00  0.00    -0.514 NA 
HETATM   12  C   UNL     1     -11.593  13.160  66.578  1.00  0.00    -0.356 A  
HETATM   13  C   UNL     1     -10.118  14.494  67.891  1.00  0.00    -0.227 A  
HETATM   14  N   UNL     1     -10.174  15.553  66.997  1.00  0.00    -0.265 NA 
HETATM   15  C   UNL     1     -10.913  16.417  64.845  1.00  0.00    -0.277 C  
HETATM   16  N   UNL     1     -11.691  14.264  65.780  1.00  0.00    -0.351 NA 
HETATM   17  C   UNL     1     -10.938  15.388  65.954  1.00  0.00    -0.293 A  
ENDBRANCH   7   8
ENDBRANCH   4   7
ENDBRANCH   2   4
BRANCH   3  18
HETATM   18  C   UNL     1      -9.566   8.905  70.066  1.00  0.00    -0.190 C  
BRANCH  18  19
HETATM   19  C   UNL     1      -8.068   8.688  70.354  1.00  0.00    -0.107 C  
HETATM   20  H   UNL     1      -6.585   9.689  71.185  1.00  0.00     0.000 HD 
HETATM   21  O   UNL     1      -7.508   9.823  71.007  1.00  0.00    -0.318 OA 
ENDBRANCH  18  19
ENDBRANCH   3  18
BRANCH   3  22
HETATM   22  S   UNL     1     -10.668   7.359  67.972  1.00  0.00    -0.075 SA 
BRANCH  22  23
HETATM   23  S   UNL     1     -10.317   6.052  69.517  1.00  0.00    -0.262 SA 
BRANCH  23  24
HETATM   24  C   UNL     1      -9.656   4.528  68.748  1.00  0.00    -0.159 C  
BRANCH  24  25
HETATM   25  C   UNL     1      -8.222   4.531  68.225  1.00  0.00    -0.090 C  
HETATM   26  O   UNL     1      -7.604   5.781  68.611  1.00  0.00    -0.086 OA 
HETATM   27  C   UNL     1      -6.687   5.081  66.534  1.00  0.00    -0.061 C  
HETATM   28  C   UNL     1      -6.650   6.152  67.604  1.00  0.00    -0.056 C  
HETATM   29  C   UNL     1      -8.056   4.466  66.716  1.00  0.00    -0.102 C  
ENDBRANCH  24  25
ENDBRANCH  23  24
ENDBRANCH  22  23
ENDBRANCH   3  22
TORSDOF 9
ENDMDL
MODEL      260
REMARK 921   NORMALIZED FREE ENERGY PREDICTED BY IDOCK:   -3.17 KCAL/MOL
REMARK 922        TOTAL FREE ENERGY PREDICTED BY IDOCK:   -6.08 KCAL/MOL
REMARK 923 INTER-LIGAND FREE ENERGY PREDICTED BY IDOCK:   -5.97 KCAL/MOL
REMARK 924 INTRA-LIGAND FREE ENERGY PREDICTED BY IDOCK:   -0.11 KCAL/MOL
REMARK 927      BINDING AFFINITY PREDICTED BY RF-SCORE:    0.00 PKD
ROOT
HETATM    1  C   UNL     1     -11.747  10.863  67.753  1.00  0.00    -0.086 C  
HETATM    2  C   UNL     1     -10.580  11.299  66.886  1.00  0.00    -0.257 C  
HETATM    3  C   UNL     1      -9.435  10.570  66.736  1.00  0.00    -0.163 C  
ENDROOT
BRANCH   2   4
HETATM    4  N   UNL     1     -10.851  12.470  66.170  1.00  0.00    -0.266 N  
HETATM    5  C   UNL     1     -10.732  12.494  64.788  1.00  0.00    -0.302 C  
HETATM    6  O   UNL     1     -10.923  13.483  64.086  1.00  0.00    -0.367 OA 
BRANCH   4   7
HETATM    7  C   UNL     1     -11.064  13.742  66.878  1.00  0.00    -0.302 C  
BRANCH   7   8
HETATM    8  C   UNL     1      -9.841  14.583  67.160  1.00  0.00    -0.245 A  
HETATM    9  H2  UNL     1     -11.005  15.909  65.172  1.00  0.00     0.000 HD 
HETATM   10  H1  UNL     1      -9.799  17.110  64.818  1.00  0.00     0.000 HD 
HETATM   11  N   UNL     1     -10.090  16.310  65.381  1.00  0.00    -0.547 NA 
HETATM   12  C   UNL     1      -9.413  15.757  66.333  1.00  0.00    -0.297 A  
HETATM   13  C   UNL     1      -8.885  14.171  68.030  1.00  0.00    -0.182 A  
HETATM   14  N   UNL     1      -7.598  14.664  68.182  1.00  0.00    -0.112 NA 
HETATM   15  C   UNL     1      -5.840  16.158  67.404  1.00  0.00    -0.166 C  
HETATM   16  N   UNL     1      -8.172  16.266  66.587  1.00  0.00    -0.251 NA 
HETATM   17  C   UNL     1      -7.276  15.679  67.431  1.00  0.00    -0.208 A  
ENDBRANCH   7   8
ENDBRANCH   4   7
ENDBRANCH   2   4
BRANCH   3  18
HETATM   18  C   UNL     1      -8.392  10.811  65.641  1.00  0.00    -0.144 C  
BRANCH  18  19
HETATM   19  C   UNL     1      -7.878   9.541  64.933  1.00  0.00    -0.119 C  
HETATM   20  H   UNL     1      -8.177   8.607  63.222  1.00  0.00     0.000 HD 
HETATM   21  O   UNL     1      -8.494   9.389  63.658  1.00  0.00    -0.176 OA 
ENDBRANCH  18  19
ENDBRANCH   3  18
BRANCH   3  22
HETATM   22  S   UNL     1      -9.155   9.219  67.848  1.00  0.00    -0.126 SA 
BRANCH  22  23
HETATM   23  S   UNL     1      -9.096  10.163  69.672  1.00  0.00    -0.123 SA 
BRANCH  23  24
HETATM   24  C   UNL     1     -10.525   9.520  70.618  1.00  0.00    -0.308 C  
BRANCH  24  25
HETATM   25  C   UNL     1     -10.426   8.132  71.246  1.00  0.00    -0.209 C  
HETATM   26  O   UNL     1     -11.266   8.109  72.423  1.00  0.00    -0.330 OA 
HETATM   27  C   UNL     1      -9.407   6.673  72.779  1.00  0.00    -0.149 C  
HETATM   28  C   UNL     1     -10.680   7.221  73.388  1.00  0.00    -0.369 C  
HETATM   29  C   UNL     1      -9.052   7.714  71.740  1.00  0.00    -0.161 C  
ENDBRANCH  24  25
ENDBRANCH  23  24
ENDBRANCH  22  23
ENDBRANCH   3  22
TORSDOF 9
ENDMDL
MODEL      261
REMARK 921   NORMALIZED FREE ENERGY PREDICTED BY IDOCK:   -3.17 KCAL/MOL
REMARK 922        TOTAL FREE ENERGY PREDICTED BY IDOCK:   -6.07 KCAL/MOL
REMARK 923 INTER-LIGAND FREE ENERGY PREDICTED BY IDOCK:   -5.03 KCAL/MOL
REMARK 924 INTRA-LIGAND FREE ENERGY PREDICTED BY IDOCK:   -1.04 KCAL/MOL
REMARK 927      BINDING AFFINITY PREDICTED BY RF-SCORE:    0.00 PKD
ROOT
HETATM    1  C   UNL     1     -13.535   8.724  71.387  1.00  0.00    -0.286 C  
HETATM    2  C   UNL     1     -12.205   9.450  71.304  1.00  0.00    -0.345 C  
HETATM    3  C   UNL     1     -11.013   8.887  71.659  1.00  0.00    -0.345 C  
ENDROOT
BRANCH   2   4
HETATM    4  N   UNL     1     -12.321  10.715  70.718  1.00  0.00    -0.342 N  
HETATM    5  C   UNL     1     -12.444  11.848  71.509  1.00  0.00    -0.080 C  
HETATM    6  O   UNL     1     -12.578  12.991  71.080  1.00  0.00    -0.364 OA 
BRANCH   4   7
HETATM    7  C   UNL     1     -12.521  10.848  69.267  1.00  0.00     0.121 C  
BRANCH   7   8
HETATM    8  C   UNL     1     -11.295  10.727  68.391  1.00  0.00    -0.367 A  
HETATM    9  H2  UNL     1     -11.254  13.292  69.089  1.00  0.00     0.000 HD 
HETATM   10  H1  UNL     1      -9.960  13.890  68.095  1.00  0.00     0.000 HD 
HETATM   11  N   UNL     1     -10.537  13.102  68.389  1.00  0.00    -0.246 NA 
HETATM   12  C   UNL     1     -10.448  11.886  67.959  1.00  0.00    -0.208 A  
HETATM   13  C   UNL     1     -11.026   9.589  67.705  1.00  0.00    -0.081 A  
HETATM   14  N   UNL     1     -10.133   9.412  66.659  1.00  0.00    -0.254 NA 
HETATM   15  C   UNL     1      -8.568  10.396  65.075  1.00  0.00    -0.190 C  
HETATM   16  N   UNL     1      -9.516  11.637  66.992  1.00  0.00    -0.180 NA 
HETATM   17  C   UNL     1      -9.429  10.454  66.318  1.00  0.00    -0.171 A  
ENDBRANCH   7   8
ENDBRANCH   4   7
ENDBRANCH   2   4
BRANCH   3  18
HETATM   18  C   UNL     1      -9.641   9.462  71.292  1.00  0.00    -0.161 C  
BRANCH  18  19
HETATM   19  C   UNL     1      -8.972   8.826  70.057  1.00  0.00    -0.158 C  
HETATM   20  H   UNL     1      -7.558   9.295  68.764  1.00  0.00     0.000 HD 
HETATM   21  O   UNL     1      -7.970   9.687  69.525  1.00  0.00    -0.099 OA 
ENDBRANCH  18  19
ENDBRANCH   3  18
BRANCH   3  22
HETATM   22  S   UNL     1     -11.046   7.362  72.561  1.00  0.00    -0.329 SA 
BRANCH  22  23
HETATM   23  S   UNL     1     -11.083   5.968  71.052  1.00  0.00    -0.253 SA 
BRANCH  23  24
HETATM   24  C   UNL     1      -9.391   5.274  70.966  1.00  0.00    -0.150 C  
BRANCH  24  25
HETATM   25  C   UNL     1      -9.183   3.801  71.306  1.00  0.00    -0.128 C  
HETATM   26  O   UNL     1      -9.327   3.032  70.090  1.00  0.00    -0.142 OA 
HETATM   27  C   UNL     1     -10.082   1.719  71.920  1.00  0.00    -0.218 C  
HETATM   28  C   UNL     1      -9.871   1.745  70.421  1.00  0.00     0.119 C  
HETATM   29  C   UNL     1     -10.179   3.186  72.275  1.00  0.00    -0.173 C  
ENDBRANCH  24  25
ENDBRANCH  23  24
ENDBRANCH  22  23
ENDBRANCH   3  22
TORSDOF 9
ENDMDL
MODEL      262
REMARK 921   NORMALIZED FREE ENERGY PREDICTED BY IDOCK:   -3.16 KCAL/MOL
REMARK 922        TOTAL FREE ENERGY PREDICTED BY IDOCK:   -6.06 KCAL/MOL
REMARK 923 INTER-LIGAND FREE ENERGY PREDICTED BY IDOCK:   -5.09 KCAL/MOL
REMARK 924 INTRA-LIGAND FREE ENERGY PREDICTED BY IDOCK:   -0.98 KCAL/MOL
REMARK 927      BINDING AFFINITY PREDICTED BY RF-SCORE:    0.00 PKD
ROOT
HETATM    1  C   UNL     1     -10.548   8.088  67.429  1.00  0.00    -0.337 C  
HETATM    2  C   UNL     1      -9.084   8.467  67.559  1.00  0.00    -0.134 C  
HETATM    3  C   UNL     1      -8.614   9.371  68.467  1.00  0.00    -0.123 C  
ENDROOT
BRANCH   2   4
HETATM    4  N   UNL     1      -8.258   7.707  66.724  1.00  0.00    -0.121 N  
HETATM    5  C   UNL     1      -8.379   7.795  65.344  1.00  0.00    -0.136 C  
HETATM    6  O   UNL     1      -7.715   7.145  64.541  1.00  0.00    -0.101 OA 
BRANCH   4   7
HETATM    7  C   UNL     1      -7.397   6.655  67.287  1.00  0.00    -0.090 C  
BRANCH   7   8
HETATM    8  C   UNL     1      -7.975   5.821  68.406  1.00  0.00    -0.104 A  
HETATM    9  H2  UNL     1      -9.359   4.990  66.295  1.00  0.00     0.000 HD 
HETATM   10  H1  UNL     1     -10.544   3.967  67.050  1.00  0.00     0.000 HD 
HETATM   11  N   UNL     1      -9.740   4.587  67.151  1.00  0.00    -0.189 NA 
HETATM   12  C   UNL     1      -9.157   4.910  68.258  1.00  0.00    -0.114 A  
HETATM   13  C   UNL     1      -7.635   6.040  69.701  1.00  0.00    -0.089 A  
HETATM   14  N   UNL     1      -8.271   5.579  70.843  1.00  0.00    -0.116 NA 
HETATM   15  C   UNL     1     -10.155   4.401  71.838  1.00  0.00    -0.245 C  
HETATM   16  N   UNL     1      -9.690   4.405  69.410  1.00  0.00    -0.199 NA 
HETATM   17  C   UNL     1      -9.298   4.799  70.656  1.00  0.00    -0.154 A  
ENDBRANCH   7   8
ENDBRANCH   4   7
ENDBRANCH   2   4
BRANCH   3  18
HETATM   18  C   UNL     1      -7.138   9.537  68.840  1.00  0.00    -0.067 C  
BRANCH  18  19
HETATM   19  C   UNL     1      -6.350  10.538  67.973  1.00  0.00    -0.058 C  
HETATM   20  H   UNL     1      -5.223  10.492  66.355  1.00  0.00     0.000 HD 
HETATM   21  O   UNL     1      -5.708   9.874  66.889  1.00  0.00    -0.049 OA 
ENDBRANCH  18  19
ENDBRANCH   3  18
BRANCH   3  22
HETATM   22  S   UNL     1      -9.790  10.390  69.315  1.00  0.00    -0.209 SA 
BRANCH  22  23
HETATM   23  S   UNL     1      -9.868  12.054  68.113  1.00  0.00    -0.204 SA 
BRANCH  23  24
HETATM   24  C   UNL     1     -11.234  11.758  66.931  1.00  0.00    -0.327 C  
BRANCH  24  25
HETATM   25  C   UNL     1     -11.235  12.514  65.605  1.00  0.00    -0.317 C  
HETATM   26  O   UNL     1     -10.676  13.828  65.833  1.00  0.00    -0.279 OA 
HETATM   27  C   UNL     1     -12.306  13.978  64.112  1.00  0.00    -0.374 C  
HETATM   28  C   UNL     1     -11.300  14.756  64.934  1.00  0.00    -0.410 C  
HETATM   29  C   UNL     1     -12.596  12.774  64.980  1.00  0.00    -0.538 C  
ENDBRANCH  24  25
ENDBRANCH  23  24
ENDBRANCH  22  23
ENDBRANCH   3  22
TORSDOF 9
ENDMDL
MODEL      263
REMARK 921   NORMALIZED FREE ENERGY PREDICTED BY IDOCK:   -3.15 KCAL/MOL
REMARK 922        TOTAL FREE ENERGY PREDICTED BY IDOCK:   -6.05 KCAL/MOL
REMARK 923 INTER-LIGAND FREE ENERGY PREDICTED BY IDOCK:   -5.41 KCAL/MOL
REMARK 924 INTRA-LIGAND FREE ENERGY PREDICTED BY IDOCK:   -0.64 KCAL/MOL
REMARK 927      BINDING AFFINITY PREDICTED BY RF-SCORE:    0.00 PKD
ROOT
HETATM    1  C   UNL     1     -11.014   6.726  66.878  1.00  0.00    -0.370 C  
HETATM    2  C   UNL     1      -9.619   6.934  67.437  1.00  0.00    -0.136 C  
HETATM    3  C   UNL     1      -9.182   6.381  68.606  1.00  0.00    -0.125 C  
ENDROOT
BRANCH   2   4
HETATM    4  N   UNL     1      -8.796   7.658  66.568  1.00  0.00    -0.140 N  
HETATM    5  C   UNL     1      -8.230   7.046  65.458  1.00  0.00    -0.135 C  
HETATM    6  O   UNL     1      -7.477   7.598  64.662  1.00  0.00    -0.082 OA 
BRANCH   4   7
HETATM    7  C   UNL     1      -8.350   9.015  66.923  1.00  0.00    -0.119 C  
BRANCH   7   8
HETATM    8  C   UNL     1      -9.155  10.168  66.371  1.00  0.00    -0.176 A  
HETATM    9  H2  UNL     1      -8.673  10.944  68.867  1.00  0.00     0.000 HD 
HETATM   10  H1  UNL     1      -9.653  12.377  68.969  1.00  0.00     0.000 HD 
HETATM   11  N   UNL     1      -9.322  11.588  68.413  1.00  0.00    -0.192 NA 
HETATM   12  C   UNL     1      -9.643  11.326  67.189  1.00  0.00    -0.177 A  
HETATM   13  C   UNL     1      -9.730  10.106  65.145  1.00  0.00    -0.304 A  
HETATM   14  N   UNL     1     -10.715  10.929  64.619  1.00  0.00    -0.264 NA 
HETATM   15  C   UNL     1     -12.302  12.744  64.955  1.00  0.00    -0.551 C  
HETATM   16  N   UNL     1     -10.542  12.163  66.591  1.00  0.00    -0.230 NA 
HETATM   17  C   UNL     1     -11.109  11.914  65.376  1.00  0.00    -0.306 A  
ENDBRANCH   7   8
ENDBRANCH   4   7
ENDBRANCH   2   4
BRANCH   3  18
HETATM   18  C   UNL     1      -7.712   6.302  69.031  1.00  0.00    -0.100 C  
BRANCH  18  19
HETATM   19  C   UNL     1      -6.986   4.998  68.645  1.00  0.00    -0.056 C  
HETATM   20  H   UNL     1      -6.986   3.724  67.139  1.00  0.00     0.000 HD 
HETATM   21  O   UNL     1      -7.433   4.527  67.378  1.00  0.00    -0.073 OA 
ENDBRANCH  18  19
ENDBRANCH   3  18
BRANCH   3  22
HETATM   22  S   UNL     1     -10.385   5.656  69.686  1.00  0.00    -0.301 SA 
BRANCH  22  23
HETATM   23  S   UNL     1     -11.046   7.283  70.752  1.00  0.00    -0.274 SA 
BRANCH  23  24
HETATM   24  C   UNL     1     -10.040   7.326  72.280  1.00  0.00    -0.189 C  
BRANCH  24  25
HETATM   25  C   UNL     1     -10.057   6.113  73.207  1.00  0.00    -0.196 C  
HETATM   26  O   UNL     1      -8.877   5.323  72.937  1.00  0.00    -0.122 OA 
HETATM   27  C   UNL     1     -10.638   3.870  73.592  1.00  0.00    -0.289 C  
HETATM   28  C   UNL     1      -9.187   3.940  73.167  1.00  0.00    -0.106 C  
HETATM   29  C   UNL     1     -11.219   5.149  73.032  1.00  0.00    -0.390 C  
ENDBRANCH  24  25
ENDBRANCH  23  24
ENDBRANCH  22  23
ENDBRANCH   3  22
TORSDOF 9
ENDMDL
MODEL      264
REMARK 921   NORMALIZED FREE ENERGY PREDICTED BY IDOCK:   -3.15 KCAL/MOL
REMARK 922        TOTAL FREE ENERGY PREDICTED BY IDOCK:   -6.04 KCAL/MOL
REMARK 923 INTER-LIGAND FREE ENERGY PREDICTED BY IDOCK:   -5.78 KCAL/MOL
REMARK 924 INTRA-LIGAND FREE ENERGY PREDICTED BY IDOCK:   -0.26 KCAL/MOL
REMARK 927      BINDING AFFINITY PREDICTED BY RF-SCORE:    0.00 PKD
ROOT
HETATM    1  C   UNL     1      -8.268  10.488  67.586  1.00  0.00    -0.111 C  
HETATM    2  C   UNL     1      -9.070  11.727  67.938  1.00  0.00    -0.181 C  
HETATM    3  C   UNL     1     -10.221  11.699  68.672  1.00  0.00    -0.206 C  
ENDROOT
BRANCH   2   4
HETATM    4  N   UNL     1      -8.441  12.907  67.527  1.00  0.00    -0.174 N  
HETATM    5  C   UNL     1      -7.093  13.112  67.781  1.00  0.00    -0.148 C  
HETATM    6  O   UNL     1      -6.470  14.127  67.481  1.00  0.00    -0.264 OA 
BRANCH   4   7
HETATM    7  C   UNL     1      -9.236  14.031  67.007  1.00  0.00    -0.254 C  
BRANCH   7   8
HETATM    8  C   UNL     1     -10.182  13.733  65.867  1.00  0.00    -0.322 A  
HETATM    9  H2  UNL     1     -11.707  15.138  67.530  1.00  0.00     0.000 HD 
HETATM   10  H1  UNL     1     -13.263  14.986  66.769  1.00  0.00     0.000 HD 
HETATM   11  N   UNL     1     -12.267  14.764  66.763  1.00  0.00    -0.120 NA 
HETATM   12  C   UNL     1     -11.646  14.058  65.877  1.00  0.00    -0.347 A  
HETATM   13  C   UNL     1      -9.831  12.901  64.856  1.00  0.00    -0.026 A  
HETATM   14  N   UNL     1     -10.655  12.305  63.913  1.00  0.00    -0.389 NA 
HETATM   15  C   UNL     1     -12.909  11.872  63.102  1.00  0.00    -0.160 C  
HETATM   16  N   UNL     1     -12.398  13.523  64.871  1.00  0.00    -0.471 NA 
HETATM   17  C   UNL     1     -11.919  12.615  63.973  1.00  0.00    -0.451 A  
ENDBRANCH   7   8
ENDBRANCH   4   7
ENDBRANCH   2   4
BRANCH   3  18
HETATM   18  C   UNL     1     -10.871  12.931  69.310  1.00  0.00    -0.040 C  
BRANCH  18  19
HETATM   19  C   UNL     1     -12.154  12.652  70.117  1.00  0.00    -0.294 C  
HETATM   20  H   UNL     1     -13.078  13.404  71.689  1.00  0.00     0.000 HD 
HETATM   21  O   UNL     1     -12.286  13.576  71.193  1.00  0.00    -0.354 OA 
ENDBRANCH  18  19
ENDBRANCH   3  18
BRANCH   3  22
HETATM   22  S   UNL     1     -10.994  10.130  68.953  1.00  0.00    -0.205 SA 
BRANCH  22  23
HETATM   23  S   UNL     1     -10.276   9.619  70.808  1.00  0.00    -0.192 SA 
BRANCH  23  24
HETATM   24  C   UNL     1      -9.015   8.324  70.521  1.00  0.00    -0.147 C  
BRANCH  24  25
HETATM   25  C   UNL     1      -9.168   6.979  71.226  1.00  0.00    -0.152 C  
HETATM   26  O   UNL     1      -8.386   5.999  70.504  1.00  0.00    -0.123 OA 
HETATM   27  C   UNL     1     -10.285   4.924  71.442  1.00  0.00    -0.257 C  
HETATM   28  C   UNL     1      -9.032   4.723  70.616  1.00  0.00    -0.121 C  
HETATM   29  C   UNL     1     -10.571   6.399  71.271  1.00  0.00    -0.275 C  
ENDBRANCH  24  25
ENDBRANCH  23  24
ENDBRANCH  22  23
ENDBRANCH   3  22
TORSDOF 9
ENDMDL
MODEL      265
REMARK 921   NORMALIZED FREE ENERGY PREDICTED BY IDOCK:   -3.14 KCAL/MOL
REMARK 922        TOTAL FREE ENERGY PREDICTED BY IDOCK:   -6.04 KCAL/MOL
REMARK 923 INTER-LIGAND FREE ENERGY PREDICTED BY IDOCK:   -5.24 KCAL/MOL
REMARK 924 INTRA-LIGAND FREE ENERGY PREDICTED BY IDOCK:   -0.80 KCAL/MOL
REMARK 927      BINDING AFFINITY PREDICTED BY RF-SCORE:    0.00 PKD
ROOT
HETATM    1  C   UNL     1     -11.613  11.405  66.812  1.00  0.00    -0.038 C  
HETATM    2  C   UNL     1     -11.624  12.035  68.193  1.00  0.00    -0.340 C  
HETATM    3  C   UNL     1     -11.848  13.363  68.417  1.00  0.00    -0.366 C  
ENDROOT
BRANCH   2   4
HETATM    4  N   UNL     1     -11.492  11.089  69.215  1.00  0.00    -0.272 N  
HETATM    5  C   UNL     1     -12.571  10.779  70.031  1.00  0.00    -0.181 C  
HETATM    6  O   UNL     1     -12.536   9.983  70.966  1.00  0.00    -0.316 OA 
BRANCH   4   7
HETATM    7  C   UNL     1     -10.167  10.562  69.574  1.00  0.00    -0.200 C  
BRANCH   7   8
HETATM    8  C   UNL     1      -9.648   9.397  68.763  1.00  0.00    -0.156 A  
HETATM    9  H2  UNL     1     -11.518   8.260  70.271  1.00  0.00     0.000 HD 
HETATM   10  H1  UNL     1     -11.273   6.580  69.901  1.00  0.00     0.000 HD 
HETATM   11  N   UNL     1     -10.997   7.551  69.755  1.00  0.00    -0.223 NA 
HETATM   12  C   UNL     1     -10.052   7.970  68.979  1.00  0.00    -0.201 A  
HETATM   13  C   UNL     1      -8.567   9.525  67.954  1.00  0.00    -0.119 A  
HETATM   14  N   UNL     1      -7.802   8.519  67.383  1.00  0.00    -0.098 NA 
HETATM   15  C   UNL     1      -7.315   6.142  67.178  1.00  0.00    -0.076 C  
HETATM   16  N   UNL     1      -9.326   7.021  68.317  1.00  0.00    -0.127 NA 
HETATM   17  C   UNL     1      -8.193   7.297  67.610  1.00  0.00    -0.114 A  
ENDBRANCH   7   8
ENDBRANCH   4   7
ENDBRANCH   2   4
BRANCH   3  18
HETATM   18  C   UNL     1     -12.182  13.966  69.785  1.00  0.00    -0.388 C  
BRANCH  18  19
HETATM   19  C   UNL     1     -12.163  15.507  69.845  1.00  0.00    -0.325 C  
HETATM   20  H   UNL     1     -10.985  16.921  70.554  1.00  0.00     0.000 HD 
HETATM   21  O   UNL     1     -10.997  15.972  70.518  1.00  0.00    -0.335 OA 
ENDBRANCH  18  19
ENDBRANCH   3  18
BRANCH   3  22
HETATM   22  S   UNL     1     -11.803  14.462  67.028  1.00  0.00    -0.384 SA 
BRANCH  22  23
HETATM   23  S   UNL     1      -9.915  15.261  67.168  1.00  0.00    -0.236 SA 
BRANCH  23  24
HETATM   24  C   UNL     1      -8.790  13.845  67.449  1.00  0.00    -0.207 C  
BRANCH  24  25
HETATM   25  C   UNL     1      -8.118  13.699  68.812  1.00  0.00     0.001 C  
HETATM   26  O   UNL     1      -7.835  15.024  69.320  1.00  0.00    -0.176 OA 
HETATM   27  C   UNL     1      -6.157  13.531  70.094  1.00  0.00    -0.123 C  
HETATM   28  C   UNL     1      -6.642  14.965  70.116  1.00  0.00    -0.139 C  
HETATM   29  C   UNL     1      -6.779  12.982  68.829  1.00  0.00    -0.100 C  
ENDBRANCH  24  25
ENDBRANCH  23  24
ENDBRANCH  22  23
ENDBRANCH   3  22
TORSDOF 9
ENDMDL
MODEL      266
REMARK 921   NORMALIZED FREE ENERGY PREDICTED BY IDOCK:   -3.14 KCAL/MOL
REMARK 922        TOTAL FREE ENERGY PREDICTED BY IDOCK:   -6.03 KCAL/MOL
REMARK 923 INTER-LIGAND FREE ENERGY PREDICTED BY IDOCK:   -5.28 KCAL/MOL
REMARK 924 INTRA-LIGAND FREE ENERGY PREDICTED BY IDOCK:   -0.75 KCAL/MOL
REMARK 927      BINDING AFFINITY PREDICTED BY RF-SCORE:    0.00 PKD
ROOT
HETATM    1  C   UNL     1     -10.568   8.097  67.145  1.00  0.00    -0.355 C  
HETATM    2  C   UNL     1      -9.672   9.237  67.593  1.00  0.00    -0.157 C  
HETATM    3  C   UNL     1      -9.578  10.429  66.934  1.00  0.00    -0.172 C  
ENDROOT
BRANCH   2   4
HETATM    4  N   UNL     1      -9.041   8.975  68.815  1.00  0.00    -0.136 N  
HETATM    5  C   UNL     1      -8.008   8.052  68.890  1.00  0.00    -0.118 C  
HETATM    6  O   UNL     1      -7.420   7.742  69.922  1.00  0.00    -0.078 OA 
BRANCH   4   7
HETATM    7  C   UNL     1      -9.593   9.514  70.067  1.00  0.00    -0.238 C  
BRANCH   7   8
HETATM    8  C   UNL     1     -10.215   8.525  71.025  1.00  0.00    -0.255 A  
HETATM    9  H2  UNL     1      -8.184   9.495  72.438  1.00  0.00     0.000 HD 
HETATM   10  H1  UNL     1      -8.222   8.462  73.836  1.00  0.00     0.000 HD 
HETATM   11  N   UNL     1      -8.622   8.717  72.932  1.00  0.00    -0.400 NA 
HETATM   12  C   UNL     1      -9.628   8.149  72.352  1.00  0.00    -0.265 A  
HETATM   13  C   UNL     1     -11.214   7.695  70.635  1.00  0.00    -0.266 A  
HETATM   14  N   UNL     1     -11.685   6.560  71.278  1.00  0.00    -0.324 NA 
HETATM   15  C   UNL     1     -11.458   4.961  73.100  1.00  0.00    -0.362 C  
HETATM   16  N   UNL     1     -10.190   7.081  72.991  1.00  0.00    -0.210 NA 
HETATM   17  C   UNL     1     -11.133   6.276  72.424  1.00  0.00    -0.270 A  
ENDBRANCH   7   8
ENDBRANCH   4   7
ENDBRANCH   2   4
BRANCH   3  18
HETATM   18  C   UNL     1      -8.947  11.695  67.520  1.00  0.00    -0.165 C  
BRANCH  18  19
HETATM   19  C   UNL     1      -9.932  12.843  67.816  1.00  0.00    -0.230 C  
HETATM   20  H   UNL     1     -10.368  14.616  67.069  1.00  0.00     0.000 HD 
HETATM   21  O   UNL     1      -9.760  13.909  66.887  1.00  0.00    -0.251 OA 
ENDBRANCH  18  19
ENDBRANCH   3  18
BRANCH   3  22
HETATM   22  S   UNL     1     -10.277  10.541  65.310  1.00  0.00    -0.243 SA 
BRANCH  22  23
HETATM   23  S   UNL     1      -8.606  10.717  64.129  1.00  0.00    -0.040 SA 
BRANCH  23  24
HETATM   24  C   UNL     1      -8.693   9.342  62.924  1.00  0.00    -0.205 C  
BRANCH  24  25
HETATM   25  C   UNL     1      -7.788   8.129  63.125  1.00  0.00    -0.149 C  
HETATM   26  O   UNL     1      -8.335   7.027  62.364  1.00  0.00    -0.101 OA 
HETATM   27  C   UNL     1      -7.270   6.165  64.305  1.00  0.00    -0.061 C  
HETATM   28  C   UNL     1      -8.034   5.802  63.050  1.00  0.00    -0.104 C  
HETATM   29  C   UNL     1      -7.675   7.602  64.546  1.00  0.00    -0.126 C  
ENDBRANCH  24  25
ENDBRANCH  23  24
ENDBRANCH  22  23
ENDBRANCH   3  22
TORSDOF 9
ENDMDL
MODEL      267
REMARK 921   NORMALIZED FREE ENERGY PREDICTED BY IDOCK:   -3.12 KCAL/MOL
REMARK 922        TOTAL FREE ENERGY PREDICTED BY IDOCK:   -6.00 KCAL/MOL
REMARK 923 INTER-LIGAND FREE ENERGY PREDICTED BY IDOCK:   -5.25 KCAL/MOL
REMARK 924 INTRA-LIGAND FREE ENERGY PREDICTED BY IDOCK:   -0.76 KCAL/MOL
REMARK 927      BINDING AFFINITY PREDICTED BY RF-SCORE:    0.00 PKD
ROOT
HETATM    1  C   UNL     1     -11.394  10.265  68.072  1.00  0.00    -0.219 C  
HETATM    2  C   UNL     1     -10.491  11.185  67.271  1.00  0.00    -0.226 C  
HETATM    3  C   UNL     1      -9.173  11.394  67.563  1.00  0.00    -0.160 C  
ENDROOT
BRANCH   2   4
HETATM    4  N   UNL     1     -11.126  11.707  66.139  1.00  0.00    -0.300 N  
HETATM    5  C   UNL     1     -10.761  11.282  64.869  1.00  0.00    -0.271 C  
HETATM    6  O   UNL     1     -11.245  11.706  63.823  1.00  0.00    -0.388 OA 
BRANCH   4   7
HETATM    7  C   UNL     1     -12.037  12.855  66.259  1.00  0.00    -0.365 C  
BRANCH   7   8
HETATM    8  C   UNL     1     -11.449  14.147  66.779  1.00  0.00    -0.383 A  
HETATM    9  H2  UNL     1     -12.726  13.198  68.908  1.00  0.00     0.000 HD 
HETATM   10  H1  UNL     1     -12.577  14.532  70.012  1.00  0.00     0.000 HD 
HETATM   11  N   UNL     1     -12.381  14.140  69.090  1.00  0.00    -0.240 NA 
HETATM   12  C   UNL     1     -11.738  14.722  68.132  1.00  0.00    -0.325 A  
HETATM   13  C   UNL     1     -10.827  15.023  65.952  1.00  0.00    -0.337 A  
HETATM   14  N   UNL     1     -10.499  16.348  66.199  1.00  0.00    -0.328 NA 
HETATM   15  C   UNL     1     -10.624  18.276  67.680  1.00  0.00    -0.427 C  
HETATM   16  N   UNL     1     -11.309  15.999  68.359  1.00  0.00    -0.365 NA 
HETATM   17  C   UNL     1     -10.780  16.799  67.389  1.00  0.00    -0.244 A  
ENDBRANCH   7   8
ENDBRANCH   4   7
ENDBRANCH   2   4
BRANCH   3  18
HETATM   18  C   UNL     1      -8.168  12.046  66.608  1.00  0.00    -0.056 C  
BRANCH  18  19
HETATM   19  C   UNL     1      -7.508  11.090  65.596  1.00  0.00     0.132 C  
HETATM   20  H   UNL     1      -5.688  10.476  65.147  1.00  0.00     0.000 HD 
HETATM   21  O   UNL     1      -6.095  11.065  65.771  1.00  0.00    -0.117 OA 
ENDBRANCH  18  19
ENDBRANCH   3  18
BRANCH   3  22
HETATM   22  S   UNL     1      -8.565  10.826  69.127  1.00  0.00    -0.030 SA 
BRANCH  22  23
HETATM   23  S   UNL     1      -7.433   9.199  68.587  1.00  0.00    -0.081 SA 
BRANCH  23  24
HETATM   24  C   UNL     1      -8.514   8.158  67.541  1.00  0.00    -0.126 C  
BRANCH  24  25
HETATM   25  C   UNL     1      -7.890   7.373  66.389  1.00  0.00    -0.102 C  
HETATM   26  O   UNL     1      -6.454   7.384  66.563  1.00  0.00    -0.049 OA 
HETATM   27  C   UNL     1      -6.945   7.344  64.239  1.00  0.00    -0.056 C  
HETATM   28  C   UNL     1      -5.834   7.360  65.268  1.00  0.00    -0.037 C  
HETATM   29  C   UNL     1      -8.116   7.930  64.994  1.00  0.00    -0.144 C  
ENDBRANCH  24  25
ENDBRANCH  23  24
ENDBRANCH  22  23
ENDBRANCH   3  22
TORSDOF 9
ENDMDL
MODEL      268
REMARK 921   NORMALIZED FREE ENERGY PREDICTED BY IDOCK:   -3.11 KCAL/MOL
REMARK 922        TOTAL FREE ENERGY PREDICTED BY IDOCK:   -5.99 KCAL/MOL
REMARK 923 INTER-LIGAND FREE ENERGY PREDICTED BY IDOCK:   -6.14 KCAL/MOL
REMARK 924 INTRA-LIGAND FREE ENERGY PREDICTED BY IDOCK:    0.15 KCAL/MOL
REMARK 927      BINDING AFFINITY PREDICTED BY RF-SCORE:    0.00 PKD
ROOT
HETATM    1  C   UNL     1     -10.582   8.974  67.530  1.00  0.00    -0.306 C  
HETATM    2  C   UNL     1     -10.657   9.354  68.998  1.00  0.00    -0.213 C  
HETATM    3  C   UNL     1     -10.631   8.445  70.017  1.00  0.00    -0.235 C  
ENDROOT
BRANCH   2   4
HETATM    4  N   UNL     1     -10.642  10.739  69.195  1.00  0.00    -0.211 N  
HETATM    5  C   UNL     1     -11.677  11.365  69.874  1.00  0.00    -0.346 C  
HETATM    6  O   UNL     1     -11.757  12.575  70.068  1.00  0.00    -0.297 OA 
BRANCH   4   7
HETATM    7  C   UNL     1      -9.643  11.577  68.513  1.00  0.00    -0.178 C  
BRANCH   7   8
HETATM    8  C   UNL     1     -10.144  12.841  67.853  1.00  0.00    -0.231 A  
HETATM    9  H2  UNL     1     -11.571  10.955  66.641  1.00  0.00     0.000 HD 
HETATM   10  H1  UNL     1     -12.371  11.880  65.405  1.00  0.00     0.000 HD 
HETATM   11  N   UNL     1     -11.727  11.860  66.196  1.00  0.00    -0.496 NA 
HETATM   12  C   UNL     1     -11.089  12.870  66.690  1.00  0.00    -0.284 A  
HETATM   13  C   UNL     1      -9.560  14.042  68.091  1.00  0.00    -0.220 A  
HETATM   14  N   UNL     1      -9.697  15.218  67.370  1.00  0.00    -0.208 NA 
HETATM   15  C   UNL     1     -10.596  16.365  65.420  1.00  0.00    -0.338 C  
HETATM   16  N   UNL     1     -11.263  14.076  66.072  1.00  0.00    -0.306 NA 
HETATM   17  C   UNL     1     -10.525  15.185  66.364  1.00  0.00    -0.297 A  
ENDBRANCH   7   8
ENDBRANCH   4   7
ENDBRANCH   2   4
BRANCH   3  18
HETATM   18  C   UNL     1     -10.382   8.798  71.486  1.00  0.00    -0.374 C  
BRANCH  18  19
HETATM   19  C   UNL     1      -9.938   7.622  72.378  1.00  0.00    -0.203 C  
HETATM   20  H   UNL     1     -10.715   6.502  73.804  1.00  0.00     0.000 HD 
HETATM   21  O   UNL     1     -10.988   7.228  73.255  1.00  0.00    -0.352 OA 
ENDBRANCH  18  19
ENDBRANCH   3  18
BRANCH   3  22
HETATM   22  S   UNL     1     -10.845   6.733  69.613  1.00  0.00    -0.289 SA 
BRANCH  22  23
HETATM   23  S   UNL     1      -8.930   6.154  69.149  1.00  0.00    -0.125 SA 
BRANCH  23  24
HETATM   24  C   UNL     1      -8.826   4.376  69.570  1.00  0.00    -0.089 C  
BRANCH  24  25
HETATM   25  C   UNL     1      -8.662   3.361  68.442  1.00  0.00    -0.102 C  
HETATM   26  O   UNL     1      -7.324   3.493  67.908  1.00  0.00    -0.057 OA 
HETATM   27  C   UNL     1      -8.788   2.842  66.154  1.00  0.00    -0.140 C  
HETATM   28  C   UNL     1      -7.354   3.177  66.508  1.00  0.00    -0.075 C  
HETATM   29  C   UNL     1      -9.577   3.535  67.242  1.00  0.00    -0.166 C  
ENDBRANCH  24  25
ENDBRANCH  23  24
ENDBRANCH  22  23
ENDBRANCH   3  22
TORSDOF 9
ENDMDL
MODEL      269
REMARK 921   NORMALIZED FREE ENERGY PREDICTED BY IDOCK:   -3.11 KCAL/MOL
REMARK 922        TOTAL FREE ENERGY PREDICTED BY IDOCK:   -5.98 KCAL/MOL
REMARK 923 INTER-LIGAND FREE ENERGY PREDICTED BY IDOCK:   -5.10 KCAL/MOL
REMARK 924 INTRA-LIGAND FREE ENERGY PREDICTED BY IDOCK:   -0.88 KCAL/MOL
REMARK 927      BINDING AFFINITY PREDICTED BY RF-SCORE:    0.00 PKD
ROOT
HETATM    1  C   UNL     1      -7.934  11.064  69.088  1.00  0.00    -0.081 C  
HETATM    2  C   UNL     1      -8.952  10.524  68.101  1.00  0.00    -0.138 C  
HETATM    3  C   UNL     1      -8.713  10.391  66.763  1.00  0.00    -0.127 C  
ENDROOT
BRANCH   2   4
HETATM    4  N   UNL     1     -10.119  10.072  68.728  1.00  0.00    -0.176 N  
HETATM    5  C   UNL     1     -10.151   8.829  69.344  1.00  0.00    -0.203 C  
HETATM    6  O   UNL     1     -11.137   8.345  69.892  1.00  0.00    -0.216 OA 
BRANCH   4   7
HETATM    7  C   UNL     1     -11.382  10.808  68.567  1.00  0.00    -0.295 C  
BRANCH   7   8
HETATM    8  C   UNL     1     -11.613  11.985  69.486  1.00  0.00    -0.389 A  
HETATM    9  H2  UNL     1     -12.586   9.953  70.896  1.00  0.00     0.000 HD 
HETATM   10  H1  UNL     1     -13.310  10.790  72.237  1.00  0.00     0.000 HD 
HETATM   11  N   UNL     1     -12.793  10.838  71.359  1.00  0.00    -0.421 NA 
HETATM   12  C   UNL     1     -12.374  11.913  70.776  1.00  0.00    -0.320 A  
HETATM   13  C   UNL     1     -11.380  13.257  69.079  1.00  0.00    -0.285 A  
HETATM   14  N   UNL     1     -11.803  14.437  69.672  1.00  0.00    -0.302 NA 
HETATM   15  C   UNL     1     -13.119  15.536  71.400  1.00  0.00    -0.580 C  
HETATM   16  N   UNL     1     -12.684  13.103  71.372  1.00  0.00    -0.342 NA 
HETATM   17  C   UNL     1     -12.468  14.316  70.787  1.00  0.00    -0.358 A  
ENDBRANCH   7   8
ENDBRANCH   4   7
ENDBRANCH   2   4
BRANCH   3  18
HETATM   18  C   UNL     1      -9.579   9.566  65.806  1.00  0.00    -0.337 C  
BRANCH  18  19
HETATM   19  C   UNL     1     -10.641  10.366  65.026  1.00  0.00     0.065 C  
HETATM   20  H   UNL     1     -11.029  12.256  64.617  1.00  0.00     0.000 HD 
HETATM   21  O   UNL     1     -10.375  11.763  65.098  1.00  0.00    -0.256 OA 
ENDBRANCH  18  19
ENDBRANCH   3  18
BRANCH   3  22
HETATM   22  S   UNL     1      -7.276  11.181  66.090  1.00  0.00     0.074 SA 
BRANCH  22  23
HETATM   23  S   UNL     1      -5.808   9.791  66.453  1.00  0.00    -0.056 SA 
BRANCH  23  24
HETATM   24  C   UNL     1      -6.435   8.209  65.780  1.00  0.00    -0.052 C  
BRANCH  24  25
HETATM   25  C   UNL     1      -6.170   7.876  64.314  1.00  0.00    -0.057 C  
HETATM   26  O   UNL     1      -7.149   8.573  63.509  1.00  0.00    -0.087 OA 
HETATM   27  C   UNL     1      -6.590   6.528  62.437  1.00  0.00    -0.035 C  
HETATM   28  C   UNL     1      -7.431   7.783  62.344  1.00  0.00    -0.101 C  
HETATM   29  C   UNL     1      -6.310   6.416  63.919  1.00  0.00    -0.030 C  
ENDBRANCH  24  25
ENDBRANCH  23  24
ENDBRANCH  22  23
ENDBRANCH   3  22
TORSDOF 9
ENDMDL
MODEL      270
REMARK 921   NORMALIZED FREE ENERGY PREDICTED BY IDOCK:   -3.11 KCAL/MOL
REMARK 922        TOTAL FREE ENERGY PREDICTED BY IDOCK:   -5.98 KCAL/MOL
REMARK 923 INTER-LIGAND FREE ENERGY PREDICTED BY IDOCK:   -5.71 KCAL/MOL
REMARK 924 INTRA-LIGAND FREE ENERGY PREDICTED BY IDOCK:   -0.27 KCAL/MOL
REMARK 927      BINDING AFFINITY PREDICTED BY RF-SCORE:    0.00 PKD
ROOT
HETATM    1  C   UNL     1     -10.704  10.182  67.700  1.00  0.00    -0.339 C  
HETATM    2  C   UNL     1      -9.638  11.261  67.763  1.00  0.00    -0.174 C  
HETATM    3  C   UNL     1      -9.908  12.579  67.994  1.00  0.00    -0.214 C  
ENDROOT
BRANCH   2   4
HETATM    4  N   UNL     1      -8.343  10.740  67.670  1.00  0.00    -0.118 N  
HETATM    5  C   UNL     1      -7.520  10.697  68.787  1.00  0.00    -0.104 C  
HETATM    6  O   UNL     1      -6.364  10.284  68.789  1.00  0.00    -0.047 OA 
BRANCH   4   7
HETATM    7  C   UNL     1      -7.760  10.424  66.357  1.00  0.00    -0.125 C  
BRANCH   7   8
HETATM    8  C   UNL     1      -7.794   8.978  65.921  1.00  0.00    -0.102 A  
HETATM    9  H2  UNL     1      -8.077  10.279  63.621  1.00  0.00     0.000 HD 
HETATM   10  H1  UNL     1      -8.411   8.966  62.531  1.00  0.00     0.000 HD 
HETATM   11  N   UNL     1      -8.207   9.276  63.481  1.00  0.00    -0.162 NA 
HETATM   12  C   UNL     1      -8.095   8.522  64.525  1.00  0.00    -0.158 A  
HETATM   13  C   UNL     1      -7.821   7.967  66.825  1.00  0.00    -0.103 A  
HETATM   14  N   UNL     1      -8.141   6.635  66.610  1.00  0.00    -0.108 NA 
HETATM   15  C   UNL     1      -8.935   4.910  65.087  1.00  0.00    -0.152 C  
HETATM   16  N   UNL     1      -8.308   7.185  64.349  1.00  0.00     0.034 NA 
HETATM   17  C   UNL     1      -8.403   6.296  65.380  1.00  0.00    -0.148 A  
ENDBRANCH   7   8
ENDBRANCH   4   7
ENDBRANCH   2   4
BRANCH   3  18
HETATM   18  C   UNL     1      -8.857  13.624  68.379  1.00  0.00    -0.152 C  
BRANCH  18  19
HETATM   19  C   UNL     1      -8.000  14.154  67.212  1.00  0.00    -0.150 C  
HETATM   20  H   UNL     1      -8.164  15.498  65.779  1.00  0.00     0.000 HD 
HETATM   21  O   UNL     1      -8.692  15.172  66.497  1.00  0.00    -0.278 OA 
ENDBRANCH  18  19
ENDBRANCH   3  18
BRANCH   3  22
HETATM   22  S   UNL     1     -11.595  13.115  67.896  1.00  0.00    -0.355 SA 
BRANCH  22  23
HETATM   23  S   UNL     1     -11.424  15.140  68.193  1.00  0.00    -0.340 SA 
BRANCH  23  24
HETATM   24  C   UNL     1     -12.535  15.539  69.592  1.00  0.00    -0.104 C  
BRANCH  24  25
HETATM   25  C   UNL     1     -12.254  14.913  70.955  1.00  0.00    -0.317 C  
HETATM   26  O   UNL     1     -13.198  13.836  71.160  1.00  0.00    -0.289 OA 
HETATM   27  C   UNL     1     -12.683  14.815  73.263  1.00  0.00    -0.596 C  
HETATM   28  C   UNL     1     -13.484  13.737  72.564  1.00  0.00    -0.578 C  
HETATM   29  C   UNL     1     -12.432  15.820  72.161  1.00  0.00    -0.533 C  
ENDBRANCH  24  25
ENDBRANCH  23  24
ENDBRANCH  22  23
ENDBRANCH   3  22
TORSDOF 9
ENDMDL
MODEL      271
REMARK 921   NORMALIZED FREE ENERGY PREDICTED BY IDOCK:   -3.09 KCAL/MOL
REMARK 922        TOTAL FREE ENERGY PREDICTED BY IDOCK:   -5.95 KCAL/MOL
REMARK 923 INTER-LIGAND FREE ENERGY PREDICTED BY IDOCK:   -5.95 KCAL/MOL
REMARK 924 INTRA-LIGAND FREE ENERGY PREDICTED BY IDOCK:    0.00 KCAL/MOL
REMARK 927      BINDING AFFINITY PREDICTED BY RF-SCORE:    0.00 PKD
ROOT
HETATM    1  C   UNL     1      -7.029  11.879  67.877  1.00  0.00    -0.085 C  
HETATM    2  C   UNL     1      -8.517  11.581  67.909  1.00  0.00    -0.142 C  
HETATM    3  C   UNL     1      -9.476  12.536  68.092  1.00  0.00    -0.214 C  
ENDROOT
BRANCH   2   4
HETATM    4  N   UNL     1      -8.803  10.243  67.618  1.00  0.00    -0.122 N  
HETATM    5  C   UNL     1      -8.106   9.575  66.621  1.00  0.00    -0.108 C  
HETATM    6  O   UNL     1      -8.310   8.412  66.283  1.00  0.00    -0.112 OA 
BRANCH   4   7
HETATM    7  C   UNL     1      -9.976   9.586  68.214  1.00  0.00    -0.161 C  
BRANCH   7   8
HETATM    8  C   UNL     1      -9.747   8.778  69.470  1.00  0.00    -0.172 A  
HETATM    9  H2  UNL     1     -11.136   7.097  67.951  1.00  0.00     0.000 HD 
HETATM   10  H1  UNL     1     -11.432   5.800  69.070  1.00  0.00     0.000 HD 
HETATM   11  N   UNL     1     -11.018   6.714  68.890  1.00  0.00    -0.272 NA 
HETATM   12  C   UNL     1     -10.357   7.435  69.735  1.00  0.00    -0.222 A  
HETATM   13  C   UNL     1      -9.185   9.332  70.574  1.00  0.00    -0.261 A  
HETATM   14  N   UNL     1      -9.170   8.833  71.868  1.00  0.00    -0.314 NA 
HETATM   15  C   UNL     1      -9.910   7.135  73.448  1.00  0.00    -0.301 C  
HETATM   16  N   UNL     1     -10.232   6.944  71.004  1.00  0.00    -0.197 NA 
HETATM   17  C   UNL     1      -9.723   7.666  72.043  1.00  0.00    -0.166 A  
ENDBRANCH   7   8
ENDBRANCH   4   7
ENDBRANCH   2   4
BRANCH   3  18
HETATM   18  C   UNL     1     -10.968  12.330  67.813  1.00  0.00    -0.274 C  
BRANCH  18  19
HETATM   19  C   UNL     1     -11.923  13.019  68.807  1.00  0.00    -0.266 C  
HETATM   20  H   UNL     1     -12.479  12.793  70.686  1.00  0.00     0.000 HD 
HETATM   21  O   UNL     1     -11.891  12.368  70.073  1.00  0.00    -0.326 OA 
ENDBRANCH  18  19
ENDBRANCH   3  18
BRANCH   3  22
HETATM   22  S   UNL     1      -8.961  14.141  68.639  1.00  0.00    -0.078 SA 
BRANCH  22  23
HETATM   23  S   UNL     1      -7.955  14.857  66.997  1.00  0.00    -0.045 SA 
BRANCH  23  24
HETATM   24  C   UNL     1      -9.192  15.776  66.010  1.00  0.00    -0.344 C  
BRANCH  24  25
HETATM   25  C   UNL     1     -10.530  15.108  65.701  1.00  0.00    -0.359 C  
HETATM   26  O   UNL     1     -10.262  13.801  65.143  1.00  0.00    -0.351 OA 
HETATM   27  C   UNL     1     -12.258  14.653  64.177  1.00  0.00    -0.343 C  
HETATM   28  C   UNL     1     -11.302  13.479  64.207  1.00  0.00    -0.375 C  
HETATM   29  C   UNL     1     -11.404  15.800  64.668  1.00  0.00    -0.343 C  
ENDBRANCH  24  25
ENDBRANCH  23  24
ENDBRANCH  22  23
ENDBRANCH   3  22
TORSDOF 9
ENDMDL
MODEL      272
REMARK 921   NORMALIZED FREE ENERGY PREDICTED BY IDOCK:   -3.08 KCAL/MOL
REMARK 922        TOTAL FREE ENERGY PREDICTED BY IDOCK:   -5.94 KCAL/MOL
REMARK 923 INTER-LIGAND FREE ENERGY PREDICTED BY IDOCK:   -5.75 KCAL/MOL
REMARK 924 INTRA-LIGAND FREE ENERGY PREDICTED BY IDOCK:   -0.19 KCAL/MOL
REMARK 927      BINDING AFFINITY PREDICTED BY RF-SCORE:    0.00 PKD
ROOT
HETATM    1  C   UNL     1     -11.156  14.340  65.691  1.00  0.00    -0.316 C  
HETATM    2  C   UNL     1     -10.450  13.602  66.813  1.00  0.00    -0.270 C  
HETATM    3  C   UNL     1      -9.719  12.463  66.627  1.00  0.00    -0.225 C  
ENDROOT
BRANCH   2   4
HETATM    4  N   UNL     1     -10.537  14.276  68.036  1.00  0.00    -0.235 N  
HETATM    5  C   UNL     1      -9.387  14.677  68.701  1.00  0.00    -0.206 C  
HETATM    6  O   UNL     1      -9.371  15.248  69.789  1.00  0.00    -0.216 OA 
BRANCH   4   7
HETATM    7  C   UNL     1     -11.827  14.386  68.735  1.00  0.00    -0.325 C  
BRANCH   7   8
HETATM    8  C   UNL     1     -12.285  13.182  69.524  1.00  0.00    -0.214 A  
HETATM    9  H2  UNL     1     -12.709  15.180  71.225  1.00  0.00     0.000 HD 
HETATM   10  H1  UNL     1     -13.143  14.310  72.665  1.00  0.00     0.000 HD 
HETATM   11  N   UNL     1     -12.865  14.283  71.684  1.00  0.00    -0.331 NA 
HETATM   12  C   UNL     1     -12.693  13.222  70.966  1.00  0.00    -0.293 A  
HETATM   13  C   UNL     1     -12.102  11.921  69.060  1.00  0.00    -0.186 A  
HETATM   14  N   UNL     1     -12.192  10.729  69.763  1.00  0.00    -0.320 NA 
HETATM   15  C   UNL     1     -12.486   9.593  71.897  1.00  0.00    -0.459 C  
HETATM   16  N   UNL     1     -12.862  12.018  71.589  1.00  0.00    -0.342 NA 
HETATM   17  C   UNL     1     -12.541  10.822  71.015  1.00  0.00    -0.420 A  
ENDBRANCH   7   8
ENDBRANCH   4   7
ENDBRANCH   2   4
BRANCH   3  18
HETATM   18  C   UNL     1      -8.745  11.882  67.657  1.00  0.00    -0.162 C  
BRANCH  18  19
HETATM   19  C   UNL     1      -7.257  11.943  67.261  1.00  0.00    -0.147 C  
HETATM   20  H   UNL     1      -5.512  11.547  68.090  1.00  0.00     0.000 HD 
HETATM   21  O   UNL     1      -6.429  11.510  68.335  1.00  0.00    -0.050 OA 
ENDBRANCH  18  19
ENDBRANCH   3  18
BRANCH   3  22
HETATM   22  S   UNL     1      -9.861  11.625  65.073  1.00  0.00    -0.229 SA 
BRANCH  22  23
HETATM   23  S   UNL     1      -9.652   9.656  65.621  1.00  0.00    -0.280 SA 
BRANCH  23  24
HETATM   24  C   UNL     1      -8.425   8.940  64.468  1.00  0.00    -0.161 C  
BRANCH  24  25
HETATM   25  C   UNL     1      -8.019   7.478  64.640  1.00  0.00    -0.133 C  
HETATM   26  O   UNL     1      -6.759   7.441  65.350  1.00  0.00    -0.047 OA 
HETATM   27  C   UNL     1      -6.853   5.596  63.855  1.00  0.00    -0.049 C  
HETATM   28  C   UNL     1      -6.015   6.298  64.903  1.00  0.00    -0.026 C  
HETATM   29  C   UNL     1      -7.770   6.694  63.363  1.00  0.00    -0.109 C  
ENDBRANCH  24  25
ENDBRANCH  23  24
ENDBRANCH  22  23
ENDBRANCH   3  22
TORSDOF 9
ENDMDL
MODEL      273
REMARK 921   NORMALIZED FREE ENERGY PREDICTED BY IDOCK:   -3.07 KCAL/MOL
REMARK 922        TOTAL FREE ENERGY PREDICTED BY IDOCK:   -5.92 KCAL/MOL
REMARK 923 INTER-LIGAND FREE ENERGY PREDICTED BY IDOCK:   -5.07 KCAL/MOL
REMARK 924 INTRA-LIGAND FREE ENERGY PREDICTED BY IDOCK:   -0.85 KCAL/MOL
REMARK 927      BINDING AFFINITY PREDICTED BY RF-SCORE:    0.00 PKD
ROOT
HETATM    1  C   UNL     1     -10.670   7.888  67.077  1.00  0.00    -0.289 C  
HETATM    2  C   UNL     1      -9.541   7.987  68.087  1.00  0.00    -0.153 C  
HETATM    3  C   UNL     1      -8.424   7.203  68.052  1.00  0.00    -0.122 C  
ENDROOT
BRANCH   2   4
HETATM    4  N   UNL     1      -9.720   9.042  68.988  1.00  0.00    -0.164 N  
HETATM    5  C   UNL     1     -10.545   8.892  70.093  1.00  0.00    -0.222 C  
HETATM    6  O   UNL     1     -10.779   9.772  70.917  1.00  0.00    -0.312 OA 
BRANCH   4   7
HETATM    7  C   UNL     1      -9.206  10.384  68.673  1.00  0.00    -0.164 C  
BRANCH   7   8
HETATM    8  C   UNL     1      -9.830  11.099  67.497  1.00  0.00    -0.197 A  
HETATM    9  H2  UNL     1     -11.776  11.162  69.306  1.00  0.00     0.000 HD 
HETATM   10  H1  UNL     1     -13.089  11.806  68.366  1.00  0.00     0.000 HD 
HETATM   11  N   UNL     1     -12.113  11.510  68.408  1.00  0.00    -0.560 NA 
HETATM   12  C   UNL     1     -11.263  11.533  67.435  1.00  0.00    -0.304 A  
HETATM   13  C   UNL     1      -9.206  11.160  66.294  1.00  0.00    -0.195 A  
HETATM   14  N   UNL     1      -9.746  11.509  65.066  1.00  0.00    -0.245 NA 
HETATM   15  C   UNL     1     -11.712  12.089  63.752  1.00  0.00    -0.575 C  
HETATM   16  N   UNL     1     -11.722  11.959  66.221  1.00  0.00    -0.520 NA 
HETATM   17  C   UNL     1     -10.999  11.869  65.068  1.00  0.00    -0.312 A  
ENDBRANCH   7   8
ENDBRANCH   4   7
ENDBRANCH   2   4
BRANCH   3  18
HETATM   18  C   UNL     1      -7.143   7.486  68.843  1.00  0.00    -0.080 C  
BRANCH  18  19
HETATM   19  C   UNL     1      -7.118   6.919  70.276  1.00  0.00    -0.067 C  
HETATM   20  H   UNL     1      -5.962   7.040  71.870  1.00  0.00     0.000 HD 
HETATM   21  O   UNL     1      -5.977   7.389  70.986  1.00  0.00    -0.035 OA 
ENDBRANCH  18  19
ENDBRANCH   3  18
BRANCH   3  22
HETATM   22  S   UNL     1      -8.428   5.791  66.981  1.00  0.00    -0.106 SA 
BRANCH  22  23
HETATM   23  S   UNL     1      -6.431   5.322  66.875  1.00  0.00    -0.042 SA 
BRANCH  23  24
HETATM   24  C   UNL     1      -6.267   3.651  67.603  1.00  0.00    -0.036 C  
BRANCH  24  25
HETATM   25  C   UNL     1      -6.970   2.479  66.922  1.00  0.00    -0.048 C  
HETATM   26  O   UNL     1      -7.013   2.744  65.500  1.00  0.00    -0.050 OA 
HETATM   27  C   UNL     1      -8.945   1.502  66.107  1.00  0.00    -0.092 C  
HETATM   28  C   UNL     1      -8.206   2.156  64.959  1.00  0.00    -0.081 C  
HETATM   29  C   UNL     1      -8.418   2.242  67.316  1.00  0.00    -0.102 C  
ENDBRANCH  24  25
ENDBRANCH  23  24
ENDBRANCH  22  23
ENDBRANCH   3  22
TORSDOF 9
ENDMDL
MODEL      274
REMARK 921   NORMALIZED FREE ENERGY PREDICTED BY IDOCK:   -3.06 KCAL/MOL
REMARK 922        TOTAL FREE ENERGY PREDICTED BY IDOCK:   -5.90 KCAL/MOL
REMARK 923 INTER-LIGAND FREE ENERGY PREDICTED BY IDOCK:   -6.44 KCAL/MOL
REMARK 924 INTRA-LIGAND FREE ENERGY PREDICTED BY IDOCK:    0.54 KCAL/MOL
REMARK 927      BINDING AFFINITY PREDICTED BY RF-SCORE:    0.00 PKD
ROOT
HETATM    1  C   UNL     1     -12.615  14.072  66.513  1.00  0.00    -0.214 C  
HETATM    2  C   UNL     1     -11.156  14.047  66.096  1.00  0.00    -0.302 C  
HETATM    3  C   UNL     1     -10.231  14.956  66.523  1.00  0.00    -0.275 C  
ENDROOT
BRANCH   2   4
HETATM    4  N   UNL     1     -10.840  12.927  65.318  1.00  0.00    -0.287 N  
HETATM    5  C   UNL     1     -11.054  12.940  63.947  1.00  0.00    -0.411 C  
HETATM    6  O   UNL     1     -10.832  11.994  63.195  1.00  0.00    -0.356 OA 
BRANCH   4   7
HETATM    7  C   UNL     1     -10.474  11.655  65.959  1.00  0.00    -0.251 C  
BRANCH   7   8
HETATM    8  C   UNL     1      -9.004  11.307  66.005  1.00  0.00    -0.209 A  
HETATM    9  H2  UNL     1      -9.683  10.615  63.530  1.00  0.00     0.000 HD 
HETATM   10  H1  UNL     1      -8.230   9.828  62.990  1.00  0.00     0.000 HD 
HETATM   11  N   UNL     1      -8.730  10.316  63.735  1.00  0.00    -0.189 NA 
HETATM   12  C   UNL     1      -8.271  10.591  64.911  1.00  0.00    -0.117 A  
HETATM   13  C   UNL     1      -8.296  11.377  67.159  1.00  0.00    -0.155 A  
HETATM   14  N   UNL     1      -7.052  10.831  67.435  1.00  0.00    -0.088 NA 
HETATM   15  C   UNL     1      -5.192   9.434  66.716  1.00  0.00    -0.038 C  
HETATM   16  N   UNL     1      -7.010  10.155  65.203  1.00  0.00    -0.134 NA 
HETATM   17  C   UNL     1      -6.464  10.211  66.451  1.00  0.00    -0.082 A  
ENDBRANCH   7   8
ENDBRANCH   4   7
ENDBRANCH   2   4
BRANCH   3  18
HETATM   18  C   UNL     1      -8.716  14.779  66.386  1.00  0.00    -0.062 C  
BRANCH  18  19
HETATM   19  C   UNL     1      -7.956  14.583  67.713  1.00  0.00    -0.159 C  
HETATM   20  H   UNL     1      -6.280  13.738  68.319  1.00  0.00     0.000 HD 
HETATM   21  O   UNL     1      -6.748  13.858  67.501  1.00  0.00    -0.179 OA 
ENDBRANCH  18  19
ENDBRANCH   3  18
BRANCH   3  22
HETATM   22  S   UNL     1     -10.813  16.418  67.338  1.00  0.00    -0.155 SA 
BRANCH  22  23
HETATM   23  S   UNL     1     -10.276  16.068  69.290  1.00  0.00    -0.267 SA 
BRANCH  23  24
HETATM   24  C   UNL     1     -11.095  14.503  69.765  1.00  0.00    -0.200 C  
BRANCH  24  25
HETATM   25  C   UNL     1     -12.483  14.562  70.398  1.00  0.00    -0.347 C  
HETATM   26  O   UNL     1     -12.542  15.731  71.248  1.00  0.00    -0.437 OA 
HETATM   27  C   UNL     1     -13.918  14.034  72.182  1.00  0.00    -0.633 C  
HETATM   28  C   UNL     1     -13.416  15.452  72.352  1.00  0.00    -0.490 C  
HETATM   29  C   UNL     1     -12.859  13.403  71.305  1.00  0.00    -0.407 C  
ENDBRANCH  24  25
ENDBRANCH  23  24
ENDBRANCH  22  23
ENDBRANCH   3  22
TORSDOF 9
ENDMDL
MODEL      275
REMARK 921   NORMALIZED FREE ENERGY PREDICTED BY IDOCK:   -3.04 KCAL/MOL
REMARK 922        TOTAL FREE ENERGY PREDICTED BY IDOCK:   -5.88 KCAL/MOL
REMARK 923 INTER-LIGAND FREE ENERGY PREDICTED BY IDOCK:   -4.98 KCAL/MOL
REMARK 924 INTRA-LIGAND FREE ENERGY PREDICTED BY IDOCK:   -0.91 KCAL/MOL
REMARK 927      BINDING AFFINITY PREDICTED BY RF-SCORE:    0.00 PKD
ROOT
HETATM    1  C   UNL     1      -9.875  14.843  65.690  1.00  0.00    -0.372 C  
HETATM    2  C   UNL     1     -10.612  13.610  66.181  1.00  0.00    -0.291 C  
HETATM    3  C   UNL     1     -10.920  13.385  67.492  1.00  0.00    -0.267 C  
ENDROOT
BRANCH   2   4
HETATM    4  N   UNL     1     -11.038  12.787  65.133  1.00  0.00    -0.285 N  
HETATM    5  C   UNL     1     -12.388  12.664  64.839  1.00  0.00    -0.498 C  
HETATM    6  O   UNL     1     -12.850  11.945  63.957  1.00  0.00    -0.474 OA 
BRANCH   4   7
HETATM    7  C   UNL     1     -10.089  11.885  64.462  1.00  0.00    -0.271 C  
BRANCH   7   8
HETATM    8  C   UNL     1      -9.202  11.040  65.348  1.00  0.00    -0.232 A  
HETATM    9  H2  UNL     1     -11.575   9.876  65.631  1.00  0.00     0.000 HD 
HETATM   10  H1  UNL     1     -11.239   8.729  66.893  1.00  0.00     0.000 HD 
HETATM   11  N   UNL     1     -10.900   9.472  66.281  1.00  0.00     0.212 NA 
HETATM   12  C   UNL     1      -9.700   9.950  66.248  1.00  0.00    -0.222 A  
HETATM   13  C   UNL     1      -7.916  11.389  65.599  1.00  0.00     0.338 A  
HETATM   14  N   UNL     1      -7.076  10.904  66.590  1.00  0.00    -0.128 NA 
HETATM   15  C   UNL     1      -6.782   9.510  68.564  1.00  0.00    -0.053 C  
HETATM   16  N   UNL     1      -8.804   9.439  67.144  1.00  0.00    -0.127 NA 
HETATM   17  C   UNL     1      -7.562   9.964  67.350  1.00  0.00    -0.091 A  
ENDBRANCH   7   8
ENDBRANCH   4   7
ENDBRANCH   2   4
BRANCH   3  18
HETATM   18  C   UNL     1     -11.924  12.335  67.977  1.00  0.00    -0.251 C  
BRANCH  18  19
HETATM   19  C   UNL     1     -11.469  11.504  69.193  1.00  0.00    -0.297 C  
HETATM   20  H   UNL     1     -12.071  11.184  71.044  1.00  0.00     0.000 HD 
HETATM   21  O   UNL     1     -12.351  11.696  70.295  1.00  0.00    -0.301 OA 
ENDBRANCH  18  19
ENDBRANCH   3  18
BRANCH   3  22
HETATM   22  S   UNL     1     -10.150  14.407  68.717  1.00  0.00    -0.210 SA 
BRANCH  22  23
HETATM   23  S   UNL     1      -8.157  13.993  68.438  1.00  0.00    -0.149 SA 
BRANCH  23  24
HETATM   24  C   UNL     1      -7.243  15.211  69.453  1.00  0.00    -0.198 C  
BRANCH  24  25
HETATM   25  C   UNL     1      -6.943  16.585  68.860  1.00  0.00    -0.191 C  
HETATM   26  O   UNL     1      -7.255  16.545  67.448  1.00  0.00    -0.125 OA 
HETATM   27  C   UNL     1      -5.444  18.044  67.791  1.00  0.00    -0.149 C  
HETATM   28  C   UNL     1      -6.363  17.431  66.755  1.00  0.00    -0.202 C  
HETATM   29  C   UNL     1      -5.497  17.045  68.925  1.00  0.00    -0.142 C  
ENDBRANCH  24  25
ENDBRANCH  23  24
ENDBRANCH  22  23
ENDBRANCH   3  22
TORSDOF 9
ENDMDL
MODEL      276
REMARK 921   NORMALIZED FREE ENERGY PREDICTED BY IDOCK:   -3.02 KCAL/MOL
REMARK 922        TOTAL FREE ENERGY PREDICTED BY IDOCK:   -5.85 KCAL/MOL
REMARK 923 INTER-LIGAND FREE ENERGY PREDICTED BY IDOCK:   -4.97 KCAL/MOL
REMARK 924 INTRA-LIGAND FREE ENERGY PREDICTED BY IDOCK:   -0.88 KCAL/MOL
REMARK 927      BINDING AFFINITY PREDICTED BY RF-SCORE:    0.00 PKD
ROOT
HETATM    1  C   UNL     1     -10.428   9.576  70.909  1.00  0.00    -0.382 C  
HETATM    2  C   UNL     1      -9.602   8.317  71.100  1.00  0.00    -0.163 C  
HETATM    3  C   UNL     1      -9.486   7.337  70.156  1.00  0.00    -0.165 C  
ENDROOT
BRANCH   2   4
HETATM    4  N   UNL     1      -8.884   8.323  72.301  1.00  0.00    -0.189 N  
HETATM    5  C   UNL     1      -7.556   8.726  72.326  1.00  0.00     0.097 C  
HETATM    6  O   UNL     1      -6.846   8.736  73.327  1.00  0.00    -0.312 OA 
BRANCH   4   7
HETATM    7  C   UNL     1      -9.454   7.713  73.512  1.00  0.00    -0.289 C  
BRANCH   7   8
HETATM    8  C   UNL     1      -9.626   6.211  73.508  1.00  0.00    -0.151 A  
HETATM    9  H2  UNL     1     -11.798   7.043  72.220  1.00  0.00     0.000 HD 
HETATM   10  H1  UNL     1     -12.685   5.557  72.062  1.00  0.00     0.000 HD 
HETATM   11  N   UNL     1     -11.850   6.039  72.396  1.00  0.00    -0.289 NA 
HETATM   12  C   UNL     1     -10.853   5.503  73.019  1.00  0.00    -0.274 A  
HETATM   13  C   UNL     1      -8.788   5.402  74.201  1.00  0.00    -0.119 A  
HETATM   14  N   UNL     1      -8.968   4.068  74.536  1.00  0.00    -0.099 NA 
HETATM   15  C   UNL     1     -10.417   2.111  74.563  1.00  0.00    -0.183 C  
HETATM   16  N   UNL     1     -10.939   4.167  73.291  1.00  0.00    -0.228 NA 
HETATM   17  C   UNL     1     -10.056   3.504  74.093  1.00  0.00    -0.147 A  
ENDBRANCH   7   8
ENDBRANCH   4   7
ENDBRANCH   2   4
BRANCH   3  18
HETATM   18  C   UNL     1      -8.427   6.231  70.181  1.00  0.00    -0.134 C  
BRANCH  18  19
HETATM   19  C   UNL     1      -7.255   6.422  69.198  1.00  0.00    -0.090 C  
HETATM   20  H   UNL     1      -5.999   7.856  68.692  1.00  0.00     0.000 HD 
HETATM   21  O   UNL     1      -6.722   7.738  69.297  1.00  0.00    -0.042 OA 
ENDBRANCH  18  19
ENDBRANCH   3  18
BRANCH   3  22
HETATM   22  S   UNL     1     -10.599   7.372  68.777  1.00  0.00    -0.125 SA 
BRANCH  22  23
HETATM   23  S   UNL     1      -9.720   8.762  67.546  1.00  0.00    -0.179 SA 
BRANCH  23  24
HETATM   24  C   UNL     1     -10.991  10.043  67.245  1.00  0.00    -0.156 C  
BRANCH  24  25
HETATM   25  C   UNL     1     -10.541  11.445  66.839  1.00  0.00    -0.252 C  
HETATM   26  O   UNL     1      -9.422  11.819  67.675  1.00  0.00    -0.173 OA 
HETATM   27  C   UNL     1     -10.661  13.772  67.132  1.00  0.00    -0.277 C  
HETATM   28  C   UNL     1      -9.454  13.240  67.875  1.00  0.00    -0.214 C  
HETATM   29  C   UNL     1     -11.557  12.558  67.027  1.00  0.00    -0.437 C  
ENDBRANCH  24  25
ENDBRANCH  23  24
ENDBRANCH  22  23
ENDBRANCH   3  22
TORSDOF 9
ENDMDL
MODEL      277
REMARK 921   NORMALIZED FREE ENERGY PREDICTED BY IDOCK:   -3.02 KCAL/MOL
REMARK 922        TOTAL FREE ENERGY PREDICTED BY IDOCK:   -5.85 KCAL/MOL
REMARK 923 INTER-LIGAND FREE ENERGY PREDICTED BY IDOCK:   -5.67 KCAL/MOL
REMARK 924 INTRA-LIGAND FREE ENERGY PREDICTED BY IDOCK:   -0.18 KCAL/MOL
REMARK 927      BINDING AFFINITY PREDICTED BY RF-SCORE:    0.00 PKD
ROOT
HETATM    1  C   UNL     1      -8.776  11.578  66.028  1.00  0.00    -0.095 C  
HETATM    2  C   UNL     1      -9.235  12.310  67.276  1.00  0.00    -0.185 C  
HETATM    3  C   UNL     1      -9.928  13.486  67.252  1.00  0.00    -0.236 C  
ENDROOT
BRANCH   2   4
HETATM    4  N   UNL     1      -8.968  11.592  68.447  1.00  0.00    -0.181 N  
HETATM    5  C   UNL     1      -7.666  11.447  68.903  1.00  0.00    -0.108 C  
HETATM    6  O   UNL     1      -7.340  10.812  69.903  1.00  0.00    -0.126 OA 
BRANCH   4   7
HETATM    7  C   UNL     1     -10.030  10.809  69.098  1.00  0.00    -0.187 C  
BRANCH   7   8
HETATM    8  C   UNL     1      -9.874   9.306  69.097  1.00  0.00    -0.167 A  
HETATM    9  H2  UNL     1     -10.347   9.837  66.536  1.00  0.00     0.000 HD 
HETATM   10  H1  UNL     1     -10.511   8.234  65.885  1.00  0.00     0.000 HD 
HETATM   11  N   UNL     1     -10.342   8.830  66.696  1.00  0.00    -0.265 NA 
HETATM   12  C   UNL     1     -10.123   8.431  67.906  1.00  0.00    -0.203 A  
HETATM   13  C   UNL     1      -9.759   8.607  70.253  1.00  0.00    -0.174 A  
HETATM   14  N   UNL     1      -9.898   7.240  70.444  1.00  0.00    -0.183 NA 
HETATM   15  C   UNL     1     -10.467   5.062  69.518  1.00  0.00    -0.129 C  
HETATM   16  N   UNL     1     -10.156   7.085  68.131  1.00  0.00    -0.162 NA 
HETATM   17  C   UNL     1     -10.123   6.529  69.376  1.00  0.00    -0.172 A  
ENDBRANCH   7   8
ENDBRANCH   4   7
ENDBRANCH   2   4
BRANCH   3  18
HETATM   18  C   UNL     1     -10.675  14.076  68.452  1.00  0.00    -0.261 C  
BRANCH  18  19
HETATM   19  C   UNL     1      -9.777  14.640  69.571  1.00  0.00     0.124 C  
HETATM   20  H   UNL     1      -7.885  15.148  69.802  1.00  0.00     0.000 HD 
HETATM   21  O   UNL     1      -8.438  14.800  69.112  1.00  0.00    -0.160 OA 
ENDBRANCH  18  19
ENDBRANCH   3  18
BRANCH   3  22
HETATM   22  S   UNL     1     -10.020  14.368  65.718  1.00  0.00    -0.315 SA 
BRANCH  22  23
HETATM   23  S   UNL     1      -9.180  16.178  66.209  1.00  0.00    -0.355 SA 
BRANCH  23  24
HETATM   24  C   UNL     1     -10.547  17.394  66.171  1.00  0.00    -0.208 C  
BRANCH  24  25
HETATM   25  C   UNL     1     -10.602  18.473  67.250  1.00  0.00    -0.413 C  
HETATM   26  O   UNL     1     -10.371  19.754  66.618  1.00  0.00    -0.428 OA 
HETATM   27  C   UNL     1      -9.491  19.817  68.824  1.00  0.00    -0.344 C  
HETATM   28  C   UNL     1      -9.697  20.612  67.552  1.00  0.00    -0.369 C  
HETATM   29  C   UNL     1      -9.551  18.385  68.343  1.00  0.00    -0.366 C  
ENDBRANCH  24  25
ENDBRANCH  23  24
ENDBRANCH  22  23
ENDBRANCH   3  22
TORSDOF 9
ENDMDL
MODEL      278
REMARK 921   NORMALIZED FREE ENERGY PREDICTED BY IDOCK:   -2.99 KCAL/MOL
REMARK 922        TOTAL FREE ENERGY PREDICTED BY IDOCK:   -5.80 KCAL/MOL
REMARK 923 INTER-LIGAND FREE ENERGY PREDICTED BY IDOCK:   -4.71 KCAL/MOL
REMARK 924 INTRA-LIGAND FREE ENERGY PREDICTED BY IDOCK:   -1.09 KCAL/MOL
REMARK 927      BINDING AFFINITY PREDICTED BY RF-SCORE:    0.00 PKD
ROOT
HETATM    1  C   UNL     1     -11.151   9.012  69.946  1.00  0.00    -0.155 C  
HETATM    2  C   UNL     1     -10.169   8.346  68.999  1.00  0.00    -0.207 C  
HETATM    3  C   UNL     1      -8.943   8.864  68.694  1.00  0.00    -0.137 C  
ENDROOT
BRANCH   2   4
HETATM    4  N   UNL     1     -10.611   7.092  68.564  1.00  0.00    -0.202 N  
HETATM    5  C   UNL     1     -10.672   6.799  67.209  1.00  0.00    -0.353 C  
HETATM    6  O   UNL     1     -11.073   5.737  66.741  1.00  0.00    -0.230 OA 
BRANCH   4   7
HETATM    7  C   UNL     1     -11.210   6.143  69.515  1.00  0.00    -0.411 C  
BRANCH   7   8
HETATM    8  C   UNL     1     -10.269   5.199  70.227  1.00  0.00    -0.342 A  
HETATM    9  H2  UNL     1     -10.260   7.329  71.818  1.00  0.00     0.000 HD 
HETATM   10  H1  UNL     1      -9.010   6.901  72.946  1.00  0.00     0.000 HD 
HETATM   11  N   UNL     1      -9.561   6.653  72.124  1.00  0.00    -0.148 NA 
HETATM   12  C   UNL     1      -9.459   5.565  71.435  1.00  0.00    -0.148 A  
HETATM   13  C   UNL     1      -9.881   4.029  69.663  1.00  0.00    -0.089 A  
HETATM   14  N   UNL     1      -8.827   3.207  70.036  1.00  0.00    -0.078 NA 
HETATM   15  C   UNL     1      -6.880   2.840  71.450  1.00  0.00    -0.031 C  
HETATM   16  N   UNL     1      -8.495   4.675  71.818  1.00  0.00    -0.111 NA 
HETATM   17  C   UNL     1      -8.151   3.577  71.086  1.00  0.00    -0.066 A  
ENDBRANCH   7   8
ENDBRANCH   4   7
ENDBRANCH   2   4
BRANCH   3  18
HETATM   18  C   UNL     1      -7.818   8.079  68.012  1.00  0.00    -0.126 C  
BRANCH  18  19
HETATM   19  C   UNL     1      -7.042   7.114  68.930  1.00  0.00    -0.084 C  
HETATM   20  H   UNL     1      -6.699   5.175  69.045  1.00  0.00     0.000 HD 
HETATM   21  O   UNL     1      -7.177   5.770  68.480  1.00  0.00    -0.078 OA 
ENDBRANCH  18  19
ENDBRANCH   3  18
BRANCH   3  22
HETATM   22  S   UNL     1      -8.605  10.539  69.160  1.00  0.00    -0.121 SA 
BRANCH  22  23
HETATM   23  S   UNL     1      -8.831  11.539  67.380  1.00  0.00    -0.162 SA 
BRANCH  23  24
HETATM   24  C   UNL     1      -8.559  13.309  67.759  1.00  0.00    -0.184 C  
BRANCH  24  25
HETATM   25  C   UNL     1      -9.755  14.167  68.162  1.00  0.00    -0.225 C  
HETATM   26  O   UNL     1     -10.134  14.977  67.025  1.00  0.00    -0.240 OA 
HETATM   27  C   UNL     1     -10.601  16.185  69.016  1.00  0.00    -0.273 C  
HETATM   28  C   UNL     1     -10.664  16.222  67.504  1.00  0.00    -0.300 C  
HETATM   29  C   UNL     1      -9.521  15.162  69.286  1.00  0.00    -0.212 C  
ENDBRANCH  24  25
ENDBRANCH  23  24
ENDBRANCH  22  23
ENDBRANCH   3  22
TORSDOF 9
ENDMDL
MODEL      279
REMARK 921   NORMALIZED FREE ENERGY PREDICTED BY IDOCK:   -2.99 KCAL/MOL
REMARK 922        TOTAL FREE ENERGY PREDICTED BY IDOCK:   -5.80 KCAL/MOL
REMARK 923 INTER-LIGAND FREE ENERGY PREDICTED BY IDOCK:   -4.64 KCAL/MOL
REMARK 924 INTRA-LIGAND FREE ENERGY PREDICTED BY IDOCK:   -1.16 KCAL/MOL
REMARK 927      BINDING AFFINITY PREDICTED BY RF-SCORE:    0.00 PKD
ROOT
HETATM    1  C   UNL     1     -10.045   9.454  66.321  1.00  0.00    -0.328 C  
HETATM    2  C   UNL     1      -8.845   8.878  67.050  1.00  0.00    -0.126 C  
HETATM    3  C   UNL     1      -8.288   9.449  68.158  1.00  0.00    -0.119 C  
ENDROOT
BRANCH   2   4
HETATM    4  N   UNL     1      -8.445   7.641  66.532  1.00  0.00    -0.127 N  
HETATM    5  C   UNL     1      -7.284   7.535  65.779  1.00  0.00    -0.066 C  
HETATM    6  O   UNL     1      -6.875   6.498  65.265  1.00  0.00    -0.046 OA 
BRANCH   4   7
HETATM    7  C   UNL     1      -9.346   6.480  66.599  1.00  0.00    -0.158 C  
BRANCH   7   8
HETATM    8  C   UNL     1      -9.370   5.704  67.895  1.00  0.00    -0.112 A  
HETATM    9  H2  UNL     1     -11.326   7.469  68.245  1.00  0.00     0.000 HD 
HETATM   10  H1  UNL     1     -11.733   7.194  69.913  1.00  0.00     0.000 HD 
HETATM   11  N   UNL     1     -11.153   6.953  69.108  1.00  0.00    -0.194 NA 
HETATM   12  C   UNL     1     -10.222   6.058  69.077  1.00  0.00    -0.193 A  
HETATM   13  C   UNL     1      -8.418   4.782  68.186  1.00  0.00    -0.101 A  
HETATM   14  N   UNL     1      -8.130   4.208  69.414  1.00  0.00    -0.059 NA 
HETATM   15  C   UNL     1      -8.537   4.121  71.813  1.00  0.00    -0.119 C  
HETATM   16  N   UNL     1      -9.960   5.394  70.242  1.00  0.00    -0.210 NA 
HETATM   17  C   UNL     1      -8.895   4.558  70.409  1.00  0.00    -0.087 A  
ENDBRANCH   7   8
ENDBRANCH   4   7
ENDBRANCH   2   4
BRANCH   3  18
HETATM   18  C   UNL     1      -7.302   8.743  69.094  1.00  0.00    -0.072 C  
BRANCH  18  19
HETATM   19  C   UNL     1      -7.320   9.231  70.556  1.00  0.00    -0.116 C  
HETATM   20  H   UNL     1      -6.465  10.649  71.628  1.00  0.00     0.000 HD 
HETATM   21  O   UNL     1      -6.454  10.348  70.728  1.00  0.00    -0.302 OA 
ENDBRANCH  18  19
ENDBRANCH   3  18
BRANCH   3  22
HETATM   22  S   UNL     1      -8.772  11.101  68.578  1.00  0.00    -0.155 SA 
BRANCH  22  23
HETATM   23  S   UNL     1      -7.722  12.221  67.213  1.00  0.00    -0.143 SA 
BRANCH  23  24
HETATM   24  C   UNL     1      -8.320  13.940  67.405  1.00  0.00    -0.198 C  
BRANCH  24  25
HETATM   25  C   UNL     1      -9.792  14.240  67.134  1.00  0.00    -0.252 C  
HETATM   26  O   UNL     1     -10.499  14.208  68.396  1.00  0.00    -0.240 OA 
HETATM   27  C   UNL     1     -11.964  13.469  66.679  1.00  0.00    -0.452 C  
HETATM   28  C   UNL     1     -11.837  13.747  68.162  1.00  0.00    -0.376 C  
HETATM   29  C   UNL     1     -10.530  13.248  66.251  1.00  0.00    -0.289 C  
ENDBRANCH  24  25
ENDBRANCH  23  24
ENDBRANCH  22  23
ENDBRANCH   3  22
TORSDOF 9
ENDMDL
MODEL      280
REMARK 921   NORMALIZED FREE ENERGY PREDICTED BY IDOCK:   -2.96 KCAL/MOL
REMARK 922        TOTAL FREE ENERGY PREDICTED BY IDOCK:   -5.76 KCAL/MOL
REMARK 923 INTER-LIGAND FREE ENERGY PREDICTED BY IDOCK:   -6.23 KCAL/MOL
REMARK 924 INTRA-LIGAND FREE ENERGY PREDICTED BY IDOCK:    0.47 KCAL/MOL
REMARK 927      BINDING AFFINITY PREDICTED BY RF-SCORE:    0.00 PKD
ROOT
HETATM    1  C   UNL     1     -10.936   6.415  68.792  1.00  0.00    -0.404 C  
HETATM    2  C   UNL     1     -10.851   7.545  69.802  1.00  0.00    -0.225 C  
HETATM    3  C   UNL     1     -10.774   8.864  69.456  1.00  0.00    -0.199 C  
ENDROOT
BRANCH   2   4
HETATM    4  N   UNL     1     -10.974   7.095  71.121  1.00  0.00    -0.244 N  
HETATM    5  C   UNL     1     -11.031   8.001  72.171  1.00  0.00    -0.295 C  
HETATM    6  O   UNL     1     -11.111   7.693  73.357  1.00  0.00    -0.337 OA 
BRANCH   4   7
HETATM    7  C   UNL     1     -10.836   5.665  71.435  1.00  0.00    -0.222 C  
BRANCH   7   8
HETATM    8  C   UNL     1      -9.439   5.152  71.700  1.00  0.00    -0.193 A  
HETATM    9  H2  UNL     1     -10.923   2.970  72.017  1.00  0.00     0.000 HD 
HETATM   10  H1  UNL     1      -9.743   1.845  72.620  1.00  0.00     0.000 HD 
HETATM   11  N   UNL     1      -9.957   2.787  72.291  1.00  0.00    -0.163 NA 
HETATM   12  C   UNL     1      -9.124   3.769  72.185  1.00  0.00    -0.115 A  
HETATM   13  C   UNL     1      -8.379   5.995  71.778  1.00  0.00    -0.119 A  
HETATM   14  N   UNL     1      -7.116   5.736  72.289  1.00  0.00    -0.082 NA 
HETATM   15  C   UNL     1      -5.616   4.204  73.441  1.00  0.00    -0.007 C  
HETATM   16  N   UNL     1      -7.840   3.539  72.588  1.00  0.00    -0.067 NA 
HETATM   17  C   UNL     1      -6.900   4.521  72.705  1.00  0.00    -0.057 A  
ENDBRANCH   7   8
ENDBRANCH   4   7
ENDBRANCH   2   4
BRANCH   3  18
HETATM   18  C   UNL     1     -11.009  10.027  70.425  1.00  0.00    -0.384 C  
BRANCH  18  19
HETATM   19  C   UNL     1     -12.314  10.817  70.198  1.00  0.00    -0.325 C  
HETATM   20  H   UNL     1     -13.545  11.930  71.263  1.00  0.00     0.000 HD 
HETATM   21  O   UNL     1     -12.742  11.443  71.403  1.00  0.00    -0.401 OA 
ENDBRANCH  18  19
ENDBRANCH   3  18
BRANCH   3  22
HETATM   22  S   UNL     1     -10.432   9.264  67.765  1.00  0.00    -0.245 SA 
BRANCH  22  23
HETATM   23  S   UNL     1      -8.831  10.540  67.937  1.00  0.00    -0.135 SA 
BRANCH  23  24
HETATM   24  C   UNL     1      -9.371  12.127  67.202  1.00  0.00    -0.193 C  
BRANCH  24  25
HETATM   25  C   UNL     1     -10.849  12.320  66.874  1.00  0.00    -0.251 C  
HETATM   26  O   UNL     1     -11.094  11.774  65.557  1.00  0.00    -0.305 OA 
HETATM   27  C   UNL     1     -12.554  13.615  65.907  1.00  0.00    -0.478 C  
HETATM   28  C   UNL     1     -12.138  12.535  64.931  1.00  0.00    -0.440 C  
HETATM   29  C   UNL     1     -11.339  13.757  66.796  1.00  0.00    -0.345 C  
ENDBRANCH  24  25
ENDBRANCH  23  24
ENDBRANCH  22  23
ENDBRANCH   3  22
TORSDOF 9
ENDMDL
MODEL      281
REMARK 921   NORMALIZED FREE ENERGY PREDICTED BY IDOCK:   -2.94 KCAL/MOL
REMARK 922        TOTAL FREE ENERGY PREDICTED BY IDOCK:   -5.73 KCAL/MOL
REMARK 923 INTER-LIGAND FREE ENERGY PREDICTED BY IDOCK:   -5.46 KCAL/MOL
REMARK 924 INTRA-LIGAND FREE ENERGY PREDICTED BY IDOCK:   -0.27 KCAL/MOL
REMARK 927      BINDING AFFINITY PREDICTED BY RF-SCORE:    0.00 PKD
ROOT
HETATM    1  C   UNL     1      -7.679  10.648  68.627  1.00  0.00    -0.110 C  
HETATM    2  C   UNL     1      -8.479  10.355  67.371  1.00  0.00    -0.121 C  
HETATM    3  C   UNL     1      -8.093   9.453  66.421  1.00  0.00    -0.108 C  
ENDROOT
BRANCH   2   4
HETATM    4  N   UNL     1      -9.706  11.027  67.348  1.00  0.00    -0.168 N  
HETATM    5  C   UNL     1     -10.828  10.462  67.937  1.00  0.00    -0.279 C  
HETATM    6  O   UNL     1     -11.947  10.968  67.940  1.00  0.00    -0.620 OA 
BRANCH   4   7
HETATM    7  C   UNL     1      -9.878  12.235  66.528  1.00  0.00    -0.229 C  
BRANCH   7   8
HETATM    8  C   UNL     1     -10.141  13.530  67.260  1.00  0.00    -0.235 A  
HETATM    9  H2  UNL     1     -12.401  13.163  65.910  1.00  0.00     0.000 HD 
HETATM   10  H1  UNL     1     -13.224  14.663  66.218  1.00  0.00     0.000 HD 
HETATM   11  N   UNL     1     -12.399  14.079  66.359  1.00  0.00    -0.461 NA 
HETATM   12  C   UNL     1     -11.353  14.388  67.052  1.00  0.00    -0.346 A  
HETATM   13  C   UNL     1      -9.166  14.155  67.966  1.00  0.00    -0.195 A  
HETATM   14  N   UNL     1      -9.153  15.458  68.440  1.00  0.00    -0.186 NA 
HETATM   15  C   UNL     1     -10.227  17.640  68.545  1.00  0.00    -0.386 C  
HETATM   16  N   UNL     1     -11.330  15.630  67.621  1.00  0.00    -0.280 NA 
HETATM   17  C   UNL     1     -10.228  16.161  68.224  1.00  0.00    -0.248 A  
ENDBRANCH   7   8
ENDBRANCH   4   7
ENDBRANCH   2   4
BRANCH   3  18
HETATM   18  C   UNL     1      -9.011   8.904  65.325  1.00  0.00    -0.213 C  
BRANCH  18  19
HETATM   19  C   UNL     1      -8.592   9.250  63.883  1.00  0.00    -0.192 C  
HETATM   20  H   UNL     1      -7.866  10.807  62.912  1.00  0.00     0.000 HD 
HETATM   21  O   UNL     1      -8.125  10.593  63.801  1.00  0.00    -0.089 OA 
ENDBRANCH  18  19
ENDBRANCH   3  18
BRANCH   3  22
HETATM   22  S   UNL     1      -6.435   8.830  66.487  1.00  0.00    -0.063 SA 
BRANCH  22  23
HETATM   23  S   UNL     1      -6.725   6.890  67.098  1.00  0.00    -0.065 SA 
BRANCH  23  24
HETATM   24  C   UNL     1      -8.366   6.399  66.453  1.00  0.00    -0.119 C  
BRANCH  24  25
HETATM   25  C   UNL     1      -8.510   5.045  65.763  1.00  0.00    -0.124 C  
HETATM   26  O   UNL     1      -8.519   5.265  64.334  1.00  0.00    -0.139 OA 
HETATM   27  C   UNL     1      -9.887   3.387  64.828  1.00  0.00    -0.124 C  
HETATM   28  C   UNL     1      -9.347   4.266  63.720  1.00  0.00    -0.132 C  
HETATM   29  C   UNL     1      -9.791   4.279  66.046  1.00  0.00    -0.232 C  
ENDBRANCH  24  25
ENDBRANCH  23  24
ENDBRANCH  22  23
ENDBRANCH   3  22
TORSDOF 9
ENDMDL
MODEL      282
REMARK 921   NORMALIZED FREE ENERGY PREDICTED BY IDOCK:   -2.94 KCAL/MOL
REMARK 922        TOTAL FREE ENERGY PREDICTED BY IDOCK:   -5.72 KCAL/MOL
REMARK 923 INTER-LIGAND FREE ENERGY PREDICTED BY IDOCK:   -5.01 KCAL/MOL
REMARK 924 INTRA-LIGAND FREE ENERGY PREDICTED BY IDOCK:   -0.71 KCAL/MOL
REMARK 927      BINDING AFFINITY PREDICTED BY RF-SCORE:    0.00 PKD
ROOT
HETATM    1  C   UNL     1     -13.183   7.884  71.212  1.00  0.00    -0.211 C  
HETATM    2  C   UNL     1     -11.998   8.833  71.191  1.00  0.00    -0.285 C  
HETATM    3  C   UNL     1     -10.700   8.425  71.312  1.00  0.00    -0.230 C  
ENDROOT
BRANCH   2   4
HETATM    4  N   UNL     1     -12.373  10.153  70.921  1.00  0.00    -0.337 N  
HETATM    5  C   UNL     1     -12.734  11.008  71.953  1.00  0.00    -0.204 C  
HETATM    6  O   UNL     1     -13.102  12.170  71.803  1.00  0.00    -0.438 OA 
BRANCH   4   7
HETATM    7  C   UNL     1     -12.590  10.596  69.535  1.00  0.00     0.177 C  
BRANCH   7   8
HETATM    8  C   UNL     1     -11.400  10.547  68.604  1.00  0.00    -0.315 A  
HETATM    9  H2  UNL     1     -11.366  13.067  69.450  1.00  0.00     0.000 HD 
HETATM   10  H1  UNL     1     -10.123  13.743  68.441  1.00  0.00     0.000 HD 
HETATM   11  N   UNL     1     -10.676  12.930  68.711  1.00  0.00    -0.242 NA 
HETATM   12  C   UNL     1     -10.588  11.743  68.207  1.00  0.00    -0.211 A  
HETATM   13  C   UNL     1     -11.144   9.456  67.842  1.00  0.00     0.077 A  
HETATM   14  N   UNL     1     -10.293   9.354  66.751  1.00  0.00    -0.248 NA 
HETATM   15  C   UNL     1      -8.809  10.455  65.165  1.00  0.00    -0.207 C  
HETATM   16  N   UNL     1      -9.694  11.566  67.189  1.00  0.00    -0.183 NA 
HETATM   17  C   UNL     1      -9.618  10.426  66.444  1.00  0.00    -0.179 A  
ENDBRANCH   7   8
ENDBRANCH   4   7
ENDBRANCH   2   4
BRANCH   3  18
HETATM   18  C   UNL     1      -9.484   9.295  70.977  1.00  0.00    -0.313 C  
BRANCH  18  19
HETATM   19  C   UNL     1      -8.119   8.592  71.110  1.00  0.00    -0.146 C  
HETATM   20  H   UNL     1      -6.271   9.082  71.595  1.00  0.00     0.000 HD 
HETATM   21  O   UNL     1      -7.112   9.515  71.513  1.00  0.00    -0.324 OA 
ENDBRANCH  18  19
ENDBRANCH   3  18
BRANCH   3  22
HETATM   22  S   UNL     1     -10.394   6.762  71.841  1.00  0.00    -0.197 SA 
BRANCH  22  23
HETATM   23  S   UNL     1     -10.661   5.698  70.104  1.00  0.00    -0.301 SA 
BRANCH  23  24
HETATM   24  C   UNL     1      -8.991   5.477  69.388  1.00  0.00    -0.106 C  
BRANCH  24  25
HETATM   25  C   UNL     1      -8.850   5.354  67.873  1.00  0.00    -0.105 C  
HETATM   26  O   UNL     1      -9.536   4.152  67.452  1.00  0.00    -0.176 OA 
HETATM   27  C   UNL     1      -7.685   4.523  66.010  1.00  0.00    -0.094 C  
HETATM   28  C   UNL     1      -8.858   3.613  66.308  1.00  0.00    -0.128 C  
HETATM   29  C   UNL     1      -7.436   5.201  67.339  1.00  0.00    -0.083 C  
ENDBRANCH  24  25
ENDBRANCH  23  24
ENDBRANCH  22  23
ENDBRANCH   3  22
TORSDOF 9
ENDMDL
MODEL      283
REMARK 921   NORMALIZED FREE ENERGY PREDICTED BY IDOCK:   -2.93 KCAL/MOL
REMARK 922        TOTAL FREE ENERGY PREDICTED BY IDOCK:   -5.72 KCAL/MOL
REMARK 923 INTER-LIGAND FREE ENERGY PREDICTED BY IDOCK:   -6.32 KCAL/MOL
REMARK 924 INTRA-LIGAND FREE ENERGY PREDICTED BY IDOCK:    0.60 KCAL/MOL
REMARK 927      BINDING AFFINITY PREDICTED BY RF-SCORE:    0.00 PKD
ROOT
HETATM    1  C   UNL     1      -7.974  11.336  66.622  1.00  0.00    -0.159 C  
HETATM    2  C   UNL     1      -8.929  11.502  67.790  1.00  0.00    -0.160 C  
HETATM    3  C   UNL     1      -9.358  12.714  68.249  1.00  0.00    -0.195 C  
ENDROOT
BRANCH   2   4
HETATM    4  N   UNL     1      -9.407  10.278  68.270  1.00  0.00    -0.136 N  
HETATM    5  C   UNL     1      -8.844   9.696  69.397  1.00  0.00    -0.180 C  
HETATM    6  O   UNL     1      -9.183   8.614  69.869  1.00  0.00    -0.150 OA 
BRANCH   4   7
HETATM    7  C   UNL     1     -10.364   9.491  67.478  1.00  0.00    -0.248 C  
BRANCH   7   8
HETATM    8  C   UNL     1      -9.993   8.056  67.181  1.00  0.00    -0.303 A  
HETATM    9  H2  UNL     1      -8.047   9.413  65.983  1.00  0.00     0.000 HD 
HETATM   10  H1  UNL     1      -7.221   8.139  65.136  1.00  0.00     0.000 HD 
HETATM   11  N   UNL     1      -7.983   8.421  65.753  1.00  0.00    -0.103 NA 
HETATM   12  C   UNL     1      -8.874   7.643  66.273  1.00  0.00    -0.156 A  
HETATM   13  C   UNL     1     -10.821   7.031  67.501  1.00  0.00    -0.267 A  
HETATM   14  N   UNL     1     -10.774   5.720  67.052  1.00  0.00    -0.295 NA 
HETATM   15  C   UNL     1      -9.763   4.064  65.581  1.00  0.00    -0.192 C  
HETATM   16  N   UNL     1      -8.815   6.320  65.936  1.00  0.00    -0.156 NA 
HETATM   17  C   UNL     1      -9.786   5.417  66.258  1.00  0.00    -0.162 A  
ENDBRANCH   7   8
ENDBRANCH   4   7
ENDBRANCH   2   4
BRANCH   3  18
HETATM   18  C   UNL     1     -10.547  12.909  69.195  1.00  0.00     0.009 C  
BRANCH  18  19
HETATM   19  C   UNL     1     -11.729  11.945  68.972  1.00  0.00    -0.331 C  
HETATM   20  H   UNL     1     -12.858  10.749  70.060  1.00  0.00     0.000 HD 
HETATM   21  O   UNL     1     -12.129  11.343  70.198  1.00  0.00    -0.319 OA 
ENDBRANCH  18  19
ENDBRANCH   3  18
BRANCH   3  22
HETATM   22  S   UNL     1      -8.522  14.167  67.676  1.00  0.00    -0.200 SA 
BRANCH  22  23
HETATM   23  S   UNL     1      -9.610  14.662  66.004  1.00  0.00    -0.255 SA 
BRANCH  23  24
HETATM   24  C   UNL     1     -11.314  14.075  66.321  1.00  0.00    -0.333 C  
BRANCH  24  25
HETATM   25  C   UNL     1     -11.916  13.025  65.390  1.00  0.00    -0.414 C  
HETATM   26  O   UNL     1     -10.943  11.969  65.213  1.00  0.00    -0.292 OA 
HETATM   27  C   UNL     1     -12.215  12.182  63.218  1.00  0.00    -0.533 C  
HETATM   28  C   UNL     1     -11.096  11.420  63.896  1.00  0.00    -0.329 C  
HETATM   29  C   UNL     1     -12.248  13.487  63.981  1.00  0.00    -0.458 C  
ENDBRANCH  24  25
ENDBRANCH  23  24
ENDBRANCH  22  23
ENDBRANCH   3  22
TORSDOF 9
ENDMDL
MODEL      284
REMARK 921   NORMALIZED FREE ENERGY PREDICTED BY IDOCK:   -2.91 KCAL/MOL
REMARK 922        TOTAL FREE ENERGY PREDICTED BY IDOCK:   -5.68 KCAL/MOL
REMARK 923 INTER-LIGAND FREE ENERGY PREDICTED BY IDOCK:   -4.58 KCAL/MOL
REMARK 924 INTRA-LIGAND FREE ENERGY PREDICTED BY IDOCK:   -1.10 KCAL/MOL
REMARK 927      BINDING AFFINITY PREDICTED BY RF-SCORE:    0.00 PKD
ROOT
HETATM    1  C   UNL     1     -10.620   8.762  67.266  1.00  0.00    -0.303 C  
HETATM    2  C   UNL     1      -9.858   9.518  68.339  1.00  0.00    -0.158 C  
HETATM    3  C   UNL     1      -8.495   9.568  68.406  1.00  0.00    -0.119 C  
ENDROOT
BRANCH   2   4
HETATM    4  N   UNL     1     -10.703  10.249  69.181  1.00  0.00    -0.214 N  
HETATM    5  C   UNL     1     -11.327  11.402  68.725  1.00  0.00    -0.271 C  
HETATM    6  O   UNL     1     -12.059  12.117  69.404  1.00  0.00    -0.268 OA 
BRANCH   4   7
HETATM    7  C   UNL     1     -10.781   9.930  70.615  1.00  0.00    -0.303 C  
BRANCH   7   8
HETATM    8  C   UNL     1     -11.047   8.489  70.984  1.00  0.00    -0.306 A  
HETATM    9  H2  UNL     1     -13.488   9.541  70.975  1.00  0.00     0.000 HD 
HETATM   10  H1  UNL     1     -14.425   8.221  71.610  1.00  0.00     0.000 HD 
HETATM   11  N   UNL     1     -13.513   8.585  71.333  1.00  0.00    -0.270 NA 
HETATM   12  C   UNL     1     -12.387   7.954  71.391  1.00  0.00    -0.312 A  
HETATM   13  C   UNL     1     -10.033   7.625  71.237  1.00  0.00    -0.179 A  
HETATM   14  N   UNL     1     -10.098   6.386  71.855  1.00  0.00    -0.183 NA 
HETATM   15  C   UNL     1     -11.427   4.722  73.036  1.00  0.00    -0.297 C  
HETATM   16  N   UNL     1     -12.410   6.690  71.907  1.00  0.00    -0.342 NA 
HETATM   17  C   UNL     1     -11.286   5.974  72.197  1.00  0.00    -0.299 A  
ENDBRANCH   7   8
ENDBRANCH   4   7
ENDBRANCH   2   4
BRANCH   3  18
HETATM   18  C   UNL     1      -7.706  10.564  69.262  1.00  0.00    -0.144 C  
BRANCH  18  19
HETATM   19  C   UNL     1      -6.680  11.420  68.494  1.00  0.00    -0.069 C  
HETATM   20  H   UNL     1      -6.695  12.759  67.046  1.00  0.00     0.000 HD 
HETATM   21  O   UNL     1      -7.327  12.231  67.519  1.00  0.00    -0.115 OA 
ENDBRANCH  18  19
ENDBRANCH   3  18
BRANCH   3  22
HETATM   22  S   UNL     1      -7.569   8.442  67.399  1.00  0.00    -0.098 SA 
BRANCH  22  23
HETATM   23  S   UNL     1      -6.413   7.467  68.789  1.00  0.00    -0.045 SA 
BRANCH  23  24
HETATM   24  C   UNL     1      -6.984   5.728  68.787  1.00  0.00    -0.068 C  
BRANCH  24  25
HETATM   25  C   UNL     1      -7.249   5.039  70.124  1.00  0.00    -0.058 C  
HETATM   26  O   UNL     1      -6.983   5.990  71.181  1.00  0.00    -0.064 OA 
HETATM   27  C   UNL     1      -6.450   3.809  71.959  1.00  0.00    -0.015 C  
HETATM   28  C   UNL     1      -6.497   5.277  72.328  1.00  0.00    -0.051 C  
HETATM   29  C   UNL     1      -6.372   3.842  70.449  1.00  0.00    -0.027 C  
ENDBRANCH  24  25
ENDBRANCH  23  24
ENDBRANCH  22  23
ENDBRANCH   3  22
TORSDOF 9
ENDMDL
MODEL      285
REMARK 921   NORMALIZED FREE ENERGY PREDICTED BY IDOCK:   -2.86 KCAL/MOL
REMARK 922        TOTAL FREE ENERGY PREDICTED BY IDOCK:   -5.61 KCAL/MOL
REMARK 923 INTER-LIGAND FREE ENERGY PREDICTED BY IDOCK:   -5.22 KCAL/MOL
REMARK 924 INTRA-LIGAND FREE ENERGY PREDICTED BY IDOCK:   -0.39 KCAL/MOL
REMARK 927      BINDING AFFINITY PREDICTED BY RF-SCORE:    0.00 PKD
ROOT
HETATM    1  C   UNL     1     -10.677  10.066  70.697  1.00  0.00    -0.325 C  
HETATM    2  C   UNL     1     -10.025   9.073  69.753  1.00  0.00    -0.196 C  
HETATM    3  C   UNL     1      -9.071   9.414  68.837  1.00  0.00    -0.140 C  
ENDROOT
BRANCH   2   4
HETATM    4  N   UNL     1     -10.425   7.755  70.000  1.00  0.00    -0.225 N  
HETATM    5  C   UNL     1     -10.804   6.927  68.953  1.00  0.00    -0.207 C  
HETATM    6  O   UNL     1     -11.195   5.770  69.082  1.00  0.00    -0.270 OA 
BRANCH   4   7
HETATM    7  C   UNL     1     -10.650   7.292  71.377  1.00  0.00    -0.211 C  
BRANCH   7   8
HETATM    8  C   UNL     1      -9.734   6.207  71.895  1.00  0.00    -0.169 A  
HETATM    9  H2  UNL     1     -12.112   5.426  72.788  1.00  0.00     0.000 HD 
HETATM   10  H1  UNL     1     -11.666   4.089  73.806  1.00  0.00     0.000 HD 
HETATM   11  N   UNL     1     -11.374   4.837  73.176  1.00  0.00    -0.309 NA 
HETATM   12  C   UNL     1     -10.162   5.109  72.821  1.00  0.00    -0.179 A  
HETATM   13  C   UNL     1      -8.386   6.304  71.775  1.00  0.00    -0.121 A  
HETATM   14  N   UNL     1      -7.413   5.566  72.433  1.00  0.00    -0.095 NA 
HETATM   15  C   UNL     1      -6.856   3.905  74.124  1.00  0.00    -0.054 C  
HETATM   16  N   UNL     1      -9.169   4.349  73.370  1.00  0.00    -0.112 NA 
HETATM   17  C   UNL     1      -7.842   4.631  73.233  1.00  0.00    -0.096 A  
ENDBRANCH   7   8
ENDBRANCH   4   7
ENDBRANCH   2   4
BRANCH   3  18
HETATM   18  C   UNL     1      -8.175   8.410  68.105  1.00  0.00    -0.124 C  
BRANCH  18  19
HETATM   19  C   UNL     1      -8.260   8.454  66.567  1.00  0.00    -0.105 C  
HETATM   20  H   UNL     1      -8.999   7.337  65.118  1.00  0.00     0.000 HD 
HETATM   21  O   UNL     1      -8.946   7.310  66.066  1.00  0.00    -0.165 OA 
ENDBRANCH  18  19
ENDBRANCH   3  18
BRANCH   3  22
HETATM   22  S   UNL     1      -8.810  11.135  68.506  1.00  0.00    -0.154 SA 
BRANCH  22  23
HETATM   23  S   UNL     1     -10.405  11.590  67.294  1.00  0.00    -0.213 SA 
BRANCH  23  24
HETATM   24  C   UNL     1      -9.835  12.940  66.197  1.00  0.00    -0.270 C  
BRANCH  24  25
HETATM   25  C   UNL     1     -10.653  14.227  66.128  1.00  0.00    -0.293 C  
HETATM   26  O   UNL     1     -11.410  14.214  64.896  1.00  0.00    -0.334 OA 
HETATM   27  C   UNL     1     -10.854  16.461  65.431  1.00  0.00    -0.249 C  
HETATM   28  C   UNL     1     -11.562  15.565  64.436  1.00  0.00    -0.258 C  
HETATM   29  C   UNL     1      -9.863  15.524  66.086  1.00  0.00    -0.342 C  
ENDBRANCH  24  25
ENDBRANCH  23  24
ENDBRANCH  22  23
ENDBRANCH   3  22
TORSDOF 9
ENDMDL
MODEL      286
REMARK 921   NORMALIZED FREE ENERGY PREDICTED BY IDOCK:   -2.85 KCAL/MOL
REMARK 922        TOTAL FREE ENERGY PREDICTED BY IDOCK:   -5.60 KCAL/MOL
REMARK 923 INTER-LIGAND FREE ENERGY PREDICTED BY IDOCK:   -4.37 KCAL/MOL
REMARK 924 INTRA-LIGAND FREE ENERGY PREDICTED BY IDOCK:   -1.23 KCAL/MOL
REMARK 927      BINDING AFFINITY PREDICTED BY RF-SCORE:    0.00 PKD
ROOT
HETATM    1  C   UNL     1      -9.886   7.940  67.377  1.00  0.00    -0.237 C  
HETATM    2  C   UNL     1      -9.019   7.744  68.607  1.00  0.00    -0.133 C  
HETATM    3  C   UNL     1      -9.509   7.721  69.882  1.00  0.00    -0.160 C  
ENDROOT
BRANCH   2   4
HETATM    4  N   UNL     1      -7.684   7.478  68.286  1.00  0.00    -0.117 N  
HETATM    5  C   UNL     1      -6.830   8.508  67.916  1.00  0.00    -0.067 C  
HETATM    6  O   UNL     1      -5.655   8.360  67.592  1.00  0.00    -0.037 OA 
BRANCH   4   7
HETATM    7  C   UNL     1      -7.217   6.091  68.133  1.00  0.00    -0.080 C  
BRANCH   7   8
HETATM    8  C   UNL     1      -7.859   5.267  67.042  1.00  0.00    -0.100 A  
HETATM    9  H2  UNL     1      -6.435   7.038  65.664  1.00  0.00     0.000 HD 
HETATM   10  H1  UNL     1      -6.962   6.705  64.041  1.00  0.00     0.000 HD 
HETATM   11  N   UNL     1      -7.022   6.489  65.036  1.00  0.00    -0.050 NA 
HETATM   12  C   UNL     1      -7.771   5.586  65.579  1.00  0.00    -0.089 A  
HETATM   13  C   UNL     1      -8.794   4.326  67.323  1.00  0.00    -0.113 A  
HETATM   14  N   UNL     1      -9.672   3.703  66.448  1.00  0.00    -0.135 NA 
HETATM   15  C   UNL     1     -10.591   3.531  64.200  1.00  0.00    -0.207 C  
HETATM   16  N   UNL     1      -8.590   4.876  64.747  1.00  0.00    -0.145 NA 
HETATM   17  C   UNL     1      -9.558   4.024  65.191  1.00  0.00    -0.181 A  
ENDBRANCH   7   8
ENDBRANCH   4   7
ENDBRANCH   2   4
BRANCH   3  18
HETATM   18  C   UNL     1      -8.730   7.213  71.100  1.00  0.00    -0.133 C  
BRANCH  18  19
HETATM   19  C   UNL     1      -8.211   8.309  72.051  1.00  0.00    -0.160 C  
HETATM   20  H   UNL     1      -7.277  10.040  71.905  1.00  0.00     0.000 HD 
HETATM   21  O   UNL     1      -7.597   9.365  71.319  1.00  0.00    -0.333 OA 
ENDBRANCH  18  19
ENDBRANCH   3  18
BRANCH   3  22
HETATM   22  S   UNL     1     -11.175   8.264  70.145  1.00  0.00    -0.058 SA 
BRANCH  22  23
HETATM   23  S   UNL     1     -10.976  10.308  70.101  1.00  0.00    -0.311 SA 
BRANCH  23  24
HETATM   24  C   UNL     1     -12.026  10.885  68.718  1.00  0.00    -0.160 C  
BRANCH  24  25
HETATM   25  C   UNL     1     -11.568  12.091  67.901  1.00  0.00    -0.337 C  
HETATM   26  O   UNL     1     -10.989  11.607  66.667  1.00  0.00    -0.274 OA 
HETATM   27  C   UNL     1      -9.874  13.606  67.305  1.00  0.00    -0.241 C  
HETATM   28  C   UNL     1      -9.949  12.510  66.262  1.00  0.00    -0.252 C  
HETATM   29  C   UNL     1     -10.486  12.955  68.525  1.00  0.00    -0.260 C  
ENDBRANCH  24  25
ENDBRANCH  23  24
ENDBRANCH  22  23
ENDBRANCH   3  22
TORSDOF 9
ENDMDL
MODEL      287
REMARK 921   NORMALIZED FREE ENERGY PREDICTED BY IDOCK:   -2.82 KCAL/MOL
REMARK 922        TOTAL FREE ENERGY PREDICTED BY IDOCK:   -5.55 KCAL/MOL
REMARK 923 INTER-LIGAND FREE ENERGY PREDICTED BY IDOCK:   -4.80 KCAL/MOL
REMARK 924 INTRA-LIGAND FREE ENERGY PREDICTED BY IDOCK:   -0.75 KCAL/MOL
REMARK 927      BINDING AFFINITY PREDICTED BY RF-SCORE:    0.00 PKD
ROOT
HETATM    1  C   UNL     1      -9.952   9.216  66.899  1.00  0.00    -0.304 C  
HETATM    2  C   UNL     1      -8.813   9.413  67.883  1.00  0.00    -0.124 C  
HETATM    3  C   UNL     1      -8.991   9.817  69.175  1.00  0.00    -0.161 C  
ENDROOT
BRANCH   2   4
HETATM    4  N   UNL     1      -7.576   9.028  67.355  1.00  0.00    -0.088 N  
HETATM    5  C   UNL     1      -7.108   9.591  66.176  1.00  0.00    -0.092 C  
HETATM    6  O   UNL     1      -6.049   9.292  65.630  1.00  0.00    -0.057 OA 
BRANCH   4   7
HETATM    7  C   UNL     1      -6.851   7.880  67.921  1.00  0.00    -0.072 C  
BRANCH   7   8
HETATM    8  C   UNL     1      -7.516   6.528  67.815  1.00  0.00    -0.097 A  
HETATM    9  H2  UNL     1      -6.268   6.373  70.156  1.00  0.00     0.000 HD 
HETATM   10  H1  UNL     1      -6.518   4.701  70.561  1.00  0.00     0.000 HD 
HETATM   11  N   UNL     1      -6.664   5.467  69.903  1.00  0.00    -0.049 NA 
HETATM   12  C   UNL     1      -7.301   5.402  68.781  1.00  0.00    -0.074 A  
HETATM   13  C   UNL     1      -8.152   6.139  66.681  1.00  0.00    -0.109 A  
HETATM   14  N   UNL     1      -8.550   4.861  66.319  1.00  0.00    -0.114 NA 
HETATM   15  C   UNL     1      -8.567   2.475  66.804  1.00  0.00    -0.117 C  
HETATM   16  N   UNL     1      -7.797   4.181  68.420  1.00  0.00    -0.073 NA 
HETATM   17  C   UNL     1      -8.330   3.919  67.192  1.00  0.00    -0.099 A  
ENDBRANCH   7   8
ENDBRANCH   4   7
ENDBRANCH   2   4
BRANCH   3  18
HETATM   18  C   UNL     1      -7.922   9.717  70.268  1.00  0.00    -0.185 C  
BRANCH  18  19
HETATM   19  C   UNL     1      -8.256   8.756  71.426  1.00  0.00    -0.153 C  
HETATM   20  H   UNL     1      -9.175   7.026  71.663  1.00  0.00     0.000 HD 
HETATM   21  O   UNL     1      -8.970   7.619  70.950  1.00  0.00    -0.145 OA 
ENDBRANCH  18  19
ENDBRANCH   3  18
BRANCH   3  22
HETATM   22  S   UNL     1     -10.578  10.452  69.640  1.00  0.00    -0.246 SA 
BRANCH  22  23
HETATM   23  S   UNL     1     -10.609  12.277  68.695  1.00  0.00    -0.199 SA 
BRANCH  23  24
HETATM   24  C   UNL     1     -12.035  12.226  67.550  1.00  0.00    -0.140 C  
BRANCH  24  25
HETATM   25  C   UNL     1     -12.041  13.160  66.341  1.00  0.00    -0.382 C  
HETATM   26  O   UNL     1     -12.723  12.489  65.256  1.00  0.00    -0.654 OA 
HETATM   27  C   UNL     1     -11.038  13.896  64.349  1.00  0.00    -0.332 C  
HETATM   28  C   UNL     1     -12.143  12.917  64.015  1.00  0.00    -0.455 C  
HETATM   29  C   UNL     1     -10.682  13.534  65.774  1.00  0.00    -0.278 C  
ENDBRANCH  24  25
ENDBRANCH  23  24
ENDBRANCH  22  23
ENDBRANCH   3  22
TORSDOF 9
ENDMDL
MODEL      288
REMARK 921   NORMALIZED FREE ENERGY PREDICTED BY IDOCK:   -2.82 KCAL/MOL
REMARK 922        TOTAL FREE ENERGY PREDICTED BY IDOCK:   -5.54 KCAL/MOL
REMARK 923 INTER-LIGAND FREE ENERGY PREDICTED BY IDOCK:   -4.69 KCAL/MOL
REMARK 924 INTRA-LIGAND FREE ENERGY PREDICTED BY IDOCK:   -0.85 KCAL/MOL
REMARK 927      BINDING AFFINITY PREDICTED BY RF-SCORE:    0.00 PKD
ROOT
HETATM    1  C   UNL     1     -10.646   9.531  66.467  1.00  0.00    -0.133 C  
HETATM    2  C   UNL     1      -9.357  10.261  66.797  1.00  0.00    -0.160 C  
HETATM    3  C   UNL     1      -9.259  11.226  67.758  1.00  0.00    -0.156 C  
ENDROOT
BRANCH   2   4
HETATM    4  N   UNL     1      -8.260   9.759  66.089  1.00  0.00    -0.119 N  
HETATM    5  C   UNL     1      -8.028  10.151  64.779  1.00  0.00    -0.146 C  
HETATM    6  O   UNL     1      -7.108   9.740  64.077  1.00  0.00    -0.113 OA 
BRANCH   4   7
HETATM    7  C   UNL     1      -7.458   8.657  66.644  1.00  0.00    -0.089 C  
BRANCH   7   8
HETATM    8  C   UNL     1      -8.212   7.505  67.266  1.00  0.00    -0.115 A  
HETATM    9  H2  UNL     1      -7.790   9.105  69.345  1.00  0.00     0.000 HD 
HETATM   10  H1  UNL     1      -8.350   8.109  70.655  1.00  0.00     0.000 HD 
HETATM   11  N   UNL     1      -8.190   8.219  69.654  1.00  0.00    -0.116 NA 
HETATM   12  C   UNL     1      -8.446   7.344  68.738  1.00  0.00    -0.129 A  
HETATM   13  C   UNL     1      -8.500   6.384  66.558  1.00  0.00    -0.118 A  
HETATM   14  N   UNL     1      -8.913   5.151  67.039  1.00  0.00    -0.112 NA 
HETATM   15  C   UNL     1      -9.364   3.712  68.950  1.00  0.00    -0.235 C  
HETATM   16  N   UNL     1      -8.944   6.141  69.151  1.00  0.00    -0.126 NA 
HETATM   17  C   UNL     1      -9.092   5.064  68.327  1.00  0.00    -0.115 A  
ENDBRANCH   7   8
ENDBRANCH   4   7
ENDBRANCH   2   4
BRANCH   3  18
HETATM   18  C   UNL     1      -7.937  11.746  68.332  1.00  0.00    -0.147 C  
BRANCH  18  19
HETATM   19  C   UNL     1      -7.202  12.778  67.456  1.00  0.00    -0.154 C  
HETATM   20  H   UNL     1      -5.491  13.760  67.488  1.00  0.00     0.000 HD 
HETATM   21  O   UNL     1      -5.944  13.124  68.028  1.00  0.00    -0.090 OA 
ENDBRANCH  18  19
ENDBRANCH   3  18
BRANCH   3  22
HETATM   22  S   UNL     1     -10.758  11.891  68.429  1.00  0.00    -0.231 SA 
BRANCH  22  23
HETATM   23  S   UNL     1     -10.713  13.831  67.754  1.00  0.00    -0.249 SA 
BRANCH  23  24
HETATM   24  C   UNL     1     -10.171  14.846  69.177  1.00  0.00    -0.242 C  
BRANCH  24  25
HETATM   25  C   UNL     1     -11.229  15.415  70.119  1.00  0.00    -0.302 C  
HETATM   26  O   UNL     1     -10.824  15.129  71.478  1.00  0.00    -0.185 OA 
HETATM   27  C   UNL     1     -13.197  15.118  71.368  1.00  0.00    -0.528 C  
HETATM   28  C   UNL     1     -12.000  14.946  72.280  1.00  0.00    -0.309 C  
HETATM   29  C   UNL     1     -12.624  14.827  69.998  1.00  0.00    -0.268 C  
ENDBRANCH  24  25
ENDBRANCH  23  24
ENDBRANCH  22  23
ENDBRANCH   3  22
TORSDOF 9
ENDMDL
MODEL      289
REMARK 921   NORMALIZED FREE ENERGY PREDICTED BY IDOCK:   -2.75 KCAL/MOL
REMARK 922        TOTAL FREE ENERGY PREDICTED BY IDOCK:   -5.44 KCAL/MOL
REMARK 923 INTER-LIGAND FREE ENERGY PREDICTED BY IDOCK:   -4.84 KCAL/MOL
REMARK 924 INTRA-LIGAND FREE ENERGY PREDICTED BY IDOCK:   -0.60 KCAL/MOL
REMARK 927      BINDING AFFINITY PREDICTED BY RF-SCORE:    0.00 PKD
ROOT
HETATM    1  C   UNL     1     -10.938   9.510  70.736  1.00  0.00    -0.389 C  
HETATM    2  C   UNL     1     -10.037   8.310  70.962  1.00  0.00    -0.191 C  
HETATM    3  C   UNL     1      -9.603   7.490  69.961  1.00  0.00    -0.164 C  
ENDROOT
BRANCH   2   4
HETATM    4  N   UNL     1      -9.610   8.203  72.291  1.00  0.00    -0.224 N  
HETATM    5  C   UNL     1      -8.365   8.682  72.670  1.00  0.00     0.017 C  
HETATM    6  O   UNL     1      -7.901   8.605  73.805  1.00  0.00    -0.407 OA 
BRANCH   4   7
HETATM    7  C   UNL     1     -10.378   7.403  73.257  1.00  0.00    -0.355 C  
BRANCH   7   8
HETATM    8  C   UNL     1     -10.203   5.903  73.199  1.00  0.00    -0.212 A  
HETATM    9  H2  UNL     1      -7.796   6.735  73.958  1.00  0.00     0.000 HD 
HETATM   10  H1  UNL     1      -6.889   5.254  73.883  1.00  0.00     0.000 HD 
HETATM   11  N   UNL     1      -7.781   5.734  73.760  1.00  0.00    -0.097 NA 
HETATM   12  C   UNL     1      -8.893   5.198  73.379  1.00  0.00    -0.113 A  
HETATM   13  C   UNL     1     -11.176   5.096  72.708  1.00  0.00    -0.255 A  
HETATM   14  N   UNL     1     -11.073   3.768  72.321  1.00  0.00     0.434 NA 
HETATM   15  C   UNL     1      -9.661   1.824  71.929  1.00  0.00    -0.199 C  
HETATM   16  N   UNL     1      -8.867   3.866  73.074  1.00  0.00    -0.097 NA 
HETATM   17  C   UNL     1      -9.909   3.207  72.490  1.00  0.00    -0.150 A  
ENDBRANCH   7   8
ENDBRANCH   4   7
ENDBRANCH   2   4
BRANCH   3  18
HETATM   18  C   UNL     1      -8.457   6.483  70.101  1.00  0.00    -0.135 C  
BRANCH  18  19
HETATM   19  C   UNL     1      -8.740   5.081  69.526  1.00  0.00    -0.091 C  
HETATM   20  H   UNL     1      -7.761   3.389  69.266  1.00  0.00     0.000 HD 
HETATM   21  O   UNL     1      -7.586   4.253  69.620  1.00  0.00    -0.053 OA 
ENDBRANCH  18  19
ENDBRANCH   3  18
BRANCH   3  22
HETATM   22  S   UNL     1     -10.378   7.630  68.373  1.00  0.00    -0.176 SA 
BRANCH  22  23
HETATM   23  S   UNL     1      -8.904   8.516  67.249  1.00  0.00    -0.130 SA 
BRANCH  23  24
HETATM   24  C   UNL     1      -9.739   9.192  65.767  1.00  0.00    -0.229 C  
BRANCH  24  25
HETATM   25  C   UNL     1      -9.825  10.707  65.599  1.00  0.00    -0.251 C  
HETATM   26  O   UNL     1     -10.952  11.183  66.370  1.00  0.00    -0.262 OA 
HETATM   27  C   UNL     1     -10.691  12.570  64.459  1.00  0.00    -0.360 C  
HETATM   28  C   UNL     1     -11.509  12.329  65.710  1.00  0.00    -0.367 C  
HETATM   29  C   UNL     1     -10.077  11.214  64.189  1.00  0.00    -0.388 C  
ENDBRANCH  24  25
ENDBRANCH  23  24
ENDBRANCH  22  23
ENDBRANCH   3  22
TORSDOF 9
ENDMDL
MODEL      290
REMARK 921   NORMALIZED FREE ENERGY PREDICTED BY IDOCK:   -2.69 KCAL/MOL
REMARK 922        TOTAL FREE ENERGY PREDICTED BY IDOCK:   -5.34 KCAL/MOL
REMARK 923 INTER-LIGAND FREE ENERGY PREDICTED BY IDOCK:   -5.43 KCAL/MOL
REMARK 924 INTRA-LIGAND FREE ENERGY PREDICTED BY IDOCK:    0.09 KCAL/MOL
REMARK 927      BINDING AFFINITY PREDICTED BY RF-SCORE:    0.00 PKD
ROOT
HETATM    1  C   UNL     1     -11.804  10.831  67.907  1.00  0.00     0.139 C  
HETATM    2  C   UNL     1     -10.567  11.091  67.068  1.00  0.00    -0.256 C  
HETATM    3  C   UNL     1      -9.489  10.254  67.029  1.00  0.00    -0.163 C  
ENDROOT
BRANCH   2   4
HETATM    4  N   UNL     1     -10.699  12.222  66.255  1.00  0.00    -0.252 N  
HETATM    5  C   UNL     1     -10.107  12.259  65.000  1.00  0.00    -0.253 C  
HETATM    6  O   UNL     1     -10.149  13.219  64.235  1.00  0.00    -0.338 OA 
BRANCH   4   7
HETATM    7  C   UNL     1     -11.285  13.460  66.791  1.00  0.00    -0.310 C  
BRANCH   7   8
HETATM    8  C   UNL     1     -10.323  14.531  67.253  1.00  0.00    -0.260 A  
HETATM    9  H2  UNL     1     -11.472  15.661  65.140  1.00  0.00     0.000 HD 
HETATM   10  H1  UNL     1     -10.521  17.107  64.973  1.00  0.00     0.000 HD 
HETATM   11  N   UNL     1     -10.703  16.240  65.479  1.00  0.00    -0.348 NA 
HETATM   12  C   UNL     1     -10.055  15.804  66.508  1.00  0.00    -0.282 A  
HETATM   13  C   UNL     1      -9.425  14.296  68.241  1.00  0.00    -0.209 A  
HETATM   14  N   UNL     1      -8.308  15.045  68.578  1.00  0.00    -0.153 NA 
HETATM   15  C   UNL     1      -6.831  16.913  68.073  1.00  0.00    -0.155 C  
HETATM   16  N   UNL     1      -8.999  16.555  66.940  1.00  0.00    -0.207 NA 
HETATM   17  C   UNL     1      -8.117  16.137  67.893  1.00  0.00    -0.145 A  
ENDBRANCH   7   8
ENDBRANCH   4   7
ENDBRANCH   2   4
BRANCH   3  18
HETATM   18  C   UNL     1      -8.383  10.314  65.971  1.00  0.00    -0.142 C  
BRANCH  18  19
HETATM   19  C   UNL     1      -7.148  11.151  66.360  1.00  0.00    -0.091 C  
HETATM   20  H   UNL     1      -5.866  11.247  67.856  1.00  0.00     0.000 HD 
HETATM   21  O   UNL     1      -6.628  10.731  67.617  1.00  0.00    -0.060 OA 
ENDBRANCH  18  19
ENDBRANCH   3  18
BRANCH   3  22
HETATM   22  S   UNL     1      -9.382   8.975  68.251  1.00  0.00    -0.139 SA 
BRANCH  22  23
HETATM   23  S   UNL     1     -10.117   7.345  67.238  1.00  0.00    -0.257 SA 
BRANCH  23  24
HETATM   24  C   UNL     1      -9.690   5.886  68.256  1.00  0.00    -0.128 C  
BRANCH  24  25
HETATM   25  C   UNL     1     -10.548   5.565  69.478  1.00  0.00    -0.296 C  
HETATM   26  O   UNL     1     -11.767   6.338  69.388  1.00  0.00    -0.319 OA 
HETATM   27  C   UNL     1     -11.201   6.063  71.678  1.00  0.00    -0.328 C  
HETATM   28  C   UNL     1     -12.206   6.661  70.716  1.00  0.00    -0.241 C  
HETATM   29  C   UNL     1      -9.957   5.928  70.829  1.00  0.00    -0.241 C  
ENDBRANCH  24  25
ENDBRANCH  23  24
ENDBRANCH  22  23
ENDBRANCH   3  22
TORSDOF 9
ENDMDL
MODEL      291
REMARK 921   NORMALIZED FREE ENERGY PREDICTED BY IDOCK:   -2.68 KCAL/MOL
REMARK 922        TOTAL FREE ENERGY PREDICTED BY IDOCK:   -5.33 KCAL/MOL
REMARK 923 INTER-LIGAND FREE ENERGY PREDICTED BY IDOCK:   -4.88 KCAL/MOL
REMARK 924 INTRA-LIGAND FREE ENERGY PREDICTED BY IDOCK:   -0.45 KCAL/MOL
REMARK 927      BINDING AFFINITY PREDICTED BY RF-SCORE:    0.00 PKD
ROOT
HETATM    1  C   UNL     1     -10.934   6.674  68.548  1.00  0.00    -0.314 C  
HETATM    2  C   UNL     1      -9.963   7.666  69.161  1.00  0.00    -0.181 C  
HETATM    3  C   UNL     1     -10.194   8.326  70.334  1.00  0.00    -0.201 C  
ENDROOT
BRANCH   2   4
HETATM    4  N   UNL     1      -8.759   7.746  68.452  1.00  0.00    -0.128 N  
HETATM    5  C   UNL     1      -7.599   7.188  68.971  1.00  0.00    -0.100 C  
HETATM    6  O   UNL     1      -6.497   7.235  68.430  1.00  0.00    -0.041 OA 
BRANCH   4   7
HETATM    7  C   UNL     1      -8.655   8.593  67.255  1.00  0.00    -0.125 C  
BRANCH   7   8
HETATM    8  C   UNL     1      -8.750  10.087  67.461  1.00  0.00    -0.125 A  
HETATM    9  H2  UNL     1     -10.649   9.633  65.658  1.00  0.00     0.000 HD 
HETATM   10  H1  UNL     1     -11.120  11.256  65.249  1.00  0.00     0.000 HD 
HETATM   11  N   UNL     1     -10.524  10.636  65.798  1.00  0.00    -0.205 NA 
HETATM   12  C   UNL     1      -9.626  10.998  66.654  1.00  0.00    -0.189 A  
HETATM   13  C   UNL     1      -7.843  10.756  68.215  1.00  0.00    -0.115 A  
HETATM   14  N   UNL     1      -7.616  12.123  68.269  1.00  0.00    -0.124 NA 
HETATM   15  C   UNL     1      -8.105  14.345  67.401  1.00  0.00    -0.217 C  
HETATM   16  N   UNL     1      -9.427  12.340  66.814  1.00  0.00    -0.216 NA 
HETATM   17  C   UNL     1      -8.400  12.867  67.540  1.00  0.00    -0.183 A  
ENDBRANCH   7   8
ENDBRANCH   4   7
ENDBRANCH   2   4
BRANCH   3  18
HETATM   18  C   UNL     1      -9.122   9.074  71.133  1.00  0.00    -0.316 C  
BRANCH  18  19
HETATM   19  C   UNL     1      -8.491   8.275  72.290  1.00  0.00    -0.187 C  
HETATM   20  H   UNL     1      -6.890   8.392  73.437  1.00  0.00     0.000 HD 
HETATM   21  O   UNL     1      -7.279   8.884  72.723  1.00  0.00    -0.338 OA 
ENDBRANCH  18  19
ENDBRANCH   3  18
BRANCH   3  22
HETATM   22  S   UNL     1     -11.831   8.275  71.010  1.00  0.00    -0.212 SA 
BRANCH  22  23
HETATM   23  S   UNL     1     -11.944   6.353  71.727  1.00  0.00    -0.262 SA 
BRANCH  23  24
HETATM   24  C   UNL     1     -11.028   6.352  73.311  1.00  0.00    -0.190 C  
BRANCH  24  25
HETATM   25  C   UNL     1     -10.702   5.015  73.972  1.00  0.00    -0.286 C  
HETATM   26  O   UNL     1      -9.327   5.056  74.419  1.00  0.00    -0.119 OA 
HETATM   27  C   UNL     1      -9.866   2.826  73.803  1.00  0.00    -0.148 C  
HETATM   28  C   UNL     1      -8.778   3.732  74.338  1.00  0.00    -0.091 C  
HETATM   29  C   UNL     1     -10.784   3.787  73.081  1.00  0.00    -0.267 C  
ENDBRANCH  24  25
ENDBRANCH  23  24
ENDBRANCH  22  23
ENDBRANCH   3  22
TORSDOF 9
ENDMDL
MODEL      292
REMARK 921   NORMALIZED FREE ENERGY PREDICTED BY IDOCK:   -2.62 KCAL/MOL
REMARK 922        TOTAL FREE ENERGY PREDICTED BY IDOCK:   -5.24 KCAL/MOL
REMARK 923 INTER-LIGAND FREE ENERGY PREDICTED BY IDOCK:   -5.30 KCAL/MOL
REMARK 924 INTRA-LIGAND FREE ENERGY PREDICTED BY IDOCK:    0.06 KCAL/MOL
REMARK 927      BINDING AFFINITY PREDICTED BY RF-SCORE:    0.00 PKD
ROOT
HETATM    1  C   UNL     1     -13.275   7.846  71.263  1.00  0.00    -0.211 C  
HETATM    2  C   UNL     1     -12.190   8.905  71.194  1.00  0.00    -0.255 C  
HETATM    3  C   UNL     1     -10.860   8.619  71.075  1.00  0.00    -0.247 C  
ENDROOT
BRANCH   2   4
HETATM    4  N   UNL     1     -12.710  10.203  71.152  1.00  0.00    -0.365 N  
HETATM    5  C   UNL     1     -13.175  10.813  72.309  1.00  0.00    -0.067 C  
HETATM    6  O   UNL     1     -13.670  11.935  72.358  1.00  0.00    -0.198 OA 
BRANCH   4   7
HETATM    7  C   UNL     1     -12.963  10.862  69.862  1.00  0.00     0.223 C  
BRANCH   7   8
HETATM    8  C   UNL     1     -11.968  11.910  69.419  1.00  0.00    -0.350 A  
HETATM    9  H2  UNL     1     -13.667  13.319  70.899  1.00  0.00     0.000 HD 
HETATM   10  H1  UNL     1     -13.104  14.938  70.609  1.00  0.00     0.000 HD 
HETATM   11  N   UNL     1     -13.003  13.938  70.433  1.00  0.00    -0.135 NA 
HETATM   12  C   UNL     1     -12.116  13.379  69.677  1.00  0.00    -0.289 A  
HETATM   13  C   UNL     1     -10.998  11.626  68.515  1.00  0.00    -0.220 A  
HETATM   14  N   UNL     1     -10.209  12.514  67.798  1.00  0.00    -0.212 NA 
HETATM   15  C   UNL     1      -9.701  14.816  67.192  1.00  0.00    -0.234 C  
HETATM   16  N   UNL     1     -11.252  14.207  69.019  1.00  0.00    -0.259 NA 
HETATM   17  C   UNL     1     -10.386  13.779  68.055  1.00  0.00    -0.246 A  
ENDBRANCH   7   8
ENDBRANCH   4   7
ENDBRANCH   2   4
BRANCH   3  18
HETATM   18  C   UNL     1      -9.787   9.639  70.683  1.00  0.00    -0.268 C  
BRANCH  18  19
HETATM   19  C   UNL     1      -8.362   9.069  70.539  1.00  0.00    -0.183 C  
HETATM   20  H   UNL     1      -6.511   9.688  70.824  1.00  0.00     0.000 HD 
HETATM   21  O   UNL     1      -7.389  10.040  70.913  1.00  0.00    -0.302 OA 
ENDBRANCH  18  19
ENDBRANCH   3  18
BRANCH   3  22
HETATM   22  S   UNL     1     -10.341   6.945  71.336  1.00  0.00    -0.201 SA 
BRANCH  22  23
HETATM   23  S   UNL     1     -11.010   6.012  69.633  1.00  0.00    -0.393 SA 
BRANCH  23  24
HETATM   24  C   UNL     1      -9.561   5.894  68.521  1.00  0.00    -0.123 C  
BRANCH  24  25
HETATM   25  C   UNL     1      -9.795   5.814  67.014  1.00  0.00    -0.151 C  
HETATM   26  O   UNL     1     -10.519   4.593  66.735  1.00  0.00    -0.193 OA 
HETATM   27  C   UNL     1      -9.097   5.080  64.895  1.00  0.00    -0.082 C  
HETATM   28  C   UNL     1     -10.125   4.112  65.441  1.00  0.00    -0.197 C  
HETATM   29  C   UNL     1      -8.553   5.737  66.144  1.00  0.00    -0.135 C  
ENDBRANCH  24  25
ENDBRANCH  23  24
ENDBRANCH  22  23
ENDBRANCH   3  22
TORSDOF 9
ENDMDL
MODEL      293
REMARK 921   NORMALIZED FREE ENERGY PREDICTED BY IDOCK:   -2.51 KCAL/MOL
REMARK 922        TOTAL FREE ENERGY PREDICTED BY IDOCK:   -5.07 KCAL/MOL
REMARK 923 INTER-LIGAND FREE ENERGY PREDICTED BY IDOCK:   -4.19 KCAL/MOL
REMARK 924 INTRA-LIGAND FREE ENERGY PREDICTED BY IDOCK:   -0.88 KCAL/MOL
REMARK 927      BINDING AFFINITY PREDICTED BY RF-SCORE:    0.00 PKD
ROOT
HETATM    1  C   UNL     1     -10.433   9.547  70.893  1.00  0.00    -0.382 C  
HETATM    2  C   UNL     1      -9.640   8.274  71.126  1.00  0.00    -0.163 C  
HETATM    3  C   UNL     1      -9.437   7.323  70.168  1.00  0.00    -0.165 C  
ENDROOT
BRANCH   2   4
HETATM    4  N   UNL     1      -9.047   8.237  72.393  1.00  0.00    -0.215 N  
HETATM    5  C   UNL     1      -7.726   8.623  72.564  1.00  0.00     0.055 C  
HETATM    6  O   UNL     1      -7.120   8.595  73.632  1.00  0.00    -0.311 OA 
BRANCH   4   7
HETATM    7  C   UNL     1      -9.742   7.596  73.520  1.00  0.00    -0.299 C  
BRANCH   7   8
HETATM    8  C   UNL     1      -9.881   6.092  73.475  1.00  0.00    -0.171 A  
HETATM    9  H2  UNL     1     -11.993   6.908  72.082  1.00  0.00     0.000 HD 
HETATM   10  H1  UNL     1     -12.838   5.408  71.843  1.00  0.00     0.000 HD 
HETATM   11  N   UNL     1     -12.034   5.900  72.233  1.00  0.00    -0.243 NA 
HETATM   12  C   UNL     1     -11.063   5.369  72.901  1.00  0.00    -0.305 A  
HETATM   13  C   UNL     1      -9.067   5.284  74.199  1.00  0.00    -0.118 A  
HETATM   14  N   UNL     1      -9.238   3.940  74.495  1.00  0.00    -0.098 NA 
HETATM   15  C   UNL     1     -10.644   1.955  74.398  1.00  0.00    -0.187 C  
HETATM   16  N   UNL     1     -11.136   4.027  73.141  1.00  0.00    -0.176 NA 
HETATM   17  C   UNL     1     -10.286   3.364  73.978  1.00  0.00    -0.167 A  
ENDBRANCH   7   8
ENDBRANCH   4   7
ENDBRANCH   2   4
BRANCH   3  18
HETATM   18  C   UNL     1      -8.394   6.205  70.264  1.00  0.00    -0.125 C  
BRANCH  18  19
HETATM   19  C   UNL     1      -7.149   6.391  69.376  1.00  0.00    -0.073 C  
HETATM   20  H   UNL     1      -5.861   7.825  68.956  1.00  0.00     0.000 HD 
HETATM   21  O   UNL     1      -6.629   7.711  69.503  1.00  0.00    -0.035 OA 
ENDBRANCH  18  19
ENDBRANCH   3  18
BRANCH   3  22
HETATM   22  S   UNL     1     -10.405   7.412  68.686  1.00  0.00    -0.192 SA 
BRANCH  22  23
HETATM   23  S   UNL     1     -10.221   5.509  67.933  1.00  0.00    -0.171 SA 
BRANCH  23  24
HETATM   24  C   UNL     1      -9.479   5.695  66.270  1.00  0.00    -0.155 C  
BRANCH  24  25
HETATM   25  C   UNL     1      -8.742   4.507  65.657  1.00  0.00    -0.124 C  
HETATM   26  O   UNL     1      -7.474   4.979  65.146  1.00  0.00    -0.074 OA 
HETATM   27  C   UNL     1      -8.235   3.192  63.778  1.00  0.00    -0.086 C  
HETATM   28  C   UNL     1      -7.122   4.195  63.996  1.00  0.00    -0.046 C  
HETATM   29  C   UNL     1      -9.415   3.838  64.471  1.00  0.00    -0.163 C  
ENDBRANCH  24  25
ENDBRANCH  23  24
ENDBRANCH  22  23
ENDBRANCH   3  22
TORSDOF 9
ENDMDL
MODEL      294
REMARK 921   NORMALIZED FREE ENERGY PREDICTED BY IDOCK:   -2.50 KCAL/MOL
REMARK 922        TOTAL FREE ENERGY PREDICTED BY IDOCK:   -5.06 KCAL/MOL
REMARK 923 INTER-LIGAND FREE ENERGY PREDICTED BY IDOCK:   -5.12 KCAL/MOL
REMARK 924 INTRA-LIGAND FREE ENERGY PREDICTED BY IDOCK:    0.06 KCAL/MOL
REMARK 927      BINDING AFFINITY PREDICTED BY RF-SCORE:    0.00 PKD
ROOT
HETATM    1  C   UNL     1     -10.914   8.591  70.034  1.00  0.00    -0.197 C  
HETATM    2  C   UNL     1      -9.890   9.406  69.267  1.00  0.00    -0.174 C  
HETATM    3  C   UNL     1      -8.541   9.254  69.409  1.00  0.00    -0.142 C  
ENDROOT
BRANCH   2   4
HETATM    4  N   UNL     1     -10.479  10.250  68.318  1.00  0.00    -0.187 N  
HETATM    5  C   UNL     1     -11.686  10.879  68.587  1.00  0.00    -0.263 C  
HETATM    6  O   UNL     1     -12.284  11.611  67.804  1.00  0.00    -0.560 OA 
BRANCH   4   7
HETATM    7  C   UNL     1      -9.940  10.322  66.951  1.00  0.00    -0.208 C  
BRANCH   7   8
HETATM    8  C   UNL     1      -9.895  11.686  66.302  1.00  0.00    -0.245 A  
HETATM    9  H2  UNL     1      -8.741  12.129  68.655  1.00  0.00     0.000 HD 
HETATM   10  H1  UNL     1      -8.577  13.860  68.629  1.00  0.00     0.000 HD 
HETATM   11  N   UNL     1      -8.886  13.009  68.159  1.00  0.00    -0.191 NA 
HETATM   12  C   UNL     1      -9.442  12.937  66.994  1.00  0.00    -0.235 A  
HETATM   13  C   UNL     1     -10.520  11.930  65.124  1.00  0.00    -0.287 A  
HETATM   14  N   UNL     1     -10.819  13.157  64.551  1.00  0.00    -0.362 NA 
HETATM   15  C   UNL     1     -10.851  15.584  64.741  1.00  0.00    -0.385 C  
HETATM   16  N   UNL     1      -9.675  14.115  66.344  1.00  0.00    -0.289 NA 
HETATM   17  C   UNL     1     -10.410  14.211  65.200  1.00  0.00    -0.405 A  
ENDBRANCH   7   8
ENDBRANCH   4   7
ENDBRANCH   2   4
BRANCH   3  18
HETATM   18  C   UNL     1      -7.498   9.817  68.438  1.00  0.00    -0.083 C  
BRANCH  18  19
HETATM   19  C   UNL     1      -6.271  10.472  69.101  1.00  0.00    -0.045 C  
HETATM   20  H   UNL     1      -5.916  11.814  70.503  1.00  0.00     0.000 HD 
HETATM   21  O   UNL     1      -6.673  11.411  70.094  1.00  0.00    -0.136 OA 
ENDBRANCH  18  19
ENDBRANCH   3  18
BRANCH   3  22
HETATM   22  S   UNL     1      -7.950   8.296  70.777  1.00  0.00    -0.108 SA 
BRANCH  22  23
HETATM   23  S   UNL     1      -8.118   6.375  70.067  1.00  0.00    -0.122 SA 
BRANCH  23  24
HETATM   24  C   UNL     1      -6.800   6.187  68.810  1.00  0.00    -0.066 C  
BRANCH  24  25
HETATM   25  C   UNL     1      -7.195   6.106  67.338  1.00  0.00    -0.076 C  
HETATM   26  O   UNL     1      -6.399   7.065  66.604  1.00  0.00    -0.046 OA 
HETATM   27  C   UNL     1      -8.520   6.866  65.554  1.00  0.00    -0.122 C  
HETATM   28  C   UNL     1      -7.172   7.552  65.497  1.00  0.00    -0.069 C  
HETATM   29  C   UNL     1      -8.634   6.461  67.007  1.00  0.00    -0.112 C  
ENDBRANCH  24  25
ENDBRANCH  23  24
ENDBRANCH  22  23
ENDBRANCH   3  22
TORSDOF 9
ENDMDL
MODEL      295
REMARK 921   NORMALIZED FREE ENERGY PREDICTED BY IDOCK:   -2.49 KCAL/MOL
REMARK 922        TOTAL FREE ENERGY PREDICTED BY IDOCK:   -5.05 KCAL/MOL
REMARK 923 INTER-LIGAND FREE ENERGY PREDICTED BY IDOCK:   -3.83 KCAL/MOL
REMARK 924 INTRA-LIGAND FREE ENERGY PREDICTED BY IDOCK:   -1.21 KCAL/MOL
REMARK 927      BINDING AFFINITY PREDICTED BY RF-SCORE:    0.00 PKD
ROOT
HETATM    1  C   UNL     1     -10.835   8.471  67.044  1.00  0.00    -0.030 C  
HETATM    2  C   UNL     1     -10.356   9.900  67.220  1.00  0.00    -0.245 C  
HETATM    3  C   UNL     1      -9.888  10.673  66.196  1.00  0.00    -0.217 C  
ENDROOT
BRANCH   2   4
HETATM    4  N   UNL     1     -10.551  10.375  68.522  1.00  0.00    -0.196 N  
HETATM    5  C   UNL     1     -11.793  10.851  68.918  1.00  0.00    -0.270 C  
HETATM    6  O   UNL     1     -12.044  11.311  70.029  1.00  0.00    -0.306 OA 
BRANCH   4   7
HETATM    7  C   UNL     1      -9.404  10.571  69.422  1.00  0.00    -0.117 C  
BRANCH   7   8
HETATM    8  C   UNL     1      -8.244   9.614  69.274  1.00  0.00    -0.123 A  
HETATM    9  H2  UNL     1      -7.315  11.827  68.132  1.00  0.00     0.000 HD 
HETATM   10  H1  UNL     1      -5.816  11.256  67.462  1.00  0.00     0.000 HD 
HETATM   11  N   UNL     1      -6.665  11.054  67.990  1.00  0.00    -0.062 NA 
HETATM   12  C   UNL     1      -6.997   9.912  68.497  1.00  0.00    -0.067 A  
HETATM   13  C   UNL     1      -8.360   8.305  69.608  1.00  0.00    -0.123 A  
HETATM   14  N   UNL     1      -7.515   7.258  69.271  1.00  0.00    -0.094 NA 
HETATM   15  C   UNL     1      -5.576   6.472  68.027  1.00  0.00    -0.008 C  
HETATM   16  N   UNL     1      -6.149   8.864  68.274  1.00  0.00    -0.053 NA 
HETATM   17  C   UNL     1      -6.451   7.572  68.588  1.00  0.00    -0.044 A  
ENDBRANCH   7   8
ENDBRANCH   4   7
ENDBRANCH   2   4
BRANCH   3  18
HETATM   18  C   UNL     1      -9.703  12.192  66.271  1.00  0.00    -0.251 C  
BRANCH  18  19
HETATM   19  C   UNL     1     -10.711  13.017  65.446  1.00  0.00    -0.291 C  
HETATM   20  H   UNL     1     -12.669  13.206  65.307  1.00  0.00     0.000 HD 
HETATM   21  O   UNL     1     -12.049  12.697  65.815  1.00  0.00    -0.455 OA 
ENDBRANCH  18  19
ENDBRANCH   3  18
BRANCH   3  22
HETATM   22  S   UNL     1      -9.517   9.880  64.655  1.00  0.00    -0.228 SA 
BRANCH  22  23
HETATM   23  S   UNL     1      -7.927   8.679  65.158  1.00  0.00    -0.136 SA 
BRANCH  23  24
HETATM   24  C   UNL     1      -7.821   7.408  63.846  1.00  0.00    -0.117 C  
BRANCH  24  25
HETATM   25  C   UNL     1      -8.231   5.975  64.176  1.00  0.00    -0.053 C  
HETATM   26  O   UNL     1      -8.282   5.841  65.615  1.00  0.00    -0.116 OA 
HETATM   27  C   UNL     1      -7.623   3.761  64.674  1.00  0.00    -0.080 C  
HETATM   28  C   UNL     1      -7.922   4.496  65.964  1.00  0.00    -0.099 C  
HETATM   29  C   UNL     1      -7.281   4.882  63.717  1.00  0.00    -0.050 C  
ENDBRANCH  24  25
ENDBRANCH  23  24
ENDBRANCH  22  23
ENDBRANCH   3  22
TORSDOF 9
ENDMDL
MODEL      296
REMARK 921   NORMALIZED FREE ENERGY PREDICTED BY IDOCK:   -2.44 KCAL/MOL
REMARK 922        TOTAL FREE ENERGY PREDICTED BY IDOCK:   -4.96 KCAL/MOL
REMARK 923 INTER-LIGAND FREE ENERGY PREDICTED BY IDOCK:   -4.14 KCAL/MOL
REMARK 924 INTRA-LIGAND FREE ENERGY PREDICTED BY IDOCK:   -0.82 KCAL/MOL
REMARK 927      BINDING AFFINITY PREDICTED BY RF-SCORE:    0.00 PKD
ROOT
HETATM    1  C   UNL     1      -9.375   6.815  69.369  1.00  0.00    -0.148 C  
HETATM    2  C   UNL     1      -8.928   6.690  70.814  1.00  0.00    -0.151 C  
HETATM    3  C   UNL     1      -9.782   6.756  71.878  1.00  0.00    -0.155 C  
ENDROOT
BRANCH   2   4
HETATM    4  N   UNL     1      -7.567   6.387  70.931  1.00  0.00    -0.091 N  
HETATM    5  C   UNL     1      -6.606   7.352  70.664  1.00  0.00    -0.043 C  
HETATM    6  O   UNL     1      -5.394   7.165  70.714  1.00  0.00    -0.023 OA 
BRANCH   4   7
HETATM    7  C   UNL     1      -7.129   4.998  71.134  1.00  0.00    -0.052 C  
BRANCH   7   8
HETATM    8  C   UNL     1      -7.363   4.031  69.996  1.00  0.00    -0.045 A  
HETATM    9  H2  UNL     1      -5.436   5.591  69.038  1.00  0.00     0.000 HD 
HETATM   10  H1  UNL     1      -5.341   5.037  67.393  1.00  0.00     0.000 HD 
HETATM   11  N   UNL     1      -5.778   4.961  68.312  1.00  0.00    -0.016 NA 
HETATM   12  C   UNL     1      -6.722   4.144  68.646  1.00  0.00    -0.046 A  
HETATM   13  C   UNL     1      -8.385   3.140  70.024  1.00  0.00    -0.048 A  
HETATM   14  N   UNL     1      -8.907   2.403  68.972  1.00  0.00    -0.085 NA 
HETATM   15  C   UNL     1      -8.934   1.921  66.586  1.00  0.00    -0.111 C  
HETATM   16  N   UNL     1      -7.209   3.326  67.666  1.00  0.00    -0.054 NA 
HETATM   17  C   UNL     1      -8.317   2.546  67.819  1.00  0.00    -0.077 A  
ENDBRANCH   7   8
ENDBRANCH   4   7
ENDBRANCH   2   4
BRANCH   3  18
HETATM   18  C   UNL     1      -9.425   6.320  73.303  1.00  0.00    -0.144 C  
BRANCH  18  19
HETATM   19  C   UNL     1      -8.740   7.397  74.167  1.00  0.00    -0.224 C  
HETATM   20  H   UNL     1      -8.049   9.229  73.932  1.00  0.00     0.000 HD 
HETATM   21  O   UNL     1      -8.471   8.565  73.399  1.00  0.00    -0.367 OA 
ENDBRANCH  18  19
ENDBRANCH   3  18
BRANCH   3  22
HETATM   22  S   UNL     1     -11.431   7.335  71.589  1.00  0.00    -0.277 SA 
BRANCH  22  23
HETATM   23  S   UNL     1     -11.179   9.373  71.574  1.00  0.00    -0.362 SA 
BRANCH  23  24
HETATM   24  C   UNL     1     -12.363  10.018  70.336  1.00  0.00    -0.135 C  
BRANCH  24  25
HETATM   25  C   UNL     1     -12.925  11.425  70.520  1.00  0.00     0.064 C  
HETATM   26  O   UNL     1     -11.923  12.372  70.082  1.00  0.00    -0.341 OA 
HETATM   27  C   UNL     1     -13.177  13.346  71.849  1.00  0.00    -0.522 C  
HETATM   28  C   UNL     1     -12.046  13.567  70.867  1.00  0.00    -0.216 C  
HETATM   29  C   UNL     1     -13.253  11.838  71.945  1.00  0.00    -0.468 C  
ENDBRANCH  24  25
ENDBRANCH  23  24
ENDBRANCH  22  23
ENDBRANCH   3  22
TORSDOF 9
ENDMDL
MODEL      297
REMARK 921   NORMALIZED FREE ENERGY PREDICTED BY IDOCK:   -2.43 KCAL/MOL
REMARK 922        TOTAL FREE ENERGY PREDICTED BY IDOCK:   -4.95 KCAL/MOL
REMARK 923 INTER-LIGAND FREE ENERGY PREDICTED BY IDOCK:   -4.17 KCAL/MOL
REMARK 924 INTRA-LIGAND FREE ENERGY PREDICTED BY IDOCK:   -0.78 KCAL/MOL
REMARK 927      BINDING AFFINITY PREDICTED BY RF-SCORE:    0.00 PKD
ROOT
HETATM    1  C   UNL     1      -9.815   7.886  66.699  1.00  0.00    -0.311 C  
HETATM    2  C   UNL     1      -8.396   8.407  66.564  1.00  0.00    -0.111 C  
HETATM    3  C   UNL     1      -7.621   8.776  67.626  1.00  0.00    -0.097 C  
ENDROOT
BRANCH   2   4
HETATM    4  N   UNL     1      -7.931   8.360  65.245  1.00  0.00    -0.117 N  
HETATM    5  C   UNL     1      -8.591   9.053  64.241  1.00  0.00    -0.148 C  
HETATM    6  O   UNL     1      -8.269   9.045  63.056  1.00  0.00    -0.163 OA 
BRANCH   4   7
HETATM    7  C   UNL     1      -6.867   7.418  64.864  1.00  0.00    -0.050 C  
BRANCH   7   8
HETATM    8  C   UNL     1      -7.218   5.948  64.870  1.00  0.00    -0.066 A  
HETATM    9  H2  UNL     1      -7.079   6.495  62.273  1.00  0.00     0.000 HD 
HETATM   10  H1  UNL     1      -7.658   5.007  61.585  1.00  0.00     0.000 HD 
HETATM   11  N   UNL     1      -7.432   5.549  62.420  1.00  0.00    -0.049 NA 
HETATM   12  C   UNL     1      -7.551   5.153  63.644  1.00  0.00    -0.069 A  
HETATM   13  C   UNL     1      -7.524   5.299  66.021  1.00  0.00    -0.082 A  
HETATM   14  N   UNL     1      -8.135   4.063  66.171  1.00  0.00    -0.098 NA 
HETATM   15  C   UNL     1      -9.238   2.154  65.138  1.00  0.00    -0.094 C  
HETATM   16  N   UNL     1      -8.062   3.902  63.845  1.00  0.00    -0.088 NA 
HETATM   17  C   UNL     1      -8.411   3.419  65.072  1.00  0.00    -0.097 A  
ENDBRANCH   7   8
ENDBRANCH   4   7
ENDBRANCH   2   4
BRANCH   3  18
HETATM   18  C   UNL     1      -6.106   8.994  67.558  1.00  0.00    -0.051 C  
BRANCH  18  19
HETATM   19  C   UNL     1      -5.664  10.436  67.236  1.00  0.00    -0.041 C  
HETATM   20  H   UNL     1      -5.288  11.518  65.631  1.00  0.00     0.000 HD 
HETATM   21  O   UNL     1      -5.559  10.630  65.829  1.00  0.00    -0.102 OA 
ENDBRANCH  18  19
ENDBRANCH   3  18
BRANCH   3  22
HETATM   22  S   UNL     1      -8.404   8.967  69.203  1.00  0.00    -0.126 SA 
BRANCH  22  23
HETATM   23  S   UNL     1      -9.264  10.826  69.039  1.00  0.00    -0.101 SA 
BRANCH  23  24
HETATM   24  C   UNL     1     -11.052  10.532  68.781  1.00  0.00    -0.265 C  
BRANCH  24  25
HETATM   25  C   UNL     1     -11.866  11.575  68.019  1.00  0.00    -0.217 C  
HETATM   26  O   UNL     1     -11.557  11.447  66.611  1.00  0.00    -0.432 OA 
HETATM   27  C   UNL     1     -12.034  13.725  67.088  1.00  0.00    -0.442 C  
HETATM   28  C   UNL     1     -11.654  12.743  66.000  1.00  0.00    -0.383 C  
HETATM   29  C   UNL     1     -11.575  13.029  68.350  1.00  0.00    -0.370 C  
ENDBRANCH  24  25
ENDBRANCH  23  24
ENDBRANCH  22  23
ENDBRANCH   3  22
TORSDOF 9
ENDMDL
MODEL      298
REMARK 921   NORMALIZED FREE ENERGY PREDICTED BY IDOCK:   -2.32 KCAL/MOL
REMARK 922        TOTAL FREE ENERGY PREDICTED BY IDOCK:   -4.78 KCAL/MOL
REMARK 923 INTER-LIGAND FREE ENERGY PREDICTED BY IDOCK:   -4.55 KCAL/MOL
REMARK 924 INTRA-LIGAND FREE ENERGY PREDICTED BY IDOCK:   -0.23 KCAL/MOL
REMARK 927      BINDING AFFINITY PREDICTED BY RF-SCORE:    0.00 PKD
ROOT
HETATM    1  C   UNL     1      -9.586  13.233  65.063  1.00  0.00     0.222 C  
HETATM    2  C   UNL     1      -9.540  14.116  66.296  1.00  0.00    -0.275 C  
HETATM    3  C   UNL     1      -9.558  13.633  67.573  1.00  0.00    -0.220 C  
ENDROOT
BRANCH   2   4
HETATM    4  N   UNL     1      -9.366  15.468  65.981  1.00  0.00    -0.339 N  
HETATM    5  C   UNL     1      -8.100  16.037  65.997  1.00  0.00     0.348 C  
HETATM    6  O   UNL     1      -7.860  17.218  65.762  1.00  0.00    -0.495 OA 
BRANCH   4   7
HETATM    7  C   UNL     1     -10.530  16.354  65.831  1.00  0.00    -0.337 C  
BRANCH   7   8
HETATM    8  C   UNL     1     -10.660  17.490  66.819  1.00  0.00    -0.201 A  
HETATM    9  H2  UNL     1     -10.761  18.746  64.479  1.00  0.00     0.000 HD 
HETATM   10  H1  UNL     1     -10.717  20.408  64.987  1.00  0.00     0.000 HD 
HETATM   11  N   UNL     1     -10.716  19.421  65.243  1.00  0.00    -0.376 NA 
HETATM   12  C   UNL     1     -10.662  18.941  66.442  1.00  0.00    -0.290 A  
HETATM   13  C   UNL     1     -10.511  17.289  68.152  1.00  0.00    -0.382 A  
HETATM   14  N   UNL     1     -10.312  18.238  69.144  1.00  0.00    -0.146 NA 
HETATM   15  C   UNL     1      -9.924  20.565  69.743  1.00  0.00     0.547 C  
HETATM   16  N   UNL     1     -10.559  19.840  67.466  1.00  0.00    -0.430 NA 
HETATM   17  C   UNL     1     -10.314  19.483  68.759  1.00  0.00    -0.222 A  
ENDBRANCH   7   8
ENDBRANCH   4   7
ENDBRANCH   2   4
BRANCH   3  18
HETATM   18  C   UNL     1      -9.194  14.454  68.814  1.00  0.00    -0.144 C  
BRANCH  18  19
HETATM   19  C   UNL     1      -7.684  14.599  69.086  1.00  0.00    -0.113 C  
HETATM   20  H   UNL     1      -6.393  16.058  69.396  1.00  0.00     0.000 HD 
HETATM   21  O   UNL     1      -7.324  15.969  69.228  1.00  0.00    -0.213 OA 
ENDBRANCH  18  19
ENDBRANCH   3  18
BRANCH   3  22
HETATM   22  S   UNL     1      -9.977  11.929  67.815  1.00  0.00    -0.190 SA 
BRANCH  22  23
HETATM   23  S   UNL     1      -8.137  11.070  68.129  1.00  0.00    -0.128 SA 
BRANCH  23  24
HETATM   24  C   UNL     1      -8.412   9.261  68.092  1.00  0.00    -0.121 C  
BRANCH  24  25
HETATM   25  C   UNL     1      -8.774   8.546  69.391  1.00  0.00    -0.136 C  
HETATM   26  O   UNL     1     -10.162   8.822  69.687  1.00  0.00    -0.198 OA 
HETATM   27  C   UNL     1      -8.975   8.580  71.731  1.00  0.00    -0.288 C  
HETATM   28  C   UNL     1     -10.331   8.847  71.113  1.00  0.00    -0.268 C  
HETATM   29  C   UNL     1      -8.017   8.984  70.633  1.00  0.00    -0.159 C  
ENDBRANCH  24  25
ENDBRANCH  23  24
ENDBRANCH  22  23
ENDBRANCH   3  22
TORSDOF 9
ENDMDL
MODEL      299
REMARK 921   NORMALIZED FREE ENERGY PREDICTED BY IDOCK:   -2.31 KCAL/MOL
REMARK 922        TOTAL FREE ENERGY PREDICTED BY IDOCK:   -4.76 KCAL/MOL
REMARK 923 INTER-LIGAND FREE ENERGY PREDICTED BY IDOCK:   -3.75 KCAL/MOL
REMARK 924 INTRA-LIGAND FREE ENERGY PREDICTED BY IDOCK:   -1.01 KCAL/MOL
REMARK 927      BINDING AFFINITY PREDICTED BY RF-SCORE:    0.00 PKD
ROOT
HETATM    1  C   UNL     1      -9.812   9.286  70.714  1.00  0.00    -0.350 C  
HETATM    2  C   UNL     1      -9.115   7.981  71.053  1.00  0.00    -0.148 C  
HETATM    3  C   UNL     1      -8.885   6.988  70.144  1.00  0.00    -0.145 C  
ENDROOT
BRANCH   2   4
HETATM    4  N   UNL     1      -8.635   7.955  72.367  1.00  0.00    -0.132 N  
HETATM    5  C   UNL     1      -7.307   8.251  72.637  1.00  0.00    -0.105 C  
HETATM    6  O   UNL     1      -6.797   8.225  73.754  1.00  0.00    -0.121 OA 
BRANCH   4   7
HETATM    7  C   UNL     1      -9.468   7.416  73.453  1.00  0.00    -0.227 C  
BRANCH   7   8
HETATM    8  C   UNL     1      -9.770   5.935  73.416  1.00  0.00    -0.158 A  
HETATM    9  H2  UNL     1     -11.877   6.983  72.180  1.00  0.00     0.000 HD 
HETATM   10  H1  UNL     1     -12.892   5.584  72.001  1.00  0.00     0.000 HD 
HETATM   11  N   UNL     1     -12.014   5.984  72.333  1.00  0.00    -0.259 NA 
HETATM   12  C   UNL     1     -11.060   5.348  72.929  1.00  0.00    -0.305 A  
HETATM   13  C   UNL     1      -8.997   5.039  74.078  1.00  0.00    -0.113 A  
HETATM   14  N   UNL     1      -9.288   3.719  74.384  1.00  0.00    -0.098 NA 
HETATM   15  C   UNL     1     -10.900   1.895  74.386  1.00  0.00    -0.156 C  
HETATM   16  N   UNL     1     -11.258   4.018  73.171  1.00  0.00    -0.155 NA 
HETATM   17  C   UNL     1     -10.426   3.262  73.944  1.00  0.00    -0.180 A  
ENDBRANCH   7   8
ENDBRANCH   4   7
ENDBRANCH   2   4
BRANCH   3  18
HETATM   18  C   UNL     1      -7.919   5.820  70.364  1.00  0.00    -0.105 C  
BRANCH  18  19
HETATM   19  C   UNL     1      -8.582   4.434  70.490  1.00  0.00    -0.081 C  
HETATM   20  H   UNL     1      -8.058   2.613  71.037  1.00  0.00     0.000 HD 
HETATM   21  O   UNL     1      -7.649   3.467  70.959  1.00  0.00    -0.043 OA 
ENDBRANCH  18  19
ENDBRANCH   3  18
BRANCH   3  22
HETATM   22  S   UNL     1      -9.717   7.078  68.583  1.00  0.00    -0.140 SA 
BRANCH  22  23
HETATM   23  S   UNL     1      -8.376   8.131  67.437  1.00  0.00    -0.123 SA 
BRANCH  23  24
HETATM   24  C   UNL     1      -8.032   7.086  65.975  1.00  0.00    -0.109 C  
BRANCH  24  25
HETATM   25  C   UNL     1      -7.212   7.671  64.828  1.00  0.00    -0.067 C  
HETATM   26  O   UNL     1      -6.461   8.797  65.340  1.00  0.00    -0.065 OA 
HETATM   27  C   UNL     1      -7.010   9.211  63.066  1.00  0.00    -0.092 C  
HETATM   28  C   UNL     1      -6.309   9.763  64.289  1.00  0.00    -0.117 C  
HETATM   29  C   UNL     1      -7.999   8.230  63.655  1.00  0.00    -0.153 C  
ENDBRANCH  24  25
ENDBRANCH  23  24
ENDBRANCH  22  23
ENDBRANCH   3  22
TORSDOF 9
ENDMDL
MODEL      300
REMARK 921   NORMALIZED FREE ENERGY PREDICTED BY IDOCK:   -2.24 KCAL/MOL
REMARK 922        TOTAL FREE ENERGY PREDICTED BY IDOCK:   -4.66 KCAL/MOL
REMARK 923 INTER-LIGAND FREE ENERGY PREDICTED BY IDOCK:   -4.47 KCAL/MOL
REMARK 924 INTRA-LIGAND FREE ENERGY PREDICTED BY IDOCK:   -0.19 KCAL/MOL
REMARK 927      BINDING AFFINITY PREDICTED BY RF-SCORE:    0.00 PKD
ROOT
HETATM    1  C   UNL     1     -10.416  13.354  64.734  1.00  0.00    -0.419 C  
HETATM    2  C   UNL     1     -10.214  14.083  66.050  1.00  0.00    -0.304 C  
HETATM    3  C   UNL     1     -10.285  13.474  67.270  1.00  0.00    -0.242 C  
ENDROOT
BRANCH   2   4
HETATM    4  N   UNL     1      -9.835  15.418  65.871  1.00  0.00    -0.328 N  
HETATM    5  C   UNL     1      -8.495  15.777  65.882  1.00  0.00     0.377 C  
HETATM    6  O   UNL     1      -8.077  16.925  65.760  1.00  0.00    -0.410 OA 
BRANCH   4   7
HETATM    7  C   UNL     1     -10.847  16.485  65.877  1.00  0.00    -0.095 C  
BRANCH   7   8
HETATM    8  C   UNL     1     -10.680  17.585  66.899  1.00  0.00    -0.127 A  
HETATM    9  H2  UNL     1     -10.494  18.904  64.599  1.00  0.00     0.000 HD 
HETATM   10  H1  UNL     1     -10.034  20.486  65.154  1.00  0.00     0.000 HD 
HETATM   11  N   UNL     1     -10.274  19.520  65.382  1.00  0.00    -0.269 NA 
HETATM   12  C   UNL     1     -10.326  19.003  66.565  1.00  0.00    -0.439 A  
HETATM   13  C   UNL     1     -10.570  17.310  68.222  1.00  0.00    -0.383 A  
HETATM   14  N   UNL     1     -10.130  18.147  69.237  1.00  0.00    -0.203 NA 
HETATM   15  C   UNL     1      -9.170  20.285  69.896  1.00  0.00     1.006 C  
HETATM   16  N   UNL     1      -9.992  19.814  67.612  1.00  0.00    -0.380 NA 
HETATM   17  C   UNL     1      -9.827  19.365  68.889  1.00  0.00    -0.453 A  
ENDBRANCH   7   8
ENDBRANCH   4   7
ENDBRANCH   2   4
BRANCH   3  18
HETATM   18  C   UNL     1      -9.779  14.093  68.577  1.00  0.00    -0.219 C  
BRANCH  18  19
HETATM   19  C   UNL     1      -8.246  14.114  68.742  1.00  0.00    -0.074 C  
HETATM   20  H   UNL     1      -6.879  15.325  69.487  1.00  0.00     0.000 HD 
HETATM   21  O   UNL     1      -7.823  15.312  69.386  1.00  0.00    -0.204 OA 
ENDBRANCH  18  19
ENDBRANCH   3  18
BRANCH   3  22
HETATM   22  S   UNL     1     -10.961  11.838  67.348  1.00  0.00    -0.279 SA 
BRANCH  22  23
HETATM   23  S   UNL     1      -9.284  10.691  67.652  1.00  0.00    -0.147 SA 
BRANCH  23  24
HETATM   24  C   UNL     1      -9.749   8.986  67.176  1.00  0.00    -0.181 C  
BRANCH  24  25
HETATM   25  C   UNL     1      -9.428   8.503  65.764  1.00  0.00    -0.064 C  
HETATM   26  O   UNL     1      -8.216   7.714  65.821  1.00  0.00    -0.118 OA 
HETATM   27  C   UNL     1      -8.312   8.822  63.722  1.00  0.00    -0.140 C  
HETATM   28  C   UNL     1      -7.504   7.876  64.585  1.00  0.00    -0.101 C  
HETATM   29  C   UNL     1      -9.141   9.581  64.733  1.00  0.00    -0.271 C  
ENDBRANCH  24  25
ENDBRANCH  23  24
ENDBRANCH  22  23
ENDBRANCH   3  22
TORSDOF 9
ENDMDL
MODEL      301
REMARK 921   NORMALIZED FREE ENERGY PREDICTED BY IDOCK:   -2.23 KCAL/MOL
REMARK 922        TOTAL FREE ENERGY PREDICTED BY IDOCK:   -4.64 KCAL/MOL
REMARK 923 INTER-LIGAND FREE ENERGY PREDICTED BY IDOCK:   -4.72 KCAL/MOL
REMARK 924 INTRA-LIGAND FREE ENERGY PREDICTED BY IDOCK:    0.07 KCAL/MOL
REMARK 927      BINDING AFFINITY PREDICTED BY RF-SCORE:    0.00 PKD
ROOT
HETATM    1  C   UNL     1     -11.036  10.520  70.090  1.00  0.00    -0.369 C  
HETATM    2  C   UNL     1     -10.007   9.922  69.149  1.00  0.00    -0.198 C  
HETATM    3  C   UNL     1      -9.757  10.404  67.896  1.00  0.00    -0.149 C  
ENDROOT
BRANCH   2   4
HETATM    4  N   UNL     1      -9.265   8.897  69.746  1.00  0.00    -0.160 N  
HETATM    5  C   UNL     1      -7.881   8.972  69.805  1.00  0.00    -0.086 C  
HETATM    6  O   UNL     1      -7.152   8.108  70.285  1.00  0.00    -0.047 OA 
BRANCH   4   7
HETATM    7  C   UNL     1      -9.916   7.636  70.133  1.00  0.00    -0.186 C  
BRANCH   7   8
HETATM    8  C   UNL     1     -10.108   6.601  69.049  1.00  0.00    -0.176 A  
HETATM    9  H2  UNL     1      -7.816   5.848  70.165  1.00  0.00     0.000 HD 
HETATM   10  H1  UNL     1      -7.311   4.588  69.079  1.00  0.00     0.000 HD 
HETATM   11  N   UNL     1      -8.003   5.296  69.327  1.00  0.00    -0.087 NA 
HETATM   12  C   UNL     1      -9.091   5.561  68.684  1.00  0.00    -0.117 A  
HETATM   13  C   UNL     1     -11.107   6.708  68.138  1.00  0.00    -0.198 A  
HETATM   14  N   UNL     1     -11.246   6.029  66.937  1.00  0.00    -0.156 NA 
HETATM   15  C   UNL     1     -10.306   4.492  65.299  1.00  0.00    -0.187 C  
HETATM   16  N   UNL     1      -9.324   4.853  67.540  1.00  0.00    -0.127 NA 
HETATM   17  C   UNL     1     -10.330   5.143  66.665  1.00  0.00    -0.281 A  
ENDBRANCH   7   8
ENDBRANCH   4   7
ENDBRANCH   2   4
BRANCH   3  18
HETATM   18  C   UNL     1      -8.527  10.041  67.057  1.00  0.00    -0.125 C  
BRANCH  18  19
HETATM   19  C   UNL     1      -8.794   9.850  65.551  1.00  0.00    -0.159 C  
HETATM   20  H   UNL     1      -8.520   8.448  64.191  1.00  0.00     0.000 HD 
HETATM   21  O   UNL     1      -8.355   8.566  65.119  1.00  0.00    -0.153 OA 
ENDBRANCH  18  19
ENDBRANCH   3  18
BRANCH   3  22
HETATM   22  S   UNL     1     -10.900  11.570  67.208  1.00  0.00    -0.271 SA 
BRANCH  22  23
HETATM   23  S   UNL     1     -10.656  13.196  68.440  1.00  0.00    -0.254 SA 
BRANCH  23  24
HETATM   24  C   UNL     1      -8.981  13.846  68.089  1.00  0.00    -0.185 C  
BRANCH  24  25
HETATM   25  C   UNL     1      -8.786  15.357  67.986  1.00  0.00    -0.165 C  
HETATM   26  O   UNL     1      -8.756  15.713  66.584  1.00  0.00    -0.247 OA 
HETATM   27  C   UNL     1      -7.345  17.201  67.784  1.00  0.00    -0.179 C  
HETATM   28  C   UNL     1      -7.888  16.844  66.417  1.00  0.00    -0.313 C  
HETATM   29  C   UNL     1      -7.490  15.908  68.555  1.00  0.00    -0.139 C  
ENDBRANCH  24  25
ENDBRANCH  23  24
ENDBRANCH  22  23
ENDBRANCH   3  22
TORSDOF 9
ENDMDL
MODEL      302
REMARK 921   NORMALIZED FREE ENERGY PREDICTED BY IDOCK:   -2.22 KCAL/MOL
REMARK 922        TOTAL FREE ENERGY PREDICTED BY IDOCK:   -4.62 KCAL/MOL
REMARK 923 INTER-LIGAND FREE ENERGY PREDICTED BY IDOCK:   -4.97 KCAL/MOL
REMARK 924 INTRA-LIGAND FREE ENERGY PREDICTED BY IDOCK:    0.35 KCAL/MOL
REMARK 927      BINDING AFFINITY PREDICTED BY RF-SCORE:    0.00 PKD
ROOT
HETATM    1  C   UNL     1     -10.414  12.610  64.495  1.00  0.00    -0.379 C  
HETATM    2  C   UNL     1     -10.513  13.210  65.885  1.00  0.00    -0.280 C  
HETATM    3  C   UNL     1     -10.913  12.508  66.986  1.00  0.00    -0.267 C  
ENDROOT
BRANCH   2   4
HETATM    4  N   UNL     1     -10.042  14.527  65.936  1.00  0.00    -0.310 N  
HETATM    5  C   UNL     1      -8.717  14.790  66.252  1.00  0.00     0.098 C  
HETATM    6  O   UNL     1      -8.229  15.912  66.345  1.00  0.00    -0.283 OA 
BRANCH   4   7
HETATM    7  C   UNL     1     -10.982  15.656  65.859  1.00  0.00    -0.231 C  
BRANCH   7   8
HETATM    8  C   UNL     1     -10.782  16.784  66.845  1.00  0.00    -0.139 A  
HETATM    9  H2  UNL     1     -10.808  18.057  64.511  1.00  0.00     0.000 HD 
HETATM   10  H1  UNL     1     -10.367  19.665  65.001  1.00  0.00     0.000 HD 
HETATM   11  N   UNL     1     -10.555  18.698  65.264  1.00  0.00    -0.381 NA 
HETATM   12  C   UNL     1     -10.504  18.206  66.458  1.00  0.00    -0.341 A  
HETATM   13  C   UNL     1     -10.568  16.542  68.162  1.00  0.00    -0.329 A  
HETATM   14  N   UNL     1     -10.088  17.416  69.125  1.00  0.00    -0.283 NA 
HETATM   15  C   UNL     1      -9.161  19.601  69.671  1.00  0.00     0.334 C  
HETATM   16  N   UNL     1     -10.126  19.051  67.462  1.00  0.00    -0.351 NA 
HETATM   17  C   UNL     1      -9.855  18.637  68.732  1.00  0.00    -0.379 A  
ENDBRANCH   7   8
ENDBRANCH   4   7
ENDBRANCH   2   4
BRANCH   3  18
HETATM   18  C   UNL     1     -10.720  12.979  68.431  1.00  0.00    -0.273 C  
BRANCH  18  19
HETATM   19  C   UNL     1     -12.008  13.410  69.159  1.00  0.00    -0.317 C  
HETATM   20  H   UNL     1     -13.078  12.811  70.704  1.00  0.00     0.000 HD 
HETATM   21  O   UNL     1     -12.284  12.545  70.255  1.00  0.00    -0.329 OA 
ENDBRANCH  18  19
ENDBRANCH   3  18
BRANCH   3  22
HETATM   22  S   UNL     1     -11.660  10.921  66.737  1.00  0.00     0.811 SA 
BRANCH  22  23
HETATM   23  S   UNL     1     -10.704   9.767  68.143  1.00  0.00    -0.211 SA 
BRANCH  23  24
HETATM   24  C   UNL     1     -10.568   8.094  67.412  1.00  0.00    -0.255 C  
BRANCH  24  25
HETATM   25  C   UNL     1     -10.555   6.884  68.343  1.00  0.00    -0.210 C  
HETATM   26  O   UNL     1     -11.681   6.997  69.245  1.00  0.00     0.085 OA 
HETATM   27  C   UNL     1      -9.901   5.901  70.374  1.00  0.00    -0.231 C  
HETATM   28  C   UNL     1     -11.324   6.401  70.501  1.00  0.00    -0.375 C  
HETATM   29  C   UNL     1      -9.344   6.745  69.249  1.00  0.00    -0.144 C  
ENDBRANCH  24  25
ENDBRANCH  23  24
ENDBRANCH  22  23
ENDBRANCH   3  22
TORSDOF 9
ENDMDL
MODEL      303
REMARK 921   NORMALIZED FREE ENERGY PREDICTED BY IDOCK:   -2.21 KCAL/MOL
REMARK 922        TOTAL FREE ENERGY PREDICTED BY IDOCK:   -4.61 KCAL/MOL
REMARK 923 INTER-LIGAND FREE ENERGY PREDICTED BY IDOCK:   -4.21 KCAL/MOL
REMARK 924 INTRA-LIGAND FREE ENERGY PREDICTED BY IDOCK:   -0.39 KCAL/MOL
REMARK 927      BINDING AFFINITY PREDICTED BY RF-SCORE:    0.00 PKD
ROOT
HETATM    1  C   UNL     1     -11.132   9.693  67.711  1.00  0.00    -0.089 C  
HETATM    2  C   UNL     1      -9.678  10.118  67.621  1.00  0.00    -0.161 C  
HETATM    3  C   UNL     1      -8.759   9.884  68.603  1.00  0.00    -0.124 C  
ENDROOT
BRANCH   2   4
HETATM    4  N   UNL     1      -9.358  10.674  66.377  1.00  0.00    -0.165 N  
HETATM    5  C   UNL     1      -8.227  10.257  65.690  1.00  0.00    -0.153 C  
HETATM    6  O   UNL     1      -7.857  10.709  64.610  1.00  0.00    -0.056 OA 
BRANCH   4   7
HETATM    7  C   UNL     1     -10.092  11.845  65.874  1.00  0.00    -0.234 C  
BRANCH   7   8
HETATM    8  C   UNL     1      -9.988  13.118  66.683  1.00  0.00    -0.270 A  
HETATM    9  H2  UNL     1     -12.611  12.868  66.335  1.00  0.00     0.000 HD 
HETATM   10  H1  UNL     1     -13.182  14.378  66.982  1.00  0.00     0.000 HD 
HETATM   11  N   UNL     1     -12.394  13.766  66.769  1.00  0.00    -0.379 NA 
HETATM   12  C   UNL     1     -11.146  14.017  66.995  1.00  0.00    -0.304 A  
HETATM   13  C   UNL     1      -8.788  13.686  66.957  1.00  0.00    -0.223 A  
HETATM   14  N   UNL     1      -8.533  14.969  67.419  1.00  0.00    -0.171 NA 
HETATM   15  C   UNL     1      -9.385  17.175  67.996  1.00  0.00    -0.254 C  
HETATM   16  N   UNL     1     -10.848  15.235  67.538  1.00  0.00    -0.297 NA 
HETATM   17  C   UNL     1      -9.576  15.711  67.665  1.00  0.00    -0.220 A  
ENDBRANCH   7   8
ENDBRANCH   4   7
ENDBRANCH   2   4
BRANCH   3  18
HETATM   18  C   UNL     1      -7.244  10.006  68.418  1.00  0.00    -0.073 C  
BRANCH  18  19
HETATM   19  C   UNL     1      -6.418   9.962  69.719  1.00  0.00    -0.058 C  
HETATM   20  H   UNL     1      -4.998  11.027  70.579  1.00  0.00     0.000 HD 
HETATM   21  O   UNL     1      -5.507  11.054  69.777  1.00  0.00    -0.045 OA 
ENDBRANCH  18  19
ENDBRANCH   3  18
BRANCH   3  22
HETATM   22  S   UNL     1      -9.349   9.353  70.187  1.00  0.00    -0.256 SA 
BRANCH  22  23
HETATM   23  S   UNL     1      -8.940   7.340  70.150  1.00  0.00    -0.148 SA 
BRANCH  23  24
HETATM   24  C   UNL     1      -9.218   6.803  68.422  1.00  0.00    -0.123 C  
BRANCH  24  25
HETATM   25  C   UNL     1      -8.216   5.847  67.779  1.00  0.00    -0.105 C  
HETATM   26  O   UNL     1      -6.955   6.543  67.638  1.00  0.00    -0.073 OA 
HETATM   27  C   UNL     1      -7.182   4.998  65.848  1.00  0.00    -0.076 C  
HETATM   28  C   UNL     1      -6.286   6.048  66.469  1.00  0.00    -0.037 C  
HETATM   29  C   UNL     1      -8.551   5.363  66.379  1.00  0.00    -0.119 C  
ENDBRANCH  24  25
ENDBRANCH  23  24
ENDBRANCH  22  23
ENDBRANCH   3  22
TORSDOF 9
ENDMDL
MODEL      304
REMARK 921   NORMALIZED FREE ENERGY PREDICTED BY IDOCK:   -2.17 KCAL/MOL
REMARK 922        TOTAL FREE ENERGY PREDICTED BY IDOCK:   -4.55 KCAL/MOL
REMARK 923 INTER-LIGAND FREE ENERGY PREDICTED BY IDOCK:   -5.70 KCAL/MOL
REMARK 924 INTRA-LIGAND FREE ENERGY PREDICTED BY IDOCK:    1.16 KCAL/MOL
REMARK 927      BINDING AFFINITY PREDICTED BY RF-SCORE:    0.00 PKD
ROOT
HETATM    1  C   UNL     1     -11.469   8.601  70.492  1.00  0.00    -0.208 C  
HETATM    2  C   UNL     1     -10.489   9.041  69.420  1.00  0.00    -0.222 C  
HETATM    3  C   UNL     1      -9.374   8.331  69.077  1.00  0.00    -0.147 C  
ENDROOT
BRANCH   2   4
HETATM    4  N   UNL     1     -10.912  10.192  68.746  1.00  0.00    -0.229 N  
HETATM    5  C   UNL     1     -11.466  11.254  69.446  1.00  0.00    -0.301 C  
HETATM    6  O   UNL     1     -11.887  12.287  68.933  1.00  0.00    -0.305 OA 
BRANCH   4   7
HETATM    7  C   UNL     1     -10.969  10.215  67.276  1.00  0.00    -0.183 C  
BRANCH   7   8
HETATM    8  C   UNL     1     -10.590  11.509  66.595  1.00  0.00    -0.294 A  
HETATM    9  H2  UNL     1      -8.398  10.924  67.980  1.00  0.00     0.000 HD 
HETATM   10  H1  UNL     1      -7.455  12.365  67.742  1.00  0.00     0.000 HD 
HETATM   11  N   UNL     1      -8.319  11.852  67.563  1.00  0.00    -0.150 NA 
HETATM   12  C   UNL     1      -9.321  12.263  66.859  1.00  0.00    -0.210 A  
HETATM   13  C   UNL     1     -11.497  12.229  65.890  1.00  0.00    -0.376 A  
HETATM   14  N   UNL     1     -11.399  13.544  65.460  1.00  0.00    -0.295 NA 
HETATM   15  C   UNL     1     -10.159  15.640  65.454  1.00  0.00    -0.370 C  
HETATM   16  N   UNL     1      -9.235  13.521  66.333  1.00  0.00    -0.178 NA 
HETATM   17  C   UNL     1     -10.278  14.155  65.725  1.00  0.00    -0.332 A  
ENDBRANCH   7   8
ENDBRANCH   4   7
ENDBRANCH   2   4
BRANCH   3  18
HETATM   18  C   UNL     1      -8.553   8.569  67.806  1.00  0.00    -0.134 C  
BRANCH  18  19
HETATM   19  C   UNL     1      -9.114   7.914  66.529  1.00  0.00    -0.170 C  
HETATM   20  H   UNL     1      -8.701   7.894  64.600  1.00  0.00     0.000 HD 
HETATM   21  O   UNL     1      -8.355   8.298  65.387  1.00  0.00    -0.146 OA 
ENDBRANCH  18  19
ENDBRANCH   3  18
BRANCH   3  22
HETATM   22  S   UNL     1      -8.868   7.008  70.141  1.00  0.00    -0.145 SA 
BRANCH  22  23
HETATM   23  S   UNL     1     -10.208   5.527  69.661  1.00  0.00    -0.290 SA 
BRANCH  23  24
HETATM   24  C   UNL     1      -9.231   4.205  68.857  1.00  0.00    -0.147 C  
BRANCH  24  25
HETATM   25  C   UNL     1      -9.040   4.250  67.343  1.00  0.00    -0.138 C  
HETATM   26  O   UNL     1     -10.186   4.914  66.762  1.00  0.00    -0.220 OA 
HETATM   27  C   UNL     1      -9.387   3.284  65.230  1.00  0.00    -0.146 C  
HETATM   28  C   UNL     1     -10.431   4.356  65.463  1.00  0.00    -0.199 C  
HETATM   29  C   UNL     1      -8.968   2.908  66.634  1.00  0.00    -0.168 C  
ENDBRANCH  24  25
ENDBRANCH  23  24
ENDBRANCH  22  23
ENDBRANCH   3  22
TORSDOF 9
ENDMDL
MODEL      305
REMARK 921   NORMALIZED FREE ENERGY PREDICTED BY IDOCK:   -2.12 KCAL/MOL
REMARK 922        TOTAL FREE ENERGY PREDICTED BY IDOCK:   -4.48 KCAL/MOL
REMARK 923 INTER-LIGAND FREE ENERGY PREDICTED BY IDOCK:   -3.66 KCAL/MOL
REMARK 924 INTRA-LIGAND FREE ENERGY PREDICTED BY IDOCK:   -0.82 KCAL/MOL
REMARK 927      BINDING AFFINITY PREDICTED BY RF-SCORE:    0.00 PKD
ROOT
HETATM    1  C   UNL     1     -11.113   6.822  67.081  1.00  0.00    -0.404 C  
HETATM    2  C   UNL     1     -10.182   7.797  67.777  1.00  0.00    -0.212 C  
HETATM    3  C   UNL     1      -9.235   7.421  68.686  1.00  0.00    -0.143 C  
ENDROOT
BRANCH   2   4
HETATM    4  N   UNL     1     -10.323   9.106  67.303  1.00  0.00    -0.255 N  
HETATM    5  C   UNL     1     -10.843  10.099  68.120  1.00  0.00    -0.262 C  
HETATM    6  O   UNL     1     -11.027  11.264  67.777  1.00  0.00    -0.216 OA 
BRANCH   4   7
HETATM    7  C   UNL     1     -10.120   9.406  65.877  1.00  0.00    -0.173 C  
BRANCH   7   8
HETATM    8  C   UNL     1      -8.860   8.872  65.236  1.00  0.00    -0.227 A  
HETATM    9  H2  UNL     1      -8.000  11.076  66.448  1.00  0.00     0.000 HD 
HETATM   10  H1  UNL     1      -6.369  11.171  65.855  1.00  0.00     0.000 HD 
HETATM   11  N   UNL     1      -7.262  10.678  65.867  1.00  0.00    -0.137 NA 
HETATM   12  C   UNL     1      -7.549   9.598  65.218  1.00  0.00    -0.113 A  
HETATM   13  C   UNL     1      -8.892   7.814  64.389  1.00  0.00     0.626 A  
HETATM   14  N   UNL     1      -7.906   7.390  63.511  1.00  0.00    -0.125 NA 
HETATM   15  C   UNL     1      -5.734   7.782  62.481  1.00  0.00    -0.067 C  
HETATM   16  N   UNL     1      -6.576   9.085  64.407  1.00  0.00    -0.078 NA 
HETATM   17  C   UNL     1      -6.789   8.062  63.530  1.00  0.00    -0.075 A  
ENDBRANCH   7   8
ENDBRANCH   4   7
ENDBRANCH   2   4
BRANCH   3  18
HETATM   18  C   UNL     1      -8.084   8.315  69.158  1.00  0.00    -0.120 C  
BRANCH  18  19
HETATM   19  C   UNL     1      -7.314   7.797  70.389  1.00  0.00    -0.069 C  
HETATM   20  H   UNL     1      -7.338   8.070  72.342  1.00  0.00     0.000 HD 
HETATM   21  O   UNL     1      -7.813   8.390  71.584  1.00  0.00    -0.101 OA 
ENDBRANCH  18  19
ENDBRANCH   3  18
BRANCH   3  22
HETATM   22  S   UNL     1      -9.305   5.771  69.329  1.00  0.00    -0.127 SA 
BRANCH  22  23
HETATM   23  S   UNL     1     -11.023   5.817  70.455  1.00  0.00    -0.204 SA 
BRANCH  23  24
HETATM   24  C   UNL     1     -10.493   6.189  72.167  1.00  0.00    -0.202 C  
BRANCH  24  25
HETATM   25  C   UNL     1     -10.196   5.029  73.113  1.00  0.00    -0.179 C  
HETATM   26  O   UNL     1      -9.286   4.124  72.445  1.00  0.00    -0.113 OA 
HETATM   27  C   UNL     1     -10.698   2.867  73.883  1.00  0.00    -0.281 C  
HETATM   28  C   UNL     1      -9.555   2.787  72.893  1.00  0.00    -0.103 C  
HETATM   29  C   UNL     1     -11.380   4.164  73.510  1.00  0.00    -0.297 C  
ENDBRANCH  24  25
ENDBRANCH  23  24
ENDBRANCH  22  23
ENDBRANCH   3  22
TORSDOF 9
ENDMDL
MODEL      306
REMARK 921   NORMALIZED FREE ENERGY PREDICTED BY IDOCK:   -2.05 KCAL/MOL
REMARK 922        TOTAL FREE ENERGY PREDICTED BY IDOCK:   -4.37 KCAL/MOL
REMARK 923 INTER-LIGAND FREE ENERGY PREDICTED BY IDOCK:   -5.28 KCAL/MOL
REMARK 924 INTRA-LIGAND FREE ENERGY PREDICTED BY IDOCK:    0.91 KCAL/MOL
REMARK 927      BINDING AFFINITY PREDICTED BY RF-SCORE:    0.00 PKD
ROOT
HETATM    1  C   UNL     1     -11.002  17.563  66.812  1.00  0.00     0.170 C  
HETATM    2  C   UNL     1     -10.879  16.086  67.139  1.00  0.00    -0.239 C  
HETATM    3  C   UNL     1     -10.629  15.607  68.393  1.00  0.00    -0.252 C  
ENDROOT
BRANCH   2   4
HETATM    4  N   UNL     1     -11.160  15.268  66.040  1.00  0.00    -0.314 N  
HETATM    5  C   UNL     1     -12.471  14.948  65.718  1.00  0.00     0.210 C  
HETATM    6  O   UNL     1     -12.806  14.216  64.790  1.00  0.00    -0.677 OA 
BRANCH   4   7
HETATM    7  C   UNL     1     -10.075  14.569  65.335  1.00  0.00    -0.364 C  
BRANCH   7   8
HETATM    8  C   UNL     1      -9.975  13.075  65.537  1.00  0.00    -0.226 A  
HETATM    9  H2  UNL     1      -8.272  14.015  67.347  1.00  0.00     0.000 HD 
HETATM   10  H1  UNL     1      -7.538  12.545  67.915  1.00  0.00     0.000 HD 
HETATM   11  N   UNL     1      -8.209  12.998  67.295  1.00  0.00    -0.185 NA 
HETATM   12  C   UNL     1      -8.988  12.409  66.448  1.00  0.00    -0.100 A  
HETATM   13  C   UNL     1     -10.593  12.205  64.700  1.00  0.00    -0.300 A  
HETATM   14  N   UNL     1     -10.375  10.842  64.568  1.00  0.00    -0.345 NA 
HETATM   15  C   UNL     1      -9.071   8.879  65.180  1.00  0.00    -0.157 C  
HETATM   16  N   UNL     1      -8.879  11.051  66.346  1.00  0.00    -0.171 NA 
HETATM   17  C   UNL     1      -9.500  10.317  65.379  1.00  0.00    -0.232 A  
ENDBRANCH   7   8
ENDBRANCH   4   7
ENDBRANCH   2   4
BRANCH   3  18
HETATM   18  C   UNL     1     -10.815  14.146  68.816  1.00  0.00    -0.271 C  
BRANCH  18  19
HETATM   19  C   UNL     1     -12.236  13.774  69.283  1.00  0.00    -0.264 C  
HETATM   20  H   UNL     1     -13.555  14.429  70.595  1.00  0.00     0.000 HD 
HETATM   21  O   UNL     1     -12.679  14.658  70.308  1.00  0.00    -0.335 OA 
ENDBRANCH  18  19
ENDBRANCH   3  18
BRANCH   3  22
HETATM   22  S   UNL     1     -10.104  16.756  69.636  1.00  0.00     0.078 SA 
BRANCH  22  23
HETATM   23  S   UNL     1      -8.945  18.064  68.555  1.00  0.00    -0.264 SA 
BRANCH  23  24
HETATM   24  C   UNL     1      -7.467  17.116  68.036  1.00  0.00    -0.195 C  
BRANCH  24  25
HETATM   25  C   UNL     1      -6.319  17.858  67.356  1.00  0.00    -0.159 C  
HETATM   26  O   UNL     1      -6.601  19.275  67.414  1.00  0.00    -0.191 OA 
HETATM   27  C   UNL     1      -5.394  18.815  65.421  1.00  0.00    -0.211 C  
HETATM   28  C   UNL     1      -6.045  19.902  66.248  1.00  0.00    -0.172 C  
HETATM   29  C   UNL     1      -6.108  17.564  65.881  1.00  0.00    -0.115 C  
ENDBRANCH  24  25
ENDBRANCH  23  24
ENDBRANCH  22  23
ENDBRANCH   3  22
TORSDOF 9
ENDMDL
MODEL      307
REMARK 921   NORMALIZED FREE ENERGY PREDICTED BY IDOCK:   -2.05 KCAL/MOL
REMARK 922        TOTAL FREE ENERGY PREDICTED BY IDOCK:   -4.36 KCAL/MOL
REMARK 923 INTER-LIGAND FREE ENERGY PREDICTED BY IDOCK:   -5.01 KCAL/MOL
REMARK 924 INTRA-LIGAND FREE ENERGY PREDICTED BY IDOCK:    0.64 KCAL/MOL
REMARK 927      BINDING AFFINITY PREDICTED BY RF-SCORE:    0.00 PKD
ROOT
HETATM    1  C   UNL     1     -11.082   9.270  70.089  1.00  0.00    -0.260 C  
HETATM    2  C   UNL     1      -9.951  10.087  69.493  1.00  0.00    -0.228 C  
HETATM    3  C   UNL     1      -8.630   9.781  69.656  1.00  0.00    -0.191 C  
ENDROOT
BRANCH   2   4
HETATM    4  N   UNL     1     -10.411  11.119  68.668  1.00  0.00    -0.195 N  
HETATM    5  C   UNL     1     -11.492  11.899  69.053  1.00  0.00    -0.297 C  
HETATM    6  O   UNL     1     -11.977  12.804  68.380  1.00  0.00    -0.319 OA 
BRANCH   4   7
HETATM    7  C   UNL     1      -9.895  11.263  67.298  1.00  0.00    -0.182 C  
BRANCH   7   8
HETATM    8  C   UNL     1      -9.688  12.669  66.786  1.00  0.00    -0.240 A  
HETATM    9  H2  UNL     1      -8.280  12.664  69.041  1.00  0.00     0.000 HD 
HETATM   10  H1  UNL     1      -7.844  14.341  69.170  1.00  0.00     0.000 HD 
HETATM   11  N   UNL     1      -8.324  13.606  68.651  1.00  0.00    -0.097 NA 
HETATM   12  C   UNL     1      -8.983  13.751  67.549  1.00  0.00    -0.201 A  
HETATM   13  C   UNL     1     -10.365  13.136  65.708  1.00  0.00    -0.289 A  
HETATM   14  N   UNL     1     -10.511  14.452  65.293  1.00  0.00    -0.364 NA 
HETATM   15  C   UNL     1     -10.138  16.819  65.724  1.00  0.00    -0.276 C  
HETATM   16  N   UNL     1      -9.079  15.017  67.046  1.00  0.00    -0.217 NA 
HETATM   17  C   UNL     1      -9.885  15.352  65.998  1.00  0.00    -0.326 A  
ENDBRANCH   7   8
ENDBRANCH   4   7
ENDBRANCH   2   4
BRANCH   3  18
HETATM   18  C   UNL     1      -7.493  10.379  68.821  1.00  0.00    -0.093 C  
BRANCH  18  19
HETATM   19  C   UNL     1      -6.176  10.621  69.584  1.00  0.00    -0.069 C  
HETATM   20  H   UNL     1      -5.570  11.655  71.151  1.00  0.00     0.000 HD 
HETATM   21  O   UNL     1      -6.382  11.506  70.681  1.00  0.00    -0.287 OA 
ENDBRANCH  18  19
ENDBRANCH   3  18
BRANCH   3  22
HETATM   22  S   UNL     1      -8.198   8.572  70.877  1.00  0.00    -0.148 SA 
BRANCH  22  23
HETATM   23  S   UNL     1      -8.327   6.818  69.815  1.00  0.00    -0.133 SA 
BRANCH  23  24
HETATM   24  C   UNL     1      -9.192   5.631  70.908  1.00  0.00    -0.155 C  
BRANCH  24  25
HETATM   25  C   UNL     1      -8.449   4.378  71.366  1.00  0.00    -0.100 C  
HETATM   26  O   UNL     1      -7.493   4.020  70.341  1.00  0.00    -0.044 OA 
HETATM   27  C   UNL     1      -8.261   2.037  71.398  1.00  0.00    -0.055 C  
HETATM   28  C   UNL     1      -7.343   2.593  70.331  1.00  0.00    -0.037 C  
HETATM   29  C   UNL     1      -9.293   3.130  71.562  1.00  0.00    -0.202 C  
ENDBRANCH  24  25
ENDBRANCH  23  24
ENDBRANCH  22  23
ENDBRANCH   3  22
TORSDOF 9
ENDMDL
MODEL      308
REMARK 921   NORMALIZED FREE ENERGY PREDICTED BY IDOCK:   -1.41 KCAL/MOL
REMARK 922        TOTAL FREE ENERGY PREDICTED BY IDOCK:   -3.39 KCAL/MOL
REMARK 923 INTER-LIGAND FREE ENERGY PREDICTED BY IDOCK:   -3.88 KCAL/MOL
REMARK 924 INTRA-LIGAND FREE ENERGY PREDICTED BY IDOCK:    0.49 KCAL/MOL
REMARK 927      BINDING AFFINITY PREDICTED BY RF-SCORE:    0.00 PKD
ROOT
HETATM    1  C   UNL     1      -9.404   9.291  66.164  1.00  0.00    -0.270 C  
HETATM    2  C   UNL     1      -8.120   9.198  66.968  1.00  0.00    -0.109 C  
HETATM    3  C   UNL     1      -7.902   9.886  68.127  1.00  0.00    -0.085 C  
ENDROOT
BRANCH   2   4
HETATM    4  N   UNL     1      -7.232   8.247  66.453  1.00  0.00    -0.074 N  
HETATM    5  C   UNL     1      -6.470   8.532  65.329  1.00  0.00    -0.059 C  
HETATM    6  O   UNL     1      -5.689   7.748  64.796  1.00  0.00    -0.037 OA 
BRANCH   4   7
HETATM    7  C   UNL     1      -7.242   6.867  66.963  1.00  0.00    -0.084 C  
BRANCH   7   8
HETATM    8  C   UNL     1      -8.063   5.858  66.194  1.00  0.00    -0.109 A  
HETATM    9  H2  UNL     1      -7.709   4.650  68.535  1.00  0.00     0.000 HD 
HETATM   10  H1  UNL     1      -8.370   3.076  68.205  1.00  0.00     0.000 HD 
HETATM   11  N   UNL     1      -8.152   4.015  67.870  1.00  0.00    -0.089 NA 
HETATM   12  C   UNL     1      -8.382   4.478  66.686  1.00  0.00    -0.106 A  
HETATM   13  C   UNL     1      -8.345   6.029  64.879  1.00  0.00    -0.104 A  
HETATM   14  N   UNL     1      -8.819   5.090  63.975  1.00  0.00    -0.091 NA 
HETATM   15  C   UNL     1      -9.417   2.777  63.506  1.00  0.00    -0.100 C  
HETATM   16  N   UNL     1      -8.938   3.618  65.781  1.00  0.00    -0.131 NA 
HETATM   17  C   UNL     1      -9.072   3.905  64.455  1.00  0.00    -0.137 A  
ENDBRANCH   7   8
ENDBRANCH   4   7
ENDBRANCH   2   4
BRANCH   3  18
HETATM   18  C   UNL     1      -6.774   9.579  69.117  1.00  0.00    -0.049 C  
BRANCH  18  19
HETATM   19  C   UNL     1      -5.425  10.256  68.806  1.00  0.00    -0.038 C  
HETATM   20  H   UNL     1      -4.741  12.089  68.550  1.00  0.00     0.000 HD 
HETATM   21  O   UNL     1      -5.572  11.671  68.742  1.00  0.00    -0.046 OA 
ENDBRANCH  18  19
ENDBRANCH   3  18
BRANCH   3  22
HETATM   22  S   UNL     1      -9.026  11.190  68.547  1.00  0.00    -0.160 SA 
BRANCH  22  23
HETATM   23  S   UNL     1      -9.281  12.140  66.744  1.00  0.00    -0.209 SA 
BRANCH  23  24
HETATM   24  C   UNL     1     -11.072  12.495  66.611  1.00  0.00    -0.283 C  
BRANCH  24  25
HETATM   25  C   UNL     1     -11.618  13.036  65.292  1.00  0.00    -0.328 C  
HETATM   26  O   UNL     1     -12.900  12.413  65.045  1.00  0.00    -0.673 OA 
HETATM   27  C   UNL     1     -11.841  12.840  62.962  1.00  0.00    -0.054 C  
HETATM   28  C   UNL     1     -13.080  12.279  63.628  1.00  0.00     0.006 C  
HETATM   29  C   UNL     1     -10.796  12.738  64.050  1.00  0.00    -0.458 C  
ENDBRANCH  24  25
ENDBRANCH  23  24
ENDBRANCH  22  23
ENDBRANCH   3  22
TORSDOF 9
ENDMDL
MODEL      309
REMARK 921   NORMALIZED FREE ENERGY PREDICTED BY IDOCK:   -1.32 KCAL/MOL
REMARK 922        TOTAL FREE ENERGY PREDICTED BY IDOCK:   -3.25 KCAL/MOL
REMARK 923 INTER-LIGAND FREE ENERGY PREDICTED BY IDOCK:   -4.56 KCAL/MOL
REMARK 924 INTRA-LIGAND FREE ENERGY PREDICTED BY IDOCK:    1.31 KCAL/MOL
REMARK 927      BINDING AFFINITY PREDICTED BY RF-SCORE:    0.00 PKD
ROOT
HETATM    1  C   UNL     1      -8.838  11.921  68.881  1.00  0.00     0.165 C  
HETATM    2  C   UNL     1     -10.262  12.353  69.178  1.00  0.00     0.234 C  
HETATM    3  C   UNL     1     -10.806  13.524  68.734  1.00  0.00    -0.253 C  
ENDROOT
BRANCH   2   4
HETATM    4  N   UNL     1     -10.989  11.371  69.860  1.00  0.00    -0.066 N  
HETATM    5  C   UNL     1     -11.928  11.727  70.818  1.00  0.00    -0.127 C  
HETATM    6  O   UNL     1     -12.588  10.932  71.481  1.00  0.00    -0.384 OA 
BRANCH   4   7
HETATM    7  C   UNL     1     -10.629   9.951  69.725  1.00  0.00    -0.264 C  
BRANCH   7   8
HETATM    8  C   UNL     1     -10.459   9.161  71.003  1.00  0.00    -0.368 A  
HETATM    9  H2  UNL     1      -8.032  10.177  70.626  1.00  0.00     0.000 HD 
HETATM   10  H1  UNL     1      -7.131   9.366  71.872  1.00  0.00     0.000 HD 
HETATM   11  N   UNL     1      -8.024   9.514  71.402  1.00  0.00    -0.181 NA 
HETATM   12  C   UNL     1      -9.147   8.943  71.693  1.00  0.00    -0.210 A  
HETATM   13  C   UNL     1     -11.446   8.360  71.475  1.00  0.00    -0.278 A  
HETATM   14  N   UNL     1     -11.355   7.370  72.442  1.00  0.00    -0.281 NA 
HETATM   15  C   UNL     1      -9.959   6.044  73.932  1.00  0.00    -0.224 C  
HETATM   16  N   UNL     1      -9.132   8.025  72.704  1.00  0.00    -0.201 NA 
HETATM   17  C   UNL     1     -10.189   7.217  73.003  1.00  0.00    -0.251 A  
ENDBRANCH   7   8
ENDBRANCH   4   7
ENDBRANCH   2   4
BRANCH   3  18
HETATM   18  C   UNL     1     -12.305  13.839  68.738  1.00  0.00    -0.041 C  
BRANCH  18  19
HETATM   19  C   UNL     1     -12.698  15.148  69.452  1.00  0.00     0.213 C  
HETATM   20  H   UNL     1     -13.760  15.686  71.024  1.00  0.00     0.000 HD 
HETATM   21  O   UNL     1     -13.518  14.880  70.585  1.00  0.00    -0.296 OA 
ENDBRANCH  18  19
ENDBRANCH   3  18
BRANCH   3  22
HETATM   22  S   UNL     1      -9.716  14.746  68.057  1.00  0.00    -0.217 SA 
BRANCH  22  23
HETATM   23  S   UNL     1      -8.798  13.712  66.537  1.00  0.00     0.133 SA 
BRANCH  23  24
HETATM   24  C   UNL     1     -10.131  13.232  65.379  1.00  0.00    -0.253 C  
BRANCH  24  25
HETATM   25  C   UNL     1     -10.101  11.836  64.761  1.00  0.00    -0.263 C  
HETATM   26  O   UNL     1      -8.920  11.154  65.244  1.00  0.00    -0.191 OA 
HETATM   27  C   UNL     1      -9.394  10.399  63.043  1.00  0.00    -0.344 C  
HETATM   28  C   UNL     1      -8.457  10.258  64.223  1.00  0.00    -0.179 C  
HETATM   29  C   UNL     1      -9.994  11.772  63.247  1.00  0.00    -0.435 C  
ENDBRANCH  24  25
ENDBRANCH  23  24
ENDBRANCH  22  23
ENDBRANCH   3  22
TORSDOF 9
ENDMDL
MODEL      310
REMARK 921   NORMALIZED FREE ENERGY PREDICTED BY IDOCK:   -0.82 KCAL/MOL
REMARK 922        TOTAL FREE ENERGY PREDICTED BY IDOCK:   -2.50 KCAL/MOL
REMARK 923 INTER-LIGAND FREE ENERGY PREDICTED BY IDOCK:   -3.68 KCAL/MOL
REMARK 924 INTRA-LIGAND FREE ENERGY PREDICTED BY IDOCK:    1.18 KCAL/MOL
REMARK 927      BINDING AFFINITY PREDICTED BY RF-SCORE:    0.00 PKD
ROOT
HETATM    1  C   UNL     1      -9.026   6.391  69.507  1.00  0.00    -0.136 C  
HETATM    2  C   UNL     1      -8.519   6.202  70.925  1.00  0.00    -0.128 C  
HETATM    3  C   UNL     1      -9.072   6.812  72.014  1.00  0.00    -0.138 C  
ENDROOT
BRANCH   2   4
HETATM    4  N   UNL     1      -7.498   5.249  71.007  1.00  0.00    -0.084 N  
HETATM    5  C   UNL     1      -6.174   5.644  71.137  1.00  0.00    -0.034 C  
HETATM    6  O   UNL     1      -5.216   4.878  71.188  1.00  0.00    -0.004 OA 
BRANCH   4   7
HETATM    7  C   UNL     1      -7.783   3.829  70.749  1.00  0.00    -0.047 C  
BRANCH   7   8
HETATM    8  C   UNL     1      -7.929   3.409  69.305  1.00  0.00    -0.057 A  
HETATM    9  H2  UNL     1      -5.758   4.940  69.242  1.00  0.00     0.000 HD 
HETATM   10  H1  UNL     1      -5.470   5.046  67.531  1.00  0.00     0.000 HD 
HETATM   11  N   UNL     1      -6.042   4.686  68.296  1.00  0.00    -0.030 NA 
HETATM   12  C   UNL     1      -7.090   3.939  68.182  1.00  0.00    -0.051 A  
HETATM   13  C   UNL     1      -9.015   2.720  68.875  1.00  0.00    -0.124 A  
HETATM   14  N   UNL     1      -9.439   2.517  67.570  1.00  0.00    -0.128 NA 
HETATM   15  C   UNL     1      -9.156   2.988  65.198  1.00  0.00    -0.148 C  
HETATM   16  N   UNL     1      -7.496   3.630  66.915  1.00  0.00    -0.078 NA 
HETATM   17  C   UNL     1      -8.676   3.007  66.633  1.00  0.00    -0.129 A  
ENDBRANCH   7   8
ENDBRANCH   4   7
ENDBRANCH   2   4
BRANCH   3  18
HETATM   18  C   UNL     1      -8.802   6.404  73.466  1.00  0.00    -0.131 C  
BRANCH  18  19
HETATM   19  C   UNL     1      -7.992   7.422  74.293  1.00  0.00    -0.160 C  
HETATM   20  H   UNL     1      -7.230   9.224  74.043  1.00  0.00     0.000 HD 
HETATM   21  O   UNL     1      -7.729   8.597  73.533  1.00  0.00    -0.389 OA 
ENDBRANCH  18  19
ENDBRANCH   3  18
BRANCH   3  22
HETATM   22  S   UNL     1     -10.221   8.132  71.736  1.00  0.00    -0.231 SA 
BRANCH  22  23
HETATM   23  S   UNL     1      -9.272   9.235  70.285  1.00  0.00    -0.254 SA 
BRANCH  23  24
HETATM   24  C   UNL     1     -10.537  10.372  69.610  1.00  0.00    -0.253 C  
BRANCH  24  25
HETATM   25  C   UNL     1     -10.257  11.083  68.288  1.00  0.00    -0.176 C  
HETATM   26  O   UNL     1      -8.947  10.678  67.828  1.00  0.00    -0.138 OA 
HETATM   27  C   UNL     1      -9.348  12.912  67.128  1.00  0.00    -0.229 C  
HETATM   28  C   UNL     1      -8.356  11.769  67.106  1.00  0.00    -0.168 C  
HETATM   29  C   UNL     1     -10.198  12.600  68.340  1.00  0.00    -0.233 C  
ENDBRANCH  24  25
ENDBRANCH  23  24
ENDBRANCH  22  23
ENDBRANCH   3  22
TORSDOF 9
ENDMDL
MODEL      311
REMARK 921   NORMALIZED FREE ENERGY PREDICTED BY IDOCK:   -0.80 KCAL/MOL
REMARK 922        TOTAL FREE ENERGY PREDICTED BY IDOCK:   -2.47 KCAL/MOL
REMARK 923 INTER-LIGAND FREE ENERGY PREDICTED BY IDOCK:   -4.16 KCAL/MOL
REMARK 924 INTRA-LIGAND FREE ENERGY PREDICTED BY IDOCK:    1.69 KCAL/MOL
REMARK 927      BINDING AFFINITY PREDICTED BY RF-SCORE:    0.00 PKD
ROOT
HETATM    1  C   UNL     1      -9.824  15.777  66.196  1.00  0.00    -0.341 C  
HETATM    2  C   UNL     1      -9.089  14.543  66.685  1.00  0.00    -0.251 C  
HETATM    3  C   UNL     1      -7.828  14.571  67.209  1.00  0.00    -0.173 C  
ENDROOT
BRANCH   2   4
HETATM    4  N   UNL     1      -9.886  13.393  66.647  1.00  0.00    -0.271 N  
HETATM    5  C   UNL     1     -11.269  13.495  66.654  1.00  0.00    -0.312 C  
HETATM    6  O   UNL     1     -12.042  12.541  66.649  1.00  0.00    -0.562 OA 
BRANCH   4   7
HETATM    7  C   UNL     1      -9.280  12.062  66.806  1.00  0.00    -0.201 C  
BRANCH   7   8
HETATM    8  C   UNL     1      -8.904  11.324  65.542  1.00  0.00    -0.094 A  
HETATM    9  H2  UNL     1     -10.994  12.769  64.764  1.00  0.00     0.000 HD 
HETATM   10  H1  UNL     1     -11.258  12.143  63.163  1.00  0.00     0.000 HD 
HETATM   11  N   UNL     1     -10.714  12.122  64.026  1.00  0.00    -0.346 NA 
HETATM   12  C   UNL     1      -9.704  11.355  64.275  1.00  0.00    -0.230 A  
HETATM   13  C   UNL     1      -7.954  10.356  65.545  1.00  0.00    -0.153 A  
HETATM   14  N   UNL     1      -7.699   9.403  64.569  1.00  0.00    -0.113 NA 
HETATM   15  C   UNL     1      -8.342   8.365  62.463  1.00  0.00    -0.165 C  
HETATM   16  N   UNL     1      -9.351  10.460  63.306  1.00  0.00    -0.279 NA 
HETATM   17  C   UNL     1      -8.430   9.471  63.493  1.00  0.00    -0.197 A  
ENDBRANCH   7   8
ENDBRANCH   4   7
ENDBRANCH   2   4
BRANCH   3  18
HETATM   18  C   UNL     1      -7.191  13.422  67.996  1.00  0.00    -0.123 C  
BRANCH  18  19
HETATM   19  C   UNL     1      -6.186  13.849  69.083  1.00  0.00    -0.098 C  
HETATM   20  H   UNL     1      -5.094  12.981  70.478  1.00  0.00     0.000 HD 
HETATM   21  O   UNL     1      -5.714  12.718  69.809  1.00  0.00    -0.091 OA 
ENDBRANCH  18  19
ENDBRANCH   3  18
BRANCH   3  22
HETATM   22  S   UNL     1      -6.877  16.054  67.014  1.00  0.00    -0.058 SA 
BRANCH  22  23
HETATM   23  S   UNL     1      -7.477  17.169  68.632  1.00  0.00    -0.253 SA 
BRANCH  23  24
HETATM   24  C   UNL     1      -8.325  16.003  69.760  1.00  0.00     0.329 C  
BRANCH  24  25
HETATM   25  C   UNL     1      -9.826  15.777  69.591  1.00  0.00    -0.275 C  
HETATM   26  O   UNL     1     -10.514  16.966  70.042  1.00  0.00    -0.097 OA 
HETATM   27  C   UNL     1     -11.879  15.073  70.489  1.00  0.00    -0.347 C  
HETATM   28  C   UNL     1     -11.782  16.581  70.595  1.00  0.00     0.192 C  
HETATM   29  C   UNL     1     -10.431  14.645  70.404  1.00  0.00     0.352 C  
ENDBRANCH  24  25
ENDBRANCH  23  24
ENDBRANCH  22  23
ENDBRANCH   3  22
TORSDOF 9
ENDMDL
MODEL      312
REMARK 921   NORMALIZED FREE ENERGY PREDICTED BY IDOCK:    1.04 KCAL/MOL
REMARK 922        TOTAL FREE ENERGY PREDICTED BY IDOCK:    0.35 KCAL/MOL
REMARK 923 INTER-LIGAND FREE ENERGY PREDICTED BY IDOCK:   -0.40 KCAL/MOL
REMARK 924 INTRA-LIGAND FREE ENERGY PREDICTED BY IDOCK:    0.75 KCAL/MOL
REMARK 927      BINDING AFFINITY PREDICTED BY RF-SCORE:    0.00 PKD
ROOT
HETATM    1  C   UNL     1     -11.718  16.314  67.824  1.00  0.00     0.278 C  
HETATM    2  C   UNL     1     -10.524  15.428  67.520  1.00  0.00    -0.275 C  
HETATM    3  C   UNL     1      -9.476  15.252  68.377  1.00  0.00    -0.206 C  
ENDROOT
BRANCH   2   4
HETATM    4  N   UNL     1     -10.669  14.725  66.319  1.00  0.00    -0.305 N  
HETATM    5  C   UNL     1      -9.844  15.001  65.238  1.00  0.00    -0.214 C  
HETATM    6  O   UNL     1      -9.920  14.454  64.142  1.00  0.00     0.467 OA 
BRANCH   4   7
HETATM    7  C   UNL     1     -11.823  13.836  66.112  1.00  0.00    -0.398 C  
BRANCH   7   8
HETATM    8  C   UNL     1     -11.628  12.373  66.435  1.00  0.00    -0.442 A  
HETATM    9  H2  UNL     1     -12.794  13.299  68.637  1.00  0.00     0.000 HD 
HETATM   10  H1  UNL     1     -12.685  11.915  69.683  1.00  0.00     0.000 HD 
HETATM   11  N   UNL     1     -12.493  12.333  68.772  1.00  0.00     0.164 NA 
HETATM   12  C   UNL     1     -11.908  11.759  67.773  1.00  0.00    -0.196 A  
HETATM   13  C   UNL     1     -10.925  11.555  65.613  1.00  0.00    -0.236 A  
HETATM   14  N   UNL     1     -10.415  10.295  65.891  1.00  0.00    -0.153 NA 
HETATM   15  C   UNL     1     -10.013   8.531  67.519  1.00  0.00    -0.258 C  
HETATM   16  N   UNL     1     -11.469  10.479  67.964  1.00  0.00    -0.417 NA 
HETATM   17  C   UNL     1     -10.681   9.813  67.072  1.00  0.00    -0.166 A  
ENDBRANCH   7   8
ENDBRANCH   4   7
ENDBRANCH   2   4
BRANCH   3  18
HETATM   18  C   UNL     1      -8.431  14.138  68.250  1.00  0.00    -0.169 C  
BRANCH  18  19
HETATM   19  C   UNL     1      -7.805  13.983  66.850  1.00  0.00     0.300 C  
HETATM   20  H   UNL     1      -7.501  12.537  65.544  1.00  0.00     0.000 HD 
HETATM   21  O   UNL     1      -7.886  12.632  66.407  1.00  0.00     0.356 OA 
ENDBRANCH  18  19
ENDBRANCH   3  18
BRANCH   3  22
HETATM   22  S   UNL     1      -9.337  16.349  69.762  1.00  0.00     0.595 SA 
BRANCH  22  23
HETATM   23  S   UNL     1     -11.102  16.014  70.758  1.00  0.00    -0.214 SA 
BRANCH  23  24
HETATM   24  C   UNL     1     -11.125  14.228  71.156  1.00  0.00     0.871 C  
BRANCH  24  25
HETATM   25  C   UNL     1     -12.162  13.709  72.148  1.00  0.00     0.427 C  
HETATM   26  O   UNL     1     -12.393  12.309  71.869  1.00  0.00     0.161 OA 
HETATM   27  C   UNL     1     -14.407  13.270  72.684  1.00  0.00     0.137 C  
HETATM   28  C   UNL     1     -13.757  11.995  72.189  1.00  0.00     0.019 C  
HETATM   29  C   UNL     1     -13.538  14.350  72.081  1.00  0.00    -0.529 C  
ENDBRANCH  24  25
ENDBRANCH  23  24
ENDBRANCH  22  23
ENDBRANCH   3  22
TORSDOF 9
ENDMDL
MODEL      313
REMARK 921   NORMALIZED FREE ENERGY PREDICTED BY IDOCK:   10.95 KCAL/MOL
REMARK 922        TOTAL FREE ENERGY PREDICTED BY IDOCK:   15.47 KCAL/MOL
REMARK 923 INTER-LIGAND FREE ENERGY PREDICTED BY IDOCK:   12.92 KCAL/MOL
REMARK 924 INTRA-LIGAND FREE ENERGY PREDICTED BY IDOCK:    2.55 KCAL/MOL
REMARK 927      BINDING AFFINITY PREDICTED BY RF-SCORE:    0.00 PKD
ROOT
HETATM    1  C   UNL     1      -8.341  13.817  69.332  1.00  0.00     0.682 C  
HETATM    2  C   UNL     1      -6.965  13.327  69.742  1.00  0.00     0.335 C  
HETATM    3  C   UNL     1      -6.349  13.687  70.907  1.00  0.00     0.303 C  
ENDROOT
BRANCH   2   4
HETATM    4  N   UNL     1      -6.446  12.380  68.853  1.00  0.00    -0.084 N  
HETATM    5  C   UNL     1      -5.692  12.780  67.759  1.00  0.00    -0.131 C  
HETATM    6  O   UNL     1      -5.223  12.020  66.916  1.00  0.00    -0.215 OA 
BRANCH   4   7
HETATM    7  C   UNL     1      -6.860  10.971  68.942  1.00  0.00    -0.079 C  
BRANCH   7   8
HETATM    8  C   UNL     1      -7.767  10.452  67.850  1.00  0.00    -0.089 A  
HETATM    9  H2  UNL     1      -6.666   8.224  68.792  1.00  0.00     0.000 HD 
HETATM   10  H1  UNL     1      -7.246   7.051  67.647  1.00  0.00     0.000 HD 
HETATM   11  N   UNL     1      -7.217   8.023  67.957  1.00  0.00    -0.092 NA 
HETATM   12  C   UNL     1      -7.809   9.024  67.395  1.00  0.00    -0.100 A  
HETATM   13  C   UNL     1      -8.419  11.295  67.012  1.00  0.00    -0.150 A  
HETATM   14  N   UNL     1      -9.039  10.995  65.808  1.00  0.00    -0.198 NA 
HETATM   15  C   UNL     1      -9.531   9.355  64.078  1.00  0.00     0.305 C  
HETATM   16  N   UNL     1      -8.514   8.766  66.254  1.00  0.00    -0.119 NA 
HETATM   17  C   UNL     1      -9.038   9.740  65.456  1.00  0.00    -0.196 A  
ENDBRANCH   7   8
ENDBRANCH   4   7
ENDBRANCH   2   4
BRANCH   3  18
HETATM   18  C   UNL     1      -5.128  12.976  71.497  1.00  0.00    -0.166 C  
BRANCH  18  19
HETATM   19  C   UNL     1      -5.381  12.226  72.820  1.00  0.00     0.730 C  
HETATM   20  H   UNL     1      -5.453  10.355  73.441  1.00  0.00     0.000 HD 
HETATM   21  O   UNL     1      -5.298  10.817  72.626  1.00  0.00    -0.298 OA 
ENDBRANCH  18  19
ENDBRANCH   3  18
BRANCH   3  22
HETATM   22  S   UNL     1      -7.036  15.035  71.831  1.00  0.00     2.913 SA 
BRANCH  22  23
HETATM   23  S   UNL     1      -9.025  14.529  71.922  1.00  0.00     7.493 SA 
BRANCH  23  24
HETATM   24  C   UNL     1      -9.944  15.993  71.322  1.00  0.00     2.299 C  
BRANCH  24  25
HETATM   25  C   UNL     1      -9.850  16.367  69.845  1.00  0.00     0.227 C  
HETATM   26  O   UNL     1      -8.454  16.370  69.469  1.00  0.00    -0.068 OA 
HETATM   27  C   UNL     1      -9.597  18.010  68.186  1.00  0.00    -0.303 C  
HETATM   28  C   UNL     1      -8.255  17.360  68.449  1.00  0.00    -0.262 C  
HETATM   29  C   UNL     1     -10.358  17.748  69.466  1.00  0.00     0.184 C  
ENDBRANCH  24  25
ENDBRANCH  23  24
ENDBRANCH  22  23
ENDBRANCH   3  22
TORSDOF 9
ENDMDL
MODEL      314
REMARK 921   NORMALIZED FREE ENERGY PREDICTED BY IDOCK:   27.59 KCAL/MOL
REMARK 922        TOTAL FREE ENERGY PREDICTED BY IDOCK:   40.86 KCAL/MOL
REMARK 923 INTER-LIGAND FREE ENERGY PREDICTED BY IDOCK:   30.00 KCAL/MOL
REMARK 924 INTRA-LIGAND FREE ENERGY PREDICTED BY IDOCK:   10.86 KCAL/MOL
REMARK 927      BINDING AFFINITY PREDICTED BY RF-SCORE:    0.00 PKD
ROOT
HETATM    1  C   UNL     1     -10.774  16.589  67.109  1.00  0.00    -0.220 C  
HETATM    2  C   UNL     1     -11.427  15.261  67.446  1.00  0.00    -0.241 C  
HETATM    3  C   UNL     1     -11.299  14.641  68.656  1.00  0.00    -0.283 C  
ENDROOT
BRANCH   2   4
HETATM    4  N   UNL     1     -12.263  14.800  66.424  1.00  0.00    -0.131 N  
HETATM    5  C   UNL     1     -12.928  15.696  65.599  1.00  0.00     2.074 C  
HETATM    6  O   UNL     1     -13.700  15.379  64.698  1.00  0.00     1.184 OA 
BRANCH   4   7
HETATM    7  C   UNL     1     -12.614  13.374  66.336  1.00  0.00    -0.098 C  
BRANCH   7   8
HETATM    8  C   UNL     1     -11.703  12.492  65.514  1.00  0.00    -0.457 A  
HETATM    9  H2  UNL     1     -11.808  11.204  67.836  1.00  0.00     0.000 HD 
HETATM   10  H1  UNL     1     -10.616   9.963  67.587  1.00  0.00     0.000 HD 
HETATM   11  N   UNL     1     -11.118  10.772  67.221  1.00  0.00    -0.305 NA 
HETATM   12  C   UNL     1     -10.965  11.303  66.052  1.00  0.00    -0.174 A  
HETATM   13  C   UNL     1     -11.270  12.872  64.286  1.00  0.00    -0.367 A  
HETATM   14  N   UNL     1     -10.230  12.337  63.542  1.00  0.00    -0.421 NA 
HETATM   15  C   UNL     1      -8.360  10.784  63.403  1.00  0.00    -0.000 C  
HETATM   16  N   UNL     1     -10.014  10.753  65.241  1.00  0.00    -0.263 NA 
HETATM   17  C   UNL     1      -9.617  11.311  64.061  1.00  0.00    -0.232 A  
ENDBRANCH   7   8
ENDBRANCH   4   7
ENDBRANCH   2   4
BRANCH   3  18
HETATM   18  C   UNL     1     -12.186  13.487  69.136  1.00  0.00    -0.236 C  
BRANCH  18  19
HETATM   19  C   UNL     1     -11.464  12.405  69.962  1.00  0.00    -0.031 C  
HETATM   20  H   UNL     1     -11.949  10.792  70.989  1.00  0.00     0.000 HD 
HETATM   21  O   UNL     1     -12.394  11.460  70.480  1.00  0.00    -0.342 OA 
ENDBRANCH  18  19
ENDBRANCH   3  18
BRANCH   3  22
HETATM   22  S   UNL     1     -10.061  15.239  69.773  1.00  0.00    -0.169 SA 
BRANCH  22  23
HETATM   23  S   UNL     1     -11.180  15.781  71.409  1.00  0.00    -0.194 SA 
BRANCH  23  24
HETATM   24  C   UNL     1     -12.926  15.726  70.866  1.00  0.00    -0.267 C  
BRANCH  24  25
HETATM   25  C   UNL     1     -13.281  16.256  69.478  1.00  0.00     2.707 C  
HETATM   26  O   UNL     1     -12.080  16.795  68.880  1.00  0.00     0.408 OA 
HETATM   27  C   UNL     1     -13.948  18.040  68.104  1.00  0.00    10.559 C  
HETATM   28  C   UNL     1     -12.444  17.889  68.024  1.00  0.00     4.705 C  
HETATM   29  C   UNL     1     -14.285  17.395  69.430  1.00  0.00    12.802 C  
ENDBRANCH  24  25
ENDBRANCH  23  24
ENDBRANCH  22  23
ENDBRANCH   3  22
TORSDOF 9
ENDMDL
