MODEL        1
REMARK 921   NORMALIZED FREE ENERGY PREDICTED BY IDOCK:   -8.71 KCAL/MOL
REMARK 922        TOTAL FREE ENERGY PREDICTED BY IDOCK:  -10.93 KCAL/MOL
REMARK 923 INTER-LIGAND FREE ENERGY PREDICTED BY IDOCK:  -10.75 KCAL/MOL
REMARK 924 INTRA-LIGAND FREE ENERGY PREDICTED BY IDOCK:   -0.18 KCAL/MOL
REMARK 927      BINDING AFFINITY PREDICTED BY RF-SCORE:    0.00 PKD
ROOT
HETATM    1  O   UNL     1      -6.264  20.665  68.950  1.00  0.00    -0.332 OA 
HETATM    2  H   UNL     1      -6.832  21.372  69.234  1.00  0.00     0.000 HD 
HETATM    3  C   UNL     1      -6.833  19.389  69.194  1.00  0.00    -0.339 C  
HETATM    4  C   UNL     1      -5.917  18.248  68.737  1.00  0.00    -0.199 C  
HETATM    5  C   UNL     1      -6.531  16.829  69.026  1.00  0.00    -0.195 C  
HETATM    6  C   UNL     1      -7.960  16.668  68.340  1.00  0.00    -0.205 C  
HETATM    7  C   UNL     1      -7.524  16.595  66.868  1.00  0.00    -0.264 C  
HETATM    8  C   UNL     1      -8.725  17.882  68.978  1.00  0.00    -0.007 C  
HETATM    9  C   UNL     1      -8.232  19.285  68.577  1.00  0.00    -0.401 C  
HETATM   10  C   UNL     1     -10.211  17.874  69.286  1.00  0.00    -0.078 C  
HETATM   11  C   UNL     1     -10.734  16.462  69.723  1.00  0.00    -0.324 C  
HETATM   12  C   UNL     1      -8.354  19.688  67.093  1.00  0.00    -0.334 C  
HETATM   13  C   UNL     1     -10.497  15.460  68.535  1.00  0.00    -0.234 C  
HETATM   14  C   UNL     1     -11.532  16.317  67.615  1.00  0.00     0.095 C  
HETATM   15  C   UNL     1      -8.809  15.322  68.611  1.00  0.00    -0.188 C  
HETATM   16  C   UNL     1      -8.082  13.984  68.092  1.00  0.00    -0.151 C  
HETATM   17  C   UNL     1      -8.814  12.665  68.357  1.00  0.00    -0.119 C  
HETATM   18  O   UNL     1      -7.759  13.978  66.712  1.00  0.00    -0.277 OA 
HETATM   19  C   UNL     1     -10.244  12.660  67.855  1.00  0.00    -0.220 C  
HETATM   20  H   UNL     1      -7.329  13.188  66.406  1.00  0.00     0.000 HD 
HETATM   21  C   UNL     1     -10.406  12.708  66.225  1.00  0.00    -0.269 C  
HETATM   22  C   UNL     1     -10.805  14.140  66.108  1.00  0.00    -0.296 C  
HETATM   23  C   UNL     1     -11.088  11.827  65.421  1.00  0.00    -0.336 C  
HETATM   24  C   UNL     1     -12.026  13.911  67.182  1.00  0.00    -0.455 C  
HETATM   25  C   UNL     1     -12.282  12.352  64.580  1.00  0.00    -0.425 C  
HETATM   26  C   UNL     1     -10.404  10.748  64.614  1.00  0.00    -0.394 C  
HETATM   27  O   UNL     1     -12.416  11.650  63.433  1.00  0.00    -0.473 OA 
HETATM   28  C   UNL     1     -11.884  13.586  69.737  1.00  0.00    -0.395 C  
HETATM   29  C   UNL     1     -11.135  13.921  68.460  1.00  0.00    -0.289 C  
HETATM   30  O   UNL     1     -13.023  13.287  64.776  1.00  0.00    -0.710 OA 
ENDROOT
BRANCH  22  31
HETATM   31  O   UNL     1     -10.717  14.723  64.779  1.00  0.00    -0.407 OA 
BRANCH  31  32
HETATM   32  C   UNL     1     -11.239  15.989  64.585  1.00  0.00    -0.330 C  
HETATM   33  O   UNL     1     -12.165  16.236  63.813  1.00  0.00    -0.923 OA 
HETATM   34  C   UNL     1     -10.542  17.177  65.220  1.00  0.00    -0.057 C  
ENDBRANCH  31  32
ENDBRANCH  22  31
BRANCH  26  35
HETATM   35  C   UNL     1      -9.058  10.267  65.104  1.00  0.00    -0.234 C  
BRANCH  35  36
HETATM   36  C   UNL     1      -9.178   8.799  65.393  1.00  0.00    -0.155 C  
HETATM   37  C   UNL     1      -9.706   8.250  66.505  1.00  0.00    -0.323 C  
HETATM   38  C   UNL     1      -9.748   6.761  66.653  1.00  0.00    -0.213 C  
HETATM   39  C   UNL     1     -10.253   9.027  67.675  1.00  0.00    -0.300 C  
ENDBRANCH  35  36
ENDBRANCH  26  35
TORSDOF 4
ENDMDL
MODEL        2
REMARK 921   NORMALIZED FREE ENERGY PREDICTED BY IDOCK:   -8.33 KCAL/MOL
REMARK 922        TOTAL FREE ENERGY PREDICTED BY IDOCK:  -10.45 KCAL/MOL
REMARK 923 INTER-LIGAND FREE ENERGY PREDICTED BY IDOCK:   -9.30 KCAL/MOL
REMARK 924 INTRA-LIGAND FREE ENERGY PREDICTED BY IDOCK:   -1.15 KCAL/MOL
REMARK 927      BINDING AFFINITY PREDICTED BY RF-SCORE:    0.00 PKD
ROOT
HETATM    1  O   UNL     1      -8.251  21.097  67.176  1.00  0.00    -0.577 OA 
HETATM    2  H   UNL     1      -8.205  21.460  66.299  1.00  0.00     0.000 HD 
HETATM    3  C   UNL     1      -9.170  20.021  67.264  1.00  0.00    -0.367 C  
HETATM    4  C   UNL     1      -9.244  19.436  68.680  1.00  0.00    -0.432 C  
HETATM    5  C   UNL     1     -10.279  18.257  68.792  1.00  0.00    -0.342 C  
HETATM    6  C   UNL     1      -9.944  17.094  67.755  1.00  0.00    -0.290 C  
HETATM    7  C   UNL     1      -8.669  16.537  68.409  1.00  0.00    -0.218 C  
HETATM    8  C   UNL     1      -9.970  17.894  66.404  1.00  0.00    -0.358 C  
HETATM    9  C   UNL     1      -8.861  18.948  66.215  1.00  0.00    -0.260 C  
HETATM   10  C   UNL     1     -10.414  17.301  65.080  1.00  0.00     0.203 C  
HETATM   11  C   UNL     1     -11.561  16.244  65.243  1.00  0.00     0.439 C  
HETATM   12  C   UNL     1      -7.403  18.447  66.161  1.00  0.00    -0.290 C  
HETATM   13  C   UNL     1     -11.021  15.063  66.129  1.00  0.00    -0.334 C  
HETATM   14  C   UNL     1      -9.926  14.710  64.976  1.00  0.00    -0.206 C  
HETATM   15  C   UNL     1     -10.954  15.841  67.633  1.00  0.00    -0.302 C  
HETATM   16  C   UNL     1     -11.097  14.991  68.991  1.00  0.00    -0.262 C  
HETATM   17  C   UNL     1     -12.076  13.813  68.957  1.00  0.00    -0.359 C  
HETATM   18  O   UNL     1      -9.881  14.471  69.500  1.00  0.00    -0.416 OA 
HETATM   19  C   UNL     1     -11.819  12.852  67.814  1.00  0.00    -0.391 C  
HETATM   20  H   UNL     1      -9.966  13.970  70.302  1.00  0.00     0.000 HD 
HETATM   21  C   UNL     1     -10.419  12.006  67.921  1.00  0.00    -0.221 C  
HETATM   22  C   UNL     1      -9.646  12.775  66.904  1.00  0.00    -0.235 C  
HETATM   23  C   UNL     1     -10.256  10.642  67.895  1.00  0.00    -0.206 C  
HETATM   24  C   UNL     1     -10.825  12.530  65.788  1.00  0.00    -0.310 C  
HETATM   25  C   UNL     1      -9.414  10.012  66.753  1.00  0.00    -0.168 C  
HETATM   26  C   UNL     1     -10.027   9.815  69.138  1.00  0.00    -0.195 C  
HETATM   27  O   UNL     1      -8.802   8.880  67.168  1.00  0.00    -0.122 OA 
HETATM   28  C   UNL     1     -13.158  13.621  65.645  1.00  0.00    -0.124 C  
HETATM   29  C   UNL     1     -11.807  13.608  66.338  1.00  0.00    -0.433 C  
HETATM   30  O   UNL     1      -9.199  10.408  65.632  1.00  0.00    -0.165 OA 
ENDROOT
BRANCH  22  31
HETATM   31  O   UNL     1      -8.204  12.584  66.917  1.00  0.00    -0.156 OA 
BRANCH  31  32
HETATM   32  C   UNL     1      -7.537  12.731  68.121  1.00  0.00    -0.134 C  
HETATM   33  O   UNL     1      -7.367  13.814  68.679  1.00  0.00    -0.109 OA 
HETATM   34  C   UNL     1      -6.825  11.534  68.719  1.00  0.00    -0.084 C  
ENDBRANCH  31  32
ENDBRANCH  22  31
BRANCH  26  35
HETATM   35  C   UNL     1     -10.528  10.381  70.447  1.00  0.00    -0.018 C  
BRANCH  35  36
HETATM   36  C   UNL     1     -11.664   9.515  70.911  1.00  0.00    -0.391 C  
HETATM   37  C   UNL     1     -12.820   9.948  71.451  1.00  0.00    -0.505 C  
HETATM   38  C   UNL     1     -13.860   8.957  71.875  1.00  0.00    -0.492 C  
HETATM   39  C   UNL     1     -13.169  11.392  71.706  1.00  0.00    -0.472 C  
ENDBRANCH  35  36
ENDBRANCH  26  35
TORSDOF 4
ENDMDL
MODEL        3
REMARK 921   NORMALIZED FREE ENERGY PREDICTED BY IDOCK:   -8.19 KCAL/MOL
REMARK 922        TOTAL FREE ENERGY PREDICTED BY IDOCK:  -10.29 KCAL/MOL
REMARK 923 INTER-LIGAND FREE ENERGY PREDICTED BY IDOCK:   -9.12 KCAL/MOL
REMARK 924 INTRA-LIGAND FREE ENERGY PREDICTED BY IDOCK:   -1.17 KCAL/MOL
REMARK 927      BINDING AFFINITY PREDICTED BY RF-SCORE:    0.00 PKD
ROOT
HETATM    1  O   UNL     1     -10.897   6.486  74.031  1.00  0.00    -0.444 OA 
HETATM    2  H   UNL     1     -10.146   6.115  74.480  1.00  0.00     0.000 HD 
HETATM    3  C   UNL     1     -10.539   7.583  73.206  1.00  0.00    -0.384 C  
HETATM    4  C   UNL     1     -11.750   8.182  72.481  1.00  0.00    -0.457 C  
HETATM    5  C   UNL     1     -11.366   9.415  71.582  1.00  0.00    -0.452 C  
HETATM    6  C   UNL     1     -10.249   9.025  70.514  1.00  0.00    -0.268 C  
HETATM    7  C   UNL     1     -11.092   8.132  69.588  1.00  0.00    -0.015 C  
HETATM    8  C   UNL     1      -9.115   8.495  71.462  1.00  0.00    -0.281 C  
HETATM    9  C   UNL     1      -9.421   7.196  72.232  1.00  0.00    -0.157 C  
HETATM   10  C   UNL     1      -7.634   8.638  71.167  1.00  0.00    -0.120 C  
HETATM   11  C   UNL     1      -7.292   9.966  70.407  1.00  0.00    -0.139 C  
HETATM   12  C   UNL     1      -9.650   5.914  71.406  1.00  0.00    -0.189 C  
HETATM   13  C   UNL     1      -8.046   9.952  69.027  1.00  0.00    -0.111 C  
HETATM   14  C   UNL     1      -7.168   8.658  68.570  1.00  0.00    -0.081 C  
HETATM   15  C   UNL     1      -9.636  10.179  69.569  1.00  0.00    -0.243 C  
HETATM   16  C   UNL     1     -10.725  10.878  68.612  1.00  0.00    -0.203 C  
HETATM   17  C   UNL     1     -10.217  12.014  67.720  1.00  0.00    -0.211 C  
HETATM   18  O   UNL     1     -11.421   9.992  67.754  1.00  0.00    -0.582 OA 
HETATM   19  C   UNL     1      -9.017  11.627  66.878  1.00  0.00    -0.191 C  
HETATM   20  H   UNL     1     -12.064  10.404  67.190  1.00  0.00     0.000 HD 
HETATM   21  C   UNL     1      -9.319  10.514  65.713  1.00  0.00    -0.229 C  
HETATM   22  C   UNL     1      -8.700   9.342  66.395  1.00  0.00    -0.132 C  
HETATM   23  C   UNL     1      -9.077  10.621  64.365  1.00  0.00    -0.240 C  
HETATM   24  C   UNL     1      -7.293  10.165  66.587  1.00  0.00    -0.106 C  
HETATM   25  C   UNL     1      -8.093   9.622  63.700  1.00  0.00    -0.151 C  
HETATM   26  C   UNL     1     -10.157  10.934  63.356  1.00  0.00    -0.398 C  
HETATM   27  O   UNL     1      -8.428   9.392  62.411  1.00  0.00    -0.162 OA 
HETATM   28  C   UNL     1      -6.763  12.093  68.217  1.00  0.00    -0.063 C  
HETATM   29  C   UNL     1      -7.765  11.035  67.790  1.00  0.00    -0.108 C  
HETATM   30  O   UNL     1      -7.160   9.014  64.172  1.00  0.00    -0.093 OA 
ENDROOT
BRANCH  22  31
HETATM   31  O   UNL     1      -9.048   8.034  65.862  1.00  0.00    -0.168 OA 
BRANCH  31  32
HETATM   32  C   UNL     1      -9.821   7.194  66.644  1.00  0.00    -0.169 C  
HETATM   33  O   UNL     1     -11.034   7.328  66.797  1.00  0.00    -0.284 OA 
HETATM   34  C   UNL     1      -9.135   6.147  67.500  1.00  0.00    -0.109 C  
ENDBRANCH  31  32
ENDBRANCH  22  31
BRANCH  26  35
HETATM   35  C   UNL     1     -11.375  11.676  63.855  1.00  0.00    -0.457 C  
BRANCH  35  36
HETATM   36  C   UNL     1     -10.998  13.122  64.001  1.00  0.00    -0.377 C  
HETATM   37  C   UNL     1     -11.595  14.019  64.810  1.00  0.00    -0.387 C  
HETATM   38  C   UNL     1     -11.109  15.435  64.840  1.00  0.00    -0.435 C  
HETATM   39  C   UNL     1     -12.773  13.727  65.704  1.00  0.00    -0.523 C  
ENDBRANCH  35  36
ENDBRANCH  26  35
TORSDOF 4
ENDMDL
MODEL        4
REMARK 921   NORMALIZED FREE ENERGY PREDICTED BY IDOCK:   -8.02 KCAL/MOL
REMARK 922        TOTAL FREE ENERGY PREDICTED BY IDOCK:  -10.07 KCAL/MOL
REMARK 923 INTER-LIGAND FREE ENERGY PREDICTED BY IDOCK:   -9.27 KCAL/MOL
REMARK 924 INTRA-LIGAND FREE ENERGY PREDICTED BY IDOCK:   -0.80 KCAL/MOL
REMARK 927      BINDING AFFINITY PREDICTED BY RF-SCORE:    0.00 PKD
ROOT
HETATM    1  O   UNL     1      -8.378   5.475  72.650  1.00  0.00    -0.113 OA 
HETATM    2  H   UNL     1      -8.671   4.605  72.406  1.00  0.00     0.000 HD 
HETATM    3  C   UNL     1      -8.038   6.264  71.521  1.00  0.00    -0.110 C  
HETATM    4  C   UNL     1      -7.565   7.668  71.916  1.00  0.00    -0.086 C  
HETATM    5  C   UNL     1      -7.164   8.541  70.670  1.00  0.00    -0.052 C  
HETATM    6  C   UNL     1      -8.369   8.660  69.635  1.00  0.00    -0.123 C  
HETATM    7  C   UNL     1      -9.305   9.571  70.446  1.00  0.00    -0.311 C  
HETATM    8  C   UNL     1      -8.647   7.143  69.340  1.00  0.00    -0.134 C  
HETATM    9  C   UNL     1      -9.193   6.309  70.515  1.00  0.00    -0.164 C  
HETATM   10  C   UNL     1      -9.138   6.620  68.003  1.00  0.00    -0.114 C  
HETATM   11  C   UNL     1      -8.575   7.436  66.788  1.00  0.00    -0.127 C  
HETATM   12  C   UNL     1     -10.576   6.692  71.081  1.00  0.00    -0.263 C  
HETATM   13  C   UNL     1      -9.071   8.922  66.920  1.00  0.00    -0.163 C  
HETATM   14  C   UNL     1     -10.609   8.415  66.748  1.00  0.00    -0.227 C  
HETATM   15  C   UNL     1      -8.123   9.423  68.234  1.00  0.00    -0.109 C  
HETATM   16  C   UNL     1      -7.728  10.973  68.402  1.00  0.00    -0.119 C  
HETATM   17  C   UNL     1      -7.438  11.745  67.112  1.00  0.00    -0.149 C  
HETATM   18  O   UNL     1      -8.669  11.754  69.119  1.00  0.00    -0.358 OA 
HETATM   19  C   UNL     1      -8.549  11.642  66.087  1.00  0.00    -0.053 C  
HETATM   20  H   UNL     1      -8.435  12.668  69.219  1.00  0.00     0.000 HD 
HETATM   21  C   UNL     1      -9.950  12.382  66.507  1.00  0.00    -0.242 C  
HETATM   22  C   UNL     1     -10.722  11.157  66.861  1.00  0.00    -0.274 C  
HETATM   23  C   UNL     1     -10.637  13.344  65.806  1.00  0.00    -0.286 C  
HETATM   24  C   UNL     1     -10.394  10.498  65.394  1.00  0.00    -0.292 C  
HETATM   25  C   UNL     1     -12.080  13.032  65.327  1.00  0.00    -0.441 C  
HETATM   26  C   UNL     1     -10.580  14.813  66.150  1.00  0.00    -0.314 C  
HETATM   27  O   UNL     1     -12.829  14.156  65.273  1.00  0.00    -0.670 OA 
HETATM   28  C   UNL     1      -8.171   9.516  64.529  1.00  0.00    -0.152 C  
HETATM   29  C   UNL     1      -8.932  10.071  65.720  1.00  0.00    -0.187 C  
HETATM   30  O   UNL     1     -12.605  11.974  65.070  1.00  0.00    -0.415 OA 
ENDROOT
BRANCH  22  31
HETATM   31  O   UNL     1     -11.937  11.366  67.632  1.00  0.00    -0.630 OA 
BRANCH  31  32
HETATM   32  C   UNL     1     -11.819  11.893  68.906  1.00  0.00    -0.307 C  
HETATM   33  O   UNL     1     -11.269  12.964  69.154  1.00  0.00    -0.256 OA 
HETATM   34  C   UNL     1     -12.234  11.045  70.094  1.00  0.00    -0.424 C  
ENDBRANCH  31  32
ENDBRANCH  22  31
BRANCH  26  35
HETATM   35  C   UNL     1      -9.357  15.303  66.890  1.00  0.00    -0.255 C  
BRANCH  35  36
HETATM   36  C   UNL     1      -9.489  16.790  67.051  1.00  0.00    -0.240 C  
HETATM   37  C   UNL     1     -10.045  17.428  68.100  1.00  0.00    -0.328 C  
HETATM   38  C   UNL     1     -10.111  18.924  68.112  1.00  0.00    -0.447 C  
HETATM   39  C   UNL     1     -10.657  16.749  69.298  1.00  0.00    -0.336 C  
ENDBRANCH  35  36
ENDBRANCH  26  35
TORSDOF 4
ENDMDL
MODEL        5
REMARK 921   NORMALIZED FREE ENERGY PREDICTED BY IDOCK:   -7.95 KCAL/MOL
REMARK 922        TOTAL FREE ENERGY PREDICTED BY IDOCK:   -9.99 KCAL/MOL
REMARK 923 INTER-LIGAND FREE ENERGY PREDICTED BY IDOCK:   -9.20 KCAL/MOL
REMARK 924 INTRA-LIGAND FREE ENERGY PREDICTED BY IDOCK:   -0.80 KCAL/MOL
REMARK 927      BINDING AFFINITY PREDICTED BY RF-SCORE:    0.00 PKD
ROOT
HETATM    1  O   UNL     1      -9.249   6.057  73.165  1.00  0.00    -0.134 OA 
HETATM    2  H   UNL     1      -9.561   5.179  72.980  1.00  0.00     0.000 HD 
HETATM    3  C   UNL     1      -8.744   6.702  72.007  1.00  0.00    -0.127 C  
HETATM    4  C   UNL     1      -8.242   8.120  72.304  1.00  0.00    -0.205 C  
HETATM    5  C   UNL     1      -7.657   8.832  71.029  1.00  0.00    -0.124 C  
HETATM    6  C   UNL     1      -8.733   8.887  69.854  1.00  0.00    -0.140 C  
HETATM    7  C   UNL     1      -9.702   9.920  70.451  1.00  0.00    -0.151 C  
HETATM    8  C   UNL     1      -9.059   7.359  69.689  1.00  0.00    -0.140 C  
HETATM    9  C   UNL     1      -9.776   6.684  70.874  1.00  0.00    -0.190 C  
HETATM   10  C   UNL     1      -9.426   6.713  68.367  1.00  0.00    -0.125 C  
HETATM   11  C   UNL     1      -8.688   7.366  67.147  1.00  0.00    -0.121 C  
HETATM   12  C   UNL     1     -11.190   7.186  71.232  1.00  0.00    -0.287 C  
HETATM   13  C   UNL     1      -9.114   8.877  67.064  1.00  0.00    -0.161 C  
HETATM   14  C   UNL     1     -10.649   8.420  66.769  1.00  0.00    -0.227 C  
HETATM   15  C   UNL     1      -8.292   9.479  68.419  1.00  0.00    -0.118 C  
HETATM   16  C   UNL     1      -7.834  11.021  68.469  1.00  0.00    -0.129 C  
HETATM   17  C   UNL     1      -7.361  11.633  67.147  1.00  0.00    -0.143 C  
HETATM   18  O   UNL     1      -8.805  11.914  68.986  1.00  0.00    -0.375 OA 
HETATM   19  C   UNL     1      -8.356  11.464  66.017  1.00  0.00    -0.019 C  
HETATM   20  H   UNL     1      -8.534  12.824  69.015  1.00  0.00     0.000 HD 
HETATM   21  C   UNL     1      -9.752  12.305  66.191  1.00  0.00    -0.256 C  
HETATM   22  C   UNL     1     -10.625  11.159  66.580  1.00  0.00    -0.262 C  
HETATM   23  C   UNL     1     -10.304  13.211  65.318  1.00  0.00    -0.319 C  
HETATM   24  C   UNL     1     -10.172  10.329  65.237  1.00  0.00    -0.308 C  
HETATM   25  C   UNL     1     -11.700  12.909  64.711  1.00  0.00    -0.346 C  
HETATM   26  C   UNL     1     -10.205  14.706  65.511  1.00  0.00    -0.395 C  
HETATM   27  O   UNL     1     -12.376  14.052  64.453  1.00  0.00    -0.561 OA 
HETATM   28  C   UNL     1      -7.924   9.166  64.744  1.00  0.00    -0.126 C  
HETATM   29  C   UNL     1      -8.781   9.879  65.774  1.00  0.00    -0.157 C  
HETATM   30  O   UNL     1     -12.251  11.853  64.507  1.00  0.00    -0.262 OA 
ENDROOT
BRANCH  22  31
HETATM   31  O   UNL     1     -11.905  11.504  67.178  1.00  0.00    -0.595 OA 
BRANCH  31  32
HETATM   32  C   UNL     1     -11.902  12.103  68.426  1.00  0.00    -0.303 C  
HETATM   33  O   UNL     1     -12.019  11.484  69.481  1.00  0.00    -0.312 OA 
HETATM   34  C   UNL     1     -11.924  13.617  68.515  1.00  0.00    -0.396 C  
ENDBRANCH  31  32
ENDBRANCH  22  31
BRANCH  26  35
HETATM   35  C   UNL     1      -9.047  15.222  66.332  1.00  0.00    -0.347 C  
BRANCH  35  36
HETATM   36  C   UNL     1      -9.031  16.719  66.204  1.00  0.00    -0.295 C  
HETATM   37  C   UNL     1      -9.709  17.587  66.980  1.00  0.00    -0.284 C  
HETATM   38  C   UNL     1      -9.599  19.058  66.723  1.00  0.00    -0.374 C  
HETATM   39  C   UNL     1     -10.629  17.201  68.110  1.00  0.00    -0.380 C  
ENDBRANCH  35  36
ENDBRANCH  26  35
TORSDOF 4
ENDMDL
MODEL        6
REMARK 921   NORMALIZED FREE ENERGY PREDICTED BY IDOCK:   -7.90 KCAL/MOL
REMARK 922        TOTAL FREE ENERGY PREDICTED BY IDOCK:   -9.93 KCAL/MOL
REMARK 923 INTER-LIGAND FREE ENERGY PREDICTED BY IDOCK:   -9.13 KCAL/MOL
REMARK 924 INTRA-LIGAND FREE ENERGY PREDICTED BY IDOCK:   -0.80 KCAL/MOL
REMARK 927      BINDING AFFINITY PREDICTED BY RF-SCORE:    0.00 PKD
ROOT
HETATM    1  O   UNL     1      -8.513  20.997  67.279  1.00  0.00    -0.512 OA 
HETATM    2  H   UNL     1      -8.468  21.373  66.407  1.00  0.00     0.000 HD 
HETATM    3  C   UNL     1      -9.397  19.890  67.340  1.00  0.00    -0.355 C  
HETATM    4  C   UNL     1      -9.472  19.283  68.746  1.00  0.00    -0.459 C  
HETATM    5  C   UNL     1     -10.468  18.069  68.828  1.00  0.00    -0.182 C  
HETATM    6  C   UNL     1     -10.080  16.932  67.780  1.00  0.00    -0.292 C  
HETATM    7  C   UNL     1      -8.795  16.409  68.445  1.00  0.00    -0.214 C  
HETATM    8  C   UNL     1     -10.113  17.750  66.440  1.00  0.00    -0.357 C  
HETATM    9  C   UNL     1      -9.038  18.842  66.281  1.00  0.00    -0.250 C  
HETATM   10  C   UNL     1     -10.518  17.160  65.102  1.00  0.00     0.119 C  
HETATM   11  C   UNL     1     -11.631  16.064  65.234  1.00  0.00     0.287 C  
HETATM   12  C   UNL     1      -7.563  18.391  66.241  1.00  0.00    -0.289 C  
HETATM   13  C   UNL     1     -11.064  14.889  66.111  1.00  0.00    -0.335 C  
HETATM   14  C   UNL     1      -9.942  14.588  64.970  1.00  0.00    -0.206 C  
HETATM   15  C   UNL     1     -11.045  15.648  67.627  1.00  0.00    -0.305 C  
HETATM   16  C   UNL     1     -11.179  14.775  68.972  1.00  0.00    -0.270 C  
HETATM   17  C   UNL     1     -12.117  13.566  68.907  1.00  0.00    -0.315 C  
HETATM   18  O   UNL     1      -9.953  14.289  69.491  1.00  0.00    -0.413 OA 
HETATM   19  C   UNL     1     -11.812  12.630  67.756  1.00  0.00    -0.381 C  
HETATM   20  H   UNL     1     -10.032  13.774  70.285  1.00  0.00     0.000 HD 
HETATM   21  C   UNL     1     -10.386  11.830  67.872  1.00  0.00    -0.209 C  
HETATM   22  C   UNL     1      -9.624  12.637  66.876  1.00  0.00    -0.232 C  
HETATM   23  C   UNL     1     -10.176  10.472  67.830  1.00  0.00    -0.213 C  
HETATM   24  C   UNL     1     -10.779  12.369  65.741  1.00  0.00    -0.301 C  
HETATM   25  C   UNL     1      -9.298   9.886  66.692  1.00  0.00    -0.157 C  
HETATM   26  C   UNL     1      -9.938   9.636  69.065  1.00  0.00    -0.189 C  
HETATM   27  O   UNL     1      -8.654   8.769  67.101  1.00  0.00    -0.116 OA 
HETATM   28  C   UNL     1     -13.145  13.383  65.578  1.00  0.00     0.014 C  
HETATM   29  C   UNL     1     -11.805  13.405  66.290  1.00  0.00    -0.438 C  
HETATM   30  O   UNL     1      -9.081  10.305  65.579  1.00  0.00    -0.158 OA 
ENDROOT
BRANCH  22  31
HETATM   31  O   UNL     1      -8.177  12.495  66.908  1.00  0.00    -0.156 OA 
BRANCH  31  32
HETATM   32  C   UNL     1      -7.521  12.758  68.097  1.00  0.00    -0.124 C  
HETATM   33  O   UNL     1      -7.391  13.886  68.570  1.00  0.00    -0.102 OA 
HETATM   34  C   UNL     1      -6.770  11.636  68.788  1.00  0.00    -0.077 C  
ENDBRANCH  31  32
ENDBRANCH  22  31
BRANCH  26  35
HETATM   35  C   UNL     1     -10.476  10.167  70.374  1.00  0.00    -0.237 C  
BRANCH  35  36
HETATM   36  C   UNL     1     -10.305   9.089  71.405  1.00  0.00    -0.396 C  
HETATM   37  C   UNL     1     -11.293   8.504  72.111  1.00  0.00    -0.442 C  
HETATM   38  C   UNL     1     -10.963   7.444  73.116  1.00  0.00    -0.408 C  
HETATM   39  C   UNL     1     -12.756   8.849  72.000  1.00  0.00    -0.456 C  
ENDBRANCH  35  36
ENDBRANCH  26  35
TORSDOF 4
ENDMDL
MODEL        7
REMARK 921   NORMALIZED FREE ENERGY PREDICTED BY IDOCK:   -7.74 KCAL/MOL
REMARK 922        TOTAL FREE ENERGY PREDICTED BY IDOCK:   -9.73 KCAL/MOL
REMARK 923 INTER-LIGAND FREE ENERGY PREDICTED BY IDOCK:   -8.86 KCAL/MOL
REMARK 924 INTRA-LIGAND FREE ENERGY PREDICTED BY IDOCK:   -0.87 KCAL/MOL
REMARK 927      BINDING AFFINITY PREDICTED BY RF-SCORE:    0.00 PKD
ROOT
HETATM    1  O   UNL     1      -8.685   5.416  72.851  1.00  0.00    -0.119 OA 
HETATM    2  H   UNL     1      -8.951   4.545  72.577  1.00  0.00     0.000 HD 
HETATM    3  C   UNL     1      -8.298   6.227  71.754  1.00  0.00    -0.121 C  
HETATM    4  C   UNL     1      -7.868   7.632  72.194  1.00  0.00    -0.116 C  
HETATM    5  C   UNL     1      -7.414   8.531  70.985  1.00  0.00    -0.080 C  
HETATM    6  C   UNL     1      -8.566   8.649  69.890  1.00  0.00    -0.131 C  
HETATM    7  C   UNL     1      -9.557   9.533  70.664  1.00  0.00    -0.292 C  
HETATM    8  C   UNL     1      -8.805   7.132  69.557  1.00  0.00    -0.137 C  
HETATM    9  C   UNL     1      -9.399   6.272  70.689  1.00  0.00    -0.171 C  
HETATM   10  C   UNL     1      -9.217   6.624  68.188  1.00  0.00    -0.117 C  
HETATM   11  C   UNL     1      -8.603   7.468  67.018  1.00  0.00    -0.122 C  
HETATM   12  C   UNL     1     -10.815   6.626  71.187  1.00  0.00    -0.284 C  
HETATM   13  C   UNL     1      -9.128   8.945  67.146  1.00  0.00    -0.160 C  
HETATM   14  C   UNL     1     -10.647   8.419  66.886  1.00  0.00    -0.285 C  
HETATM   15  C   UNL     1      -8.259   9.437  68.516  1.00  0.00    -0.113 C  
HETATM   16  C   UNL     1      -7.896  10.991  68.729  1.00  0.00    -0.138 C  
HETATM   17  C   UNL     1      -7.550  11.787  67.468  1.00  0.00    -0.135 C  
HETATM   18  O   UNL     1      -8.885  11.746  69.407  1.00  0.00    -0.116 OA 
HETATM   19  C   UNL     1      -8.604  11.685  66.384  1.00  0.00    -0.143 C  
HETATM   20  H   UNL     1      -8.671  12.662  69.533  1.00  0.00     0.000 HD 
HETATM   21  C   UNL     1     -10.037  12.398  66.741  1.00  0.00    -0.226 C  
HETATM   22  C   UNL     1     -10.808  11.156  67.035  1.00  0.00    -0.284 C  
HETATM   23  C   UNL     1     -10.701  13.361  66.020  1.00  0.00    -0.283 C  
HETATM   24  C   UNL     1     -10.393  10.526  65.577  1.00  0.00    -0.287 C  
HETATM   25  C   UNL     1     -12.112  13.036  65.461  1.00  0.00    -0.452 C  
HETATM   26  C   UNL     1     -10.684  14.825  66.389  1.00  0.00    -0.313 C  
HETATM   27  O   UNL     1     -12.874  14.150  65.385  1.00  0.00    -0.637 OA 
HETATM   28  C   UNL     1      -8.113   9.591  64.815  1.00  0.00    -0.130 C  
HETATM   29  C   UNL     1      -8.944  10.115  65.973  1.00  0.00    -0.174 C  
HETATM   30  O   UNL     1     -12.607  11.975  65.160  1.00  0.00    -0.396 OA 
ENDROOT
BRANCH  22  31
HETATM   31  O   UNL     1     -12.065  11.336  67.744  1.00  0.00    -0.631 OA 
BRANCH  31  32
HETATM   32  C   UNL     1     -12.018  11.768  69.058  1.00  0.00    -0.280 C  
HETATM   33  O   UNL     1     -11.463  12.806  69.415  1.00  0.00    -0.271 OA 
HETATM   34  C   UNL     1     -12.523  10.849  70.153  1.00  0.00    -0.356 C  
ENDBRANCH  31  32
ENDBRANCH  22  31
BRANCH  26  35
HETATM   35  C   UNL     1      -9.509  15.321  67.200  1.00  0.00    -0.223 C  
BRANCH  35  36
HETATM   36  C   UNL     1      -8.892  16.467  66.451  1.00  0.00    -0.346 C  
HETATM   37  C   UNL     1      -7.600  16.848  66.511  1.00  0.00    -0.328 C  
HETATM   38  C   UNL     1      -7.133  18.023  65.708  1.00  0.00    -0.242 C  
HETATM   39  C   UNL     1      -6.545  16.197  67.368  1.00  0.00    -0.219 C  
ENDBRANCH  35  36
ENDBRANCH  26  35
TORSDOF 4
ENDMDL
MODEL        8
REMARK 921   NORMALIZED FREE ENERGY PREDICTED BY IDOCK:   -7.57 KCAL/MOL
REMARK 922        TOTAL FREE ENERGY PREDICTED BY IDOCK:   -9.52 KCAL/MOL
REMARK 923 INTER-LIGAND FREE ENERGY PREDICTED BY IDOCK:   -8.27 KCAL/MOL
REMARK 924 INTRA-LIGAND FREE ENERGY PREDICTED BY IDOCK:   -1.25 KCAL/MOL
REMARK 927      BINDING AFFINITY PREDICTED BY RF-SCORE:    0.00 PKD
ROOT
HETATM    1  O   UNL     1     -11.707  15.456  64.552  1.00  0.00    -0.510 OA 
HETATM    2  H   UNL     1     -11.196  16.249  64.667  1.00  0.00     0.000 HD 
HETATM    3  C   UNL     1     -10.942  14.286  64.793  1.00  0.00    -0.398 C  
HETATM    4  C   UNL     1     -11.766  13.006  64.607  1.00  0.00    -0.408 C  
HETATM    5  C   UNL     1     -10.920  11.702  64.850  1.00  0.00    -0.345 C  
HETATM    6  C   UNL     1     -10.263  11.703  66.302  1.00  0.00    -0.262 C  
HETATM    7  C   UNL     1     -11.530  11.491  67.148  1.00  0.00    -0.313 C  
HETATM    8  C   UNL     1      -9.447  13.044  66.250  1.00  0.00    -0.199 C  
HETATM    9  C   UNL     1     -10.273  14.342  66.171  1.00  0.00    -0.317 C  
HETATM   10  C   UNL     1      -8.130  13.258  66.973  1.00  0.00    -0.020 C  
HETATM   11  C   UNL     1      -7.258  11.957  67.044  1.00  0.00    -0.118 C  
HETATM   12  C   UNL     1     -11.194  14.676  67.363  1.00  0.00    -0.351 C  
HETATM   13  C   UNL     1      -8.061  10.868  67.846  1.00  0.00    -0.113 C  
HETATM   14  C   UNL     1      -7.994  11.809  69.174  1.00  0.00     0.202 C  
HETATM   15  C   UNL     1      -9.262  10.503  66.707  1.00  0.00    -0.175 C  
HETATM   16  C   UNL     1      -9.956   9.052  66.699  1.00  0.00    -0.278 C  
HETATM   17  C   UNL     1      -9.049   7.863  67.031  1.00  0.00    -0.162 C  
HETATM   18  O   UNL     1     -11.086   8.927  67.544  1.00  0.00    -0.461 OA 
HETATM   19  C   UNL     1      -8.296   8.028  68.336  1.00  0.00    -0.127 C  
HETATM   20  H   UNL     1     -11.496   8.070  67.539  1.00  0.00     0.000 HD 
HETATM   21  C   UNL     1      -9.231   8.009  69.682  1.00  0.00    -0.152 C  
HETATM   22  C   UNL     1      -9.206   9.474  69.960  1.00  0.00    -0.234 C  
HETATM   23  C   UNL     1      -9.113   7.188  70.778  1.00  0.00    -0.153 C  
HETATM   24  C   UNL     1      -7.565   9.474  69.938  1.00  0.00    -0.123 C  
HETATM   25  C   UNL     1      -8.829   7.827  72.164  1.00  0.00    -0.133 C  
HETATM   26  C   UNL     1      -9.995   5.984  71.005  1.00  0.00    -0.230 C  
HETATM   27  O   UNL     1      -9.369   7.089  73.160  1.00  0.00    -0.137 OA 
HETATM   28  C   UNL     1      -5.981   9.272  67.913  1.00  0.00    -0.049 C  
HETATM   29  C   UNL     1      -7.414   9.431  68.388  1.00  0.00    -0.078 C  
HETATM   30  O   UNL     1      -8.277   8.864  72.447  1.00  0.00    -0.384 OA 
ENDROOT
BRANCH  22  31
HETATM   31  O   UNL     1     -10.211   9.966  70.890  1.00  0.00    -0.210 OA 
BRANCH  31  32
HETATM   32  C   UNL     1     -11.544   9.777  70.572  1.00  0.00    -0.292 C  
HETATM   33  O   UNL     1     -12.152  10.456  69.746  1.00  0.00    -0.228 OA 
HETATM   34  C   UNL     1     -12.363   8.797  71.389  1.00  0.00    -0.353 C  
ENDBRANCH  31  32
ENDBRANCH  22  31
BRANCH  26  35
HETATM   35  C   UNL     1     -10.625   5.349  69.786  1.00  0.00    -0.347 C  
BRANCH  35  36
HETATM   36  C   UNL     1      -9.649   4.347  69.240  1.00  0.00    -0.261 C  
HETATM   37  C   UNL     1      -9.469   4.044  67.940  1.00  0.00    -0.225 C  
HETATM   38  C   UNL     1      -8.457   3.011  67.549  1.00  0.00    -0.101 C  
HETATM   39  C   UNL     1     -10.241   4.650  66.796  1.00  0.00    -0.226 C  
ENDBRANCH  35  36
ENDBRANCH  26  35
TORSDOF 4
ENDMDL
MODEL        9
REMARK 921   NORMALIZED FREE ENERGY PREDICTED BY IDOCK:   -7.55 KCAL/MOL
REMARK 922        TOTAL FREE ENERGY PREDICTED BY IDOCK:   -9.50 KCAL/MOL
REMARK 923 INTER-LIGAND FREE ENERGY PREDICTED BY IDOCK:   -8.30 KCAL/MOL
REMARK 924 INTRA-LIGAND FREE ENERGY PREDICTED BY IDOCK:   -1.19 KCAL/MOL
REMARK 927      BINDING AFFINITY PREDICTED BY RF-SCORE:    0.00 PKD
ROOT
HETATM    1  O   UNL     1     -11.808  16.141  64.195  1.00  0.00    -1.032 OA 
HETATM    2  H   UNL     1     -11.339  16.943  64.395  1.00  0.00     0.000 HD 
HETATM    3  C   UNL     1     -11.036  14.985  64.475  1.00  0.00    -0.191 C  
HETATM    4  C   UNL     1     -11.792  13.690  64.151  1.00  0.00    -0.463 C  
HETATM    5  C   UNL     1     -10.933  12.403  64.437  1.00  0.00    -0.377 C  
HETATM    6  C   UNL     1     -10.439  12.363  65.952  1.00  0.00    -0.284 C  
HETATM    7  C   UNL     1     -11.782  12.080  66.644  1.00  0.00    -0.331 C  
HETATM    8  C   UNL     1      -9.668  13.728  66.040  1.00  0.00    -0.255 C  
HETATM    9  C   UNL     1     -10.523  15.004  65.919  1.00  0.00    -0.341 C  
HETATM   10  C   UNL     1      -8.445  13.951  66.911  1.00  0.00    -0.092 C  
HETATM   11  C   UNL     1      -7.543  12.674  67.029  1.00  0.00     0.006 C  
HETATM   12  C   UNL     1     -11.578  15.262  67.014  1.00  0.00    -0.098 C  
HETATM   13  C   UNL     1      -8.392  11.531  67.696  1.00  0.00    -0.135 C  
HETATM   14  C   UNL     1      -8.501  12.418  69.058  1.00  0.00     0.420 C  
HETATM   15  C   UNL     1      -9.449  11.178  66.419  1.00  0.00    -0.216 C  
HETATM   16  C   UNL     1     -10.089   9.708  66.281  1.00  0.00    -0.252 C  
HETATM   17  C   UNL     1      -9.185   8.534  66.666  1.00  0.00    -0.223 C  
HETATM   18  O   UNL     1     -11.300   9.516  66.991  1.00  0.00    -0.030 OA 
HETATM   19  C   UNL     1      -8.584   8.667  68.051  1.00  0.00    -0.137 C  
HETATM   20  H   UNL     1     -11.678   8.649  66.909  1.00  0.00     0.000 HD 
HETATM   21  C   UNL     1      -9.659   8.566  69.285  1.00  0.00    -0.170 C  
HETATM   22  C   UNL     1      -9.713  10.018  69.618  1.00  0.00    -0.229 C  
HETATM   23  C   UNL     1      -9.633   7.705  70.355  1.00  0.00    -0.168 C  
HETATM   24  C   UNL     1      -8.080  10.067  69.777  1.00  0.00    -0.188 C  
HETATM   25  C   UNL     1      -9.524   8.294  71.787  1.00  0.00    -0.209 C  
HETATM   26  C   UNL     1     -10.494   6.467  70.438  1.00  0.00    -0.256 C  
HETATM   27  O   UNL     1     -10.144   7.501  72.689  1.00  0.00    -0.188 OA 
HETATM   28  C   UNL     1      -6.279   9.993  67.932  1.00  0.00    -0.057 C  
HETATM   29  C   UNL     1      -7.760  10.091  68.252  1.00  0.00    -0.084 C  
HETATM   30  O   UNL     1      -9.040   9.335  72.167  1.00  0.00    -0.197 OA 
ENDROOT
BRANCH  22  31
HETATM   31  O   UNL     1     -10.829  10.443  70.449  1.00  0.00    -0.289 OA 
BRANCH  31  32
HETATM   32  C   UNL     1     -11.864  11.137  69.849  1.00  0.00    -0.363 C  
HETATM   33  O   UNL     1     -12.648  10.633  69.046  1.00  0.00    -0.232 OA 
HETATM   34  C   UNL     1     -11.956  12.637  70.046  1.00  0.00    -0.377 C  
ENDBRANCH  31  32
ENDBRANCH  22  31
BRANCH  26  35
HETATM   35  C   UNL     1     -10.966   5.865  69.135  1.00  0.00    -0.382 C  
BRANCH  35  36
HETATM   36  C   UNL     1      -9.874   4.969  68.626  1.00  0.00    -0.227 C  
HETATM   37  C   UNL     1      -9.709   4.566  67.351  1.00  0.00    -0.218 C  
HETATM   38  C   UNL     1      -8.569   3.660  66.998  1.00  0.00    -0.113 C  
HETATM   39  C   UNL     1     -10.616   4.931  66.205  1.00  0.00    -0.322 C  
ENDBRANCH  35  36
ENDBRANCH  26  35
TORSDOF 4
ENDMDL
MODEL       10
REMARK 921   NORMALIZED FREE ENERGY PREDICTED BY IDOCK:   -7.45 KCAL/MOL
REMARK 922        TOTAL FREE ENERGY PREDICTED BY IDOCK:   -9.37 KCAL/MOL
REMARK 923 INTER-LIGAND FREE ENERGY PREDICTED BY IDOCK:   -8.61 KCAL/MOL
REMARK 924 INTRA-LIGAND FREE ENERGY PREDICTED BY IDOCK:   -0.76 KCAL/MOL
REMARK 927      BINDING AFFINITY PREDICTED BY RF-SCORE:    0.00 PKD
ROOT
HETATM    1  O   UNL     1      -8.852  20.141  67.825  1.00  0.00    -0.316 OA 
HETATM    2  H   UNL     1      -8.770  20.617  67.007  1.00  0.00     0.000 HD 
HETATM    3  C   UNL     1      -9.699  19.009  67.704  1.00  0.00    -0.315 C  
HETATM    4  C   UNL     1      -9.831  18.240  69.023  1.00  0.00    -0.270 C  
HETATM    5  C   UNL     1     -10.788  16.997  68.903  1.00  0.00    -0.228 C  
HETATM    6  C   UNL     1     -10.301  16.002  67.757  1.00  0.00    -0.279 C  
HETATM    7  C   UNL     1      -9.039  15.441  68.434  1.00  0.00    -0.191 C  
HETATM    8  C   UNL     1     -10.286  16.971  66.521  1.00  0.00    -0.298 C  
HETATM    9  C   UNL     1      -9.243  18.104  66.555  1.00  0.00    -0.290 C  
HETATM   10  C   UNL     1     -10.594  16.531  65.102  1.00  0.00    -0.237 C  
HETATM   11  C   UNL     1     -11.674  15.396  65.039  1.00  0.00    -0.102 C  
HETATM   12  C   UNL     1      -7.753  17.702  66.552  1.00  0.00    -0.305 C  
HETATM   13  C   UNL     1     -11.117  14.142  65.807  1.00  0.00    -0.309 C  
HETATM   14  C   UNL     1      -9.922  14.010  64.708  1.00  0.00    -0.074 C  
HETATM   15  C   UNL     1     -11.211  14.719  67.399  1.00  0.00    -0.346 C  
HETATM   16  C   UNL     1     -11.390  13.690  68.623  1.00  0.00    -0.286 C  
HETATM   17  C   UNL     1     -12.280  12.471  68.362  1.00  0.00     0.076 C  
HETATM   18  O   UNL     1     -10.180  13.181  69.155  1.00  0.00    -0.432 OA 
HETATM   19  C   UNL     1     -11.877  11.686  67.131  1.00  0.00    -0.090 C  
HETATM   20  H   UNL     1     -10.285  12.575  69.878  1.00  0.00     0.000 HD 
HETATM   21  C   UNL     1     -10.433  10.918  67.240  1.00  0.00    -0.275 C  
HETATM   22  C   UNL     1      -9.645  11.858  66.392  1.00  0.00    -0.225 C  
HETATM   23  C   UNL     1     -10.175   9.581  67.054  1.00  0.00    -0.321 C  
HETATM   24  C   UNL     1     -10.723  11.693  65.165  1.00  0.00    -0.351 C  
HETATM   25  C   UNL     1      -9.213   9.158  65.911  1.00  0.00    -0.227 C  
HETATM   26  C   UNL     1      -9.977   8.613  68.196  1.00  0.00    -0.210 C  
HETATM   27  O   UNL     1      -8.554   8.019  66.226  1.00  0.00    -0.128 OA 
HETATM   28  C   UNL     1     -13.110  12.652  64.978  1.00  0.00     0.227 C  
HETATM   29  C   UNL     1     -11.814  12.628  65.768  1.00  0.00    -0.497 C  
HETATM   30  O   UNL     1      -8.948   9.710  64.869  1.00  0.00    -0.190 OA 
ENDROOT
BRANCH  22  31
HETATM   31  O   UNL     1      -8.198  11.753  66.495  1.00  0.00    -0.152 OA 
BRANCH  31  32
HETATM   32  C   UNL     1      -7.599  12.128  67.684  1.00  0.00    -0.140 C  
HETATM   33  O   UNL     1      -7.954  11.715  68.787  1.00  0.00    -0.141 OA 
HETATM   34  C   UNL     1      -6.558  13.230  67.669  1.00  0.00    -0.172 C  
ENDBRANCH  31  32
ENDBRANCH  22  31
BRANCH  26  35
HETATM   35  C   UNL     1     -10.607   8.971  69.522  1.00  0.00    -0.231 C  
BRANCH  35  36
HETATM   36  C   UNL     1     -10.720   7.708  70.327  1.00  0.00    -0.244 C  
HETATM   37  C   UNL     1     -11.644   7.452  71.274  1.00  0.00    -0.306 C  
HETATM   38  C   UNL     1     -11.623   6.143  72.000  1.00  0.00    -0.364 C  
HETATM   39  C   UNL     1     -12.724   8.409  71.710  1.00  0.00    -0.373 C  
ENDBRANCH  35  36
ENDBRANCH  26  35
TORSDOF 4
ENDMDL
MODEL       11
REMARK 921   NORMALIZED FREE ENERGY PREDICTED BY IDOCK:   -7.27 KCAL/MOL
REMARK 922        TOTAL FREE ENERGY PREDICTED BY IDOCK:   -9.15 KCAL/MOL
REMARK 923 INTER-LIGAND FREE ENERGY PREDICTED BY IDOCK:   -9.13 KCAL/MOL
REMARK 924 INTRA-LIGAND FREE ENERGY PREDICTED BY IDOCK:   -0.02 KCAL/MOL
REMARK 927      BINDING AFFINITY PREDICTED BY RF-SCORE:    0.00 PKD
ROOT
HETATM    1  O   UNL     1     -12.663  11.219  62.834  1.00  0.00    -0.876 OA 
HETATM    2  H   UNL     1     -12.839  10.362  63.206  1.00  0.00     0.000 HD 
HETATM    3  C   UNL     1     -12.665  12.241  63.818  1.00  0.00    -0.405 C  
HETATM    4  C   UNL     1     -12.380  13.623  63.219  1.00  0.00    -0.037 C  
HETATM    5  C   UNL     1     -12.404  14.766  64.300  1.00  0.00    -0.345 C  
HETATM    6  C   UNL     1     -11.365  14.473  65.473  1.00  0.00    -0.335 C  
HETATM    7  C   UNL     1     -10.053  14.708  64.707  1.00  0.00    -0.086 C  
HETATM    8  C   UNL     1     -11.867  13.066  65.959  1.00  0.00    -0.471 C  
HETATM    9  C   UNL     1     -11.703  11.902  64.963  1.00  0.00    -0.253 C  
HETATM   10  C   UNL     1     -11.782  12.592  67.398  1.00  0.00    -0.432 C  
HETATM   11  C   UNL     1     -11.972  13.754  68.433  1.00  0.00    -0.395 C  
HETATM   12  C   UNL     1     -10.269  11.509  64.554  1.00  0.00    -0.338 C  
HETATM   13  C   UNL     1     -10.819  14.800  68.216  1.00  0.00    -0.251 C  
HETATM   14  C   UNL     1      -9.726  13.673  68.648  1.00  0.00    -0.118 C  
HETATM   15  C   UNL     1     -11.316  15.471  66.740  1.00  0.00    -0.054 C  
HETATM   16  C   UNL     1     -10.910  16.980  66.359  1.00  0.00     0.048 C  
HETATM   17  C   UNL     1     -10.888  17.990  67.511  1.00  0.00    -0.252 C  
HETATM   18  O   UNL     1      -9.663  17.114  65.701  1.00  0.00    -0.545 OA 
HETATM   19  C   UNL     1     -10.037  17.545  68.683  1.00  0.00    -0.361 C  
HETATM   20  H   UNL     1      -9.423  18.005  65.476  1.00  0.00     0.000 HD 
HETATM   21  C   UNL     1      -8.427  17.477  68.384  1.00  0.00    -0.275 C  
HETATM   22  C   UNL     1      -8.310  15.995  68.268  1.00  0.00    -0.164 C  
HETATM   23  C   UNL     1      -7.416  18.108  69.069  1.00  0.00    -0.177 C  
HETATM   24  C   UNL     1      -9.016  15.801  69.737  1.00  0.00     0.051 C  
HETATM   25  C   UNL     1      -6.335  17.242  69.770  1.00  0.00    -0.141 C  
HETATM   26  C   UNL     1      -6.740  19.362  68.570  1.00  0.00    -0.319 C  
HETATM   27  O   UNL     1      -5.146  17.885  69.808  1.00  0.00    -0.178 OA 
HETATM   28  C   UNL     1     -11.493  16.109  70.387  1.00  0.00    -0.344 C  
HETATM   29  C   UNL     1     -10.478  16.054  69.260  1.00  0.00    -0.257 C  
HETATM   30  O   UNL     1      -6.398  16.116  70.205  1.00  0.00    -0.136 OA 
ENDROOT
BRANCH  22  31
HETATM   31  O   UNL     1      -7.091  15.495  67.653  1.00  0.00    -0.140 OA 
BRANCH  31  32
HETATM   32  C   UNL     1      -6.893  14.126  67.612  1.00  0.00    -0.179 C  
HETATM   33  O   UNL     1      -7.566  13.359  66.925  1.00  0.00     0.092 OA 
HETATM   34  C   UNL     1      -5.913  13.495  68.582  1.00  0.00    -0.086 C  
ENDBRANCH  31  32
ENDBRANCH  22  31
BRANCH  26  35
HETATM   35  C   UNL     1      -7.524  20.241  67.623  1.00  0.00    -0.344 C  
BRANCH  35  36
HETATM   36  C   UNL     1      -6.586  20.696  66.543  1.00  0.00    -0.317 C  
HETATM   37  C   UNL     1      -6.084  19.930  65.554  1.00  0.00    -0.228 C  
HETATM   38  C   UNL     1      -5.148  20.529  64.550  1.00  0.00    -0.204 C  
HETATM   39  C   UNL     1      -6.364  18.461  65.371  1.00  0.00    -0.273 C  
ENDBRANCH  35  36
ENDBRANCH  26  35
TORSDOF 4
ENDMDL
MODEL       12
REMARK 921   NORMALIZED FREE ENERGY PREDICTED BY IDOCK:   -6.99 KCAL/MOL
REMARK 922        TOTAL FREE ENERGY PREDICTED BY IDOCK:   -8.80 KCAL/MOL
REMARK 923 INTER-LIGAND FREE ENERGY PREDICTED BY IDOCK:   -7.92 KCAL/MOL
REMARK 924 INTRA-LIGAND FREE ENERGY PREDICTED BY IDOCK:   -0.88 KCAL/MOL
REMARK 927      BINDING AFFINITY PREDICTED BY RF-SCORE:    0.00 PKD
ROOT
HETATM    1  O   UNL     1     -13.900   8.741  73.252  1.00  0.00    -1.115 OA 
HETATM    2  H   UNL     1     -13.620   8.112  73.907  1.00  0.00     0.000 HD 
HETATM    3  C   UNL     1     -12.804   9.337  72.577  1.00  0.00    -0.281 C  
HETATM    4  C   UNL     1     -13.256  10.351  71.519  1.00  0.00    -0.485 C  
HETATM    5  C   UNL     1     -12.046  11.034  70.782  1.00  0.00    -0.467 C  
HETATM    6  C   UNL     1     -11.096   9.949  70.104  1.00  0.00    -0.353 C  
HETATM    7  C   UNL     1     -12.018   9.488  68.964  1.00  0.00     1.000 C  
HETATM    8  C   UNL     1     -10.724   9.071  71.352  1.00  0.00    -0.401 C  
HETATM    9  C   UNL     1     -11.875   8.269  71.989  1.00  0.00    -0.408 C  
HETATM   10  C   UNL     1      -9.389   8.370  71.522  1.00  0.00    -0.263 C  
HETATM   11  C   UNL     1      -8.196   9.178  70.904  1.00  0.00    -0.220 C  
HETATM   12  C   UNL     1     -12.547   7.179  71.129  1.00  0.00    -0.384 C  
HETATM   13  C   UNL     1      -8.451   9.332  69.361  1.00  0.00    -0.137 C  
HETATM   14  C   UNL     1      -8.342   7.716  69.189  1.00  0.00    -0.131 C  
HETATM   15  C   UNL     1      -9.733  10.440  69.393  1.00  0.00    -0.222 C  
HETATM   16  C   UNL     1      -9.974  11.436  68.152  1.00  0.00    -0.189 C  
HETATM   17  C   UNL     1      -8.719  11.975  67.459  1.00  0.00    -0.166 C  
HETATM   18  O   UNL     1     -10.794  10.915  67.120  1.00  0.00    -0.258 OA 
HETATM   19  C   UNL     1      -7.760  10.887  67.022  1.00  0.00    -0.129 C  
HETATM   20  H   UNL     1     -10.937  11.502  66.388  1.00  0.00     0.000 HD 
HETATM   21  C   UNL     1      -8.310   9.920  65.818  1.00  0.00    -0.131 C  
HETATM   22  C   UNL     1      -8.633   8.728  66.653  1.00  0.00    -0.112 C  
HETATM   23  C   UNL     1      -7.714   9.662  64.607  1.00  0.00    -0.130 C  
HETATM   24  C   UNL     1      -7.110   8.716  67.266  1.00  0.00    -0.079 C  
HETATM   25  C   UNL     1      -7.305   8.202  64.272  1.00  0.00    -0.094 C  
HETATM   26  C   UNL     1      -8.145  10.320  63.318  1.00  0.00    -0.157 C  
HETATM   27  O   UNL     1      -7.368   7.972  62.941  1.00  0.00    -0.093 OA 
HETATM   28  C   UNL     1      -6.051  10.322  68.984  1.00  0.00    -0.037 C  
HETATM   29  C   UNL     1      -7.319   9.888  68.270  1.00  0.00    -0.079 C  
HETATM   30  O   UNL     1      -7.015   7.285  65.004  1.00  0.00    -0.052 OA 
ENDROOT
BRANCH  22  31
HETATM   31  O   UNL     1      -9.488   7.727  66.037  1.00  0.00    -0.114 OA 
BRANCH  31  32
HETATM   32  C   UNL     1      -9.790   6.589  66.764  1.00  0.00    -0.162 C  
HETATM   33  O   UNL     1      -9.100   5.571  66.758  1.00  0.00    -0.116 OA 
HETATM   34  C   UNL     1     -11.124   6.507  67.481  1.00  0.00    -0.396 C  
ENDBRANCH  31  32
ENDBRANCH  22  31
BRANCH  26  35
HETATM   35  C   UNL     1      -8.838  11.659  63.424  1.00  0.00     0.311 C  
BRANCH  35  36
HETATM   36  C   UNL     1     -10.317  11.412  63.342  1.00  0.00    -0.458 C  
HETATM   37  C   UNL     1     -11.285  12.248  63.768  1.00  0.00    -0.510 C  
HETATM   38  C   UNL     1     -12.723  11.856  63.625  1.00  0.00    -0.509 C  
HETATM   39  C   UNL     1     -11.046  13.581  64.429  1.00  0.00    -0.397 C  
ENDBRANCH  35  36
ENDBRANCH  26  35
TORSDOF 4
ENDMDL
MODEL       13
REMARK 921   NORMALIZED FREE ENERGY PREDICTED BY IDOCK:   -6.95 KCAL/MOL
REMARK 922        TOTAL FREE ENERGY PREDICTED BY IDOCK:   -8.76 KCAL/MOL
REMARK 923 INTER-LIGAND FREE ENERGY PREDICTED BY IDOCK:   -7.87 KCAL/MOL
REMARK 924 INTRA-LIGAND FREE ENERGY PREDICTED BY IDOCK:   -0.89 KCAL/MOL
REMARK 927      BINDING AFFINITY PREDICTED BY RF-SCORE:    0.00 PKD
ROOT
HETATM    1  O   UNL     1     -14.022  16.129  73.664  1.00  0.00    -0.792 OA 
HETATM    2  H   UNL     1     -13.669  16.960  73.960  1.00  0.00     0.000 HD 
HETATM    3  C   UNL     1     -13.687  15.854  72.313  1.00  0.00    -0.269 C  
HETATM    4  C   UNL     1     -14.257  14.513  71.835  1.00  0.00    -0.622 C  
HETATM    5  C   UNL     1     -13.909  14.212  70.330  1.00  0.00     1.032 C  
HETATM    6  C   UNL     1     -12.335  14.237  70.085  1.00  0.00    -0.413 C  
HETATM    7  C   UNL     1     -11.948  12.946  70.825  1.00  0.00    -0.104 C  
HETATM    8  C   UNL     1     -11.986  15.683  70.587  1.00  0.00    -0.438 C  
HETATM    9  C   UNL     1     -12.173  15.946  72.093  1.00  0.00    -0.578 C  
HETATM   10  C   UNL     1     -10.875  16.534  70.001  1.00  0.00    -0.258 C  
HETATM   11  C   UNL     1     -10.682  16.305  68.462  1.00  0.00    -0.307 C  
HETATM   12  C   UNL     1     -11.292  15.142  73.072  1.00  0.00     0.081 C  
HETATM   13  C   UNL     1     -10.290  14.800  68.233  1.00  0.00    -0.238 C  
HETATM   14  C   UNL     1      -8.911  15.040  69.065  1.00  0.00    -0.205 C  
HETATM   15  C   UNL     1     -11.776  14.062  68.581  1.00  0.00    -0.389 C  
HETATM   16  C   UNL     1     -12.156  12.650  67.910  1.00  0.00    -0.099 C  
HETATM   17  C   UNL     1     -11.693  12.437  66.466  1.00  0.00    -0.443 C  
HETATM   18  O   UNL     1     -11.718  11.511  68.631  1.00  0.00    -0.287 OA 
HETATM   19  C   UNL     1     -10.211  12.679  66.268  1.00  0.00    -0.264 C  
HETATM   20  H   UNL     1     -11.943  10.677  68.235  1.00  0.00     0.000 HD 
HETATM   21  C   UNL     1      -9.227  11.594  67.004  1.00  0.00    -0.185 C  
HETATM   22  C   UNL     1      -8.796  12.457  68.141  1.00  0.00    -0.191 C  
HETATM   23  C   UNL     1      -8.245  10.823  66.430  1.00  0.00    -0.155 C  
HETATM   24  C   UNL     1      -8.313  13.629  67.098  1.00  0.00    -0.151 C  
HETATM   25  C   UNL     1      -6.778  11.008  66.902  1.00  0.00    -0.120 C  
HETATM   26  C   UNL     1      -8.434   9.362  66.095  1.00  0.00    -0.127 C  
HETATM   27  O   UNL     1      -6.083   9.853  66.796  1.00  0.00    -0.058 OA 
HETATM   28  C   UNL     1      -9.763  15.241  65.701  1.00  0.00    -0.360 C  
HETATM   29  C   UNL     1      -9.736  14.181  66.787  1.00  0.00    -0.283 C  
HETATM   30  O   UNL     1      -6.227  11.973  67.378  1.00  0.00    -0.103 OA 
ENDROOT
BRANCH  22  31
HETATM   31  O   UNL     1      -8.172  11.774  69.263  1.00  0.00     0.192 OA 
BRANCH  31  32
HETATM   32  C   UNL     1      -8.656  10.528  69.620  1.00  0.00     0.043 C  
HETATM   33  O   UNL     1      -9.826  10.313  69.931  1.00  0.00    -0.211 OA 
HETATM   34  C   UNL     1      -7.677   9.384  69.806  1.00  0.00    -0.110 C  
ENDBRANCH  31  32
ENDBRANCH  22  31
BRANCH  26  35
HETATM   35  C   UNL     1      -9.848   8.883  65.866  1.00  0.00    -0.200 C  
BRANCH  35  36
HETATM   36  C   UNL     1     -10.333   8.268  67.148  1.00  0.00    -0.387 C  
HETATM   37  C   UNL     1     -10.477   6.950  67.390  1.00  0.00    -0.339 C  
HETATM   38  C   UNL     1     -10.982   6.489  68.723  1.00  0.00    -0.371 C  
HETATM   39  C   UNL     1     -10.194   5.853  66.397  1.00  0.00    -0.163 C  
ENDBRANCH  35  36
ENDBRANCH  26  35
TORSDOF 4
ENDMDL
MODEL       14
REMARK 921   NORMALIZED FREE ENERGY PREDICTED BY IDOCK:   -6.90 KCAL/MOL
REMARK 922        TOTAL FREE ENERGY PREDICTED BY IDOCK:   -8.69 KCAL/MOL
REMARK 923 INTER-LIGAND FREE ENERGY PREDICTED BY IDOCK:   -7.51 KCAL/MOL
REMARK 924 INTRA-LIGAND FREE ENERGY PREDICTED BY IDOCK:   -1.19 KCAL/MOL
REMARK 927      BINDING AFFINITY PREDICTED BY RF-SCORE:    0.00 PKD
ROOT
HETATM    1  O   UNL     1      -8.977   3.786  71.726  1.00  0.00    -0.100 OA 
HETATM    2  H   UNL     1      -9.224   3.023  71.216  1.00  0.00     0.000 HD 
HETATM    3  C   UNL     1      -8.498   4.844  70.911  1.00  0.00    -0.111 C  
HETATM    4  C   UNL     1      -8.101   6.076  71.734  1.00  0.00    -0.114 C  
HETATM    5  C   UNL     1      -7.546   7.245  70.839  1.00  0.00    -0.084 C  
HETATM    6  C   UNL     1      -8.603   7.671  69.725  1.00  0.00    -0.135 C  
HETATM    7  C   UNL     1      -9.651   8.349  70.622  1.00  0.00    -0.195 C  
HETATM    8  C   UNL     1      -8.820   6.298  68.992  1.00  0.00    -0.124 C  
HETATM    9  C   UNL     1      -9.508   5.190  69.811  1.00  0.00    -0.210 C  
HETATM   10  C   UNL     1      -9.119   6.172  67.510  1.00  0.00    -0.109 C  
HETATM   11  C   UNL     1      -8.408   7.274  66.651  1.00  0.00    -0.121 C  
HETATM   12  C   UNL     1     -10.959   5.438  70.272  1.00  0.00    -0.089 C  
HETATM   13  C   UNL     1      -8.936   8.679  67.117  1.00  0.00    -0.148 C  
HETATM   14  C   UNL     1     -10.431   8.277  66.611  1.00  0.00    -0.217 C  
HETATM   15  C   UNL     1      -8.181   8.780  68.632  1.00  0.00    -0.117 C  
HETATM   16  C   UNL     1      -7.832  10.216  69.268  1.00  0.00    -0.134 C  
HETATM   17  C   UNL     1      -7.380  11.302  68.288  1.00  0.00    -0.095 C  
HETATM   18  O   UNL     1      -8.870  10.794  70.039  1.00  0.00    -0.149 OA 
HETATM   19  C   UNL     1      -8.342  11.510  67.136  1.00  0.00    -0.160 C  
HETATM   20  H   UNL     1      -8.664  11.641  70.415  1.00  0.00     0.000 HD 
HETATM   21  C   UNL     1      -9.796  12.142  67.552  1.00  0.00    -0.193 C  
HETATM   22  C   UNL     1     -10.594  10.886  67.452  1.00  0.00    -0.243 C  
HETATM   23  C   UNL     1     -10.395  13.275  67.056  1.00  0.00    -0.246 C  
HETATM   24  C   UNL     1     -10.063  10.644  65.917  1.00  0.00    -0.321 C  
HETATM   25  C   UNL     1     -11.756  13.140  66.322  1.00  0.00    -0.375 C  
HETATM   26  C   UNL     1     -10.404  14.593  67.792  1.00  0.00    -0.237 C  
HETATM   27  O   UNL     1     -12.506  14.255  66.479  1.00  0.00    -0.428 OA 
HETATM   28  C   UNL     1      -7.731   9.881  65.121  1.00  0.00    -0.131 C  
HETATM   29  C   UNL     1      -8.652  10.108  66.306  1.00  0.00    -0.138 C  
HETATM   30  O   UNL     1     -12.229  12.206  65.719  1.00  0.00    -0.586 OA 
ENDROOT
BRANCH  22  31
HETATM   31  O   UNL     1     -11.904  10.907  68.082  1.00  0.00    -0.564 OA 
BRANCH  31  32
HETATM   32  C   UNL     1     -11.964  11.030  69.459  1.00  0.00    -0.342 C  
HETATM   33  O   UNL     1     -12.032  10.073  70.228  1.00  0.00    -0.249 OA 
HETATM   34  C   UNL     1     -12.125  12.410  70.068  1.00  0.00    -0.335 C  
ENDBRANCH  31  32
ENDBRANCH  22  31
BRANCH  26  35
HETATM   35  C   UNL     1      -9.298  14.833  68.794  1.00  0.00    -0.198 C  
BRANCH  35  36
HETATM   36  C   UNL     1      -8.052  15.165  68.024  1.00  0.00    -0.138 C  
HETATM   37  C   UNL     1      -6.790  15.103  68.493  1.00  0.00    -0.108 C  
HETATM   38  C   UNL     1      -5.645  15.475  67.603  1.00  0.00    -0.101 C  
HETATM   39  C   UNL     1      -6.408  14.705  69.896  1.00  0.00    -0.158 C  
ENDBRANCH  35  36
ENDBRANCH  26  35
TORSDOF 4
ENDMDL
MODEL       15
REMARK 921   NORMALIZED FREE ENERGY PREDICTED BY IDOCK:   -6.79 KCAL/MOL
REMARK 922        TOTAL FREE ENERGY PREDICTED BY IDOCK:   -8.56 KCAL/MOL
REMARK 923 INTER-LIGAND FREE ENERGY PREDICTED BY IDOCK:   -7.28 KCAL/MOL
REMARK 924 INTRA-LIGAND FREE ENERGY PREDICTED BY IDOCK:   -1.28 KCAL/MOL
REMARK 927      BINDING AFFINITY PREDICTED BY RF-SCORE:    0.00 PKD
ROOT
HETATM    1  O   UNL     1     -11.404  15.957  66.267  1.00  0.00    -0.005 OA 
HETATM    2  H   UNL     1     -10.807  16.685  66.393  1.00  0.00     0.000 HD 
HETATM    3  C   UNL     1     -10.723  14.719  66.152  1.00  0.00    -0.314 C  
HETATM    4  C   UNL     1     -11.687  13.543  65.948  1.00  0.00    -0.380 C  
HETATM    5  C   UNL     1     -10.938  12.168  65.796  1.00  0.00    -0.338 C  
HETATM    6  C   UNL     1     -10.005  11.876  67.055  1.00  0.00    -0.219 C  
HETATM    7  C   UNL     1     -11.089  11.599  68.109  1.00  0.00    -0.298 C  
HETATM    8  C   UNL     1      -9.091  13.154  67.040  1.00  0.00    -0.231 C  
HETATM    9  C   UNL     1      -9.787  14.494  67.344  1.00  0.00    -0.227 C  
HETATM   10  C   UNL     1      -7.641  13.158  67.487  1.00  0.00    -0.166 C  
HETATM   11  C   UNL     1      -6.902  11.814  67.164  1.00  0.00    -0.148 C  
HETATM   12  C   UNL     1     -10.412  14.671  68.744  1.00  0.00    -0.246 C  
HETATM   13  C   UNL     1      -7.627  10.654  67.938  1.00  0.00    -0.091 C  
HETATM   14  C   UNL     1      -7.203  11.344  69.352  1.00  0.00    -0.030 C  
HETATM   15  C   UNL     1      -9.063  10.566  67.041  1.00  0.00    -0.156 C  
HETATM   16  C   UNL     1      -9.880   9.183  66.955  1.00  0.00    -0.217 C  
HETATM   17  C   UNL     1      -9.043   7.902  66.894  1.00  0.00    -0.172 C  
HETATM   18  O   UNL     1     -10.823   8.982  67.993  1.00  0.00    -0.441 OA 
HETATM   19  C   UNL     1      -8.030   7.791  68.015  1.00  0.00    -0.122 C  
HETATM   20  H   UNL     1     -11.306   8.166  67.942  1.00  0.00     0.000 HD 
HETATM   21  C   UNL     1      -8.671   7.596  69.511  1.00  0.00    -0.136 C  
HETATM   22  C   UNL     1      -8.451   8.986  70.004  1.00  0.00    -0.145 C  
HETATM   23  C   UNL     1      -8.414   6.591  70.413  1.00  0.00    -0.131 C  
HETATM   24  C   UNL     1      -6.855   8.890  69.630  1.00  0.00    -0.050 C  
HETATM   25  C   UNL     1      -7.797   6.962  71.788  1.00  0.00    -0.099 C  
HETATM   26  C   UNL     1      -9.344   5.422  70.632  1.00  0.00    -0.204 C  
HETATM   27  O   UNL     1      -8.193   6.096  72.748  1.00  0.00    -0.116 OA 
HETATM   28  C   UNL     1      -5.739   8.946  67.305  1.00  0.00    -0.042 C  
HETATM   29  C   UNL     1      -7.025   9.107  68.096  1.00  0.00    -0.076 C  
HETATM   30  O   UNL     1      -7.101   7.898  72.105  1.00  0.00    -0.065 OA 
ENDROOT
BRANCH  22  31
HETATM   31  O   UNL     1      -9.195   9.369  71.193  1.00  0.00    -0.230 OA 
BRANCH  31  32
HETATM   32  C   UNL     1     -10.551   9.097  71.231  1.00  0.00    -0.329 C  
HETATM   33  O   UNL     1     -11.374   9.622  70.483  1.00  0.00    -0.260 OA 
HETATM   34  C   UNL     1     -11.097   8.238  72.355  1.00  0.00    -0.447 C  
ENDBRANCH  31  32
ENDBRANCH  22  31
BRANCH  26  35
HETATM   35  C   UNL     1     -10.265   5.048  69.494  1.00  0.00    -0.286 C  
BRANCH  35  36
HETATM   36  C   UNL     1      -9.502   4.142  68.571  1.00  0.00    -0.216 C  
HETATM   37  C   UNL     1      -9.658   4.056  67.235  1.00  0.00    -0.229 C  
HETATM   38  C   UNL     1      -8.825   3.093  66.448  1.00  0.00    -0.146 C  
HETATM   39  C   UNL     1     -10.654   4.850  66.430  1.00  0.00    -0.276 C  
ENDBRANCH  35  36
ENDBRANCH  26  35
TORSDOF 4
ENDMDL
MODEL       16
REMARK 921   NORMALIZED FREE ENERGY PREDICTED BY IDOCK:   -6.53 KCAL/MOL
REMARK 922        TOTAL FREE ENERGY PREDICTED BY IDOCK:   -8.23 KCAL/MOL
REMARK 923 INTER-LIGAND FREE ENERGY PREDICTED BY IDOCK:   -7.36 KCAL/MOL
REMARK 924 INTRA-LIGAND FREE ENERGY PREDICTED BY IDOCK:   -0.87 KCAL/MOL
REMARK 927      BINDING AFFINITY PREDICTED BY RF-SCORE:    0.00 PKD
ROOT
HETATM    1  O   UNL     1     -11.971  16.005  64.048  1.00  0.00    -1.121 OA 
HETATM    2  H   UNL     1     -11.485  16.146  63.244  1.00  0.00     0.000 HD 
HETATM    3  C   UNL     1     -11.894  14.660  64.492  1.00  0.00    -0.431 C  
HETATM    4  C   UNL     1     -12.678  14.431  65.789  1.00  0.00    -0.267 C  
HETATM    5  C   UNL     1     -12.617  12.936  66.275  1.00  0.00     0.227 C  
HETATM    6  C   UNL     1     -11.111  12.455  66.475  1.00  0.00    -0.346 C  
HETATM    7  C   UNL     1     -10.753  13.272  67.727  1.00  0.00    -0.256 C  
HETATM    8  C   UNL     1     -10.528  12.728  65.043  1.00  0.00    -0.334 C  
HETATM    9  C   UNL     1     -10.436  14.205  64.615  1.00  0.00    -0.366 C  
HETATM   10  C   UNL     1      -9.441  11.887  64.401  1.00  0.00     0.069 C  
HETATM   11  C   UNL     1      -9.529  10.373  64.800  1.00  0.00    -0.329 C  
HETATM   12  C   UNL     1      -9.501  15.126  65.426  1.00  0.00     0.018 C  
HETATM   13  C   UNL     1      -9.348  10.263  66.357  1.00  0.00    -0.201 C  
HETATM   14  C   UNL     1      -7.833  10.844  66.215  1.00  0.00    -0.158 C  
HETATM   15  C   UNL     1     -10.829  10.914  66.864  1.00  0.00    -0.307 C  
HETATM   16  C   UNL     1     -11.466  10.475  68.274  1.00  0.00    -0.199 C  
HETATM   17  C   UNL     1     -11.272   9.012  68.682  1.00  0.00     0.299 C  
HETATM   18  O   UNL     1     -11.045  11.248  69.385  1.00  0.00    -0.243 OA 
HETATM   19  C   UNL     1      -9.825   8.566  68.651  1.00  0.00    -0.180 C  
HETATM   20  H   UNL     1     -11.421  10.989  70.217  1.00  0.00     0.000 HD 
HETATM   21  C   UNL     1      -8.859   9.265  69.776  1.00  0.00    -0.174 C  
HETATM   22  C   UNL     1      -8.156  10.217  68.868  1.00  0.00    -0.123 C  
HETATM   23  C   UNL     1      -8.075   8.642  70.717  1.00  0.00    -0.141 C  
HETATM   24  C   UNL     1      -7.724   8.986  67.873  1.00  0.00    -0.097 C  
HETATM   25  C   UNL     1      -6.540   8.863  70.675  1.00  0.00    -0.050 C  
HETATM   26  C   UNL     1      -8.476   8.511  72.167  1.00  0.00    -0.221 C  
HETATM   27  O   UNL     1      -6.003   8.788  71.914  1.00  0.00    -0.054 OA 
HETATM   28  C   UNL     1      -9.196   7.647  66.232  1.00  0.00    -0.204 C  
HETATM   29  C   UNL     1      -9.109   8.831  67.178  1.00  0.00    -0.155 C  
HETATM   30  O   UNL     1      -5.815   9.136  69.746  1.00  0.00    -0.032 OA 
ENDROOT
BRANCH  22  31
HETATM   31  O   UNL     1      -7.436  11.303  69.514  1.00  0.00    -0.056 OA 
BRANCH  31  32
HETATM   32  C   UNL     1      -6.772  12.215  68.712  1.00  0.00    -0.088 C  
HETATM   33  O   UNL     1      -5.620  12.059  68.311  1.00  0.00    -0.049 OA 
HETATM   34  C   UNL     1      -7.417  13.559  68.436  1.00  0.00    -0.124 C  
ENDBRANCH  31  32
ENDBRANCH  22  31
BRANCH  26  35
HETATM   35  C   UNL     1      -9.953   8.554  72.483  1.00  0.00    -0.322 C  
BRANCH  35  36
HETATM   36  C   UNL     1     -10.328   7.231  73.086  1.00  0.00    -0.359 C  
HETATM   37  C   UNL     1     -10.682   6.122  72.406  1.00  0.00    -0.267 C  
HETATM   38  C   UNL     1     -11.039   4.874  73.152  1.00  0.00    -0.396 C  
HETATM   39  C   UNL     1     -10.784   6.024  70.906  1.00  0.00    -0.329 C  
ENDBRANCH  35  36
ENDBRANCH  26  35
TORSDOF 4
ENDMDL
MODEL       17
REMARK 921   NORMALIZED FREE ENERGY PREDICTED BY IDOCK:   -6.48 KCAL/MOL
REMARK 922        TOTAL FREE ENERGY PREDICTED BY IDOCK:   -8.18 KCAL/MOL
REMARK 923 INTER-LIGAND FREE ENERGY PREDICTED BY IDOCK:   -7.16 KCAL/MOL
REMARK 924 INTRA-LIGAND FREE ENERGY PREDICTED BY IDOCK:   -1.01 KCAL/MOL
REMARK 927      BINDING AFFINITY PREDICTED BY RF-SCORE:    0.00 PKD
ROOT
HETATM    1  O   UNL     1      -8.743   2.974  65.117  1.00  0.00    -0.108 OA 
HETATM    2  H   UNL     1      -7.870   2.668  64.902  1.00  0.00     0.000 HD 
HETATM    3  C   UNL     1      -8.733   3.933  66.162  1.00  0.00    -0.115 C  
HETATM    4  C   UNL     1     -10.142   4.429  66.509  1.00  0.00    -0.217 C  
HETATM    5  C   UNL     1     -10.142   5.475  67.683  1.00  0.00    -0.217 C  
HETATM    6  C   UNL     1      -9.210   6.723  67.344  1.00  0.00    -0.130 C  
HETATM    7  C   UNL     1     -10.068   7.384  66.252  1.00  0.00     0.080 C  
HETATM    8  C   UNL     1      -7.842   6.000  67.077  1.00  0.00    -0.102 C  
HETATM    9  C   UNL     1      -7.782   5.090  65.835  1.00  0.00    -0.091 C  
HETATM   10  C   UNL     1      -6.490   6.610  67.394  1.00  0.00    -0.048 C  
HETATM   11  C   UNL     1      -6.518   7.520  68.671  1.00  0.00    -0.044 C  
HETATM   12  C   UNL     1      -7.966   5.755  64.455  1.00  0.00    -0.126 C  
HETATM   13  C   UNL     1      -7.517   8.705  68.410  1.00  0.00    -0.095 C  
HETATM   14  C   UNL     1      -6.555   9.242  67.210  1.00  0.00    -0.064 C  
HETATM   15  C   UNL     1      -8.985   7.858  68.468  1.00  0.00    -0.133 C  
HETATM   16  C   UNL     1     -10.337   8.612  68.907  1.00  0.00    -0.211 C  
HETATM   17  C   UNL     1     -10.200   9.671  70.004  1.00  0.00    -0.296 C  
HETATM   18  O   UNL     1     -11.041   9.237  67.848  1.00  0.00    -0.506 OA 
HETATM   19  C   UNL     1      -9.145  10.716  69.702  1.00  0.00     0.132 C  
HETATM   20  H   UNL     1     -11.839   9.682  68.107  1.00  0.00     0.000 HD 
HETATM   21  C   UNL     1      -9.492  11.708  68.444  1.00  0.00    -0.193 C  
HETATM   22  C   UNL     1      -8.574  11.088  67.445  1.00  0.00    -0.132 C  
HETATM   23  C   UNL     1      -9.541  13.081  68.443  1.00  0.00    -0.178 C  
HETATM   24  C   UNL     1      -7.305  11.258  68.472  1.00  0.00    -0.106 C  
HETATM   25  C   UNL     1      -8.563  13.864  67.527  1.00  0.00    -0.193 C  
HETATM   26  C   UNL     1     -10.834  13.860  68.497  1.00  0.00    -0.274 C  
HETATM   27  O   UNL     1      -9.106  15.033  67.121  1.00  0.00    -0.194 OA 
HETATM   28  C   UNL     1      -6.773   9.920  70.612  1.00  0.00    -0.097 C  
HETATM   29  C   UNL     1      -7.660  10.048  69.387  1.00  0.00    -0.123 C  
HETATM   30  O   UNL     1      -7.472  13.556  67.107  1.00  0.00    -0.094 OA 
ENDROOT
BRANCH  22  31
HETATM   31  O   UNL     1      -8.811  11.440  66.054  1.00  0.00    -0.203 OA 
BRANCH  31  32
HETATM   32  C   UNL     1      -9.986  11.012  65.462  1.00  0.00    -0.256 C  
HETATM   33  O   UNL     1     -10.125   9.906  64.942  1.00  0.00    -0.268 OA 
HETATM   34  C   UNL     1     -11.123  11.999  65.286  1.00  0.00    -0.367 C  
ENDBRANCH  31  32
ENDBRANCH  22  31
BRANCH  26  35
HETATM   35  C   UNL     1     -12.031  13.171  69.110  1.00  0.00    -0.329 C  
BRANCH  35  36
HETATM   36  C   UNL     1     -12.358  13.882  70.392  1.00  0.00    -0.433 C  
HETATM   37  C   UNL     1     -12.807  13.308  71.525  1.00  0.00    -0.419 C  
HETATM   38  C   UNL     1     -13.098  14.156  72.725  1.00  0.00    -0.573 C  
HETATM   39  C   UNL     1     -13.082  11.836  71.698  1.00  0.00    -0.443 C  
ENDBRANCH  35  36
ENDBRANCH  26  35
TORSDOF 4
ENDMDL
MODEL       18
REMARK 921   NORMALIZED FREE ENERGY PREDICTED BY IDOCK:   -6.34 KCAL/MOL
REMARK 922        TOTAL FREE ENERGY PREDICTED BY IDOCK:   -8.01 KCAL/MOL
REMARK 923 INTER-LIGAND FREE ENERGY PREDICTED BY IDOCK:   -7.27 KCAL/MOL
REMARK 924 INTRA-LIGAND FREE ENERGY PREDICTED BY IDOCK:   -0.74 KCAL/MOL
REMARK 927      BINDING AFFINITY PREDICTED BY RF-SCORE:    0.00 PKD
ROOT
HETATM    1  O   UNL     1     -11.513  16.243  67.197  1.00  0.00     0.116 OA 
HETATM    2  H   UNL     1     -10.847  16.913  67.097  1.00  0.00     0.000 HD 
HETATM    3  C   UNL     1     -11.034  14.954  66.853  1.00  0.00    -0.327 C  
HETATM    4  C   UNL     1     -12.109  13.873  67.014  1.00  0.00    -0.451 C  
HETATM    5  C   UNL     1     -11.592  12.442  66.611  1.00  0.00    -0.447 C  
HETATM    6  C   UNL     1     -10.302  12.036  67.455  1.00  0.00    -0.226 C  
HETATM    7  C   UNL     1     -10.960  11.825  68.829  1.00  0.00    -0.281 C  
HETATM    8  C   UNL     1      -9.342  13.229  67.108  1.00  0.00    -0.240 C  
HETATM    9  C   UNL     1      -9.759  14.616  67.634  1.00  0.00    -0.214 C  
HETATM   10  C   UNL     1      -7.834  13.095  67.007  1.00  0.00     0.034 C  
HETATM   11  C   UNL     1      -7.384  11.701  66.448  1.00  0.00     0.126 C  
HETATM   12  C   UNL     1      -9.825  14.809  69.163  1.00  0.00    -0.167 C  
HETATM   13  C   UNL     1      -7.887  10.588  67.438  1.00  0.00    -0.106 C  
HETATM   14  C   UNL     1      -6.927  11.199  68.603  1.00  0.00    -0.081 C  
HETATM   15  C   UNL     1      -9.550  10.650  67.113  1.00  0.00    -0.189 C  
HETATM   16  C   UNL     1     -10.467   9.346  67.332  1.00  0.00    -0.278 C  
HETATM   17  C   UNL     1      -9.827   7.999  66.983  1.00  0.00    -0.295 C  
HETATM   18  O   UNL     1     -10.993   9.200  68.640  1.00  0.00    -0.429 OA 
HETATM   19  C   UNL     1      -8.496   7.770  67.669  1.00  0.00    -0.121 C  
HETATM   20  H   UNL     1     -11.534   8.430  68.769  1.00  0.00     0.000 HD 
HETATM   21  C   UNL     1      -8.577   7.590  69.297  1.00  0.00    -0.136 C  
HETATM   22  C   UNL     1      -8.070   8.942  69.670  1.00  0.00    -0.104 C  
HETATM   23  C   UNL     1      -8.107   6.543  70.053  1.00  0.00    -0.121 C  
HETATM   24  C   UNL     1      -6.728   8.718  68.751  1.00  0.00    -0.054 C  
HETATM   25  C   UNL     1      -7.010   6.820  71.114  1.00  0.00    -0.070 C  
HETATM   26  C   UNL     1      -9.001   5.454  70.596  1.00  0.00    -0.163 C  
HETATM   27  O   UNL     1      -7.115   5.966  72.157  1.00  0.00    -0.083 OA 
HETATM   28  C   UNL     1      -6.513   8.740  66.181  1.00  0.00    -0.065 C  
HETATM   29  C   UNL     1      -7.412   8.991  67.378  1.00  0.00    -0.085 C  
HETATM   30  O   UNL     1      -6.165   7.684  71.157  1.00  0.00    -0.035 OA 
ENDROOT
BRANCH  22  31
HETATM   31  O   UNL     1      -8.303   9.356  71.045  1.00  0.00    -0.294 OA 
BRANCH  31  32
HETATM   32  C   UNL     1      -9.539   9.089  71.607  1.00  0.00    -0.248 C  
HETATM   33  O   UNL     1     -10.592   9.582  71.205  1.00  0.00    -0.332 OA 
HETATM   34  C   UNL     1      -9.605   8.282  72.889  1.00  0.00    -0.320 C  
ENDBRANCH  31  32
ENDBRANCH  22  31
BRANCH  26  35
HETATM   35  C   UNL     1     -10.296   5.192  69.864  1.00  0.00    -0.347 C  
BRANCH  35  36
HETATM   36  C   UNL     1     -11.290   6.224  70.316  1.00  0.00    -0.457 C  
HETATM   37  C   UNL     1     -11.914   6.253  71.510  1.00  0.00    -0.245 C  
HETATM   38  C   UNL     1     -12.891   7.347  71.813  1.00  0.00    -0.365 C  
HETATM   39  C   UNL     1     -11.739   5.230  72.602  1.00  0.00    -0.173 C  
ENDBRANCH  35  36
ENDBRANCH  26  35
TORSDOF 4
ENDMDL
MODEL       19
REMARK 921   NORMALIZED FREE ENERGY PREDICTED BY IDOCK:   -6.34 KCAL/MOL
REMARK 922        TOTAL FREE ENERGY PREDICTED BY IDOCK:   -8.00 KCAL/MOL
REMARK 923 INTER-LIGAND FREE ENERGY PREDICTED BY IDOCK:   -7.22 KCAL/MOL
REMARK 924 INTRA-LIGAND FREE ENERGY PREDICTED BY IDOCK:   -0.78 KCAL/MOL
REMARK 927      BINDING AFFINITY PREDICTED BY RF-SCORE:    0.00 PKD
ROOT
HETATM    1  O   UNL     1     -11.528  15.141  64.319  1.00  0.00    -0.648 OA 
HETATM    2  H   UNL     1     -11.301  15.949  64.763  1.00  0.00     0.000 HD 
HETATM    3  C   UNL     1     -10.625  14.089  64.623  1.00  0.00    -0.395 C  
HETATM    4  C   UNL     1     -10.992  12.784  63.906  1.00  0.00    -0.458 C  
HETATM    5  C   UNL     1      -9.982  11.620  64.221  1.00  0.00    -0.303 C  
HETATM    6  C   UNL     1      -9.879  11.352  65.788  1.00  0.00    -0.270 C  
HETATM    7  C   UNL     1     -11.263  10.723  66.025  1.00  0.00     0.233 C  
HETATM    8  C   UNL     1      -9.455  12.775  66.298  1.00  0.00    -0.198 C  
HETATM    9  C   UNL     1     -10.500  13.896  66.138  1.00  0.00    -0.297 C  
HETATM   10  C   UNL     1      -8.558  13.008  67.500  1.00  0.00    -0.192 C  
HETATM   11  C   UNL     1      -7.468  11.894  67.669  1.00  0.00    -0.127 C  
HETATM   12  C   UNL     1     -11.822  13.755  66.920  1.00  0.00    -0.447 C  
HETATM   13  C   UNL     1      -8.198  10.519  67.888  1.00  0.00    -0.107 C  
HETATM   14  C   UNL     1      -8.822  11.081  69.283  1.00  0.00     0.090 C  
HETATM   15  C   UNL     1      -8.811  10.269  66.327  1.00  0.00    -0.161 C  
HETATM   16  C   UNL     1      -9.076   8.776  65.791  1.00  0.00    -0.212 C  
HETATM   17  C   UNL     1      -8.071   7.707  66.230  1.00  0.00    -0.112 C  
HETATM   18  O   UNL     1     -10.358   8.253  66.095  1.00  0.00    -0.393 OA 
HETATM   19  C   UNL     1      -7.872   7.649  67.731  1.00  0.00    -0.120 C  
HETATM   20  H   UNL     1     -10.515   7.371  65.778  1.00  0.00     0.000 HD 
HETATM   21  C   UNL     1      -9.172   7.130  68.583  1.00  0.00    -0.135 C  
HETATM   22  C   UNL     1      -9.608   8.456  69.106  1.00  0.00    -0.164 C  
HETATM   23  C   UNL     1      -9.232   6.084  69.472  1.00  0.00    -0.145 C  
HETATM   24  C   UNL     1      -8.112   8.731  69.722  1.00  0.00    -0.111 C  
HETATM   25  C   UNL     1      -9.605   6.380  70.950  1.00  0.00    -0.175 C  
HETATM   26  C   UNL     1      -9.811   4.734  69.120  1.00  0.00    -0.254 C  
HETATM   27  O   UNL     1     -10.249   5.331  71.509  1.00  0.00    -0.197 OA 
HETATM   28  C   UNL     1      -5.937   9.322  68.468  1.00  0.00    -0.044 C  
HETATM   29  C   UNL     1      -7.438   9.116  68.371  1.00  0.00    -0.082 C  
HETATM   30  O   UNL     1      -9.457   7.384  71.606  1.00  0.00    -0.151 OA 
ENDROOT
BRANCH  22  31
HETATM   31  O   UNL     1     -10.957   8.519  69.646  1.00  0.00    -0.197 OA 
BRANCH  31  32
HETATM   32  C   UNL     1     -11.356   9.688  70.271  1.00  0.00    -0.257 C  
HETATM   33  O   UNL     1     -11.314   9.860  71.488  1.00  0.00    -0.343 OA 
HETATM   34  C   UNL     1     -12.041  10.764  69.451  1.00  0.00    -0.315 C  
ENDBRANCH  31  32
ENDBRANCH  22  31
BRANCH  26  35
HETATM   35  C   UNL     1      -9.811   4.342  67.660  1.00  0.00    -0.168 C  
BRANCH  35  36
HETATM   36  C   UNL     1      -9.020   3.072  67.531  1.00  0.00    -0.189 C  
HETATM   37  C   UNL     1      -7.731   2.977  67.148  1.00  0.00    -0.074 C  
HETATM   38  C   UNL     1      -7.079   1.632  67.058  1.00  0.00    -0.046 C  
HETATM   39  C   UNL     1      -6.858   4.141  66.756  1.00  0.00    -0.055 C  
ENDBRANCH  35  36
ENDBRANCH  26  35
TORSDOF 4
ENDMDL
MODEL       20
REMARK 921   NORMALIZED FREE ENERGY PREDICTED BY IDOCK:   -6.26 KCAL/MOL
REMARK 922        TOTAL FREE ENERGY PREDICTED BY IDOCK:   -7.90 KCAL/MOL
REMARK 923 INTER-LIGAND FREE ENERGY PREDICTED BY IDOCK:   -6.49 KCAL/MOL
REMARK 924 INTRA-LIGAND FREE ENERGY PREDICTED BY IDOCK:   -1.41 KCAL/MOL
REMARK 927      BINDING AFFINITY PREDICTED BY RF-SCORE:    0.00 PKD
ROOT
HETATM    1  O   UNL     1     -12.408  13.824  63.320  1.00  0.00    -1.069 OA 
HETATM    2  H   UNL     1     -12.492  14.737  63.571  1.00  0.00     0.000 HD 
HETATM    3  C   UNL     1     -11.223  13.235  63.831  1.00  0.00    -0.276 C  
HETATM    4  C   UNL     1     -11.087  11.762  63.428  1.00  0.00    -0.448 C  
HETATM    5  C   UNL     1      -9.763  11.107  63.971  1.00  0.00    -0.323 C  
HETATM    6  C   UNL     1      -9.665  11.234  65.556  1.00  0.00    -0.268 C  
HETATM    7  C   UNL     1     -10.766  10.238  65.954  1.00  0.00     0.019 C  
HETATM    8  C   UNL     1      -9.774  12.791  65.730  1.00  0.00    -0.167 C  
HETATM    9  C   UNL     1     -11.125  13.426  65.348  1.00  0.00    -0.301 C  
HETATM   10  C   UNL     1      -9.077  13.568  66.832  1.00  0.00    -0.246 C  
HETATM   11  C   UNL     1      -7.687  12.956  67.220  1.00  0.00    -0.122 C  
HETATM   12  C   UNL     1     -12.364  13.014  66.169  1.00  0.00    -0.335 C  
HETATM   13  C   UNL     1      -7.922  11.496  67.753  1.00  0.00    -0.128 C  
HETATM   14  C   UNL     1      -8.776  12.098  69.002  1.00  0.00     0.385 C  
HETATM   15  C   UNL     1      -8.326  10.723  66.299  1.00  0.00    -0.160 C  
HETATM   16  C   UNL     1      -8.042   9.151  66.112  1.00  0.00    -0.107 C  
HETATM   17  C   UNL     1      -6.762   8.609  66.755  1.00  0.00    -0.069 C  
HETATM   18  O   UNL     1      -9.087   8.300  66.550  1.00  0.00    -0.156 OA 
HETATM   19  C   UNL     1      -6.640   8.947  68.226  1.00  0.00    -0.060 C  
HETATM   20  H   UNL     1      -8.920   7.372  66.439  1.00  0.00     0.000 HD 
HETATM   21  C   UNL     1      -7.735   8.211  69.200  1.00  0.00    -0.098 C  
HETATM   22  C   UNL     1      -8.621   9.389  69.426  1.00  0.00    -0.148 C  
HETATM   23  C   UNL     1      -7.489   7.424  70.299  1.00  0.00    -0.083 C  
HETATM   24  C   UNL     1      -7.342  10.283  69.934  1.00  0.00    -0.166 C  
HETATM   25  C   UNL     1      -8.022   7.886  71.682  1.00  0.00    -0.101 C  
HETATM   26  C   UNL     1      -7.558   5.916  70.266  1.00  0.00    -0.094 C  
HETATM   27  O   UNL     1      -8.305   6.826  72.473  1.00  0.00    -0.112 OA 
HETATM   28  C   UNL     1      -5.426  11.296  68.535  1.00  0.00    -0.042 C  
HETATM   29  C   UNL     1      -6.762  10.575  68.518  1.00  0.00    -0.056 C  
HETATM   30  O   UNL     1      -8.258   8.996  72.097  1.00  0.00    -0.359 OA 
ENDROOT
BRANCH  22  31
HETATM   31  O   UNL     1      -9.940   9.103  69.967  1.00  0.00    -0.180 OA 
BRANCH  31  32
HETATM   32  C   UNL     1     -10.627   8.010  69.469  1.00  0.00    -0.214 C  
HETATM   33  O   UNL     1     -10.995   7.909  68.300  1.00  0.00     0.017 OA 
HETATM   34  C   UNL     1     -11.110   6.943  70.432  1.00  0.00    -0.341 C  
ENDBRANCH  31  32
ENDBRANCH  22  31
BRANCH  26  35
HETATM   35  C   UNL     1      -7.344   5.244  68.929  1.00  0.00    -0.070 C  
BRANCH  35  36
HETATM   36  C   UNL     1      -8.693   5.039  68.303  1.00  0.00    -0.106 C  
HETATM   37  C   UNL     1      -8.949   4.954  66.982  1.00  0.00    -0.109 C  
HETATM   38  C   UNL     1     -10.355   4.756  66.507  1.00  0.00    -0.284 C  
HETATM   39  C   UNL     1      -7.915   5.072  65.892  1.00  0.00    -0.107 C  
ENDBRANCH  35  36
ENDBRANCH  26  35
TORSDOF 4
ENDMDL
MODEL       21
REMARK 921   NORMALIZED FREE ENERGY PREDICTED BY IDOCK:   -6.24 KCAL/MOL
REMARK 922        TOTAL FREE ENERGY PREDICTED BY IDOCK:   -7.87 KCAL/MOL
REMARK 923 INTER-LIGAND FREE ENERGY PREDICTED BY IDOCK:   -6.69 KCAL/MOL
REMARK 924 INTRA-LIGAND FREE ENERGY PREDICTED BY IDOCK:   -1.18 KCAL/MOL
REMARK 927      BINDING AFFINITY PREDICTED BY RF-SCORE:    0.00 PKD
ROOT
HETATM    1  O   UNL     1     -10.084  17.545  65.616  1.00  0.00    -0.574 OA 
HETATM    2  H   UNL     1     -10.974  17.878  65.614  1.00  0.00     0.000 HD 
HETATM    3  C   UNL     1      -9.904  16.501  66.559  1.00  0.00    -0.278 C  
HETATM    4  C   UNL     1      -8.468  15.963  66.562  1.00  0.00    -0.348 C  
HETATM    5  C   UNL     1      -8.254  14.821  67.622  1.00  0.00    -0.187 C  
HETATM    6  C   UNL     1      -9.271  13.616  67.386  1.00  0.00    -0.222 C  
HETATM    7  C   UNL     1      -8.678  13.040  66.089  1.00  0.00     0.432 C  
HETATM    8  C   UNL     1     -10.643  14.374  67.472  1.00  0.00    -0.265 C  
HETATM    9  C   UNL     1     -10.934  15.386  66.347  1.00  0.00    -0.277 C  
HETATM   10  C   UNL     1     -11.917  13.754  68.015  1.00  0.00    -0.390 C  
HETATM   11  C   UNL     1     -11.649  12.739  69.180  1.00  0.00    -0.373 C  
HETATM   12  C   UNL     1     -11.061  14.839  64.910  1.00  0.00    -0.416 C  
HETATM   13  C   UNL     1     -10.760  11.570  68.621  1.00  0.00    -0.242 C  
HETATM   14  C   UNL     1     -11.966  11.147  67.610  1.00  0.00     0.184 C  
HETATM   15  C   UNL     1      -9.289  12.392  68.438  1.00  0.00    -0.158 C  
HETATM   16  C   UNL     1      -7.897  11.590  68.521  1.00  0.00    -0.140 C  
HETATM   17  C   UNL     1      -7.833  10.443  69.534  1.00  0.00    -0.161 C  
HETATM   18  O   UNL     1      -7.447  11.048  67.292  1.00  0.00    -0.097 OA 
HETATM   19  C   UNL     1      -8.957   9.439  69.377  1.00  0.00    -0.157 C  
HETATM   20  H   UNL     1      -6.625  10.575  67.341  1.00  0.00     0.000 HD 
HETATM   21  C   UNL     1      -8.908   8.553  67.999  1.00  0.00    -0.142 C  
HETATM   22  C   UNL     1      -9.995   9.265  67.268  1.00  0.00    -0.207 C  
HETATM   23  C   UNL     1      -8.898   7.185  67.877  1.00  0.00    -0.124 C  
HETATM   24  C   UNL     1     -11.028   9.023  68.521  1.00  0.00     0.036 C  
HETATM   25  C   UNL     1     -10.068   6.493  67.127  1.00  0.00    -0.170 C  
HETATM   26  C   UNL     1      -7.645   6.390  67.596  1.00  0.00    -0.101 C  
HETATM   27  O   UNL     1      -9.654   5.356  66.523  1.00  0.00    -0.140 OA 
HETATM   28  C   UNL     1     -11.064  10.181  70.825  1.00  0.00    -0.372 C  
HETATM   29  C   UNL     1     -10.455  10.147  69.435  1.00  0.00    -0.254 C  
HETATM   30  O   UNL     1     -11.213   6.847  66.971  1.00  0.00    -0.369 OA 
ENDROOT
BRANCH  22  31
HETATM   31  O   UNL     1     -10.064   9.030  65.834  1.00  0.00    -0.240 OA 
BRANCH  31  32
HETATM   32  C   UNL     1      -9.304   9.835  65.003  1.00  0.00    -0.263 C  
HETATM   33  O   UNL     1      -8.076   9.798  64.953  1.00  0.00    -0.127 OA 
HETATM   34  C   UNL     1      -9.988  10.943  64.226  1.00  0.00    -0.392 C  
ENDBRANCH  31  32
ENDBRANCH  22  31
BRANCH  26  35
HETATM   35  C   UNL     1      -6.328   7.012  67.998  1.00  0.00    -0.043 C  
BRANCH  35  36
HETATM   36  C   UNL     1      -5.673   6.090  68.986  1.00  0.00    -0.015 C  
HETATM   37  C   UNL     1      -5.946   6.017  70.303  1.00  0.00    -0.025 C  
HETATM   38  C   UNL     1      -5.199   5.048  71.166  1.00  0.00    -0.004 C  
HETATM   39  C   UNL     1      -6.953   6.875  71.026  1.00  0.00    -0.066 C  
ENDBRANCH  35  36
ENDBRANCH  26  35
TORSDOF 4
ENDMDL
MODEL       22
REMARK 921   NORMALIZED FREE ENERGY PREDICTED BY IDOCK:   -6.23 KCAL/MOL
REMARK 922        TOTAL FREE ENERGY PREDICTED BY IDOCK:   -7.87 KCAL/MOL
REMARK 923 INTER-LIGAND FREE ENERGY PREDICTED BY IDOCK:   -6.99 KCAL/MOL
REMARK 924 INTRA-LIGAND FREE ENERGY PREDICTED BY IDOCK:   -0.88 KCAL/MOL
REMARK 927      BINDING AFFINITY PREDICTED BY RF-SCORE:    0.00 PKD
ROOT
HETATM    1  O   UNL     1     -14.411   8.728  72.865  1.00  0.00    -1.023 OA 
HETATM    2  H   UNL     1     -14.422   8.130  73.603  1.00  0.00     0.000 HD 
HETATM    3  C   UNL     1     -13.095   9.131  72.523  1.00  0.00    -0.377 C  
HETATM    4  C   UNL     1     -13.076  10.097  71.331  1.00  0.00    -0.512 C  
HETATM    5  C   UNL     1     -11.621  10.567  70.959  1.00  0.00    -0.318 C  
HETATM    6  C   UNL     1     -10.674   9.324  70.649  1.00  0.00    -0.331 C  
HETATM    7  C   UNL     1     -11.279   8.879  69.307  1.00  0.00     0.191 C  
HETATM    8  C   UNL     1     -10.805   8.518  71.990  1.00  0.00    -0.405 C  
HETATM    9  C   UNL     1     -12.191   7.915  72.290  1.00  0.00    -0.333 C  
HETATM   10  C   UNL     1      -9.687   7.682  72.585  1.00  0.00    -0.251 C  
HETATM   11  C   UNL     1      -8.267   8.288  72.316  1.00  0.00    -0.213 C  
HETATM   12  C   UNL     1     -12.728   6.842  71.321  1.00  0.00    -0.368 C  
HETATM   13  C   UNL     1      -8.038   8.338  70.761  1.00  0.00    -0.109 C  
HETATM   14  C   UNL     1      -8.108   6.712  70.706  1.00  0.00    -0.119 C  
HETATM   15  C   UNL     1      -9.109   9.588  70.355  1.00  0.00    -0.296 C  
HETATM   16  C   UNL     1      -8.839  10.495  69.054  1.00  0.00    -0.169 C  
HETATM   17  C   UNL     1      -7.376  10.822  68.744  1.00  0.00    -0.104 C  
HETATM   18  O   UNL     1      -9.388   9.988  67.850  1.00  0.00    -0.140 OA 
HETATM   19  C   UNL     1      -6.490   9.595  68.666  1.00  0.00    -0.047 C  
HETATM   20  H   UNL     1      -9.229  10.523  67.082  1.00  0.00     0.000 HD 
HETATM   21  C   UNL     1      -6.794   8.600  67.399  1.00  0.00    -0.071 C  
HETATM   22  C   UNL     1      -7.507   7.530  68.155  1.00  0.00    -0.105 C  
HETATM   23  C   UNL     1      -5.914   8.170  66.436  1.00  0.00    -0.041 C  
HETATM   24  C   UNL     1      -6.245   7.391  69.195  1.00  0.00    -0.031 C  
HETATM   25  C   UNL     1      -5.631   6.649  66.307  1.00  0.00    -0.018 C  
HETATM   26  C   UNL     1      -5.857   8.762  65.048  1.00  0.00    -0.058 C  
HETATM   27  O   UNL     1      -5.335   6.315  65.031  1.00  0.00    -0.016 OA 
HETATM   28  C   UNL     1      -5.520   9.003  71.074  1.00  0.00    -0.037 C  
HETATM   29  C   UNL     1      -6.573   8.662  70.035  1.00  0.00    -0.038 C  
HETATM   30  O   UNL     1      -5.695   5.770  67.135  1.00  0.00    -0.015 OA 
ENDROOT
BRANCH  22  31
HETATM   31  O   UNL     1      -8.276   6.587  67.358  1.00  0.00    -0.119 OA 
BRANCH  31  32
HETATM   32  C   UNL     1      -9.645   6.769  67.272  1.00  0.00    -0.137 C  
HETATM   33  O   UNL     1     -10.184   7.526  66.466  1.00  0.00    -0.210 OA 
HETATM   34  C   UNL     1     -10.538   6.141  68.324  1.00  0.00    -0.324 C  
ENDBRANCH  31  32
ENDBRANCH  22  31
BRANCH  26  35
HETATM   35  C   UNL     1      -6.359  10.177  64.878  1.00  0.00    -0.128 C  
BRANCH  35  36
HETATM   36  C   UNL     1      -7.264  10.197  63.680  1.00  0.00    -0.112 C  
HETATM   37  C   UNL     1      -8.541  10.628  63.658  1.00  0.00    -0.110 C  
HETATM   38  C   UNL     1      -9.322  10.577  62.382  1.00  0.00    -0.281 C  
HETATM   39  C   UNL     1      -9.297  11.150  64.852  1.00  0.00    -0.219 C  
ENDBRANCH  35  36
ENDBRANCH  26  35
TORSDOF 4
ENDMDL
MODEL       23
REMARK 921   NORMALIZED FREE ENERGY PREDICTED BY IDOCK:   -6.15 KCAL/MOL
REMARK 922        TOTAL FREE ENERGY PREDICTED BY IDOCK:   -7.76 KCAL/MOL
REMARK 923 INTER-LIGAND FREE ENERGY PREDICTED BY IDOCK:   -7.34 KCAL/MOL
REMARK 924 INTRA-LIGAND FREE ENERGY PREDICTED BY IDOCK:   -0.42 KCAL/MOL
REMARK 927      BINDING AFFINITY PREDICTED BY RF-SCORE:    0.00 PKD
ROOT
HETATM    1  O   UNL     1      -7.921   4.253  70.701  1.00  0.00    -0.061 OA 
HETATM    2  H   UNL     1      -8.503   3.599  70.331  1.00  0.00     0.000 HD 
HETATM    3  C   UNL     1      -7.758   5.372  69.845  1.00  0.00    -0.080 C  
HETATM    4  C   UNL     1      -6.820   6.427  70.442  1.00  0.00    -0.058 C  
HETATM    5  C   UNL     1      -6.615   7.661  69.488  1.00  0.00    -0.036 C  
HETATM    6  C   UNL     1      -8.008   8.341  69.116  1.00  0.00    -0.112 C  
HETATM    7  C   UNL     1      -8.348   8.970  70.477  1.00  0.00    -0.205 C  
HETATM    8  C   UNL     1      -8.769   7.118  68.491  1.00  0.00    -0.126 C  
HETATM    9  C   UNL     1      -9.116   5.966  69.455  1.00  0.00    -0.134 C  
HETATM   10  C   UNL     1      -9.785   7.240  67.371  1.00  0.00    -0.191 C  
HETATM   11  C   UNL     1      -9.440   8.388  66.361  1.00  0.00    -0.293 C  
HETATM   12  C   UNL     1     -10.084   6.274  70.615  1.00  0.00    -0.230 C  
HETATM   13  C   UNL     1      -9.441   9.751  67.145  1.00  0.00    -0.189 C  
HETATM   14  C   UNL     1     -11.030   9.565  67.451  1.00  0.00    -0.103 C  
HETATM   15  C   UNL     1      -8.025   9.557  68.056  1.00  0.00    -0.091 C  
HETATM   16  C   UNL     1      -7.188  10.846  68.536  1.00  0.00    -0.090 C  
HETATM   17  C   UNL     1      -7.127  12.021  67.556  1.00  0.00    -0.129 C  
HETATM   18  O   UNL     1      -7.599  11.395  69.776  1.00  0.00    -0.330 OA 
HETATM   19  C   UNL     1      -8.491  12.482  67.085  1.00  0.00    -0.186 C  
HETATM   20  H   UNL     1      -7.106  12.155  70.060  1.00  0.00     0.000 HD 
HETATM   21  C   UNL     1      -9.425  13.174  68.241  1.00  0.00    -0.210 C  
HETATM   22  C   UNL     1     -10.348  12.024  68.464  1.00  0.00    -0.217 C  
HETATM   23  C   UNL     1     -10.010  14.417  68.218  1.00  0.00    -0.232 C  
HETATM   24  C   UNL     1     -10.700  11.965  66.862  1.00  0.00    -0.285 C  
HETATM   25  C   UNL     1     -11.558  14.517  68.283  1.00  0.00    -0.329 C  
HETATM   26  C   UNL     1      -9.447  15.607  68.958  1.00  0.00    -0.243 C  
HETATM   27  O   UNL     1     -11.947  15.659  68.893  1.00  0.00    -0.367 OA 
HETATM   28  C   UNL     1      -9.228  11.122  64.919  1.00  0.00    -0.175 C  
HETATM   29  C   UNL     1      -9.385  11.253  66.423  1.00  0.00    -0.210 C  
HETATM   30  O   UNL     1     -12.406  13.728  67.935  1.00  0.00    -0.245 OA 
ENDROOT
BRANCH  22  31
HETATM   31  O   UNL     1     -11.146  12.070  69.679  1.00  0.00    -0.146 OA 
BRANCH  31  32
HETATM   32  C   UNL     1     -11.890  10.952  70.014  1.00  0.00    -0.347 C  
HETATM   33  O   UNL     1     -13.018  10.728  69.579  1.00  0.00    -0.118 OA 
HETATM   34  C   UNL     1     -11.378  10.026  71.100  1.00  0.00    -0.397 C  
ENDBRANCH  31  32
ENDBRANCH  22  31
BRANCH  26  35
HETATM   35  C   UNL     1      -7.967  15.595  69.262  1.00  0.00    -0.237 C  
BRANCH  35  36
HETATM   36  C   UNL     1      -7.449  16.989  69.052  1.00  0.00    -0.211 C  
HETATM   37  C   UNL     1      -7.200  17.571  67.862  1.00  0.00    -0.194 C  
HETATM   38  C   UNL     1      -6.675  18.972  67.814  1.00  0.00    -0.222 C  
HETATM   39  C   UNL     1      -7.381  16.907  66.521  1.00  0.00    -0.317 C  
ENDBRANCH  35  36
ENDBRANCH  26  35
TORSDOF 4
ENDMDL
MODEL       24
REMARK 921   NORMALIZED FREE ENERGY PREDICTED BY IDOCK:   -6.14 KCAL/MOL
REMARK 922        TOTAL FREE ENERGY PREDICTED BY IDOCK:   -7.75 KCAL/MOL
REMARK 923 INTER-LIGAND FREE ENERGY PREDICTED BY IDOCK:   -6.29 KCAL/MOL
REMARK 924 INTRA-LIGAND FREE ENERGY PREDICTED BY IDOCK:   -1.46 KCAL/MOL
REMARK 927      BINDING AFFINITY PREDICTED BY RF-SCORE:    0.00 PKD
ROOT
HETATM    1  O   UNL     1     -10.972  14.808  66.748  1.00  0.00    -0.313 OA 
HETATM    2  H   UNL     1     -10.511  15.216  66.024  1.00  0.00     0.000 HD 
HETATM    3  C   UNL     1     -10.989  13.394  66.645  1.00  0.00    -0.287 C  
HETATM    4  C   UNL     1     -11.732  12.735  67.813  1.00  0.00    -0.412 C  
HETATM    5  C   UNL     1     -11.776  11.167  67.694  1.00  0.00    -0.168 C  
HETATM    6  C   UNL     1     -10.309  10.555  67.586  1.00  0.00    -0.257 C  
HETATM    7  C   UNL     1      -9.827  10.808  69.025  1.00  0.00    -0.208 C  
HETATM    8  C   UNL     1      -9.768  11.318  66.325  1.00  0.00    -0.246 C  
HETATM    9  C   UNL     1      -9.570  12.838  66.480  1.00  0.00    -0.257 C  
HETATM   10  C   UNL     1      -8.785  10.721  65.335  1.00  0.00    -0.190 C  
HETATM   11  C   UNL     1      -8.983   9.178  65.138  1.00  0.00    -0.238 C  
HETATM   12  C   UNL     1      -8.526  13.320  67.508  1.00  0.00    -0.202 C  
HETATM   13  C   UNL     1      -8.744   8.470  66.522  1.00  0.00    -0.149 C  
HETATM   14  C   UNL     1      -7.193   8.968  66.499  1.00  0.00    -0.085 C  
HETATM   15  C   UNL     1     -10.140   8.968  67.343  1.00  0.00    -0.291 C  
HETATM   16  C   UNL     1     -10.750   8.064  68.526  1.00  0.00    -0.018 C  
HETATM   17  C   UNL     1     -10.663   6.547  68.336  1.00  0.00    -0.339 C  
HETATM   18  O   UNL     1     -10.216   8.327  69.812  1.00  0.00    -0.194 OA 
HETATM   19  C   UNL     1      -9.261   6.059  68.033  1.00  0.00    -0.115 C  
HETATM   20  H   UNL     1     -10.576   7.793  70.510  1.00  0.00     0.000 HD 
HETATM   21  C   UNL     1      -8.191   6.215  69.265  1.00  0.00    -0.116 C  
HETATM   22  C   UNL     1      -7.450   7.396  68.736  1.00  0.00    -0.101 C  
HETATM   23  C   UNL     1      -7.422   5.233  69.842  1.00  0.00    -0.065 C  
HETATM   24  C   UNL     1      -7.168   6.614  67.320  1.00  0.00    -0.085 C  
HETATM   25  C   UNL     1      -5.876   5.358  69.774  1.00  0.00    -0.017 C  
HETATM   26  C   UNL     1      -7.768   4.583  71.160  1.00  0.00    -0.076 C  
HETATM   27  O   UNL     1      -5.293   4.783  70.850  1.00  0.00    -0.003 OA 
HETATM   28  C   UNL     1      -8.819   6.096  65.408  1.00  0.00    -0.016 C  
HETATM   29  C   UNL     1      -8.591   6.822  66.722  1.00  0.00    -0.119 C  
HETATM   30  O   UNL     1      -5.173   5.920  68.967  1.00  0.00    -0.004 OA 
ENDROOT
BRANCH  22  31
HETATM   31  O   UNL     1      -6.613   8.107  69.689  1.00  0.00    -0.037 OA 
BRANCH  31  32
HETATM   32  C   UNL     1      -7.175   8.491  70.893  1.00  0.00    -0.065 C  
HETATM   33  O   UNL     1      -8.033   9.366  70.998  1.00  0.00    -0.303 OA 
HETATM   34  C   UNL     1      -6.603   7.935  72.183  1.00  0.00    -0.061 C  
ENDBRANCH  31  32
ENDBRANCH  22  31
BRANCH  26  35
HETATM   35  C   UNL     1      -9.220   4.593  71.576  1.00  0.00    -0.186 C  
BRANCH  35  36
HETATM   36  C   UNL     1      -9.440   5.809  72.429  1.00  0.00    -0.155 C  
HETATM   37  C   UNL     1     -10.600   6.480  72.569  1.00  0.00    -0.240 C  
HETATM   38  C   UNL     1     -10.661   7.687  73.454  1.00  0.00    -0.353 C  
HETATM   39  C   UNL     1     -11.888   6.135  71.866  1.00  0.00    -0.316 C  
ENDBRANCH  35  36
ENDBRANCH  26  35
TORSDOF 4
ENDMDL
MODEL       25
REMARK 921   NORMALIZED FREE ENERGY PREDICTED BY IDOCK:   -6.11 KCAL/MOL
REMARK 922        TOTAL FREE ENERGY PREDICTED BY IDOCK:   -7.72 KCAL/MOL
REMARK 923 INTER-LIGAND FREE ENERGY PREDICTED BY IDOCK:   -6.56 KCAL/MOL
REMARK 924 INTRA-LIGAND FREE ENERGY PREDICTED BY IDOCK:   -1.17 KCAL/MOL
REMARK 927      BINDING AFFINITY PREDICTED BY RF-SCORE:    0.00 PKD
ROOT
HETATM    1  O   UNL     1      -8.667   2.249  65.590  1.00  0.00    -0.109 OA 
HETATM    2  H   UNL     1      -8.146   1.670  66.134  1.00  0.00     0.000 HD 
HETATM    3  C   UNL     1      -9.175   3.356  66.316  1.00  0.00    -0.159 C  
HETATM    4  C   UNL     1     -10.015   4.290  65.438  1.00  0.00    -0.233 C  
HETATM    5  C   UNL     1     -10.602   5.508  66.242  1.00  0.00    -0.222 C  
HETATM    6  C   UNL     1      -9.445   6.345  66.949  1.00  0.00    -0.166 C  
HETATM    7  C   UNL     1      -8.808   6.988  65.705  1.00  0.00    -0.088 C  
HETATM    8  C   UNL     1      -8.764   5.225  67.813  1.00  0.00    -0.103 C  
HETATM    9  C   UNL     1      -8.047   4.104  67.035  1.00  0.00    -0.100 C  
HETATM   10  C   UNL     1      -8.116   5.477  69.162  1.00  0.00    -0.095 C  
HETATM   11  C   UNL     1      -8.844   6.595  69.985  1.00  0.00    -0.141 C  
HETATM   12  C   UNL     1      -6.832   4.500  66.171  1.00  0.00    -0.058 C  
HETATM   13  C   UNL     1      -8.766   7.937  69.170  1.00  0.00    -0.138 C  
HETATM   14  C   UNL     1      -7.144   7.925  69.319  1.00  0.00    -0.071 C  
HETATM   15  C   UNL     1      -9.847   7.572  67.916  1.00  0.00    -0.185 C  
HETATM   16  C   UNL     1     -10.646   8.751  67.168  1.00  0.00    -0.233 C  
HETATM   17  C   UNL     1     -11.098   9.927  68.039  1.00  0.00    -0.220 C  
HETATM   18  O   UNL     1      -9.968   9.323  66.063  1.00  0.00    -0.290 OA 
HETATM   19  C   UNL     1      -9.972  10.546  68.843  1.00  0.00    -0.213 C  
HETATM   20  H   UNL     1     -10.439  10.019  65.621  1.00  0.00     0.000 HD 
HETATM   21  C   UNL     1      -8.831  11.319  67.956  1.00  0.00    -0.148 C  
HETATM   22  C   UNL     1      -7.770  10.276  68.047  1.00  0.00    -0.089 C  
HETATM   23  C   UNL     1      -8.407  12.621  68.081  1.00  0.00    -0.175 C  
HETATM   24  C   UNL     1      -7.871  10.282  69.685  1.00  0.00    -0.168 C  
HETATM   25  C   UNL     1      -6.921  12.891  68.437  1.00  0.00    -0.096 C  
HETATM   26  C   UNL     1      -8.863  13.728  67.162  1.00  0.00    -0.240 C  
HETATM   27  O   UNL     1      -6.498  14.060  67.905  1.00  0.00    -0.132 OA 
HETATM   28  C   UNL     1      -9.727   9.310  71.188  1.00  0.00    -0.327 C  
HETATM   29  C   UNL     1      -9.174   9.434  69.780  1.00  0.00    -0.209 C  
HETATM   30  O   UNL     1      -6.125  12.208  69.039  1.00  0.00    -0.064 OA 
ENDROOT
BRANCH  22  31
HETATM   31  O   UNL     1      -6.676  10.392  67.095  1.00  0.00    -0.075 OA 
BRANCH  31  32
HETATM   32  C   UNL     1      -6.838   9.829  65.842  1.00  0.00    -0.096 C  
HETATM   33  O   UNL     1      -7.664  10.220  65.019  1.00  0.00    -0.140 OA 
HETATM   34  C   UNL     1      -6.085   8.557  65.504  1.00  0.00    -0.048 C  
ENDBRANCH  31  32
ENDBRANCH  22  31
BRANCH  26  35
HETATM   35  C   UNL     1     -10.192  13.546  66.466  1.00  0.00    -0.283 C  
BRANCH  35  36
HETATM   36  C   UNL     1      -9.934  12.822  65.176  1.00  0.00    -0.185 C  
HETATM   37  C   UNL     1     -10.871  12.316  64.349  1.00  0.00    -0.370 C  
HETATM   38  C   UNL     1     -10.455  11.609  63.096  1.00  0.00    -0.368 C  
HETATM   39  C   UNL     1     -12.357  12.372  64.590  1.00  0.00    -0.518 C  
ENDBRANCH  35  36
ENDBRANCH  26  35
TORSDOF 4
ENDMDL
MODEL       26
REMARK 921   NORMALIZED FREE ENERGY PREDICTED BY IDOCK:   -6.04 KCAL/MOL
REMARK 922        TOTAL FREE ENERGY PREDICTED BY IDOCK:   -7.63 KCAL/MOL
REMARK 923 INTER-LIGAND FREE ENERGY PREDICTED BY IDOCK:   -7.12 KCAL/MOL
REMARK 924 INTRA-LIGAND FREE ENERGY PREDICTED BY IDOCK:   -0.51 KCAL/MOL
REMARK 927      BINDING AFFINITY PREDICTED BY RF-SCORE:    0.00 PKD
ROOT
HETATM    1  O   UNL     1      -8.199   3.705  70.993  1.00  0.00    -0.064 OA 
HETATM    2  H   UNL     1      -8.423   2.962  70.444  1.00  0.00     0.000 HD 
HETATM    3  C   UNL     1      -7.802   4.834  70.232  1.00  0.00    -0.058 C  
HETATM    4  C   UNL     1      -7.440   6.032  71.117  1.00  0.00    -0.085 C  
HETATM    5  C   UNL     1      -6.976   7.282  70.281  1.00  0.00    -0.060 C  
HETATM    6  C   UNL     1      -8.089   7.718  69.228  1.00  0.00    -0.127 C  
HETATM    7  C   UNL     1      -9.140   8.284  70.197  1.00  0.00    -0.147 C  
HETATM    8  C   UNL     1      -8.260   6.383  68.418  1.00  0.00    -0.113 C  
HETATM    9  C   UNL     1      -8.864   5.192  69.186  1.00  0.00    -0.110 C  
HETATM   10  C   UNL     1      -8.603   6.331  66.940  1.00  0.00    -0.113 C  
HETATM   11  C   UNL     1      -7.978   7.520  66.130  1.00  0.00    -0.111 C  
HETATM   12  C   UNL     1     -10.309   5.336  69.705  1.00  0.00    -0.348 C  
HETATM   13  C   UNL     1      -8.561   8.865  66.699  1.00  0.00    -0.130 C  
HETATM   14  C   UNL     1     -10.049   8.415  66.214  1.00  0.00    -0.136 C  
HETATM   15  C   UNL     1      -7.761   8.912  68.193  1.00  0.00    -0.100 C  
HETATM   16  C   UNL     1      -7.464  10.323  68.908  1.00  0.00    -0.094 C  
HETATM   17  C   UNL     1      -7.101  11.490  67.984  1.00  0.00    -0.079 C  
HETATM   18  O   UNL     1      -8.504  10.798  69.744  1.00  0.00    -0.369 OA 
HETATM   19  C   UNL     1      -8.110  11.716  66.877  1.00  0.00    -0.164 C  
HETATM   20  H   UNL     1      -8.329  11.631  70.166  1.00  0.00     0.000 HD 
HETATM   21  C   UNL     1      -9.580  12.244  67.376  1.00  0.00    -0.179 C  
HETATM   22  C   UNL     1     -10.315  10.956  67.221  1.00  0.00    -0.216 C  
HETATM   23  C   UNL     1     -10.252  13.372  66.969  1.00  0.00    -0.249 C  
HETATM   24  C   UNL     1      -9.824  10.836  65.659  1.00  0.00    -0.299 C  
HETATM   25  C   UNL     1     -11.628  13.211  66.271  1.00  0.00    -0.356 C  
HETATM   26  C   UNL     1     -10.302  14.640  67.787  1.00  0.00    -0.237 C  
HETATM   27  O   UNL     1     -12.427  14.273  66.519  1.00  0.00    -0.428 OA 
HETATM   28  C   UNL     1      -7.485  10.247  64.746  1.00  0.00    -0.103 C  
HETATM   29  C   UNL     1      -8.376  10.353  65.971  1.00  0.00    -0.149 C  
HETATM   30  O   UNL     1     -12.073  12.291  65.624  1.00  0.00    -0.557 OA 
ENDROOT
BRANCH  22  31
HETATM   31  O   UNL     1     -11.603  10.870  67.891  1.00  0.00    -0.497 OA 
BRANCH  31  32
HETATM   32  C   UNL     1     -11.626  10.933  69.273  1.00  0.00    -0.318 C  
HETATM   33  O   UNL     1     -11.373   9.977  70.004  1.00  0.00    -0.253 OA 
HETATM   34  C   UNL     1     -12.148  12.188  69.944  1.00  0.00    -0.324 C  
ENDBRANCH  31  32
ENDBRANCH  22  31
BRANCH  26  35
HETATM   35  C   UNL     1      -9.177  14.877  68.767  1.00  0.00    -0.193 C  
BRANCH  35  36
HETATM   36  C   UNL     1      -9.771  14.889  70.146  1.00  0.00     0.377 C  
HETATM   37  C   UNL     1     -10.885  15.546  70.524  1.00  0.00    -0.353 C  
HETATM   38  C   UNL     1     -11.351  15.468  71.945  1.00  0.00    -0.456 C  
HETATM   39  C   UNL     1     -11.726  16.412  69.620  1.00  0.00     0.074 C  
ENDBRANCH  35  36
ENDBRANCH  26  35
TORSDOF 4
ENDMDL
MODEL       27
REMARK 921   NORMALIZED FREE ENERGY PREDICTED BY IDOCK:   -6.02 KCAL/MOL
REMARK 922        TOTAL FREE ENERGY PREDICTED BY IDOCK:   -7.60 KCAL/MOL
REMARK 923 INTER-LIGAND FREE ENERGY PREDICTED BY IDOCK:   -6.93 KCAL/MOL
REMARK 924 INTRA-LIGAND FREE ENERGY PREDICTED BY IDOCK:   -0.67 KCAL/MOL
REMARK 927      BINDING AFFINITY PREDICTED BY RF-SCORE:    0.00 PKD
ROOT
HETATM    1  O   UNL     1      -9.795  20.934  68.570  1.00  0.00     0.268 OA 
HETATM    2  H   UNL     1     -10.669  21.245  68.776  1.00  0.00     0.000 HD 
HETATM    3  C   UNL     1      -9.634  19.554  68.858  1.00  0.00    -0.395 C  
HETATM    4  C   UNL     1      -8.224  19.053  68.525  1.00  0.00    -0.390 C  
HETATM    5  C   UNL     1      -8.030  17.529  68.863  1.00  0.00    -0.180 C  
HETATM    6  C   UNL     1      -9.105  16.628  68.105  1.00  0.00    -0.213 C  
HETATM    7  C   UNL     1      -8.575  16.764  66.668  1.00  0.00    -0.287 C  
HETATM    8  C   UNL     1     -10.440  17.275  68.622  1.00  0.00    -0.356 C  
HETATM    9  C   UNL     1     -10.718  18.720  68.166  1.00  0.00    -0.180 C  
HETATM   10  C   UNL     1     -11.724  16.497  68.841  1.00  0.00     0.079 C  
HETATM   11  C   UNL     1     -11.468  15.029  69.331  1.00  0.00    -0.320 C  
HETATM   12  C   UNL     1     -10.909  18.968  66.656  1.00  0.00    -0.314 C  
HETATM   13  C   UNL     1     -10.647  14.275  68.223  1.00  0.00    -0.247 C  
HETATM   14  C   UNL     1     -11.898  14.443  67.193  1.00  0.00    -0.437 C  
HETATM   15  C   UNL     1      -9.147  15.043  68.406  1.00  0.00    -0.184 C  
HETATM   16  C   UNL     1      -7.790  14.274  68.013  1.00  0.00    -0.143 C  
HETATM   17  C   UNL     1      -7.748  12.773  68.315  1.00  0.00    -0.136 C  
HETATM   18  O   UNL     1      -7.399  14.409  66.658  1.00  0.00    -0.151 OA 
HETATM   19  C   UNL     1      -8.919  12.009  67.731  1.00  0.00    -0.176 C  
HETATM   20  H   UNL     1      -6.598  13.955  66.426  1.00  0.00     0.000 HD 
HETATM   21  C   UNL     1      -8.947  11.931  66.094  1.00  0.00    -0.116 C  
HETATM   22  C   UNL     1     -10.023  12.939  65.867  1.00  0.00    -0.268 C  
HETATM   23  C   UNL     1      -9.002  10.806  65.305  1.00  0.00    -0.211 C  
HETATM   24  C   UNL     1     -11.029  12.127  66.878  1.00  0.00    -0.317 C  
HETATM   25  C   UNL     1     -10.221  10.611  64.365  1.00  0.00    -0.330 C  
HETATM   26  C   UNL     1      -7.793  10.230  64.608  1.00  0.00    -0.123 C  
HETATM   27  O   UNL     1      -9.875   9.919  63.257  1.00  0.00     0.059 OA 
HETATM   28  C   UNL     1     -10.950  11.978  69.452  1.00  0.00    -0.128 C  
HETATM   29  C   UNL     1     -10.382  12.629  68.204  1.00  0.00    -0.238 C  
HETATM   30  O   UNL     1     -11.354  11.023  64.460  1.00  0.00    -0.040 OA 
ENDROOT
BRANCH  22  31
HETATM   31  O   UNL     1     -10.142  13.453  64.512  1.00  0.00    -0.341 OA 
BRANCH  31  32
HETATM   32  C   UNL     1     -11.259  14.206  64.195  1.00  0.00    -0.035 C  
HETATM   33  O   UNL     1     -12.269  13.741  63.669  1.00  0.00    -0.600 OA 
HETATM   34  C   UNL     1     -11.196  15.714  64.340  1.00  0.00    -0.249 C  
ENDBRANCH  31  32
ENDBRANCH  22  31
BRANCH  26  35
HETATM   35  C   UNL     1      -6.439  10.535  65.205  1.00  0.00    -0.052 C  
BRANCH  35  36
HETATM   36  C   UNL     1      -5.783   9.226  65.538  1.00  0.00    -0.053 C  
HETATM   37  C   UNL     1      -5.879   8.568  66.711  1.00  0.00    -0.049 C  
HETATM   38  C   UNL     1      -5.156   7.270  66.897  1.00  0.00    -0.018 C  
HETATM   39  C   UNL     1      -6.651   9.050  67.912  1.00  0.00    -0.060 C  
ENDBRANCH  35  36
ENDBRANCH  26  35
TORSDOF 4
ENDMDL
MODEL       28
REMARK 921   NORMALIZED FREE ENERGY PREDICTED BY IDOCK:   -5.96 KCAL/MOL
REMARK 922        TOTAL FREE ENERGY PREDICTED BY IDOCK:   -7.54 KCAL/MOL
REMARK 923 INTER-LIGAND FREE ENERGY PREDICTED BY IDOCK:   -6.64 KCAL/MOL
REMARK 924 INTRA-LIGAND FREE ENERGY PREDICTED BY IDOCK:   -0.90 KCAL/MOL
REMARK 927      BINDING AFFINITY PREDICTED BY RF-SCORE:    0.00 PKD
ROOT
HETATM    1  O   UNL     1     -10.284  17.591  65.761  1.00  0.00    -0.561 OA 
HETATM    2  H   UNL     1     -11.176  17.913  65.807  1.00  0.00     0.000 HD 
HETATM    3  C   UNL     1     -10.049  16.527  66.668  1.00  0.00    -0.294 C  
HETATM    4  C   UNL     1      -8.609  16.006  66.593  1.00  0.00    -0.316 C  
HETATM    5  C   UNL     1      -8.334  14.841  67.614  1.00  0.00    -0.180 C  
HETATM    6  C   UNL     1      -9.347  13.631  67.394  1.00  0.00    -0.227 C  
HETATM    7  C   UNL     1      -8.808  13.094  66.058  1.00  0.00     0.469 C  
HETATM    8  C   UNL     1     -10.722  14.370  67.561  1.00  0.00    -0.271 C  
HETATM    9  C   UNL     1     -11.076  15.405  66.476  1.00  0.00    -0.227 C  
HETATM   10  C   UNL     1     -11.963  13.721  68.146  1.00  0.00    -0.394 C  
HETATM   11  C   UNL     1     -11.632  12.682  69.272  1.00  0.00    -0.376 C  
HETATM   12  C   UNL     1     -11.262  14.892  65.033  1.00  0.00    -0.408 C  
HETATM   13  C   UNL     1     -10.756  11.537  68.644  1.00  0.00    -0.242 C  
HETATM   14  C   UNL     1     -12.002  11.124  67.679  1.00  0.00     0.184 C  
HETATM   15  C   UNL     1      -9.304  12.382  68.415  1.00  0.00    -0.158 C  
HETATM   16  C   UNL     1      -7.901  11.594  68.415  1.00  0.00    -0.137 C  
HETATM   17  C   UNL     1      -7.778  10.424  69.395  1.00  0.00    -0.158 C  
HETATM   18  O   UNL     1      -7.501  11.088  67.153  1.00  0.00    -0.105 OA 
HETATM   19  C   UNL     1      -8.897   9.410  69.265  1.00  0.00    -0.150 C  
HETATM   20  H   UNL     1      -6.673  10.624  67.153  1.00  0.00     0.000 HD 
HETATM   21  C   UNL     1      -8.901   8.559  67.864  1.00  0.00    -0.137 C  
HETATM   22  C   UNL     1     -10.028   9.276  67.201  1.00  0.00    -0.216 C  
HETATM   23  C   UNL     1      -8.882   7.194  67.708  1.00  0.00    -0.124 C  
HETATM   24  C   UNL     1     -11.000   8.991  68.493  1.00  0.00     0.036 C  
HETATM   25  C   UNL     1     -10.077   6.507  66.995  1.00  0.00    -0.179 C  
HETATM   26  C   UNL     1      -7.635   6.422  67.351  1.00  0.00    -0.100 C  
HETATM   27  O   UNL     1      -9.679   5.390  66.345  1.00  0.00    -0.150 OA 
HETATM   28  C   UNL     1     -10.944  10.092  70.825  1.00  0.00    -0.375 C  
HETATM   29  C   UNL     1     -10.399  10.099  69.408  1.00  0.00    -0.251 C  
HETATM   30  O   UNL     1     -11.232   6.851  66.899  1.00  0.00    -0.353 OA 
ENDROOT
BRANCH  22  31
HETATM   31  O   UNL     1     -10.159   9.074  65.766  1.00  0.00    -0.169 OA 
BRANCH  31  32
HETATM   32  C   UNL     1      -9.570   9.998  64.921  1.00  0.00    -0.310 C  
HETATM   33  O   UNL     1      -8.354  10.119  64.783  1.00  0.00    -0.152 OA 
HETATM   34  C   UNL     1     -10.443  11.037  64.244  1.00  0.00    -0.427 C  
ENDBRANCH  31  32
ENDBRANCH  22  31
BRANCH  26  35
HETATM   35  C   UNL     1      -6.307   7.050  67.708  1.00  0.00    -0.043 C  
BRANCH  35  36
HETATM   36  C   UNL     1      -5.913   7.955  66.576  1.00  0.00    -0.041 C  
HETATM   37  C   UNL     1      -5.493   7.563  65.357  1.00  0.00    -0.033 C  
HETATM   38  C   UNL     1      -5.126   8.589  64.330  1.00  0.00    -0.043 C  
HETATM   39  C   UNL     1      -5.322   6.130  64.922  1.00  0.00    -0.017 C  
ENDBRANCH  35  36
ENDBRANCH  26  35
TORSDOF 4
ENDMDL
MODEL       29
REMARK 921   NORMALIZED FREE ENERGY PREDICTED BY IDOCK:   -5.74 KCAL/MOL
REMARK 922        TOTAL FREE ENERGY PREDICTED BY IDOCK:   -7.26 KCAL/MOL
REMARK 923 INTER-LIGAND FREE ENERGY PREDICTED BY IDOCK:   -6.07 KCAL/MOL
REMARK 924 INTRA-LIGAND FREE ENERGY PREDICTED BY IDOCK:   -1.19 KCAL/MOL
REMARK 927      BINDING AFFINITY PREDICTED BY RF-SCORE:    0.00 PKD
ROOT
HETATM    1  O   UNL     1      -8.241   2.599  64.787  1.00  0.00    -0.085 OA 
HETATM    2  H   UNL     1      -7.396   2.170  64.853  1.00  0.00     0.000 HD 
HETATM    3  C   UNL     1      -8.455   3.528  65.837  1.00  0.00    -0.112 C  
HETATM    4  C   UNL     1      -9.819   4.221  65.730  1.00  0.00    -0.228 C  
HETATM    5  C   UNL     1     -10.073   5.235  66.905  1.00  0.00    -0.250 C  
HETATM    6  C   UNL     1      -8.924   6.337  66.977  1.00  0.00    -0.115 C  
HETATM    7  C   UNL     1      -9.266   7.137  65.709  1.00  0.00     0.087 C  
HETATM    8  C   UNL     1      -7.656   5.422  67.131  1.00  0.00    -0.092 C  
HETATM    9  C   UNL     1      -7.304   4.536  65.921  1.00  0.00    -0.077 C  
HETATM   10  C   UNL     1      -6.421   5.819  67.917  1.00  0.00    -0.043 C  
HETATM   11  C   UNL     1      -6.755   6.700  69.170  1.00  0.00    -0.052 C  
HETATM   12  C   UNL     1      -6.920   5.244  64.605  1.00  0.00    -0.049 C  
HETATM   13  C   UNL     1      -7.439   8.026  68.672  1.00  0.00    -0.098 C  
HETATM   14  C   UNL     1      -6.066   8.434  67.897  1.00  0.00    -0.048 C  
HETATM   15  C   UNL     1      -8.940   7.406  68.185  1.00  0.00    -0.129 C  
HETATM   16  C   UNL     1     -10.247   8.345  68.201  1.00  0.00    -0.208 C  
HETATM   17  C   UNL     1     -10.347   9.353  69.349  1.00  0.00    -0.222 C  
HETATM   18  O   UNL     1     -10.462   9.086  67.012  1.00  0.00    -0.265 OA 
HETATM   19  C   UNL     1      -9.122  10.234  69.483  1.00  0.00    -0.187 C  
HETATM   20  H   UNL     1     -11.233   9.640  67.021  1.00  0.00     0.000 HD 
HETATM   21  C   UNL     1      -8.888  11.288  68.250  1.00  0.00    -0.158 C  
HETATM   22  C   UNL     1      -7.779  10.556  67.572  1.00  0.00    -0.098 C  
HETATM   23  C   UNL     1      -8.749  12.653  68.324  1.00  0.00    -0.169 C  
HETATM   24  C   UNL     1      -6.919  10.517  68.970  1.00  0.00    -0.076 C  
HETATM   25  C   UNL     1      -7.423  13.297  67.837  1.00  0.00    -0.143 C  
HETATM   26  C   UNL     1      -9.867  13.614  67.999  1.00  0.00    -0.244 C  
HETATM   27  O   UNL     1      -7.635  14.541  67.353  1.00  0.00    -0.183 OA 
HETATM   28  C   UNL     1      -7.325   9.078  71.072  1.00  0.00    -0.125 C  
HETATM   29  C   UNL     1      -7.722   9.358  69.634  1.00  0.00    -0.098 C  
HETATM   30  O   UNL     1      -6.306  12.838  67.782  1.00  0.00    -0.104 OA 
ENDROOT
BRANCH  22  31
HETATM   31  O   UNL     1      -7.483  10.963  66.208  1.00  0.00    -0.139 OA 
BRANCH  31  32
HETATM   32  C   UNL     1      -8.119  10.297  65.175  1.00  0.00    -0.151 C  
HETATM   33  O   UNL     1      -9.317  10.414  64.922  1.00  0.00    -0.201 OA 
HETATM   34  C   UNL     1      -7.357   9.235  64.405  1.00  0.00    -0.105 C  
ENDBRANCH  31  32
ENDBRANCH  22  31
BRANCH  26  35
HETATM   35  C   UNL     1     -11.282  13.100  68.134  1.00  0.00    -0.304 C  
BRANCH  35  36
HETATM   36  C   UNL     1     -11.944  13.877  69.235  1.00  0.00    -0.402 C  
HETATM   37  C   UNL     1     -12.368  13.379  70.413  1.00  0.00    -0.382 C  
HETATM   38  C   UNL     1     -13.021  14.283  71.412  1.00  0.00    -0.411 C  
HETATM   39  C   UNL     1     -12.268  11.933  70.825  1.00  0.00    -0.401 C  
ENDBRANCH  35  36
ENDBRANCH  26  35
TORSDOF 4
ENDMDL
MODEL       30
REMARK 921   NORMALIZED FREE ENERGY PREDICTED BY IDOCK:   -5.70 KCAL/MOL
REMARK 922        TOTAL FREE ENERGY PREDICTED BY IDOCK:   -7.21 KCAL/MOL
REMARK 923 INTER-LIGAND FREE ENERGY PREDICTED BY IDOCK:   -5.95 KCAL/MOL
REMARK 924 INTRA-LIGAND FREE ENERGY PREDICTED BY IDOCK:   -1.26 KCAL/MOL
REMARK 927      BINDING AFFINITY PREDICTED BY RF-SCORE:    0.00 PKD
ROOT
HETATM    1  O   UNL     1      -8.780   1.485  66.244  1.00  0.00    -0.107 OA 
HETATM    2  H   UNL     1      -8.632   0.869  66.952  1.00  0.00     0.000 HD 
HETATM    3  C   UNL     1      -9.358   2.698  66.700  1.00  0.00    -0.001 C  
HETATM    4  C   UNL     1      -9.597   3.692  65.558  1.00  0.00    -0.149 C  
HETATM    5  C   UNL     1     -10.260   5.031  66.052  1.00  0.00    -0.253 C  
HETATM    6  C   UNL     1      -9.380   5.727  67.184  1.00  0.00    -0.116 C  
HETATM    7  C   UNL     1      -8.191   6.190  66.326  1.00  0.00    -0.116 C  
HETATM    8  C   UNL     1      -9.308   4.571  68.246  1.00  0.00    -0.190 C  
HETATM    9  C   UNL     1      -8.524   3.312  67.830  1.00  0.00    -0.103 C  
HETATM   10  C   UNL     1      -9.244   4.805  69.743  1.00  0.00    -0.180 C  
HETATM   11  C   UNL     1     -10.057   6.067  70.196  1.00  0.00    -0.249 C  
HETATM   12  C   UNL     1      -7.014   3.469  67.555  1.00  0.00    -0.054 C  
HETATM   13  C   UNL     1      -9.434   7.331  69.498  1.00  0.00    -0.155 C  
HETATM   14  C   UNL     1      -8.045   7.086  70.311  1.00  0.00    -0.119 C  
HETATM   15  C   UNL     1      -9.943   7.056  67.904  1.00  0.00    -0.183 C  
HETATM   16  C   UNL     1     -10.160   8.294  66.899  1.00  0.00    -0.296 C  
HETATM   17  C   UNL     1     -10.736   9.574  67.511  1.00  0.00    -0.311 C  
HETATM   18  O   UNL     1      -9.003   8.690  66.184  1.00  0.00    -0.157 OA 
HETATM   19  C   UNL     1      -9.960  10.066  68.716  1.00  0.00    -0.181 C  
HETATM   20  H   UNL     1      -9.131   9.420  65.591  1.00  0.00     0.000 HD 
HETATM   21  C   UNL     1      -8.446  10.605  68.393  1.00  0.00    -0.132 C  
HETATM   22  C   UNL     1      -7.700   9.423  68.911  1.00  0.00    -0.076 C  
HETATM   23  C   UNL     1      -7.909  11.834  68.694  1.00  0.00    -0.117 C  
HETATM   24  C   UNL     1      -8.467   9.543  70.358  1.00  0.00    -0.238 C  
HETATM   25  C   UNL     1      -6.680  11.900  69.641  1.00  0.00    -0.009 C  
HETATM   26  C   UNL     1      -7.759  12.939  67.677  1.00  0.00    -0.162 C  
HETATM   27  O   UNL     1      -5.893  12.958  69.343  1.00  0.00    -0.083 OA 
HETATM   28  C   UNL     1     -10.909   8.951  70.940  1.00  0.00    -0.308 C  
HETATM   29  C   UNL     1      -9.811   8.906  69.893  1.00  0.00    -0.190 C  
HETATM   30  O   UNL     1      -6.326  11.144  70.515  1.00  0.00    -0.303 OA 
ENDROOT
BRANCH  22  31
HETATM   31  O   UNL     1      -6.308   9.316  68.505  1.00  0.00    -0.052 OA 
BRANCH  31  32
HETATM   32  C   UNL     1      -6.034   8.991  67.188  1.00  0.00    -0.057 C  
HETATM   33  O   UNL     1      -6.491   9.604  66.225  1.00  0.00    -0.068 OA 
HETATM   34  C   UNL     1      -5.270   7.716  66.889  1.00  0.00    -0.023 C  
ENDBRANCH  31  32
ENDBRANCH  22  31
BRANCH  26  35
HETATM   35  C   UNL     1      -8.691  12.916  66.488  1.00  0.00     0.039 C  
BRANCH  35  36
HETATM   36  C   UNL     1      -9.999  13.511  66.924  1.00  0.00    -0.256 C  
HETATM   37  C   UNL     1     -11.187  13.349  66.309  1.00  0.00    -0.322 C  
HETATM   38  C   UNL     1     -12.408  14.017  66.862  1.00  0.00    -0.321 C  
HETATM   39  C   UNL     1     -11.408  12.551  65.050  1.00  0.00    -0.353 C  
ENDBRANCH  35  36
ENDBRANCH  26  35
TORSDOF 4
ENDMDL
MODEL       31
REMARK 921   NORMALIZED FREE ENERGY PREDICTED BY IDOCK:   -5.63 KCAL/MOL
REMARK 922        TOTAL FREE ENERGY PREDICTED BY IDOCK:   -7.13 KCAL/MOL
REMARK 923 INTER-LIGAND FREE ENERGY PREDICTED BY IDOCK:   -5.83 KCAL/MOL
REMARK 924 INTRA-LIGAND FREE ENERGY PREDICTED BY IDOCK:   -1.30 KCAL/MOL
REMARK 927      BINDING AFFINITY PREDICTED BY RF-SCORE:    0.00 PKD
ROOT
HETATM    1  O   UNL     1     -10.572   5.312  74.561  1.00  0.00    -0.304 OA 
HETATM    2  H   UNL     1     -10.704   5.929  75.272  1.00  0.00     0.000 HD 
HETATM    3  C   UNL     1     -10.861   5.883  73.295  1.00  0.00    -0.261 C  
HETATM    4  C   UNL     1     -10.649   4.889  72.147  1.00  0.00    -0.232 C  
HETATM    5  C   UNL     1     -10.990   5.508  70.742  1.00  0.00    -0.193 C  
HETATM    6  C   UNL     1     -10.135   6.824  70.467  1.00  0.00    -0.201 C  
HETATM    7  C   UNL     1      -8.751   6.185  70.270  1.00  0.00    -0.145 C  
HETATM    8  C   UNL     1     -10.538   7.696  71.710  1.00  0.00    -0.250 C  
HETATM    9  C   UNL     1     -10.072   7.180  73.085  1.00  0.00    -0.292 C  
HETATM   10  C   UNL     1     -10.640   9.209  71.681  1.00  0.00    -0.427 C  
HETATM   11  C   UNL     1     -11.138   9.758  70.300  1.00  0.00    -0.349 C  
HETATM   12  C   UNL     1      -8.552   7.102  73.339  1.00  0.00    -0.162 C  
HETATM   13  C   UNL     1     -10.099   9.337  69.197  1.00  0.00    -0.204 C  
HETATM   14  C   UNL     1      -8.966  10.252  69.927  1.00  0.00     0.008 C  
HETATM   15  C   UNL     1     -10.419   7.674  69.125  1.00  0.00    -0.220 C  
HETATM   16  C   UNL     1     -10.139   6.854  67.769  1.00  0.00    -0.161 C  
HETATM   17  C   UNL     1     -10.431   7.589  66.458  1.00  0.00    -0.021 C  
HETATM   18  O   UNL     1      -8.824   6.342  67.643  1.00  0.00    -0.113 OA 
HETATM   19  C   UNL     1      -9.742   8.934  66.356  1.00  0.00    -0.332 C  
HETATM   20  H   UNL     1      -8.659   5.858  66.843  1.00  0.00     0.000 HD 
HETATM   21  C   UNL     1      -8.108   8.868  66.243  1.00  0.00    -0.110 C  
HETATM   22  C   UNL     1      -7.796   9.277  67.642  1.00  0.00    -0.096 C  
HETATM   23  C   UNL     1      -7.309   9.413  65.266  1.00  0.00    -0.096 C  
HETATM   24  C   UNL     1      -8.710  10.630  67.476  1.00  0.00    -0.125 C  
HETATM   25  C   UNL     1      -6.265  10.489  65.668  1.00  0.00    -0.129 C  
HETATM   26  C   UNL     1      -6.715   8.601  64.140  1.00  0.00    -0.075 C  
HETATM   27  O   UNL     1      -5.185  10.447  64.855  1.00  0.00    -0.097 OA 
HETATM   28  C   UNL     1     -11.280  10.840  67.400  1.00  0.00    -0.315 C  
HETATM   29  C   UNL     1     -10.091   9.926  67.638  1.00  0.00    -0.241 C  
HETATM   30  O   UNL     1      -6.264  11.269  66.591  1.00  0.00    -0.120 OA 
ENDROOT
BRANCH  22  31
HETATM   31  O   UNL     1      -6.440   9.016  68.099  1.00  0.00    -0.058 OA 
BRANCH  31  32
HETATM   32  C   UNL     1      -6.181   7.807  68.721  1.00  0.00    -0.039 C  
HETATM   33  O   UNL     1      -6.083   6.738  68.122  1.00  0.00    -0.029 OA 
HETATM   34  C   UNL     1      -6.181   7.746  70.236  1.00  0.00    -0.033 C  
ENDBRANCH  31  32
ENDBRANCH  22  31
BRANCH  26  35
HETATM   35  C   UNL     1      -7.429   7.327  63.754  1.00  0.00    -0.097 C  
BRANCH  35  36
HETATM   36  C   UNL     1      -6.765   6.195  64.484  1.00  0.00    -0.042 C  
HETATM   37  C   UNL     1      -7.362   5.058  64.894  1.00  0.00    -0.067 C  
HETATM   38  C   UNL     1      -6.565   4.019  65.621  1.00  0.00    -0.044 C  
HETATM   39  C   UNL     1      -8.821   4.732  64.707  1.00  0.00    -0.153 C  
ENDBRANCH  35  36
ENDBRANCH  26  35
TORSDOF 4
ENDMDL
MODEL       32
REMARK 921   NORMALIZED FREE ENERGY PREDICTED BY IDOCK:   -5.60 KCAL/MOL
REMARK 922        TOTAL FREE ENERGY PREDICTED BY IDOCK:   -7.09 KCAL/MOL
REMARK 923 INTER-LIGAND FREE ENERGY PREDICTED BY IDOCK:   -5.90 KCAL/MOL
REMARK 924 INTRA-LIGAND FREE ENERGY PREDICTED BY IDOCK:   -1.19 KCAL/MOL
REMARK 927      BINDING AFFINITY PREDICTED BY RF-SCORE:    0.00 PKD
ROOT
HETATM    1  O   UNL     1     -13.800   9.775  72.582  1.00  0.00    -0.674 OA 
HETATM    2  H   UNL     1     -14.251   9.374  73.315  1.00  0.00     0.000 HD 
HETATM    3  C   UNL     1     -12.484   9.270  72.421  1.00  0.00    -0.237 C  
HETATM    4  C   UNL     1     -11.755   9.917  71.237  1.00  0.00    -0.472 C  
HETATM    5  C   UNL     1     -10.286   9.380  71.066  1.00  0.00    -0.382 C  
HETATM    6  C   UNL     1     -10.267   7.795  70.898  1.00  0.00    -0.207 C  
HETATM    7  C   UNL     1     -10.873   7.687  69.489  1.00  0.00    -0.171 C  
HETATM    8  C   UNL     1     -11.003   7.356  72.214  1.00  0.00    -0.296 C  
HETATM    9  C   UNL     1     -12.490   7.741  72.324  1.00  0.00    -0.224 C  
HETATM   10  C   UNL     1     -10.696   6.072  72.963  1.00  0.00    -0.279 C  
HETATM   11  C   UNL     1      -9.182   5.673  72.889  1.00  0.00    -0.135 C  
HETATM   12  C   UNL     1     -13.465   7.127  71.298  1.00  0.00    -0.309 C  
HETATM   13  C   UNL     1      -8.809   5.435  71.380  1.00  0.00    -0.144 C  
HETATM   14  C   UNL     1      -9.849   4.183  71.328  1.00  0.00    -0.249 C  
HETATM   15  C   UNL     1      -8.846   7.035  70.822  1.00  0.00    -0.149 C  
HETATM   16  C   UNL     1      -7.944   7.474  69.563  1.00  0.00    -0.126 C  
HETATM   17  C   UNL     1      -6.562   6.823  69.456  1.00  0.00    -0.048 C  
HETATM   18  O   UNL     1      -8.558   7.295  68.299  1.00  0.00    -0.123 OA 
HETATM   19  C   UNL     1      -6.606   5.309  69.510  1.00  0.00    -0.043 C  
HETATM   20  H   UNL     1      -8.026   7.555  67.557  1.00  0.00     0.000 HD 
HETATM   21  C   UNL     1      -7.318   4.590  68.220  1.00  0.00    -0.065 C  
HETATM   22  C   UNL     1      -8.610   4.240  68.878  1.00  0.00    -0.084 C  
HETATM   23  C   UNL     1      -6.787   3.632  67.391  1.00  0.00    -0.054 C  
HETATM   24  C   UNL     1      -7.812   3.462  70.084  1.00  0.00    -0.049 C  
HETATM   25  C   UNL     1      -7.478   2.244  67.314  1.00  0.00    -0.060 C  
HETATM   26  C   UNL     1      -6.236   3.942  66.020  1.00  0.00    -0.032 C  
HETATM   27  O   UNL     1      -7.315   1.687  66.093  1.00  0.00    -0.054 OA 
HETATM   28  C   UNL     1      -6.458   4.472  72.033  1.00  0.00    -0.022 C  
HETATM   29  C   UNL     1      -7.384   4.743  70.861  1.00  0.00    -0.063 C  
HETATM   30  O   UNL     1      -8.151   1.661  68.131  1.00  0.00    -0.056 OA 
ENDROOT
BRANCH  22  31
HETATM   31  O   UNL     1      -9.705   3.884  67.990  1.00  0.00    -0.151 OA 
BRANCH  31  32
HETATM   32  C   UNL     1     -10.164   4.842  67.102  1.00  0.00    -0.162 C  
HETATM   33  O   UNL     1     -10.932   5.750  67.415  1.00  0.00    -0.249 OA 
HETATM   34  C   UNL     1      -9.849   4.689  65.627  1.00  0.00    -0.217 C  
ENDBRANCH  31  32
ENDBRANCH  22  31
BRANCH  26  35
HETATM   35  C   UNL     1      -5.750   5.351  65.773  1.00  0.00    -0.014 C  
BRANCH  35  36
HETATM   36  C   UNL     1      -6.918   6.153  65.273  1.00  0.00    -0.056 C  
HETATM   37  C   UNL     1      -7.071   7.487  65.389  1.00  0.00    -0.063 C  
HETATM   38  C   UNL     1      -8.301   8.145  64.845  1.00  0.00    -0.133 C  
HETATM   39  C   UNL     1      -6.095   8.413  66.067  1.00  0.00    -0.045 C  
ENDBRANCH  35  36
ENDBRANCH  26  35
TORSDOF 4
ENDMDL
MODEL       33
REMARK 921   NORMALIZED FREE ENERGY PREDICTED BY IDOCK:   -5.60 KCAL/MOL
REMARK 922        TOTAL FREE ENERGY PREDICTED BY IDOCK:   -7.09 KCAL/MOL
REMARK 923 INTER-LIGAND FREE ENERGY PREDICTED BY IDOCK:   -6.43 KCAL/MOL
REMARK 924 INTRA-LIGAND FREE ENERGY PREDICTED BY IDOCK:   -0.65 KCAL/MOL
REMARK 927      BINDING AFFINITY PREDICTED BY RF-SCORE:    0.00 PKD
ROOT
HETATM    1  O   UNL     1     -11.619  14.858  66.527  1.00  0.00    -0.339 OA 
HETATM    2  H   UNL     1     -11.310  15.542  67.110  1.00  0.00     0.000 HD 
HETATM    3  C   UNL     1     -10.714  13.769  66.452  1.00  0.00    -0.281 C  
HETATM    4  C   UNL     1     -11.212  12.664  65.512  1.00  0.00    -0.337 C  
HETATM    5  C   UNL     1     -10.203  11.463  65.405  1.00  0.00    -0.320 C  
HETATM    6  C   UNL     1      -9.894  10.838  66.839  1.00  0.00    -0.224 C  
HETATM    7  C   UNL     1     -11.249  10.167  67.115  1.00  0.00     0.046 C  
HETATM    8  C   UNL     1      -9.363  12.106  67.598  1.00  0.00    -0.187 C  
HETATM    9  C   UNL     1     -10.387  13.229  67.849  1.00  0.00    -0.239 C  
HETATM   10  C   UNL     1      -8.304  12.057  68.684  1.00  0.00    -0.036 C  
HETATM   11  C   UNL     1      -7.233  10.939  68.437  1.00  0.00    -0.087 C  
HETATM   12  C   UNL     1     -11.594  12.905  68.754  1.00  0.00    -0.351 C  
HETATM   13  C   UNL     1      -7.965   9.548  68.433  1.00  0.00    -0.093 C  
HETATM   14  C   UNL     1      -8.375   9.768  69.994  1.00  0.00    -0.211 C  
HETATM   15  C   UNL     1      -8.793   9.665  66.958  1.00  0.00    -0.142 C  
HETATM   16  C   UNL     1      -9.172   8.335  66.135  1.00  0.00    -0.192 C  
HETATM   17  C   UNL     1      -8.147   7.198  66.171  1.00  0.00    -0.121 C  
HETATM   18  O   UNL     1     -10.414   7.751  66.487  1.00  0.00    -0.492 OA 
HETATM   19  C   UNL     1      -7.745   6.795  67.575  1.00  0.00    -0.110 C  
HETATM   20  H   UNL     1     -10.638   6.967  66.001  1.00  0.00     0.000 HD 
HETATM   21  C   UNL     1      -8.931   6.086  68.458  1.00  0.00    -0.114 C  
HETATM   22  C   UNL     1      -9.253   7.253  69.329  1.00  0.00    -0.144 C  
HETATM   23  C   UNL     1      -8.899   4.862  69.082  1.00  0.00    -0.118 C  
HETATM   24  C   UNL     1      -7.679   7.384  69.776  1.00  0.00    -0.103 C  
HETATM   25  C   UNL     1      -9.056   4.805  70.625  1.00  0.00    -0.128 C  
HETATM   26  C   UNL     1      -9.558   3.629  68.512  1.00  0.00    -0.163 C  
HETATM   27  O   UNL     1      -9.647   3.652  71.012  1.00  0.00    -0.156 OA 
HETATM   28  C   UNL     1      -5.681   8.259  68.400  1.00  0.00    -0.034 C  
HETATM   29  C   UNL     1      -7.186   8.074  68.469  1.00  0.00    -0.085 C  
HETATM   30  O   UNL     1      -8.791   5.631  71.468  1.00  0.00    -0.135 OA 
ENDROOT
BRANCH  22  31
HETATM   31  O   UNL     1     -10.513   7.184  70.052  1.00  0.00    -0.210 OA 
BRANCH  31  32
HETATM   32  C   UNL     1     -10.907   8.289  70.785  1.00  0.00    -0.227 C  
HETATM   33  O   UNL     1     -11.408   9.296  70.286  1.00  0.00    -0.250 OA 
HETATM   34  C   UNL     1     -10.561   8.356  72.260  1.00  0.00    -0.412 C  
ENDBRANCH  31  32
ENDBRANCH  22  31
BRANCH  26  35
HETATM   35  C   UNL     1      -9.770   3.586  67.017  1.00  0.00    -0.049 C  
BRANCH  35  36
HETATM   36  C   UNL     1      -8.451   3.250  66.381  1.00  0.00    -0.108 C  
HETATM   37  C   UNL     1      -8.087   3.534  65.115  1.00  0.00    -0.093 C  
HETATM   38  C   UNL     1      -6.734   3.124  64.619  1.00  0.00    -0.040 C  
HETATM   39  C   UNL     1      -8.959   4.226  64.099  1.00  0.00    -0.148 C  
ENDBRANCH  35  36
ENDBRANCH  26  35
TORSDOF 4
ENDMDL
MODEL       34
REMARK 921   NORMALIZED FREE ENERGY PREDICTED BY IDOCK:   -5.55 KCAL/MOL
REMARK 922        TOTAL FREE ENERGY PREDICTED BY IDOCK:   -7.03 KCAL/MOL
REMARK 923 INTER-LIGAND FREE ENERGY PREDICTED BY IDOCK:   -6.33 KCAL/MOL
REMARK 924 INTRA-LIGAND FREE ENERGY PREDICTED BY IDOCK:   -0.70 KCAL/MOL
REMARK 927      BINDING AFFINITY PREDICTED BY RF-SCORE:    0.00 PKD
ROOT
HETATM    1  O   UNL     1      -9.397   5.053  74.088  1.00  0.00    -0.120 OA 
HETATM    2  H   UNL     1      -9.687   4.172  73.883  1.00  0.00     0.000 HD 
HETATM    3  C   UNL     1      -8.777   5.685  72.980  1.00  0.00    -0.121 C  
HETATM    4  C   UNL     1      -8.309   7.107  73.310  1.00  0.00    -0.139 C  
HETATM    5  C   UNL     1      -7.599   7.807  72.093  1.00  0.00    -0.093 C  
HETATM    6  C   UNL     1      -8.550   7.846  70.815  1.00  0.00    -0.132 C  
HETATM    7  C   UNL     1      -9.575   8.884  71.298  1.00  0.00    -0.348 C  
HETATM    8  C   UNL     1      -8.856   6.316  70.635  1.00  0.00    -0.144 C  
HETATM    9  C   UNL     1      -9.689   5.652  71.749  1.00  0.00    -0.192 C  
HETATM   10  C   UNL     1      -9.086   5.654  69.290  1.00  0.00    -0.128 C  
HETATM   11  C   UNL     1      -8.229   6.294  68.144  1.00  0.00    -0.115 C  
HETATM   12  C   UNL     1     -11.133   6.155  71.956  1.00  0.00    -0.322 C  
HETATM   13  C   UNL     1      -8.645   7.804  68.001  1.00  0.00    -0.123 C  
HETATM   14  C   UNL     1     -10.142   7.340  67.557  1.00  0.00    -0.250 C  
HETATM   15  C   UNL     1      -7.966   8.423  69.425  1.00  0.00    -0.112 C  
HETATM   16  C   UNL     1      -7.517   9.966  69.504  1.00  0.00    -0.112 C  
HETATM   17  C   UNL     1      -6.912  10.564  68.230  1.00  0.00    -0.073 C  
HETATM   18  O   UNL     1      -8.536  10.863  69.909  1.00  0.00    -0.243 OA 
HETATM   19  C   UNL     1      -7.787  10.380  67.006  1.00  0.00    -0.112 C  
HETATM   20  H   UNL     1      -8.270  11.774  69.956  1.00  0.00     0.000 HD 
HETATM   21  C   UNL     1      -9.195  11.220  67.029  1.00  0.00    -0.173 C  
HETATM   22  C   UNL     1     -10.101  10.077  67.339  1.00  0.00    -0.208 C  
HETATM   23  C   UNL     1      -9.656  12.116  66.094  1.00  0.00    -0.250 C  
HETATM   24  C   UNL     1      -9.514   9.233  66.060  1.00  0.00    -0.311 C  
HETATM   25  C   UNL     1     -10.982  11.804  65.351  1.00  0.00    -0.297 C  
HETATM   26  C   UNL     1      -9.579  13.612  66.278  1.00  0.00    -0.254 C  
HETATM   27  O   UNL     1     -11.630  12.942  65.013  1.00  0.00    -0.310 OA 
HETATM   28  C   UNL     1      -7.226   8.069  65.811  1.00  0.00    -0.071 C  
HETATM   29  C   UNL     1      -8.184   8.792  66.740  1.00  0.00    -0.108 C  
HETATM   30  O   UNL     1     -11.509  10.744  65.105  1.00  0.00     0.405 OA 
ENDROOT
BRANCH  22  31
HETATM   31  O   UNL     1     -11.436  10.426  67.801  1.00  0.00    -0.406 OA 
BRANCH  31  32
HETATM   32  C   UNL     1     -11.692  10.370  69.160  1.00  0.00    -0.119 C  
HETATM   33  O   UNL     1     -11.908   9.324  69.771  1.00  0.00     0.156 OA 
HETATM   34  C   UNL     1     -11.887  11.663  69.926  1.00  0.00    -0.434 C  
ENDBRANCH  31  32
ENDBRANCH  22  31
BRANCH  26  35
HETATM   35  C   UNL     1      -8.510  14.141  67.207  1.00  0.00    -0.228 C  
BRANCH  35  36
HETATM   36  C   UNL     1      -9.167  14.462  68.519  1.00  0.00    -0.198 C  
HETATM   37  C   UNL     1      -9.741  15.635  68.851  1.00  0.00    -0.220 C  
HETATM   38  C   UNL     1     -10.351  15.808  70.208  1.00  0.00    -0.159 C  
HETATM   39  C   UNL     1      -9.805  16.849  67.960  1.00  0.00    -0.264 C  
ENDBRANCH  35  36
ENDBRANCH  26  35
TORSDOF 4
ENDMDL
MODEL       35
REMARK 921   NORMALIZED FREE ENERGY PREDICTED BY IDOCK:   -5.53 KCAL/MOL
REMARK 922        TOTAL FREE ENERGY PREDICTED BY IDOCK:   -7.00 KCAL/MOL
REMARK 923 INTER-LIGAND FREE ENERGY PREDICTED BY IDOCK:   -6.19 KCAL/MOL
REMARK 924 INTRA-LIGAND FREE ENERGY PREDICTED BY IDOCK:   -0.81 KCAL/MOL
REMARK 927      BINDING AFFINITY PREDICTED BY RF-SCORE:    0.00 PKD
ROOT
HETATM    1  O   UNL     1      -7.776   4.283  63.861  1.00  0.00    -0.075 OA 
HETATM    2  H   UNL     1      -6.983   4.224  63.342  1.00  0.00     0.000 HD 
HETATM    3  C   UNL     1      -7.639   5.180  64.951  1.00  0.00    -0.078 C  
HETATM    4  C   UNL     1      -8.919   5.276  65.789  1.00  0.00    -0.154 C  
HETATM    5  C   UNL     1      -8.767   6.252  67.013  1.00  0.00    -0.108 C  
HETATM    6  C   UNL     1      -8.335   7.710  66.539  1.00  0.00    -0.129 C  
HETATM    7  C   UNL     1      -9.646   8.152  65.867  1.00  0.00    -0.011 C  
HETATM    8  C   UNL     1      -7.010   7.382  65.763  1.00  0.00    -0.061 C  
HETATM    9  C   UNL     1      -7.163   6.556  64.471  1.00  0.00    -0.064 C  
HETATM   10  C   UNL     1      -5.819   8.319  65.695  1.00  0.00    -0.044 C  
HETATM   11  C   UNL     1      -5.625   9.152  67.009  1.00  0.00    -0.041 C  
HETATM   12  C   UNL     1      -7.960   7.187  63.311  1.00  0.00    -0.072 C  
HETATM   13  C   UNL     1      -6.906  10.038  67.224  1.00  0.00    -0.082 C  
HETATM   14  C   UNL     1      -6.571  10.844  65.848  1.00  0.00    -0.048 C  
HETATM   15  C   UNL     1      -8.018   8.832  67.654  1.00  0.00    -0.106 C  
HETATM   16  C   UNL     1      -9.277   9.189  68.590  1.00  0.00    -0.136 C  
HETATM   17  C   UNL     1      -9.031  10.216  69.700  1.00  0.00    -0.190 C  
HETATM   18  O   UNL     1     -10.428   9.636  67.895  1.00  0.00    -0.216 OA 
HETATM   19  C   UNL     1      -8.425  11.510  69.197  1.00  0.00     0.214 C  
HETATM   20  H   UNL     1     -11.171   9.846  68.448  1.00  0.00     0.000 HD 
HETATM   21  C   UNL     1      -9.407  12.410  68.242  1.00  0.00    -0.199 C  
HETATM   22  C   UNL     1      -8.766  12.083  66.936  1.00  0.00    -0.193 C  
HETATM   23  C   UNL     1      -9.780  13.721  68.417  1.00  0.00    -0.219 C  
HETATM   24  C   UNL     1      -7.302  12.554  67.510  1.00  0.00    -0.151 C  
HETATM   25  C   UNL     1      -9.391  14.760  67.331  1.00  0.00    -0.197 C  
HETATM   26  C   UNL     1     -11.123  14.128  68.975  1.00  0.00    -0.292 C  
HETATM   27  O   UNL     1     -10.304  15.756  67.261  1.00  0.00    -0.276 OA 
HETATM   28  C   UNL     1      -5.767  11.344  69.193  1.00  0.00    -0.045 C  
HETATM   29  C   UNL     1      -7.023  11.268  68.344  1.00  0.00    -0.070 C  
HETATM   30  O   UNL     1      -8.470  14.763  66.548  1.00  0.00    -0.147 OA 
ENDROOT
BRANCH  22  31
HETATM   31  O   UNL     1      -9.541  12.399  65.746  1.00  0.00    -0.236 OA 
BRANCH  31  32
HETATM   32  C   UNL     1     -10.838  11.924  65.665  1.00  0.00    -0.286 C  
HETATM   33  O   UNL     1     -11.121  10.737  65.512  1.00  0.00     0.024 OA 
HETATM   34  C   UNL     1     -11.982  12.916  65.592  1.00  0.00    -0.490 C  
ENDBRANCH  31  32
ENDBRANCH  22  31
BRANCH  26  35
HETATM   35  C   UNL     1     -11.837  13.130  69.857  1.00  0.00    -0.378 C  
BRANCH  35  36
HETATM   36  C   UNL     1     -13.013  13.830  70.475  1.00  0.00    -0.120 C  
HETATM   37  C   UNL     1     -12.976  14.649  71.545  1.00  0.00    -0.410 C  
HETATM   38  C   UNL     1     -14.241  15.269  72.052  1.00  0.00    -0.679 C  
HETATM   39  C   UNL     1     -11.735  14.991  72.328  1.00  0.00    -0.423 C  
ENDBRANCH  35  36
ENDBRANCH  26  35
TORSDOF 4
ENDMDL
MODEL       36
REMARK 921   NORMALIZED FREE ENERGY PREDICTED BY IDOCK:   -5.35 KCAL/MOL
REMARK 922        TOTAL FREE ENERGY PREDICTED BY IDOCK:   -6.79 KCAL/MOL
REMARK 923 INTER-LIGAND FREE ENERGY PREDICTED BY IDOCK:   -5.84 KCAL/MOL
REMARK 924 INTRA-LIGAND FREE ENERGY PREDICTED BY IDOCK:   -0.95 KCAL/MOL
REMARK 927      BINDING AFFINITY PREDICTED BY RF-SCORE:    0.00 PKD
ROOT
HETATM    1  O   UNL     1     -13.023  14.882  66.226  1.00  0.00     0.100 OA 
HETATM    2  H   UNL     1     -12.778  15.676  66.687  1.00  0.00     0.000 HD 
HETATM    3  C   UNL     1     -11.901  14.069  65.924  1.00  0.00    -0.383 C  
HETATM    4  C   UNL     1     -12.296  12.788  65.180  1.00  0.00    -0.555 C  
HETATM    5  C   UNL     1     -11.054  11.892  64.821  1.00  0.00    -0.367 C  
HETATM    6  C   UNL     1     -10.220  11.511  66.125  1.00  0.00    -0.272 C  
HETATM    7  C   UNL     1     -11.211  10.534  66.778  1.00  0.00     0.071 C  
HETATM    8  C   UNL     1      -9.887  12.941  66.683  1.00  0.00    -0.250 C  
HETATM    9  C   UNL     1     -11.084  13.771  67.187  1.00  0.00    -0.315 C  
HETATM   10  C   UNL     1      -8.613  13.278  67.434  1.00  0.00    -0.204 C  
HETATM   11  C   UNL     1      -7.374  12.465  66.922  1.00  0.00     0.070 C  
HETATM   12  C   UNL     1     -11.872  13.227  68.396  1.00  0.00    -0.395 C  
HETATM   13  C   UNL     1      -7.660  10.935  67.148  1.00  0.00    -0.109 C  
HETATM   14  C   UNL     1      -7.695  11.187  68.757  1.00  0.00    -0.136 C  
HETATM   15  C   UNL     1      -8.842  10.688  65.958  1.00  0.00    -0.187 C  
HETATM   16  C   UNL     1      -9.033   9.233  65.298  1.00  0.00    -0.213 C  
HETATM   17  C   UNL     1      -7.758   8.416  65.070  1.00  0.00    -0.104 C  
HETATM   18  O   UNL     1      -9.925   8.377  65.990  1.00  0.00    -0.474 OA 
HETATM   19  C   UNL     1      -6.908   8.270  66.316  1.00  0.00    -0.065 C  
HETATM   20  H   UNL     1     -10.038   7.519  65.600  1.00  0.00     0.000 HD 
HETATM   21  C   UNL     1      -7.574   7.360  67.506  1.00  0.00    -0.106 C  
HETATM   22  C   UNL     1      -7.973   8.478  68.409  1.00  0.00    -0.118 C  
HETATM   23  C   UNL     1      -7.038   6.254  68.120  1.00  0.00    -0.082 C  
HETATM   24  C   UNL     1      -6.439   9.063  68.400  1.00  0.00    -0.055 C  
HETATM   25  C   UNL     1      -6.766   6.305  69.647  1.00  0.00    -0.053 C  
HETATM   26  C   UNL     1      -7.450   4.841  67.778  1.00  0.00    -0.078 C  
HETATM   27  O   UNL     1      -6.888   5.079  70.204  1.00  0.00    -0.042 OA 
HETATM   28  C   UNL     1      -5.197  10.300  66.509  1.00  0.00    -0.042 C  
HETATM   29  C   UNL     1      -6.517   9.731  66.995  1.00  0.00    -0.066 C  
HETATM   30  O   UNL     1      -6.534   7.247  70.367  1.00  0.00    -0.041 OA 
ENDROOT
BRANCH  22  31
HETATM   31  O   UNL     1      -8.929   8.147  69.454  1.00  0.00    -0.146 OA 
BRANCH  31  32
HETATM   32  C   UNL     1      -9.293   9.141  70.345  1.00  0.00    -0.232 C  
HETATM   33  O   UNL     1      -8.621   9.458  71.325  1.00  0.00    -0.299 OA 
HETATM   34  C   UNL     1     -10.666   9.771  70.223  1.00  0.00    -0.358 C  
ENDBRANCH  31  32
ENDBRANCH  22  31
BRANCH  26  35
HETATM   35  C   UNL     1      -8.023   4.602  66.401  1.00  0.00    -0.103 C  
BRANCH  35  36
HETATM   36  C   UNL     1      -6.874   4.537  65.436  1.00  0.00    -0.057 C  
HETATM   37  C   UNL     1      -6.947   4.723  64.103  1.00  0.00    -0.049 C  
HETATM   38  C   UNL     1      -5.709   4.617  63.268  1.00  0.00    -0.017 C  
HETATM   39  C   UNL     1      -8.213   5.011  63.339  1.00  0.00    -0.109 C  
ENDBRANCH  35  36
ENDBRANCH  26  35
TORSDOF 4
ENDMDL
MODEL       37
REMARK 921   NORMALIZED FREE ENERGY PREDICTED BY IDOCK:   -5.33 KCAL/MOL
REMARK 922        TOTAL FREE ENERGY PREDICTED BY IDOCK:   -6.75 KCAL/MOL
REMARK 923 INTER-LIGAND FREE ENERGY PREDICTED BY IDOCK:   -5.98 KCAL/MOL
REMARK 924 INTRA-LIGAND FREE ENERGY PREDICTED BY IDOCK:   -0.78 KCAL/MOL
REMARK 927      BINDING AFFINITY PREDICTED BY RF-SCORE:    0.00 PKD
ROOT
HETATM    1  O   UNL     1      -8.197   1.474  72.751  1.00  0.00    -0.050 OA 
HETATM    2  H   UNL     1      -8.114   1.546  73.695  1.00  0.00     0.000 HD 
HETATM    3  C   UNL     1      -8.903   2.568  72.189  1.00  0.00    -0.070 C  
HETATM    4  C   UNL     1      -9.037   2.453  70.666  1.00  0.00    -0.177 C  
HETATM    5  C   UNL     1      -9.840   3.650  70.038  1.00  0.00    -0.046 C  
HETATM    6  C   UNL     1      -9.172   5.050  70.406  1.00  0.00    -0.198 C  
HETATM    7  C   UNL     1      -7.904   4.955  69.543  1.00  0.00    -0.067 C  
HETATM    8  C   UNL     1      -9.184   4.972  71.975  1.00  0.00    -0.160 C  
HETATM    9  C   UNL     1      -8.276   3.902  72.611  1.00  0.00    -0.094 C  
HETATM   10  C   UNL     1      -9.347   6.180  72.878  1.00  0.00    -0.143 C  
HETATM   11  C   UNL     1     -10.288   7.274  72.265  1.00  0.00    -0.239 C  
HETATM   12  C   UNL     1      -6.754   4.037  72.396  1.00  0.00    -0.036 C  
HETATM   13  C   UNL     1      -9.648   7.777  70.920  1.00  0.00    -0.173 C  
HETATM   14  C   UNL     1      -8.376   8.361  71.753  1.00  0.00    -0.212 C  
HETATM   15  C   UNL     1      -9.909   6.411  69.951  1.00  0.00    -0.191 C  
HETATM   16  C   UNL     1     -10.054   6.566  68.356  1.00  0.00    -0.160 C  
HETATM   17  C   UNL     1     -10.785   7.816  67.857  1.00  0.00    -0.165 C  
HETATM   18  O   UNL     1      -8.833   6.517  67.639  1.00  0.00    -0.115 OA 
HETATM   19  C   UNL     1     -10.218   9.106  68.415  1.00  0.00    -0.230 C  
HETATM   20  H   UNL     1      -8.918   6.608  66.698  1.00  0.00     0.000 HD 
HETATM   21  C   UNL     1      -8.709   9.480  67.897  1.00  0.00    -0.119 C  
HETATM   22  C   UNL     1      -7.975   9.103  69.140  1.00  0.00    -0.097 C  
HETATM   23  C   UNL     1      -8.292  10.636  67.281  1.00  0.00    -0.120 C  
HETATM   24  C   UNL     1      -8.945  10.078  70.036  1.00  0.00    -0.121 C  
HETATM   25  C   UNL     1      -7.217  11.509  67.980  1.00  0.00    -0.085 C  
HETATM   26  C   UNL     1      -8.065  10.740  65.792  1.00  0.00    -0.135 C  
HETATM   27  O   UNL     1      -6.459  12.166  67.073  1.00  0.00    -0.150 OA 
HETATM   28  C   UNL     1     -11.406   9.714  70.718  1.00  0.00    -0.409 C  
HETATM   29  C   UNL     1     -10.170   9.115  70.072  1.00  0.00    -0.229 C  
HETATM   30  O   UNL     1      -6.946  11.625  69.153  1.00  0.00    -0.106 OA 
ENDROOT
BRANCH  22  31
HETATM   31  O   UNL     1      -6.535   8.944  69.010  1.00  0.00    -0.046 OA 
BRANCH  31  32
HETATM   32  C   UNL     1      -6.061   7.937  68.188  1.00  0.00    -0.042 C  
HETATM   33  O   UNL     1      -6.010   6.753  68.518  1.00  0.00    -0.023 OA 
HETATM   34  C   UNL     1      -5.410   8.308  66.870  1.00  0.00    -0.032 C  
ENDBRANCH  31  32
ENDBRANCH  22  31
BRANCH  26  35
HETATM   35  C   UNL     1      -8.816   9.771  64.908  1.00  0.00    -0.230 C  
BRANCH  35  36
HETATM   36  C   UNL     1      -9.706  10.576  64.006  1.00  0.00    -0.383 C  
HETATM   37  C   UNL     1     -10.739  11.349  64.395  1.00  0.00    -0.405 C  
HETATM   38  C   UNL     1     -11.543  12.089  63.370  1.00  0.00    -0.495 C  
HETATM   39  C   UNL     1     -11.199  11.524  65.819  1.00  0.00    -0.228 C  
ENDBRANCH  35  36
ENDBRANCH  26  35
TORSDOF 4
ENDMDL
MODEL       38
REMARK 921   NORMALIZED FREE ENERGY PREDICTED BY IDOCK:   -5.30 KCAL/MOL
REMARK 922        TOTAL FREE ENERGY PREDICTED BY IDOCK:   -6.73 KCAL/MOL
REMARK 923 INTER-LIGAND FREE ENERGY PREDICTED BY IDOCK:   -6.36 KCAL/MOL
REMARK 924 INTRA-LIGAND FREE ENERGY PREDICTED BY IDOCK:   -0.37 KCAL/MOL
REMARK 927      BINDING AFFINITY PREDICTED BY RF-SCORE:    0.00 PKD
ROOT
HETATM    1  O   UNL     1      -6.569   4.726  62.616  1.00  0.00    -0.025 OA 
HETATM    2  H   UNL     1      -5.836   5.106  62.145  1.00  0.00     0.000 HD 
HETATM    3  C   UNL     1      -6.653   5.199  63.950  1.00  0.00    -0.034 C  
HETATM    4  C   UNL     1      -7.835   4.586  64.710  1.00  0.00    -0.086 C  
HETATM    5  C   UNL     1      -7.922   5.088  66.198  1.00  0.00    -0.107 C  
HETATM    6  C   UNL     1      -8.015   6.677  66.268  1.00  0.00    -0.108 C  
HETATM    7  C   UNL     1      -9.440   6.867  65.724  1.00  0.00     0.243 C  
HETATM    8  C   UNL     1      -6.710   7.077  65.490  1.00  0.00    -0.052 C  
HETATM    9  C   UNL     1      -6.678   6.731  63.989  1.00  0.00    -0.045 C  
HETATM   10  C   UNL     1      -5.890   8.316  65.799  1.00  0.00    -0.041 C  
HETATM   11  C   UNL     1      -5.885   8.675  67.326  1.00  0.00    -0.043 C  
HETATM   12  C   UNL     1      -7.713   7.419  63.075  1.00  0.00    -0.129 C  
HETATM   13  C   UNL     1      -7.365   8.970  67.768  1.00  0.00    -0.084 C  
HETATM   14  C   UNL     1      -7.401  10.253  66.765  1.00  0.00    -0.106 C  
HETATM   15  C   UNL     1      -7.998   7.398  67.711  1.00  0.00    -0.118 C  
HETATM   16  C   UNL     1      -9.238   6.991  68.652  1.00  0.00    -0.131 C  
HETATM   17  C   UNL     1      -9.259   7.606  70.054  1.00  0.00    -0.151 C  
HETATM   18  O   UNL     1     -10.516   7.245  68.096  1.00  0.00    -0.194 OA 
HETATM   19  C   UNL     1      -9.136   9.116  70.049  1.00  0.00    -0.207 C  
HETATM   20  H   UNL     1     -11.248   7.004  68.652  1.00  0.00     0.000 HD 
HETATM   21  C   UNL     1     -10.419   9.913  69.411  1.00  0.00    -0.250 C  
HETATM   22  C   UNL     1      -9.798  10.271  68.103  1.00  0.00    -0.148 C  
HETATM   23  C   UNL     1     -11.180  10.893  70.002  1.00  0.00    -0.340 C  
HETATM   24  C   UNL     1      -8.527  10.970  68.871  1.00  0.00    -0.124 C  
HETATM   25  C   UNL     1     -11.221  12.302  69.353  1.00  0.00    -0.176 C  
HETATM   26  C   UNL     1     -12.541  10.629  70.601  1.00  0.00    -0.454 C  
HETATM   27  O   UNL     1     -12.407  12.909  69.581  1.00  0.00    -0.173 OA 
HETATM   28  C   UNL     1      -6.573   9.834  70.115  1.00  0.00    -0.091 C  
HETATM   29  C   UNL     1      -7.793   9.643  69.232  1.00  0.00    -0.098 C  
HETATM   30  O   UNL     1     -10.405  12.867  68.662  1.00  0.00    -0.240 OA 
ENDROOT
BRANCH  22  31
HETATM   31  O   UNL     1     -10.713  10.698  67.056  1.00  0.00    -0.257 OA 
BRANCH  31  32
HETATM   32  C   UNL     1     -10.176  11.121  65.852  1.00  0.00    -0.251 C  
HETATM   33  O   UNL     1      -9.978  12.301  65.571  1.00  0.00    -0.252 OA 
HETATM   34  C   UNL     1      -9.969  10.108  64.743  1.00  0.00    -0.334 C  
ENDBRANCH  31  32
ENDBRANCH  22  31
BRANCH  26  35
HETATM   35  C   UNL     1     -12.834   9.219  71.058  1.00  0.00    -0.200 C  
BRANCH  35  36
HETATM   36  C   UNL     1     -11.843   8.874  72.133  1.00  0.00    -0.417 C  
HETATM   37  C   UNL     1     -11.462   7.632  72.490  1.00  0.00    -0.405 C  
HETATM   38  C   UNL     1     -10.465   7.448  73.593  1.00  0.00    -0.350 C  
HETATM   39  C   UNL     1     -11.986   6.358  71.880  1.00  0.00    -0.381 C  
ENDBRANCH  35  36
ENDBRANCH  26  35
TORSDOF 4
ENDMDL
MODEL       39
REMARK 921   NORMALIZED FREE ENERGY PREDICTED BY IDOCK:   -5.26 KCAL/MOL
REMARK 922        TOTAL FREE ENERGY PREDICTED BY IDOCK:   -6.66 KCAL/MOL
REMARK 923 INTER-LIGAND FREE ENERGY PREDICTED BY IDOCK:   -5.72 KCAL/MOL
REMARK 924 INTRA-LIGAND FREE ENERGY PREDICTED BY IDOCK:   -0.94 KCAL/MOL
REMARK 927      BINDING AFFINITY PREDICTED BY RF-SCORE:    0.00 PKD
ROOT
HETATM    1  O   UNL     1     -10.480  14.281  67.600  1.00  0.00    -0.246 OA 
HETATM    2  H   UNL     1      -9.910  14.781  67.027  1.00  0.00     0.000 HD 
HETATM    3  C   UNL     1     -10.523  12.908  67.249  1.00  0.00    -0.234 C  
HETATM    4  C   UNL     1     -11.443  12.101  68.173  1.00  0.00    -0.375 C  
HETATM    5  C   UNL     1     -11.514  10.581  67.776  1.00  0.00    -0.143 C  
HETATM    6  C   UNL     1     -10.065   9.918  67.761  1.00  0.00    -0.221 C  
HETATM    7  C   UNL     1      -9.785   9.898  69.273  1.00  0.00    -0.218 C  
HETATM    8  C   UNL     1      -9.329  10.855  66.737  1.00  0.00    -0.185 C  
HETATM    9  C   UNL     1      -9.112  12.314  67.182  1.00  0.00    -0.193 C  
HETATM   10  C   UNL     1      -8.234  10.383  65.799  1.00  0.00    -0.156 C  
HETATM   11  C   UNL     1      -8.447   8.908  65.311  1.00  0.00    -0.185 C  
HETATM   12  C   UNL     1      -8.210  12.559  68.409  1.00  0.00    -0.136 C  
HETATM   13  C   UNL     1      -8.426   7.964  66.568  1.00  0.00    -0.134 C  
HETATM   14  C   UNL     1      -6.874   8.376  66.841  1.00  0.00    -0.069 C  
HETATM   15  C   UNL     1      -9.910   8.390  67.268  1.00  0.00    -0.264 C  
HETATM   16  C   UNL     1     -10.706   7.331  68.182  1.00  0.00    -0.134 C  
HETATM   17  C   UNL     1     -10.637   5.866  67.743  1.00  0.00    -0.331 C  
HETATM   18  O   UNL     1     -10.353   7.343  69.554  1.00  0.00    -0.205 OA 
HETATM   19  C   UNL     1      -9.221   5.363  67.550  1.00  0.00    -0.114 C  
HETATM   20  H   UNL     1     -10.823   6.719  70.093  1.00  0.00     0.000 HD 
HETATM   21  C   UNL     1      -8.332   5.251  68.923  1.00  0.00    -0.092 C  
HETATM   22  C   UNL     1      -7.491   6.464  68.713  1.00  0.00    -0.088 C  
HETATM   23  C   UNL     1      -7.681   4.146  69.416  1.00  0.00    -0.053 C  
HETATM   24  C   UNL     1      -7.033   5.919  67.233  1.00  0.00    -0.069 C  
HETATM   25  C   UNL     1      -6.139   4.199  69.580  1.00  0.00    -0.023 C  
HETATM   26  C   UNL     1      -8.229   3.301  70.541  1.00  0.00    -0.072 C  
HETATM   27  O   UNL     1      -5.731   3.419  70.607  1.00  0.00    -0.012 OA 
HETATM   28  C   UNL     1      -8.411   5.821  65.055  1.00  0.00    -0.124 C  
HETATM   29  C   UNL     1      -8.351   6.300  66.494  1.00  0.00    -0.114 C  
HETATM   30  O   UNL     1      -5.312   4.851  68.986  1.00  0.00    -0.003 OA 
ENDROOT
BRANCH  22  31
HETATM   31  O   UNL     1      -6.777   6.957  69.880  1.00  0.00    -0.046 OA 
BRANCH  31  32
HETATM   32  C   UNL     1      -7.432   7.839  70.722  1.00  0.00    -0.070 C  
HETATM   33  O   UNL     1      -8.374   7.520  71.444  1.00  0.00    -0.106 OA 
HETATM   34  C   UNL     1      -7.097   9.316  70.645  1.00  0.00    -0.111 C  
ENDBRANCH  31  32
ENDBRANCH  22  31
BRANCH  26  35
HETATM   35  C   UNL     1      -9.725   3.317  70.754  1.00  0.00    -0.173 C  
BRANCH  35  36
HETATM   36  C   UNL     1     -10.018   4.302  71.849  1.00  0.00    -0.255 C  
HETATM   37  C   UNL     1     -10.657   4.034  73.005  1.00  0.00    -0.256 C  
HETATM   38  C   UNL     1     -10.883   5.129  74.002  1.00  0.00    -0.244 C  
HETATM   39  C   UNL     1     -11.216   2.689  73.392  1.00  0.00    -0.267 C  
ENDBRANCH  35  36
ENDBRANCH  26  35
TORSDOF 4
ENDMDL
MODEL       40
REMARK 921   NORMALIZED FREE ENERGY PREDICTED BY IDOCK:   -5.24 KCAL/MOL
REMARK 922        TOTAL FREE ENERGY PREDICTED BY IDOCK:   -6.65 KCAL/MOL
REMARK 923 INTER-LIGAND FREE ENERGY PREDICTED BY IDOCK:   -5.77 KCAL/MOL
REMARK 924 INTRA-LIGAND FREE ENERGY PREDICTED BY IDOCK:   -0.88 KCAL/MOL
REMARK 927      BINDING AFFINITY PREDICTED BY RF-SCORE:    0.00 PKD
ROOT
HETATM    1  O   UNL     1      -7.006   3.774  62.420  1.00  0.00    -0.033 OA 
HETATM    2  H   UNL     1      -6.249   3.211  62.303  1.00  0.00     0.000 HD 
HETATM    3  C   UNL     1      -7.593   3.623  63.702  1.00  0.00    -0.063 C  
HETATM    4  C   UNL     1      -8.814   4.532  63.892  1.00  0.00    -0.144 C  
HETATM    5  C   UNL     1      -9.486   4.353  65.303  1.00  0.00    -0.172 C  
HETATM    6  C   UNL     1      -8.442   4.618  66.477  1.00  0.00    -0.109 C  
HETATM    7  C   UNL     1      -8.280   6.139  66.328  1.00  0.00    -0.116 C  
HETATM    8  C   UNL     1      -7.329   3.570  66.117  1.00  0.00    -0.072 C  
HETATM    9  C   UNL     1      -6.553   3.822  64.810  1.00  0.00    -0.043 C  
HETATM   10  C   UNL     1      -6.476   2.856  67.149  1.00  0.00    -0.036 C  
HETATM   11  C   UNL     1      -7.252   2.564  68.480  1.00  0.00    -0.048 C  
HETATM   12  C   UNL     1      -5.701   5.105  64.722  1.00  0.00    -0.017 C  
HETATM   13  C   UNL     1      -7.693   3.937  69.105  1.00  0.00    -0.053 C  
HETATM   14  C   UNL     1      -6.128   4.342  69.302  1.00  0.00    -0.027 C  
HETATM   15  C   UNL     1      -8.905   4.375  68.004  1.00  0.00    -0.125 C  
HETATM   16  C   UNL     1     -10.118   5.324  68.470  1.00  0.00    -0.165 C  
HETATM   17  C   UNL     1     -10.636   5.115  69.896  1.00  0.00    -0.196 C  
HETATM   18  O   UNL     1      -9.868   6.714  68.348  1.00  0.00    -0.135 OA 
HETATM   19  C   UNL     1      -9.547   5.177  70.947  1.00  0.00    -0.235 C  
HETATM   20  H   UNL     1     -10.584   7.274  68.622  1.00  0.00     0.000 HD 
HETATM   21  C   UNL     1      -8.862   6.653  71.148  1.00  0.00    -0.137 C  
HETATM   22  C   UNL     1      -7.584   6.377  70.431  1.00  0.00    -0.096 C  
HETATM   23  C   UNL     1      -8.755   7.380  72.309  1.00  0.00    -0.138 C  
HETATM   24  C   UNL     1      -7.311   5.063  71.375  1.00  0.00    -0.077 C  
HETATM   25  C   UNL     1      -7.340   7.728  72.845  1.00  0.00    -0.088 C  
HETATM   26  C   UNL     1      -9.665   8.537  72.644  1.00  0.00    -0.285 C  
HETATM   27  O   UNL     1      -7.350   8.900  73.519  1.00  0.00    -0.367 OA 
HETATM   28  C   UNL     1      -8.482   2.765  71.316  1.00  0.00    -0.093 C  
HETATM   29  C   UNL     1      -8.309   4.116  70.644  1.00  0.00    -0.086 C  
HETATM   30  O   UNL     1      -6.287   7.155  72.697  1.00  0.00    -0.052 OA 
ENDROOT
BRANCH  22  31
HETATM   31  O   UNL     1      -6.796   7.541  70.057  1.00  0.00    -0.049 OA 
BRANCH  31  32
HETATM   32  C   UNL     1      -7.278   8.360  69.051  1.00  0.00    -0.070 C  
HETATM   33  O   UNL     1      -8.406   8.850  69.051  1.00  0.00    -0.120 OA 
HETATM   34  C   UNL     1      -6.452   8.544  67.793  1.00  0.00    -0.061 C  
ENDBRANCH  31  32
ENDBRANCH  22  31
BRANCH  26  35
HETATM   35  C   UNL     1     -11.030   8.554  71.995  1.00  0.00    -0.410 C  
BRANCH  35  36
HETATM   36  C   UNL     1     -11.032   9.653  70.971  1.00  0.00    -0.431 C  
HETATM   37  C   UNL     1     -11.965  10.618  70.847  1.00  0.00    -0.469 C  
HETATM   38  C   UNL     1     -11.834  11.645  69.765  1.00  0.00    -0.428 C  
HETATM   39  C   UNL     1     -13.193  10.750  71.711  1.00  0.00    -0.523 C  
ENDBRANCH  35  36
ENDBRANCH  26  35
TORSDOF 4
ENDMDL
MODEL       41
REMARK 921   NORMALIZED FREE ENERGY PREDICTED BY IDOCK:   -5.20 KCAL/MOL
REMARK 922        TOTAL FREE ENERGY PREDICTED BY IDOCK:   -6.60 KCAL/MOL
REMARK 923 INTER-LIGAND FREE ENERGY PREDICTED BY IDOCK:   -5.26 KCAL/MOL
REMARK 924 INTRA-LIGAND FREE ENERGY PREDICTED BY IDOCK:   -1.34 KCAL/MOL
REMARK 927      BINDING AFFINITY PREDICTED BY RF-SCORE:    0.00 PKD
ROOT
HETATM    1  O   UNL     1      -9.886   3.329  73.661  1.00  0.00    -0.104 OA 
HETATM    2  H   UNL     1     -10.160   3.666  74.506  1.00  0.00     0.000 HD 
HETATM    3  C   UNL     1     -10.252   4.190  72.595  1.00  0.00    -0.169 C  
HETATM    4  C   UNL     1      -9.810   3.645  71.231  1.00  0.00    -0.211 C  
HETATM    5  C   UNL     1     -10.233   4.583  70.041  1.00  0.00    -0.080 C  
HETATM    6  C   UNL     1      -9.657   6.057  70.235  1.00  0.00    -0.194 C  
HETATM    7  C   UNL     1      -8.167   5.777  69.981  1.00  0.00    -0.115 C  
HETATM    8  C   UNL     1     -10.264   6.422  71.636  1.00  0.00    -0.221 C  
HETATM    9  C   UNL     1      -9.739   5.613  72.838  1.00  0.00    -0.169 C  
HETATM   10  C   UNL     1     -10.671   7.827  72.039  1.00  0.00    -0.282 C  
HETATM   11  C   UNL     1     -11.234   8.663  70.838  1.00  0.00    -0.311 C  
HETATM   12  C   UNL     1      -8.243   5.748  73.190  1.00  0.00    -0.117 C  
HETATM   13  C   UNL     1     -10.102   8.796  69.755  1.00  0.00    -0.198 C  
HETATM   14  C   UNL     1      -9.200   9.643  70.814  1.00  0.00    -0.059 C  
HETATM   15  C   UNL     1     -10.073   7.202  69.177  1.00  0.00    -0.183 C  
HETATM   16  C   UNL     1      -9.595   6.896  67.671  1.00  0.00    -0.126 C  
HETATM   17  C   UNL     1      -9.996   7.924  66.608  1.00  0.00    -0.316 C  
HETATM   18  O   UNL     1      -8.200   6.701  67.517  1.00  0.00    -0.120 OA 
HETATM   19  C   UNL     1      -9.593   9.341  66.961  1.00  0.00    -0.223 C  
HETATM   20  H   UNL     1      -7.918   6.520  66.628  1.00  0.00     0.000 HD 
HETATM   21  C   UNL     1      -7.978   9.619  66.976  1.00  0.00    -0.109 C  
HETATM   22  C   UNL     1      -7.794   9.638  68.455  1.00  0.00    -0.085 C  
HETATM   23  C   UNL     1      -7.281  10.572  66.272  1.00  0.00    -0.133 C  
HETATM   24  C   UNL     1      -8.960  10.783  68.609  1.00  0.00    -0.162 C  
HETATM   25  C   UNL     1      -6.490  11.652  67.057  1.00  0.00    -0.148 C  
HETATM   26  C   UNL     1      -6.503  10.263  65.015  1.00  0.00    -0.120 C  
HETATM   27  O   UNL     1      -5.403  12.060  66.364  1.00  0.00    -0.316 OA 
HETATM   28  C   UNL     1     -11.516  10.521  68.375  1.00  0.00    -0.285 C  
HETATM   29  C   UNL     1     -10.172   9.818  68.440  1.00  0.00    -0.210 C  
HETATM   30  O   UNL     1      -6.674  12.104  68.163  1.00  0.00    -0.061 OA 
ENDROOT
BRANCH  22  31
HETATM   31  O   UNL     1      -6.426   9.511  68.932  1.00  0.00    -0.046 OA 
BRANCH  31  32
HETATM   32  C   UNL     1      -5.978   8.255  69.302  1.00  0.00    -0.038 C  
HETATM   33  O   UNL     1      -5.731   7.355  68.502  1.00  0.00    -0.022 OA 
HETATM   34  C   UNL     1      -5.941   7.891  70.774  1.00  0.00    -0.033 C  
ENDBRANCH  31  32
ENDBRANCH  22  31
BRANCH  26  35
HETATM   35  C   UNL     1      -6.931   9.054  64.216  1.00  0.00    -0.090 C  
BRANCH  35  36
HETATM   36  C   UNL     1      -6.084   7.895  64.657  1.00  0.00    -0.048 C  
HETATM   37  C   UNL     1      -6.409   6.591  64.551  1.00  0.00    -0.038 C  
HETATM   38  C   UNL     1      -5.458   5.545  65.046  1.00  0.00    -0.013 C  
HETATM   39  C   UNL     1      -7.703   6.066  63.986  1.00  0.00    -0.105 C  
ENDBRANCH  35  36
ENDBRANCH  26  35
TORSDOF 4
ENDMDL
MODEL       42
REMARK 921   NORMALIZED FREE ENERGY PREDICTED BY IDOCK:   -5.19 KCAL/MOL
REMARK 922        TOTAL FREE ENERGY PREDICTED BY IDOCK:   -6.58 KCAL/MOL
REMARK 923 INTER-LIGAND FREE ENERGY PREDICTED BY IDOCK:   -5.33 KCAL/MOL
REMARK 924 INTRA-LIGAND FREE ENERGY PREDICTED BY IDOCK:   -1.25 KCAL/MOL
REMARK 927      BINDING AFFINITY PREDICTED BY RF-SCORE:    0.00 PKD
ROOT
HETATM    1  O   UNL     1      -6.309  10.619  63.545  1.00  0.00    -0.346 OA 
HETATM    2  H   UNL     1      -6.401  11.564  63.568  1.00  0.00     0.000 HD 
HETATM    3  C   UNL     1      -6.089  10.069  64.834  1.00  0.00    -0.116 C  
HETATM    4  C   UNL     1      -5.940   8.544  64.797  1.00  0.00    -0.063 C  
HETATM    5  C   UNL     1      -5.673   7.929  66.220  1.00  0.00    -0.036 C  
HETATM    6  C   UNL     1      -6.828   8.323  67.245  1.00  0.00    -0.070 C  
HETATM    7  C   UNL     1      -7.970   7.467  66.675  1.00  0.00    -0.121 C  
HETATM    8  C   UNL     1      -6.768   9.890  67.160  1.00  0.00    -0.074 C  
HETATM    9  C   UNL     1      -7.181  10.515  65.813  1.00  0.00    -0.135 C  
HETATM   10  C   UNL     1      -7.076  10.810  68.326  1.00  0.00    -0.078 C  
HETATM   11  C   UNL     1      -6.641  10.208  69.706  1.00  0.00    -0.080 C  
HETATM   12  C   UNL     1      -8.638  10.313  65.349  1.00  0.00    -0.169 C  
HETATM   13  C   UNL     1      -7.443   8.875  69.937  1.00  0.00    -0.058 C  
HETATM   14  C   UNL     1      -8.832   9.726  69.970  1.00  0.00    -0.245 C  
HETATM   15  C   UNL     1      -6.683   7.883  68.791  1.00  0.00    -0.057 C  
HETATM   16  C   UNL     1      -6.629   6.290  69.009  1.00  0.00    -0.048 C  
HETATM   17  C   UNL     1      -6.448   5.806  70.450  1.00  0.00    -0.036 C  
HETATM   18  O   UNL     1      -7.745   5.581  68.497  1.00  0.00    -0.083 OA 
HETATM   19  C   UNL     1      -7.464   6.387  71.412  1.00  0.00    -0.089 C  
HETATM   20  H   UNL     1      -7.713   4.641  68.625  1.00  0.00     0.000 HD 
HETATM   21  C   UNL     1      -9.007   5.886  71.175  1.00  0.00    -0.145 C  
HETATM   22  C   UNL     1      -9.521   7.127  70.529  1.00  0.00    -0.162 C  
HETATM   23  C   UNL     1      -9.847   5.290  72.085  1.00  0.00    -0.216 C  
HETATM   24  C   UNL     1      -8.995   8.032  71.793  1.00  0.00    -0.194 C  
HETATM   25  C   UNL     1     -11.169   6.010  72.464  1.00  0.00    -0.290 C  
HETATM   26  C   UNL     1     -10.115   3.804  72.110  1.00  0.00    -0.220 C  
HETATM   27  O   UNL     1     -12.134   5.118  72.785  1.00  0.00    -0.132 OA 
HETATM   28  C   UNL     1      -6.579   8.692  72.407  1.00  0.00    -0.066 C  
HETATM   29  C   UNL     1      -7.493   8.045  71.382  1.00  0.00    -0.071 C  
HETATM   30  O   UNL     1     -11.449   7.186  72.452  1.00  0.00    -0.262 OA 
ENDROOT
BRANCH  22  31
HETATM   31  O   UNL     1     -10.788   7.004  69.824  1.00  0.00    -0.232 OA 
BRANCH  31  32
HETATM   32  C   UNL     1     -10.760   6.639  68.489  1.00  0.00    -0.256 C  
HETATM   33  O   UNL     1     -10.590   5.485  68.101  1.00  0.00    -0.195 OA 
HETATM   34  C   UNL     1     -10.770   7.723  67.429  1.00  0.00    -0.300 C  
ENDBRANCH  31  32
ENDBRANCH  22  31
BRANCH  26  35
HETATM   35  C   UNL     1      -9.057   2.901  71.520  1.00  0.00    -0.170 C  
BRANCH  35  36
HETATM   36  C   UNL     1      -9.421   2.653  70.084  1.00  0.00    -0.161 C  
HETATM   37  C   UNL     1      -8.564   2.339  69.093  1.00  0.00    -0.111 C  
HETATM   38  C   UNL     1      -9.079   2.129  67.702  1.00  0.00    -0.204 C  
HETATM   39  C   UNL     1      -7.072   2.201  69.252  1.00  0.00    -0.040 C  
ENDBRANCH  35  36
ENDBRANCH  26  35
TORSDOF 4
ENDMDL
MODEL       43
REMARK 921   NORMALIZED FREE ENERGY PREDICTED BY IDOCK:   -5.19 KCAL/MOL
REMARK 922        TOTAL FREE ENERGY PREDICTED BY IDOCK:   -6.58 KCAL/MOL
REMARK 923 INTER-LIGAND FREE ENERGY PREDICTED BY IDOCK:   -5.83 KCAL/MOL
REMARK 924 INTRA-LIGAND FREE ENERGY PREDICTED BY IDOCK:   -0.75 KCAL/MOL
REMARK 927      BINDING AFFINITY PREDICTED BY RF-SCORE:    0.00 PKD
ROOT
HETATM    1  O   UNL     1      -5.594   6.490  67.248  1.00  0.00    -0.012 OA 
HETATM    2  H   UNL     1      -6.062   5.718  66.951  1.00  0.00     0.000 HD 
HETATM    3  C   UNL     1      -6.196   7.690  66.790  1.00  0.00    -0.049 C  
HETATM    4  C   UNL     1      -5.442   8.936  67.271  1.00  0.00    -0.038 C  
HETATM    5  C   UNL     1      -6.089  10.271  66.748  1.00  0.00    -0.062 C  
HETATM    6  C   UNL     1      -7.620  10.379  67.178  1.00  0.00    -0.096 C  
HETATM    7  C   UNL     1      -7.438  10.616  68.687  1.00  0.00    -0.098 C  
HETATM    8  C   UNL     1      -8.190   9.057  66.553  1.00  0.00    -0.114 C  
HETATM    9  C   UNL     1      -7.681   7.738  67.165  1.00  0.00    -0.105 C  
HETATM   10  C   UNL     1      -9.602   8.919  66.014  1.00  0.00    -0.320 C  
HETATM   11  C   UNL     1     -10.134  10.242  65.361  1.00  0.00    -0.354 C  
HETATM   12  C   UNL     1      -8.020   7.460  68.644  1.00  0.00    -0.123 C  
HETATM   13  C   UNL     1     -10.161  11.361  66.465  1.00  0.00    -0.250 C  
HETATM   14  C   UNL     1     -11.277  10.509  67.290  1.00  0.00    -0.202 C  
HETATM   15  C   UNL     1      -8.495  11.624  66.644  1.00  0.00    -0.165 C  
HETATM   16  C   UNL     1      -7.951  13.057  67.135  1.00  0.00    -0.087 C  
HETATM   17  C   UNL     1      -8.712  14.284  66.626  1.00  0.00    -0.098 C  
HETATM   18  O   UNL     1      -7.861  13.210  68.541  1.00  0.00    -0.134 OA 
HETATM   19  C   UNL     1     -10.202  14.221  66.892  1.00  0.00    -0.266 C  
HETATM   20  H   UNL     1      -7.540  14.055  68.831  1.00  0.00     0.000 HD 
HETATM   21  C   UNL     1     -10.628  14.305  68.473  1.00  0.00    -0.260 C  
HETATM   22  C   UNL     1     -10.949  12.861  68.668  1.00  0.00    -0.261 C  
HETATM   23  C   UNL     1     -11.488  15.197  69.067  1.00  0.00    -0.325 C  
HETATM   24  C   UNL     1     -11.988  12.897  67.397  1.00  0.00    -0.360 C  
HETATM   25  C   UNL     1     -12.769  14.654  69.756  1.00  0.00    -0.015 C  
HETATM   26  C   UNL     1     -11.017  16.393  69.859  1.00  0.00    -0.339 C  
HETATM   27  O   UNL     1     -13.135  15.443  70.792  1.00  0.00    -0.453 OA 
HETATM   28  C   UNL     1     -11.447  13.005  64.877  1.00  0.00    -0.348 C  
HETATM   29  C   UNL     1     -10.899  12.844  66.284  1.00  0.00    -0.295 C  
HETATM   30  O   UNL     1     -13.406  13.650  69.540  1.00  0.00     1.261 OA 
ENDROOT
BRANCH  22  31
HETATM   31  O   UNL     1     -11.045  12.407  70.046  1.00  0.00     0.128 OA 
BRANCH  31  32
HETATM   32  C   UNL     1     -11.513  11.126  70.281  1.00  0.00    -0.237 C  
HETATM   33  O   UNL     1     -12.689  10.863  70.525  1.00  0.00    -0.323 OA 
HETATM   34  C   UNL     1     -10.515   9.992  70.414  1.00  0.00    -0.304 C  
ENDBRANCH  31  32
ENDBRANCH  22  31
BRANCH  26  35
HETATM   35  C   UNL     1      -9.642  16.934  69.544  1.00  0.00     0.157 C  
BRANCH  35  36
HETATM   36  C   UNL     1      -9.807  18.034  68.535  1.00  0.00    -0.383 C  
HETATM   37  C   UNL     1      -8.932  18.354  67.561  1.00  0.00    -0.271 C  
HETATM   38  C   UNL     1      -9.235  19.489  66.632  1.00  0.00    -0.417 C  
HETATM   39  C   UNL     1      -7.610  17.669  67.328  1.00  0.00    -0.217 C  
ENDBRANCH  35  36
ENDBRANCH  26  35
TORSDOF 4
ENDMDL
MODEL       44
REMARK 921   NORMALIZED FREE ENERGY PREDICTED BY IDOCK:   -5.19 KCAL/MOL
REMARK 922        TOTAL FREE ENERGY PREDICTED BY IDOCK:   -6.58 KCAL/MOL
REMARK 923 INTER-LIGAND FREE ENERGY PREDICTED BY IDOCK:   -5.78 KCAL/MOL
REMARK 924 INTRA-LIGAND FREE ENERGY PREDICTED BY IDOCK:   -0.80 KCAL/MOL
REMARK 927      BINDING AFFINITY PREDICTED BY RF-SCORE:    0.00 PKD
ROOT
HETATM    1  O   UNL     1      -9.138   1.539  74.336  1.00  0.00    -0.057 OA 
HETATM    2  H   UNL     1      -9.303   1.708  75.256  1.00  0.00     0.000 HD 
HETATM    3  C   UNL     1      -9.677   2.550  73.500  1.00  0.00    -0.095 C  
HETATM    4  C   UNL     1      -9.410   2.279  72.015  1.00  0.00    -0.164 C  
HETATM    5  C   UNL     1     -10.026   3.384  71.079  1.00  0.00    -0.013 C  
HETATM    6  C   UNL     1      -9.480   4.832  71.459  1.00  0.00    -0.209 C  
HETATM    7  C   UNL     1      -8.031   4.688  70.967  1.00  0.00    -0.082 C  
HETATM    8  C   UNL     1      -9.898   4.911  72.971  1.00  0.00    -0.174 C  
HETATM    9  C   UNL     1      -9.184   3.937  73.928  1.00  0.00    -0.098 C  
HETATM   10  C   UNL     1     -10.293   6.198  73.670  1.00  0.00    -0.275 C  
HETATM   11  C   UNL     1     -11.046   7.197  72.724  1.00  0.00    -0.339 C  
HETATM   12  C   UNL     1      -7.659   4.095  74.100  1.00  0.00    -0.079 C  
HETATM   13  C   UNL     1     -10.080   7.582  71.545  1.00  0.00    -0.201 C  
HETATM   14  C   UNL     1      -9.069   8.283  72.613  1.00  0.00    -0.327 C  
HETATM   15  C   UNL     1     -10.077   6.118  70.690  1.00  0.00    -0.240 C  
HETATM   16  C   UNL     1      -9.803   6.108  69.104  1.00  0.00    -0.145 C  
HETATM   17  C   UNL     1     -10.383   7.280  68.306  1.00  0.00    -0.227 C  
HETATM   18  O   UNL     1      -8.437   6.025  68.736  1.00  0.00    -0.112 OA 
HETATM   19  C   UNL     1      -9.983   8.635  68.853  1.00  0.00    -0.197 C  
HETATM   20  H   UNL     1      -8.276   6.018  67.800  1.00  0.00     0.000 HD 
HETATM   21  C   UNL     1      -8.392   9.000  68.707  1.00  0.00    -0.122 C  
HETATM   22  C   UNL     1      -8.005   8.772  70.129  1.00  0.00    -0.107 C  
HETATM   23  C   UNL     1      -7.833  10.100  68.102  1.00  0.00    -0.096 C  
HETATM   24  C   UNL     1      -9.177   9.802  70.638  1.00  0.00     0.001 C  
HETATM   25  C   UNL     1      -6.978  11.071  68.960  1.00  0.00    -0.097 C  
HETATM   26  C   UNL     1      -7.227  10.062  66.720  1.00  0.00    -0.091 C  
HETATM   27  O   UNL     1      -6.012  11.656  68.216  1.00  0.00    -0.046 OA 
HETATM   28  C   UNL     1     -11.730   9.436  70.696  1.00  0.00    -0.302 C  
HETATM   29  C   UNL     1     -10.367   8.812  70.457  1.00  0.00    -0.241 C  
HETATM   30  O   UNL     1      -7.021  11.311  70.144  1.00  0.00    -0.090 OA 
ENDROOT
BRANCH  22  31
HETATM   31  O   UNL     1      -6.581   8.643  70.392  1.00  0.00    -0.035 OA 
BRANCH  31  32
HETATM   32  C   UNL     1      -6.166   8.546  71.709  1.00  0.00    -0.064 C  
HETATM   33  O   UNL     1      -5.922   9.518  72.421  1.00  0.00    -0.286 OA 
HETATM   34  C   UNL     1      -5.826   7.181  72.274  1.00  0.00    -0.037 C  
ENDBRANCH  31  32
ENDBRANCH  22  31
BRANCH  26  35
HETATM   35  C   UNL     1      -7.721   8.988  65.778  1.00  0.00    -0.091 C  
BRANCH  35  36
HETATM   36  C   UNL     1      -8.276   9.670  64.561  1.00  0.00    -0.151 C  
HETATM   37  C   UNL     1      -9.493  10.239  64.457  1.00  0.00    -0.356 C  
HETATM   38  C   UNL     1      -9.909  10.877  63.168  1.00  0.00    -0.392 C  
HETATM   39  C   UNL     1     -10.529  10.269  65.551  1.00  0.00    -0.139 C  
ENDBRANCH  35  36
ENDBRANCH  26  35
TORSDOF 4
ENDMDL
MODEL       45
REMARK 921   NORMALIZED FREE ENERGY PREDICTED BY IDOCK:   -5.13 KCAL/MOL
REMARK 922        TOTAL FREE ENERGY PREDICTED BY IDOCK:   -6.52 KCAL/MOL
REMARK 923 INTER-LIGAND FREE ENERGY PREDICTED BY IDOCK:   -5.63 KCAL/MOL
REMARK 924 INTRA-LIGAND FREE ENERGY PREDICTED BY IDOCK:   -0.88 KCAL/MOL
REMARK 927      BINDING AFFINITY PREDICTED BY RF-SCORE:    0.00 PKD
ROOT
HETATM    1  O   UNL     1      -7.712   1.476  63.038  1.00  0.00    -0.051 OA 
HETATM    2  H   UNL     1      -6.947   0.937  63.201  1.00  0.00     0.000 HD 
HETATM    3  C   UNL     1      -8.194   2.095  64.220  1.00  0.00    -0.081 C  
HETATM    4  C   UNL     1      -9.428   2.966  63.957  1.00  0.00    -0.129 C  
HETATM    5  C   UNL     1      -9.983   3.638  65.267  1.00  0.00    -0.054 C  
HETATM    6  C   UNL     1      -8.862   4.513  65.986  1.00  0.00    -0.119 C  
HETATM    7  C   UNL     1      -8.768   5.672  64.981  1.00  0.00    -0.068 C  
HETATM    8  C   UNL     1      -7.743   3.431  66.198  1.00  0.00    -0.081 C  
HETATM    9  C   UNL     1      -7.079   2.878  64.923  1.00  0.00    -0.054 C  
HETATM   10  C   UNL     1      -6.788   3.426  67.378  1.00  0.00    -0.046 C  
HETATM   11  C   UNL     1      -7.448   3.960  68.696  1.00  0.00    -0.054 C  
HETATM   12  C   UNL     1      -6.283   3.867  64.046  1.00  0.00    -0.022 C  
HETATM   13  C   UNL     1      -7.890   5.450  68.457  1.00  0.00    -0.088 C  
HETATM   14  C   UNL     1      -6.329   5.872  68.255  1.00  0.00    -0.044 C  
HETATM   15  C   UNL     1      -9.198   5.195  67.409  1.00  0.00    -0.121 C  
HETATM   16  C   UNL     1     -10.405   6.258  67.348  1.00  0.00    -0.211 C  
HETATM   17  C   UNL     1     -10.804   6.910  68.675  1.00  0.00    -0.236 C  
HETATM   18  O   UNL     1     -10.216   7.322  66.433  1.00  0.00    -0.464 OA 
HETATM   19  C   UNL     1      -9.640   7.548  69.405  1.00  0.00    -0.155 C  
HETATM   20  H   UNL     1     -10.928   7.949  66.396  1.00  0.00     0.000 HD 
HETATM   21  C   UNL     1      -8.996   8.863  68.668  1.00  0.00    -0.137 C  
HETATM   22  C   UNL     1      -7.768   8.208  68.134  1.00  0.00    -0.110 C  
HETATM   23  C   UNL     1      -8.826  10.123  69.191  1.00  0.00    -0.179 C  
HETATM   24  C   UNL     1      -7.375   7.668  69.634  1.00  0.00    -0.089 C  
HETATM   25  C   UNL     1      -7.388  10.694  69.311  1.00  0.00    -0.119 C  
HETATM   26  C   UNL     1      -9.749  11.276  68.878  1.00  0.00    -0.141 C  
HETATM   27  O   UNL     1      -7.389  12.041  69.191  1.00  0.00    -0.062 OA 
HETATM   28  C   UNL     1      -8.463   5.768  70.997  1.00  0.00    -0.123 C  
HETATM   29  C   UNL     1      -8.392   6.487  69.662  1.00  0.00    -0.131 C  
HETATM   30  O   UNL     1      -6.329  10.124  69.429  1.00  0.00    -0.044 OA 
ENDROOT
BRANCH  22  31
HETATM   31  O   UNL     1      -7.053   8.936  67.097  1.00  0.00    -0.080 OA 
BRANCH  31  32
HETATM   32  C   UNL     1      -7.711   9.190  65.906  1.00  0.00    -0.095 C  
HETATM   33  O   UNL     1      -8.855   9.637  65.840  1.00  0.00    -0.141 OA 
HETATM   34  C   UNL     1      -7.073   8.746  64.604  1.00  0.00    -0.088 C  
ENDBRANCH  31  32
ENDBRANCH  22  31
BRANCH  26  35
HETATM   35  C   UNL     1     -11.160  10.937  68.453  1.00  0.00    -0.320 C  
BRANCH  35  36
HETATM   36  C   UNL     1     -11.907  10.487  69.676  1.00  0.00    -0.306 C  
HETATM   37  C   UNL     1     -12.432  11.288  70.624  1.00  0.00    -0.439 C  
HETATM   38  C   UNL     1     -13.146  10.687  71.795  1.00  0.00    -0.571 C  
HETATM   39  C   UNL     1     -12.340  12.792  70.632  1.00  0.00    -0.381 C  
ENDBRANCH  35  36
ENDBRANCH  26  35
TORSDOF 4
ENDMDL
MODEL       46
REMARK 921   NORMALIZED FREE ENERGY PREDICTED BY IDOCK:   -5.08 KCAL/MOL
REMARK 922        TOTAL FREE ENERGY PREDICTED BY IDOCK:   -6.45 KCAL/MOL
REMARK 923 INTER-LIGAND FREE ENERGY PREDICTED BY IDOCK:   -6.09 KCAL/MOL
REMARK 924 INTRA-LIGAND FREE ENERGY PREDICTED BY IDOCK:   -0.36 KCAL/MOL
REMARK 927      BINDING AFFINITY PREDICTED BY RF-SCORE:    0.00 PKD
ROOT
HETATM    1  O   UNL     1      -8.167   6.967  69.259  1.00  0.00    -0.122 OA 
HETATM    2  H   UNL     1      -8.842   6.524  69.759  1.00  0.00     0.000 HD 
HETATM    3  C   UNL     1      -8.689   8.028  68.475  1.00  0.00    -0.131 C  
HETATM    4  C   UNL     1      -7.599   8.744  67.668  1.00  0.00    -0.097 C  
HETATM    5  C   UNL     1      -8.173   9.907  66.777  1.00  0.00    -0.124 C  
HETATM    6  C   UNL     1      -8.965  10.972  67.659  1.00  0.00    -0.142 C  
HETATM    7  C   UNL     1      -7.779  11.615  68.397  1.00  0.00    -0.130 C  
HETATM    8  C   UNL     1     -10.035  10.046  68.341  1.00  0.00    -0.178 C  
HETATM    9  C   UNL     1      -9.497   9.003  69.339  1.00  0.00    -0.159 C  
HETATM   10  C   UNL     1     -11.436  10.501  68.703  1.00  0.00    -0.290 C  
HETATM   11  C   UNL     1     -12.018  11.544  67.687  1.00  0.00    -0.054 C  
HETATM   12  C   UNL     1      -8.798   9.526  70.611  1.00  0.00    -0.208 C  
HETATM   13  C   UNL     1     -11.093  12.816  67.703  1.00  0.00    -0.294 C  
HETATM   14  C   UNL     1     -11.497  13.080  69.259  1.00  0.00    -0.348 C  
HETATM   15  C   UNL     1      -9.728  12.186  66.919  1.00  0.00    -0.213 C  
HETATM   16  C   UNL     1      -8.748  13.159  66.094  1.00  0.00     0.494 C  
HETATM   17  C   UNL     1      -9.414  14.308  65.331  1.00  0.00     0.206 C  
HETATM   18  O   UNL     1      -7.712  13.750  66.859  1.00  0.00    -0.345 OA 
HETATM   19  C   UNL     1     -10.319  15.160  66.197  1.00  0.00    -0.313 C  
HETATM   20  H   UNL     1      -7.134  14.324  66.372  1.00  0.00     0.000 HD 
HETATM   21  C   UNL     1      -9.549  16.041  67.345  1.00  0.00    -0.225 C  
HETATM   22  C   UNL     1      -9.910  15.195  68.519  1.00  0.00    -0.220 C  
HETATM   23  C   UNL     1      -9.607  17.400  67.543  1.00  0.00    -0.257 C  
HETATM   24  C   UNL     1     -11.503  15.308  68.139  1.00  0.00    -0.357 C  
HETATM   25  C   UNL     1     -10.164  17.936  68.890  1.00  0.00    -0.330 C  
HETATM   26  C   UNL     1      -8.520  18.346  67.092  1.00  0.00    -0.254 C  
HETATM   27  O   UNL     1      -9.589  19.115  69.219  1.00  0.00    -0.286 OA 
HETATM   28  C   UNL     1     -12.786  14.160  66.218  1.00  0.00     0.023 C  
HETATM   29  C   UNL     1     -11.477  14.268  66.979  1.00  0.00    -0.377 C  
HETATM   30  O   UNL     1     -10.949  17.439  69.663  1.00  0.00     0.163 OA 
ENDROOT
BRANCH  22  31
HETATM   31  O   UNL     1      -9.136  15.417  69.730  1.00  0.00    -0.243 OA 
BRANCH  31  32
HETATM   32  C   UNL     1      -7.771  15.195  69.682  1.00  0.00    -0.148 C  
HETATM   33  O   UNL     1      -7.252  14.094  69.861  1.00  0.00     0.069 OA 
HETATM   34  C   UNL     1      -6.836  16.383  69.572  1.00  0.00    -0.187 C  
ENDBRANCH  31  32
ENDBRANCH  22  31
BRANCH  26  35
HETATM   35  C   UNL     1      -7.646  17.898  65.944  1.00  0.00    -0.177 C  
BRANCH  35  36
HETATM   36  C   UNL     1      -6.917  19.105  65.430  1.00  0.00    -0.175 C  
HETATM   37  C   UNL     1      -6.197  19.972  66.170  1.00  0.00    -0.199 C  
HETATM   38  C   UNL     1      -5.531  21.140  65.511  1.00  0.00    -0.247 C  
HETATM   39  C   UNL     1      -6.015  19.889  67.664  1.00  0.00    -0.212 C  
ENDBRANCH  35  36
ENDBRANCH  26  35
TORSDOF 4
ENDMDL
MODEL       47
REMARK 921   NORMALIZED FREE ENERGY PREDICTED BY IDOCK:   -4.98 KCAL/MOL
REMARK 922        TOTAL FREE ENERGY PREDICTED BY IDOCK:   -6.33 KCAL/MOL
REMARK 923 INTER-LIGAND FREE ENERGY PREDICTED BY IDOCK:   -5.34 KCAL/MOL
REMARK 924 INTRA-LIGAND FREE ENERGY PREDICTED BY IDOCK:   -0.99 KCAL/MOL
REMARK 927      BINDING AFFINITY PREDICTED BY RF-SCORE:    0.00 PKD
ROOT
HETATM    1  O   UNL     1      -8.188   1.932  74.518  1.00  0.00    -0.051 OA 
HETATM    2  H   UNL     1      -8.169   2.170  75.438  1.00  0.00     0.000 HD 
HETATM    3  C   UNL     1      -8.954   2.842  73.745  1.00  0.00    -0.075 C  
HETATM    4  C   UNL     1      -8.984   2.459  72.260  1.00  0.00    -0.111 C  
HETATM    5  C   UNL     1      -9.851   3.449  71.399  1.00  0.00    -0.204 C  
HETATM    6  C   UNL     1      -9.334   4.950  71.549  1.00  0.00    -0.196 C  
HETATM    7  C   UNL     1      -8.012   4.836  70.772  1.00  0.00    -0.081 C  
HETATM    8  C   UNL     1      -9.434   5.136  73.105  1.00  0.00    -0.145 C  
HETATM    9  C   UNL     1      -8.474   4.282  73.956  1.00  0.00    -0.095 C  
HETATM   10  C   UNL     1      -9.759   6.457  73.777  1.00  0.00    -0.208 C  
HETATM   11  C   UNL     1     -10.755   7.334  72.943  1.00  0.00    -0.365 C  
HETATM   12  C   UNL     1      -6.961   4.528  73.789  1.00  0.00    -0.067 C  
HETATM   13  C   UNL     1     -10.082   7.664  71.561  1.00  0.00    -0.205 C  
HETATM   14  C   UNL     1      -8.920   8.502  72.336  1.00  0.00    -0.284 C  
HETATM   15  C   UNL     1     -10.161   6.136  70.832  1.00  0.00    -0.237 C  
HETATM   16  C   UNL     1     -10.222   6.005  69.230  1.00  0.00    -0.207 C  
HETATM   17  C   UNL     1     -11.030   7.075  68.490  1.00  0.00    -0.135 C  
HETATM   18  O   UNL     1      -8.960   5.957  68.587  1.00  0.00    -0.117 OA 
HETATM   19  C   UNL     1     -10.615   8.490  68.840  1.00  0.00    -0.166 C  
HETATM   20  H   UNL     1      -8.996   5.880  67.642  1.00  0.00     0.000 HD 
HETATM   21  C   UNL     1      -9.116   8.919  68.334  1.00  0.00    -0.137 C  
HETATM   22  C   UNL     1      -8.429   8.830  69.654  1.00  0.00    -0.129 C  
HETATM   23  C   UNL     1      -8.768   9.989  67.546  1.00  0.00    -0.125 C  
HETATM   24  C   UNL     1      -9.534   9.841  70.324  1.00  0.00    -0.250 C  
HETATM   25  C   UNL     1      -7.819  11.070  68.131  1.00  0.00    -0.116 C  
HETATM   26  C   UNL     1      -8.461   9.864  66.073  1.00  0.00    -0.135 C  
HETATM   27  O   UNL     1      -7.069  11.636  67.158  1.00  0.00    -0.123 OA 
HETATM   28  C   UNL     1     -11.990   9.358  70.949  1.00  0.00    -0.351 C  
HETATM   29  C   UNL     1     -10.668   8.783  70.472  1.00  0.00    -0.259 C  
HETATM   30  O   UNL     1      -7.631  11.407  69.276  1.00  0.00    -0.082 OA 
ENDROOT
BRANCH  22  31
HETATM   31  O   UNL     1      -6.975   8.793  69.618  1.00  0.00    -0.049 OA 
BRANCH  31  32
HETATM   32  C   UNL     1      -6.364   7.717  68.999  1.00  0.00    -0.036 C  
HETATM   33  O   UNL     1      -6.069   6.673  69.579  1.00  0.00    -0.024 OA 
HETATM   34  C   UNL     1      -5.871   7.870  67.573  1.00  0.00    -0.038 C  
ENDBRANCH  31  32
ENDBRANCH  22  31
BRANCH  26  35
HETATM   35  C   UNL     1      -9.068   8.691  65.338  1.00  0.00    -0.150 C  
BRANCH  35  36
HETATM   36  C   UNL     1      -8.242   8.450  64.107  1.00  0.00    -0.122 C  
HETATM   37  C   UNL     1      -7.598   7.308  63.796  1.00  0.00    -0.110 C  
HETATM   38  C   UNL     1      -6.804   7.222  62.529  1.00  0.00    -0.068 C  
HETATM   39  C   UNL     1      -7.577   6.067  64.651  1.00  0.00    -0.091 C  
ENDBRANCH  35  36
ENDBRANCH  26  35
TORSDOF 4
ENDMDL
MODEL       48
REMARK 921   NORMALIZED FREE ENERGY PREDICTED BY IDOCK:   -4.92 KCAL/MOL
REMARK 922        TOTAL FREE ENERGY PREDICTED BY IDOCK:   -6.25 KCAL/MOL
REMARK 923 INTER-LIGAND FREE ENERGY PREDICTED BY IDOCK:   -5.28 KCAL/MOL
REMARK 924 INTRA-LIGAND FREE ENERGY PREDICTED BY IDOCK:   -0.98 KCAL/MOL
REMARK 927      BINDING AFFINITY PREDICTED BY RF-SCORE:    0.00 PKD
ROOT
HETATM    1  O   UNL     1      -5.985   4.984  72.301  1.00  0.00    -0.022 OA 
HETATM    2  H   UNL     1      -5.662   4.201  71.871  1.00  0.00     0.000 HD 
HETATM    3  C   UNL     1      -5.822   6.143  71.500  1.00  0.00    -0.027 C  
HETATM    4  C   UNL     1      -6.344   7.406  72.194  1.00  0.00    -0.043 C  
HETATM    5  C   UNL     1      -6.144   8.700  71.322  1.00  0.00    -0.047 C  
HETATM    6  C   UNL     1      -6.844   8.551  69.898  1.00  0.00    -0.042 C  
HETATM    7  C   UNL     1      -8.316   8.617  70.336  1.00  0.00    -0.133 C  
HETATM    8  C   UNL     1      -6.137   7.254  69.363  1.00  0.00    -0.030 C  
HETATM    9  C   UNL     1      -6.450   5.947  70.116  1.00  0.00    -0.039 C  
HETATM   10  C   UNL     1      -5.836   7.002  67.898  1.00  0.00    -0.025 C  
HETATM   11  C   UNL     1      -5.488   8.315  67.114  1.00  0.00    -0.037 C  
HETATM   12  C   UNL     1      -7.907   5.442  70.094  1.00  0.00    -0.081 C  
HETATM   13  C   UNL     1      -6.734   9.272  67.178  1.00  0.00    -0.076 C  
HETATM   14  C   UNL     1      -7.604   8.183  66.335  1.00  0.00    -0.091 C  
HETATM   15  C   UNL     1      -6.659   9.727  68.810  1.00  0.00    -0.046 C  
HETATM   16  C   UNL     1      -7.256  11.145  69.282  1.00  0.00    -0.112 C  
HETATM   17  C   UNL     1      -7.074  12.317  68.313  1.00  0.00    -0.093 C  
HETATM   18  O   UNL     1      -8.632  11.130  69.619  1.00  0.00    -0.281 OA 
HETATM   19  C   UNL     1      -7.581  12.025  66.915  1.00  0.00    -0.060 C  
HETATM   20  H   UNL     1      -8.984  11.966  69.899  1.00  0.00     0.000 HD 
HETATM   21  C   UNL     1      -9.206  11.851  66.790  1.00  0.00    -0.194 C  
HETATM   22  C   UNL     1      -9.237  10.365  66.666  1.00  0.00    -0.156 C  
HETATM   23  C   UNL     1     -10.065  12.540  65.968  1.00  0.00    -0.268 C  
HETATM   24  C   UNL     1      -8.184  10.424  65.408  1.00  0.00    -0.159 C  
HETATM   25  C   UNL     1     -10.877  11.752  64.906  1.00  0.00    -0.298 C  
HETATM   26  C   UNL     1     -10.933  13.678  66.451  1.00  0.00    -0.297 C  
HETATM   27  O   UNL     1     -12.066  12.348  64.660  1.00  0.00    -0.398 OA 
HETATM   28  C   UNL     1      -5.654  10.920  65.447  1.00  0.00    -0.072 C  
HETATM   29  C   UNL     1      -6.905  10.657  66.266  1.00  0.00    -0.133 C  
HETATM   30  O   UNL     1     -10.628  10.708  64.349  1.00  0.00    -0.308 OA 
ENDROOT
BRANCH  22  31
HETATM   31  O   UNL     1     -10.529   9.732  66.882  1.00  0.00    -0.238 OA 
BRANCH  31  32
HETATM   32  C   UNL     1     -10.786   9.179  68.124  1.00  0.00    -0.131 C  
HETATM   33  O   UNL     1     -10.667   7.981  68.376  1.00  0.00    -0.139 OA 
HETATM   34  C   UNL     1     -11.406  10.047  69.202  1.00  0.00    -0.146 C  
ENDBRANCH  31  32
ENDBRANCH  22  31
BRANCH  26  35
HETATM   35  C   UNL     1     -10.468  14.430  67.676  1.00  0.00    -0.245 C  
BRANCH  35  36
HETATM   36  C   UNL     1      -9.451  15.441  67.230  1.00  0.00    -0.215 C  
HETATM   37  C   UNL     1      -8.418  15.902  67.962  1.00  0.00    -0.162 C  
HETATM   38  C   UNL     1      -7.488  16.921  67.379  1.00  0.00    -0.187 C  
HETATM   39  C   UNL     1      -8.115  15.496  69.381  1.00  0.00    -0.241 C  
ENDBRANCH  35  36
ENDBRANCH  26  35
TORSDOF 4
ENDMDL
MODEL       49
REMARK 921   NORMALIZED FREE ENERGY PREDICTED BY IDOCK:   -4.89 KCAL/MOL
REMARK 922        TOTAL FREE ENERGY PREDICTED BY IDOCK:   -6.21 KCAL/MOL
REMARK 923 INTER-LIGAND FREE ENERGY PREDICTED BY IDOCK:   -6.01 KCAL/MOL
REMARK 924 INTRA-LIGAND FREE ENERGY PREDICTED BY IDOCK:   -0.20 KCAL/MOL
REMARK 927      BINDING AFFINITY PREDICTED BY RF-SCORE:    0.00 PKD
ROOT
HETATM    1  O   UNL     1     -10.603   4.932  74.552  1.00  0.00    -0.314 OA 
HETATM    2  H   UNL     1     -10.262   4.046  74.602  1.00  0.00     0.000 HD 
HETATM    3  C   UNL     1      -9.769   5.785  73.785  1.00  0.00    -0.163 C  
HETATM    4  C   UNL     1     -10.320   7.214  73.704  1.00  0.00    -0.411 C  
HETATM    5  C   UNL     1      -9.389   8.173  72.874  1.00  0.00    -0.343 C  
HETATM    6  C   UNL     1      -9.150   7.613  71.401  1.00  0.00    -0.146 C  
HETATM    7  C   UNL     1     -10.551   7.850  70.815  1.00  0.00    -0.222 C  
HETATM    8  C   UNL     1      -8.552   6.197  71.723  1.00  0.00    -0.133 C  
HETATM    9  C   UNL     1      -9.507   5.192  72.397  1.00  0.00    -0.166 C  
HETATM   10  C   UNL     1      -7.521   5.500  70.856  1.00  0.00    -0.089 C  
HETATM   11  C   UNL     1      -6.520   6.500  70.180  1.00  0.00    -0.040 C  
HETATM   12  C   UNL     1     -10.749   4.744  71.600  1.00  0.00    -0.009 C  
HETATM   13  C   UNL     1      -7.341   7.464  69.248  1.00  0.00    -0.086 C  
HETATM   14  C   UNL     1      -7.767   6.193  68.322  1.00  0.00    -0.103 C  
HETATM   15  C   UNL     1      -8.130   8.395  70.425  1.00  0.00    -0.109 C  
HETATM   16  C   UNL     1      -8.579   9.905  70.096  1.00  0.00    -0.105 C  
HETATM   17  C   UNL     1      -7.631  10.718  69.209  1.00  0.00    -0.129 C  
HETATM   18  O   UNL     1      -9.863  10.031  69.511  1.00  0.00    -0.205 OA 
HETATM   19  C   UNL     1      -7.285  10.026  67.907  1.00  0.00    -0.087 C  
HETATM   20  H   UNL     1     -10.128  10.922  69.317  1.00  0.00     0.000 HD 
HETATM   21  C   UNL     1      -8.531   9.866  66.854  1.00  0.00    -0.125 C  
HETATM   22  C   UNL     1      -8.794   8.416  67.077  1.00  0.00    -0.134 C  
HETATM   23  C   UNL     1      -8.591  10.294  65.549  1.00  0.00    -0.173 C  
HETATM   24  C   UNL     1      -7.224   8.058  66.758  1.00  0.00    -0.082 C  
HETATM   25  C   UNL     1      -8.782   9.240  64.426  1.00  0.00    -0.181 C  
HETATM   26  C   UNL     1      -9.318  11.547  65.125  1.00  0.00    -0.129 C  
HETATM   27  O   UNL     1      -9.455   9.764  63.376  1.00  0.00    -0.211 OA 
HETATM   28  C   UNL     1      -5.146   8.474  68.228  1.00  0.00    -0.034 C  
HETATM   29  C   UNL     1      -6.661   8.507  68.140  1.00  0.00    -0.061 C  
HETATM   30  O   UNL     1      -8.481   8.070  64.394  1.00  0.00    -0.071 OA 
ENDROOT
BRANCH  22  31
HETATM   31  O   UNL     1     -10.070   7.914  66.592  1.00  0.00    -0.260 OA 
BRANCH  31  32
HETATM   32  C   UNL     1     -10.470   6.651  66.992  1.00  0.00    -0.298 C  
HETATM   33  O   UNL     1     -11.086   6.428  68.033  1.00  0.00    -0.317 OA 
HETATM   34  C   UNL     1      -9.991   5.444  66.208  1.00  0.00    -0.199 C  
ENDBRANCH  31  32
ENDBRANCH  22  31
BRANCH  26  35
HETATM   35  C   UNL     1      -9.502  12.626  66.168  1.00  0.00    -0.177 C  
BRANCH  35  36
HETATM   36  C   UNL     1     -10.666  12.231  67.030  1.00  0.00    -0.263 C  
HETATM   37  C   UNL     1     -10.974  12.752  68.234  1.00  0.00    -0.278 C  
HETATM   38  C   UNL     1     -12.169  12.246  68.981  1.00  0.00    -0.047 C  
HETATM   39  C   UNL     1     -10.179  13.819  68.942  1.00  0.00    -0.111 C  
ENDBRANCH  35  36
ENDBRANCH  26  35
TORSDOF 4
ENDMDL
MODEL       50
REMARK 921   NORMALIZED FREE ENERGY PREDICTED BY IDOCK:   -4.79 KCAL/MOL
REMARK 922        TOTAL FREE ENERGY PREDICTED BY IDOCK:   -6.09 KCAL/MOL
REMARK 923 INTER-LIGAND FREE ENERGY PREDICTED BY IDOCK:   -5.16 KCAL/MOL
REMARK 924 INTRA-LIGAND FREE ENERGY PREDICTED BY IDOCK:   -0.93 KCAL/MOL
REMARK 927      BINDING AFFINITY PREDICTED BY RF-SCORE:    0.00 PKD
ROOT
HETATM    1  O   UNL     1      -8.989   4.950  65.239  1.00  0.00    -0.147 OA 
HETATM    2  H   UNL     1      -8.160   4.708  64.844  1.00  0.00     0.000 HD 
HETATM    3  C   UNL     1      -8.850   6.011  66.170  1.00  0.00    -0.148 C  
HETATM    4  C   UNL     1     -10.188   6.402  66.809  1.00  0.00    -0.259 C  
HETATM    5  C   UNL     1     -10.039   7.562  67.860  1.00  0.00    -0.226 C  
HETATM    6  C   UNL     1      -9.368   8.851  67.206  1.00  0.00    -0.173 C  
HETATM    7  C   UNL     1     -10.529   9.307  66.307  1.00  0.00    -0.084 C  
HETATM    8  C   UNL     1      -8.023   8.239  66.675  1.00  0.00    -0.098 C  
HETATM    9  C   UNL     1      -8.146   7.213  65.531  1.00  0.00    -0.135 C  
HETATM   10  C   UNL     1      -6.717   9.008  66.603  1.00  0.00    -0.075 C  
HETATM   11  C   UNL     1      -6.556  10.040  67.772  1.00  0.00    -0.067 C  
HETATM   12  C   UNL     1      -8.724   7.707  64.189  1.00  0.00     0.535 C  
HETATM   13  C   UNL     1      -7.722  11.089  67.668  1.00  0.00    -0.112 C  
HETATM   14  C   UNL     1      -7.137  11.586  66.231  1.00  0.00     0.150 C  
HETATM   15  C   UNL     1      -9.024  10.115  68.148  1.00  0.00    -0.122 C  
HETATM   16  C   UNL     1     -10.317  10.777  68.841  1.00  0.00    -0.202 C  
HETATM   17  C   UNL     1     -10.056  11.955  69.784  1.00  0.00     1.178 C  
HETATM   18  O   UNL     1     -11.318  11.216  67.938  1.00  0.00    -0.283 OA 
HETATM   19  C   UNL     1      -9.232  13.059  69.152  1.00  0.00     0.663 C  
HETATM   20  H   UNL     1     -12.081  11.606  68.347  1.00  0.00     0.000 HD 
HETATM   21  C   UNL     1      -9.978  13.874  67.941  1.00  0.00    -0.242 C  
HETATM   22  C   UNL     1      -9.251  13.243  66.802  1.00  0.00    -0.233 C  
HETATM   23  C   UNL     1     -10.190  15.228  67.842  1.00  0.00    -0.235 C  
HETATM   24  C   UNL     1      -7.807  13.643  67.472  1.00  0.00    -0.185 C  
HETATM   25  C   UNL     1      -9.551  16.000  66.656  1.00  0.00    -0.239 C  
HETATM   26  C   UNL     1     -11.517  15.879  68.147  1.00  0.00    -0.281 C  
HETATM   27  O   UNL     1     -10.310  17.062  66.303  1.00  0.00    -0.318 OA 
HETATM   28  C   UNL     1      -6.636  12.597  69.519  1.00  0.00    -0.032 C  
HETATM   29  C   UNL     1      -7.793  12.508  68.540  1.00  0.00    -0.108 C  
HETATM   30  O   UNL     1      -8.560  15.756  66.010  1.00  0.00    -0.277 OA 
ENDROOT
BRANCH  22  31
HETATM   31  O   UNL     1      -9.845  13.421  65.486  1.00  0.00    -0.237 OA 
BRANCH  31  32
HETATM   32  C   UNL     1     -11.102  12.888  65.259  1.00  0.00    -0.284 C  
HETATM   33  O   UNL     1     -12.080  13.122  65.966  1.00  0.00    -0.410 OA 
HETATM   34  C   UNL     1     -11.269  11.827  64.189  1.00  0.00    -0.437 C  
ENDBRANCH  31  32
ENDBRANCH  22  31
BRANCH  26  35
HETATM   35  C   UNL     1     -12.448  15.146  69.085  1.00  0.00     0.025 C  
BRANCH  35  36
HETATM   36  C   UNL     1     -11.984  15.416  70.488  1.00  0.00    -0.394 C  
HETATM   37  C   UNL     1     -12.723  15.281  71.606  1.00  0.00    -0.455 C  
HETATM   38  C   UNL     1     -12.119  15.598  72.940  1.00  0.00    -0.583 C  
HETATM   39  C   UNL     1     -14.167  14.852  71.642  1.00  0.00    -0.633 C  
ENDBRANCH  35  36
ENDBRANCH  26  35
TORSDOF 4
ENDMDL
MODEL       51
REMARK 921   NORMALIZED FREE ENERGY PREDICTED BY IDOCK:   -4.65 KCAL/MOL
REMARK 922        TOTAL FREE ENERGY PREDICTED BY IDOCK:   -5.92 KCAL/MOL
REMARK 923 INTER-LIGAND FREE ENERGY PREDICTED BY IDOCK:   -4.67 KCAL/MOL
REMARK 924 INTRA-LIGAND FREE ENERGY PREDICTED BY IDOCK:   -1.25 KCAL/MOL
REMARK 927      BINDING AFFINITY PREDICTED BY RF-SCORE:    0.00 PKD
ROOT
HETATM    1  O   UNL     1     -11.103   5.176  74.550  1.00  0.00    -0.284 OA 
HETATM    2  H   UNL     1     -11.699   4.450  74.411  1.00  0.00     0.000 HD 
HETATM    3  C   UNL     1     -10.116   5.263  73.535  1.00  0.00    -0.183 C  
HETATM    4  C   UNL     1      -9.153   6.434  73.760  1.00  0.00    -0.143 C  
HETATM    5  C   UNL     1      -8.041   6.523  72.651  1.00  0.00    -0.103 C  
HETATM    6  C   UNL     1      -8.683   6.637  71.197  1.00  0.00    -0.137 C  
HETATM    7  C   UNL     1      -9.242   8.067  71.284  1.00  0.00    -0.180 C  
HETATM    8  C   UNL     1      -9.569   5.341  71.169  1.00  0.00    -0.218 C  
HETATM    9  C   UNL     1     -10.761   5.308  72.146  1.00  0.00    -0.271 C  
HETATM   10  C   UNL     1      -9.848   4.537  69.913  1.00  0.00    -0.298 C  
HETATM   11  C   UNL     1      -8.640   4.532  68.915  1.00  0.00    -0.101 C  
HETATM   12  C   UNL     1     -11.876   6.355  71.946  1.00  0.00    -0.380 C  
HETATM   13  C   UNL     1      -8.361   6.014  68.470  1.00  0.00    -0.113 C  
HETATM   14  C   UNL     1      -9.829   6.070  67.766  1.00  0.00    -0.129 C  
HETATM   15  C   UNL     1      -7.710   6.626  69.910  1.00  0.00    -0.109 C  
HETATM   16  C   UNL     1      -6.675   7.858  69.871  1.00  0.00    -0.037 C  
HETATM   17  C   UNL     1      -5.691   7.883  68.698  1.00  0.00    -0.028 C  
HETATM   18  O   UNL     1      -7.274   9.141  69.904  1.00  0.00    -0.053 OA 
HETATM   19  C   UNL     1      -6.367   7.781  67.345  1.00  0.00    -0.055 C  
HETATM   20  H   UNL     1      -6.664   9.868  69.881  1.00  0.00     0.000 HD 
HETATM   21  C   UNL     1      -7.281   9.076  66.928  1.00  0.00    -0.086 C  
HETATM   22  C   UNL     1      -8.617   8.464  67.181  1.00  0.00    -0.123 C  
HETATM   23  C   UNL     1      -7.180   9.849  65.796  1.00  0.00    -0.110 C  
HETATM   24  C   UNL     1      -8.250   7.200  66.201  1.00  0.00    -0.128 C  
HETATM   25  C   UNL     1      -8.386   9.910  64.822  1.00  0.00    -0.160 C  
HETATM   26  C   UNL     1      -6.514  11.204  65.781  1.00  0.00     0.146 C  
HETATM   27  O   UNL     1      -8.441  11.104  64.189  1.00  0.00     0.131 OA 
HETATM   28  C   UNL     1      -6.648   5.228  66.646  1.00  0.00    -0.056 C  
HETATM   29  C   UNL     1      -7.345   6.447  67.221  1.00  0.00    -0.087 C  
HETATM   30  O   UNL     1      -9.263   9.104  64.614  1.00  0.00    -0.148 OA 
ENDROOT
BRANCH  22  31
HETATM   31  O   UNL     1      -9.737   9.387  67.273  1.00  0.00    -0.152 OA 
BRANCH  31  32
HETATM   32  C   UNL     1      -9.742  10.307  68.307  1.00  0.00    -0.142 C  
HETATM   33  O   UNL     1     -10.062  10.033  69.463  1.00  0.00    -0.201 OA 
HETATM   34  C   UNL     1      -9.507  11.771  67.991  1.00  0.00    -0.188 C  
ENDBRANCH  31  32
ENDBRANCH  22  31
BRANCH  26  35
HETATM   35  C   UNL     1      -5.476  11.477  66.845  1.00  0.00    -0.126 C  
BRANCH  35  36
HETATM   36  C   UNL     1      -5.977  12.615  67.687  1.00  0.00    -0.142 C  
HETATM   37  C   UNL     1      -5.827  12.740  69.020  1.00  0.00    -0.076 C  
HETATM   38  C   UNL     1      -6.393  13.936  69.724  1.00  0.00    -0.125 C  
HETATM   39  C   UNL     1      -5.143  11.736  69.912  1.00  0.00    -0.074 C  
ENDBRANCH  35  36
ENDBRANCH  26  35
TORSDOF 4
ENDMDL
MODEL       52
REMARK 921   NORMALIZED FREE ENERGY PREDICTED BY IDOCK:   -4.65 KCAL/MOL
REMARK 922        TOTAL FREE ENERGY PREDICTED BY IDOCK:   -5.92 KCAL/MOL
REMARK 923 INTER-LIGAND FREE ENERGY PREDICTED BY IDOCK:   -5.07 KCAL/MOL
REMARK 924 INTRA-LIGAND FREE ENERGY PREDICTED BY IDOCK:   -0.84 KCAL/MOL
REMARK 927      BINDING AFFINITY PREDICTED BY RF-SCORE:    0.00 PKD
ROOT
HETATM    1  O   UNL     1      -9.147  19.098  68.265  1.00  0.00    -0.312 OA 
HETATM    2  H   UNL     1      -9.186  19.734  67.561  1.00  0.00     0.000 HD 
HETATM    3  C   UNL     1      -9.890  17.926  67.971  1.00  0.00    -0.320 C  
HETATM    4  C   UNL     1      -9.825  16.898  69.108  1.00  0.00    -0.206 C  
HETATM    5  C   UNL     1     -10.666  15.605  68.800  1.00  0.00    -0.250 C  
HETATM    6  C   UNL     1     -10.196  14.920  67.440  1.00  0.00    -0.234 C  
HETATM    7  C   UNL     1      -8.830  14.380  67.892  1.00  0.00    -0.179 C  
HETATM    8  C   UNL     1     -10.389  16.112  66.435  1.00  0.00    -0.321 C  
HETATM    9  C   UNL     1      -9.459  17.325  66.629  1.00  0.00    -0.278 C  
HETATM   10  C   UNL     1     -10.785  15.933  64.981  1.00  0.00    -0.426 C  
HETATM   11  C   UNL     1     -11.753  14.720  64.760  1.00  0.00    -0.422 C  
HETATM   12  C   UNL     1      -7.945  17.101  66.436  1.00  0.00    -0.346 C  
HETATM   13  C   UNL     1     -11.011  13.408  65.208  1.00  0.00    -0.306 C  
HETATM   14  C   UNL     1      -9.916  13.633  64.023  1.00  0.00     1.151 C  
HETATM   15  C   UNL     1     -11.010  13.641  66.887  1.00  0.00    -0.296 C  
HETATM   16  C   UNL     1     -10.976  12.375  67.880  1.00  0.00    -0.228 C  
HETATM   17  C   UNL     1     -11.766  11.141  67.436  1.00  0.00    -0.030 C  
HETATM   18  O   UNL     1      -9.678  11.909  68.207  1.00  0.00    -0.192 OA 
HETATM   19  C   UNL     1     -11.408  10.667  66.042  1.00  0.00     0.558 C  
HETATM   20  H   UNL     1      -9.658  11.162  68.792  1.00  0.00     0.000 HD 
HETATM   21  C   UNL     1      -9.893  10.060  65.884  1.00  0.00    -0.330 C  
HETATM   22  C   UNL     1      -9.281  11.233  65.197  1.00  0.00    -0.149 C  
HETATM   23  C   UNL     1      -9.527   8.825  65.406  1.00  0.00    -0.007 C  
HETATM   24  C   UNL     1     -10.448  11.196  64.043  1.00  0.00    -0.447 C  
HETATM   25  C   UNL     1      -8.641   8.748  64.134  1.00  0.00    -0.061 C  
HETATM   26  C   UNL     1      -9.134   7.676  66.304  1.00  0.00    -0.204 C  
HETATM   27  O   UNL     1      -7.851   7.651  64.157  1.00  0.00    -0.129 OA 
HETATM   28  C   UNL     1     -12.922  11.900  64.232  1.00  0.00     0.031 C  
HETATM   29  C   UNL     1     -11.561  11.864  64.904  1.00  0.00    -0.290 C  
HETATM   30  O   UNL     1      -8.527   9.524  63.214  1.00  0.00    -0.171 OA 
ENDROOT
BRANCH  22  31
HETATM   31  O   UNL     1      -7.827  11.272  65.171  1.00  0.00     0.320 OA 
BRANCH  31  32
HETATM   32  C   UNL     1      -7.148  11.109  66.366  1.00  0.00    -0.091 C  
HETATM   33  O   UNL     1      -7.121  11.956  67.257  1.00  0.00    -0.121 OA 
HETATM   34  C   UNL     1      -6.247   9.902  66.541  1.00  0.00    -0.069 C  
ENDBRANCH  31  32
ENDBRANCH  22  31
BRANCH  26  35
HETATM   35  C   UNL     1      -9.668   7.689  67.717  1.00  0.00    -0.180 C  
BRANCH  35  36
HETATM   36  C   UNL     1      -8.981   8.804  68.453  1.00  0.00    -0.141 C  
HETATM   37  C   UNL     1      -8.281   8.684  69.598  1.00  0.00    -0.114 C  
HETATM   38  C   UNL     1      -7.657   9.895  70.219  1.00  0.00    -0.172 C  
HETATM   39  C   UNL     1      -8.082   7.398  70.359  1.00  0.00    -0.108 C  
ENDBRANCH  35  36
ENDBRANCH  26  35
TORSDOF 4
ENDMDL
MODEL       53
REMARK 921   NORMALIZED FREE ENERGY PREDICTED BY IDOCK:   -4.64 KCAL/MOL
REMARK 922        TOTAL FREE ENERGY PREDICTED BY IDOCK:   -5.90 KCAL/MOL
REMARK 923 INTER-LIGAND FREE ENERGY PREDICTED BY IDOCK:   -6.39 KCAL/MOL
REMARK 924 INTRA-LIGAND FREE ENERGY PREDICTED BY IDOCK:    0.49 KCAL/MOL
REMARK 927      BINDING AFFINITY PREDICTED BY RF-SCORE:    0.00 PKD
ROOT
HETATM    1  O   UNL     1      -9.919   3.852  69.791  1.00  0.00    -0.145 OA 
HETATM    2  H   UNL     1      -9.758   3.172  69.147  1.00  0.00     0.000 HD 
HETATM    3  C   UNL     1      -9.177   5.031  69.523  1.00  0.00    -0.119 C  
HETATM    4  C   UNL     1      -9.438   6.129  70.562  1.00  0.00    -0.182 C  
HETATM    5  C   UNL     1      -8.600   7.431  70.286  1.00  0.00    -0.145 C  
HETATM    6  C   UNL     1      -8.887   8.004  68.827  1.00  0.00    -0.138 C  
HETATM    7  C   UNL     1     -10.321   8.517  69.038  1.00  0.00    -0.229 C  
HETATM    8  C   UNL     1      -8.513   6.757  67.948  1.00  0.00    -0.119 C  
HETATM    9  C   UNL     1      -9.425   5.523  68.093  1.00  0.00    -0.133 C  
HETATM   10  C   UNL     1      -7.915   6.854  66.557  1.00  0.00    -0.109 C  
HETATM   11  C   UNL     1      -6.962   8.088  66.391  1.00  0.00    -0.070 C  
HETATM   12  C   UNL     1     -10.900   5.672  67.670  1.00  0.00    -0.183 C  
HETATM   13  C   UNL     1      -7.801   9.396  66.633  1.00  0.00    -0.104 C  
HETATM   14  C   UNL     1      -8.703   9.049  65.322  1.00  0.00    -0.226 C  
HETATM   15  C   UNL     1      -8.040   9.276  68.307  1.00  0.00    -0.107 C  
HETATM   16  C   UNL     1      -8.257  10.603  69.190  1.00  0.00    -0.139 C  
HETATM   17  C   UNL     1      -7.448  11.835  68.777  1.00  0.00    -0.109 C  
HETATM   18  O   UNL     1      -9.602  11.037  69.293  1.00  0.00    -0.399 OA 
HETATM   19  C   UNL     1      -7.613  12.200  67.315  1.00  0.00    -0.156 C  
HETATM   20  H   UNL     1      -9.730  11.820  69.814  1.00  0.00     0.000 HD 
HETATM   21  C   UNL     1      -9.105  12.734  66.899  1.00  0.00    -0.221 C  
HETATM   22  C   UNL     1      -9.575  11.494  66.217  1.00  0.00    -0.218 C  
HETATM   23  C   UNL     1      -9.434  13.919  66.285  1.00  0.00    -0.235 C  
HETATM   24  C   UNL     1      -8.254  11.500  65.243  1.00  0.00     0.596 C  
HETATM   25  C   UNL     1     -10.128  13.874  64.897  1.00  0.00    -0.263 C  
HETATM   26  C   UNL     1      -9.990  15.107  67.032  1.00  0.00    -0.242 C  
HETATM   27  O   UNL     1     -10.945  14.937  64.727  1.00  0.00    -0.390 OA 
HETATM   28  C   UNL     1      -5.814  10.911  65.835  1.00  0.00    -0.130 C  
HETATM   29  C   UNL     1      -7.258  10.937  66.301  1.00  0.00    -0.126 C  
HETATM   30  O   UNL     1     -10.082  13.035  64.028  1.00  0.00    -0.347 OA 
ENDROOT
BRANCH  22  31
HETATM   31  O   UNL     1     -11.008  11.395  65.985  1.00  0.00    -0.285 OA 
BRANCH  31  32
HETATM   32  C   UNL     1     -11.862  11.728  67.022  1.00  0.00    -0.044 C  
HETATM   33  O   UNL     1     -12.397  12.829  67.138  1.00  0.00    -0.357 OA 
HETATM   34  C   UNL     1     -12.031  10.759  68.176  1.00  0.00     0.166 C  
ENDBRANCH  31  32
ENDBRANCH  22  31
BRANCH  26  35
HETATM   35  C   UNL     1      -9.667  15.210  68.505  1.00  0.00    -0.214 C  
BRANCH  35  36
HETATM   36  C   UNL     1     -10.553  14.240  69.233  1.00  0.00    -0.160 C  
HETATM   37  C   UNL     1     -11.512  14.558  70.124  1.00  0.00    -0.297 C  
HETATM   38  C   UNL     1     -12.311  13.473  70.777  1.00  0.00    -0.440 C  
HETATM   39  C   UNL     1     -11.851  15.958  70.567  1.00  0.00    -0.374 C  
ENDBRANCH  35  36
ENDBRANCH  26  35
TORSDOF 4
ENDMDL
MODEL       54
REMARK 921   NORMALIZED FREE ENERGY PREDICTED BY IDOCK:   -4.56 KCAL/MOL
REMARK 922        TOTAL FREE ENERGY PREDICTED BY IDOCK:   -5.80 KCAL/MOL
REMARK 923 INTER-LIGAND FREE ENERGY PREDICTED BY IDOCK:   -4.97 KCAL/MOL
REMARK 924 INTRA-LIGAND FREE ENERGY PREDICTED BY IDOCK:   -0.84 KCAL/MOL
REMARK 927      BINDING AFFINITY PREDICTED BY RF-SCORE:    0.00 PKD
ROOT
HETATM    1  O   UNL     1      -6.487   3.214  66.711  1.00  0.00    -0.035 OA 
HETATM    2  H   UNL     1      -6.026   2.859  67.463  1.00  0.00     0.000 HD 
HETATM    3  C   UNL     1      -7.433   4.204  67.081  1.00  0.00    -0.073 C  
HETATM    4  C   UNL     1      -8.177   4.777  65.869  1.00  0.00    -0.112 C  
HETATM    5  C   UNL     1      -9.245   5.859  66.273  1.00  0.00    -0.171 C  
HETATM    6  C   UNL     1      -8.578   7.049  67.097  1.00  0.00    -0.121 C  
HETATM    7  C   UNL     1      -7.777   7.716  65.966  1.00  0.00    -0.090 C  
HETATM    8  C   UNL     1      -7.934   6.252  68.287  1.00  0.00    -0.108 C  
HETATM    9  C   UNL     1      -6.776   5.303  67.924  1.00  0.00    -0.055 C  
HETATM   10  C   UNL     1      -7.787   6.807  69.692  1.00  0.00    -0.115 C  
HETATM   11  C   UNL     1      -8.968   7.756  70.095  1.00  0.00    -0.146 C  
HETATM   12  C   UNL     1      -5.492   5.931  67.344  1.00  0.00    -0.005 C  
HETATM   13  C   UNL     1      -8.977   8.980  69.108  1.00  0.00    -0.140 C  
HETATM   14  C   UNL     1      -7.515   9.431  69.667  1.00  0.00    -0.084 C  
HETATM   15  C   UNL     1      -9.525   8.207  67.702  1.00  0.00    -0.172 C  
HETATM   16  C   UNL     1     -10.327   9.038  66.582  1.00  0.00    -0.219 C  
HETATM   17  C   UNL     1     -11.279  10.124  67.092  1.00  0.00     0.046 C  
HETATM   18  O   UNL     1      -9.511   9.663  65.606  1.00  0.00    -0.215 OA 
HETATM   19  C   UNL     1     -10.618  11.107  68.037  1.00  0.00    -0.233 C  
HETATM   20  H   UNL     1      -9.984  10.154  64.945  1.00  0.00     0.000 HD 
HETATM   21  C   UNL     1      -9.486  12.074  67.352  1.00  0.00    -0.177 C  
HETATM   22  C   UNL     1      -8.281  11.379  67.890  1.00  0.00    -0.132 C  
HETATM   23  C   UNL     1      -9.439  13.447  67.354  1.00  0.00    -0.222 C  
HETATM   24  C   UNL     1      -8.855  11.520  69.421  1.00  0.00     0.630 C  
HETATM   25  C   UNL     1      -8.230  14.152  68.026  1.00  0.00    -0.152 C  
HETATM   26  C   UNL     1      -9.856  14.288  66.172  1.00  0.00    -0.335 C  
HETATM   27  O   UNL     1      -7.961  15.334  67.426  1.00  0.00    -0.154 OA 
HETATM   28  C   UNL     1     -10.783  10.226  70.545  1.00  0.00    -0.212 C  
HETATM   29  C   UNL     1      -9.889  10.358  69.325  1.00  0.00    -0.243 C  
HETATM   30  O   UNL     1      -7.507  13.779  68.920  1.00  0.00    -0.111 OA 
ENDROOT
BRANCH  22  31
HETATM   31  O   UNL     1      -7.017  11.698  67.244  1.00  0.00    -0.110 OA 
BRANCH  31  32
HETATM   32  C   UNL     1      -6.592  10.889  66.206  1.00  0.00    -0.126 C  
HETATM   33  O   UNL     1      -7.265  10.654  65.203  1.00  0.00    -0.066 OA 
HETATM   34  C   UNL     1      -5.303  10.106  66.363  1.00  0.00    -0.046 C  
ENDBRANCH  31  32
ENDBRANCH  22  31
BRANCH  26  35
HETATM   35  C   UNL     1     -10.840  13.677  65.201  1.00  0.00    -0.338 C  
BRANCH  35  36
HETATM   36  C   UNL     1     -10.063  12.816  64.248  1.00  0.00    -0.277 C  
HETATM   37  C   UNL     1     -10.584  11.933  63.373  1.00  0.00    -0.485 C  
HETATM   38  C   UNL     1      -9.675  11.136  62.489  1.00  0.00    -0.112 C  
HETATM   39  C   UNL     1     -12.053  11.638  63.214  1.00  0.00    -0.255 C  
ENDBRANCH  35  36
ENDBRANCH  26  35
TORSDOF 4
ENDMDL
MODEL       55
REMARK 921   NORMALIZED FREE ENERGY PREDICTED BY IDOCK:   -4.44 KCAL/MOL
REMARK 922        TOTAL FREE ENERGY PREDICTED BY IDOCK:   -5.66 KCAL/MOL
REMARK 923 INTER-LIGAND FREE ENERGY PREDICTED BY IDOCK:   -4.71 KCAL/MOL
REMARK 924 INTRA-LIGAND FREE ENERGY PREDICTED BY IDOCK:   -0.95 KCAL/MOL
REMARK 927      BINDING AFFINITY PREDICTED BY RF-SCORE:    0.00 PKD
ROOT
HETATM    1  O   UNL     1     -11.156  18.751  66.630  1.00  0.00    -0.080 OA 
HETATM    2  H   UNL     1     -10.735  19.384  67.199  1.00  0.00     0.000 HD 
HETATM    3  C   UNL     1     -10.333  17.622  66.382  1.00  0.00    -0.345 C  
HETATM    4  C   UNL     1     -11.013  16.599  65.464  1.00  0.00    -0.063 C  
HETATM    5  C   UNL     1     -10.098  15.355  65.165  1.00  0.00    -0.299 C  
HETATM    6  C   UNL     1      -9.642  14.636  66.513  1.00  0.00    -0.308 C  
HETATM    7  C   UNL     1     -10.987  14.021  66.934  1.00  0.00    -0.301 C  
HETATM    8  C   UNL     1      -8.944  15.831  67.256  1.00  0.00    -0.211 C  
HETATM    9  C   UNL     1      -9.860  16.989  67.695  1.00  0.00    -0.257 C  
HETATM   10  C   UNL     1      -7.758  15.667  68.188  1.00  0.00    -0.127 C  
HETATM   11  C   UNL     1      -6.795  14.511  67.747  1.00  0.00    -0.193 C  
HETATM   12  C   UNL     1     -10.956  16.678  68.736  1.00  0.00    -0.309 C  
HETATM   13  C   UNL     1      -7.601  13.161  67.773  1.00  0.00    -0.155 C  
HETATM   14  C   UNL     1      -7.792  13.315  69.383  1.00  0.00     0.652 C  
HETATM   15  C   UNL     1      -8.605  13.403  66.428  1.00  0.00     0.331 C  
HETATM   16  C   UNL     1      -9.165  12.143  65.599  1.00  0.00     0.049 C  
HETATM   17  C   UNL     1      -8.213  10.954  65.443  1.00  0.00    -0.016 C  
HETATM   18  O   UNL     1     -10.383  11.604  66.083  1.00  0.00    -0.226 OA 
HETATM   19  C   UNL     1      -7.656  10.452  66.760  1.00  0.00    -0.110 C  
HETATM   20  H   UNL     1     -10.713  10.861  65.594  1.00  0.00     0.000 HD 
HETATM   21  C   UNL     1      -8.756   9.757  67.757  1.00  0.00    -0.129 C  
HETATM   22  C   UNL     1      -8.894  10.889  68.718  1.00  0.00    -0.161 C  
HETATM   23  C   UNL     1      -8.715   8.500  68.311  1.00  0.00    -0.143 C  
HETATM   24  C   UNL     1      -7.270  10.913  68.958  1.00  0.00    -0.101 C  
HETATM   25  C   UNL     1      -8.673   8.366  69.857  1.00  0.00    -0.136 C  
HETATM   26  C   UNL     1      -9.513   7.337  67.774  1.00  0.00    -0.143 C  
HETATM   27  O   UNL     1      -9.275   7.225  70.262  1.00  0.00    -0.155 OA 
HETATM   28  C   UNL     1      -5.420  11.760  67.374  1.00  0.00    -0.094 C  
HETATM   29  C   UNL     1      -6.911  11.650  67.633  1.00  0.00    -0.095 C  
HETATM   30  O   UNL     1      -8.254   9.128  70.696  1.00  0.00    -0.156 OA 
ENDROOT
BRANCH  22  31
HETATM   31  O   UNL     1     -10.051  10.844  69.599  1.00  0.00    -0.103 OA 
BRANCH  31  32
HETATM   32  C   UNL     1     -11.244  11.370  69.136  1.00  0.00    -0.272 C  
HETATM   33  O   UNL     1     -11.857  10.925  68.167  1.00  0.00    -0.564 OA 
HETATM   34  C   UNL     1     -11.759  12.665  69.735  1.00  0.00    -0.354 C  
ENDBRANCH  31  32
ENDBRANCH  22  31
BRANCH  26  35
HETATM   35  C   UNL     1      -9.919   7.389  66.320  1.00  0.00     0.012 C  
BRANCH  35  36
HETATM   36  C   UNL     1      -9.209   6.272  65.609  1.00  0.00     0.080 C  
HETATM   37  C   UNL     1      -7.903   6.249  65.276  1.00  0.00    -0.107 C  
HETATM   38  C   UNL     1      -7.339   5.062  64.558  1.00  0.00    -0.063 C  
HETATM   39  C   UNL     1      -6.924   7.363  65.542  1.00  0.00    -0.060 C  
ENDBRANCH  35  36
ENDBRANCH  26  35
TORSDOF 4
ENDMDL
MODEL       56
REMARK 921   NORMALIZED FREE ENERGY PREDICTED BY IDOCK:   -4.17 KCAL/MOL
REMARK 922        TOTAL FREE ENERGY PREDICTED BY IDOCK:   -5.32 KCAL/MOL
REMARK 923 INTER-LIGAND FREE ENERGY PREDICTED BY IDOCK:   -4.56 KCAL/MOL
REMARK 924 INTRA-LIGAND FREE ENERGY PREDICTED BY IDOCK:   -0.76 KCAL/MOL
REMARK 927      BINDING AFFINITY PREDICTED BY RF-SCORE:    0.00 PKD
ROOT
HETATM    1  O   UNL     1     -10.908   8.222  67.847  1.00  0.00    -0.464 OA 
HETATM    2  H   UNL     1     -11.373   7.941  68.626  1.00  0.00     0.000 HD 
HETATM    3  C   UNL     1     -11.119   9.595  67.562  1.00  0.00     0.035 C  
HETATM    4  C   UNL     1     -10.367  10.049  66.305  1.00  0.00    -0.235 C  
HETATM    5  C   UNL     1     -10.616  11.566  65.969  1.00  0.00    -0.310 C  
HETATM    6  C   UNL     1     -10.213  12.503  67.194  1.00  0.00    -0.225 C  
HETATM    7  C   UNL     1      -8.685  12.350  67.133  1.00  0.00    -0.195 C  
HETATM    8  C   UNL     1     -11.118  11.901  68.327  1.00  0.00    -0.289 C  
HETATM    9  C   UNL     1     -10.783  10.466  68.778  1.00  0.00    -0.255 C  
HETATM   10  C   UNL     1     -11.712  12.721  69.457  1.00  0.00    -0.383 C  
HETATM   11  C   UNL     1     -12.087  14.179  69.017  1.00  0.00    -0.348 C  
HETATM   12  C   UNL     1      -9.406  10.226  69.429  1.00  0.00    -0.217 C  
HETATM   13  C   UNL     1     -10.773  14.906  68.550  1.00  0.00    -0.245 C  
HETATM   14  C   UNL     1     -10.176  14.780  70.061  1.00  0.00     0.147 C  
HETATM   15  C   UNL     1     -10.498  14.088  67.091  1.00  0.00    -0.270 C  
HETATM   16  C   UNL     1      -9.702  14.812  65.895  1.00  0.00    -0.323 C  
HETATM   17  C   UNL     1      -9.962  16.310  65.714  1.00  0.00    -0.353 C  
HETATM   18  O   UNL     1      -8.294  14.664  65.941  1.00  0.00     0.284 OA 
HETATM   19  C   UNL     1      -9.756  17.113  66.982  1.00  0.00    -0.265 C  
HETATM   20  H   UNL     1      -7.824  15.091  65.235  1.00  0.00     0.000 HD 
HETATM   21  C   UNL     1      -8.205  17.193  67.507  1.00  0.00    -0.196 C  
HETATM   22  C   UNL     1      -8.327  16.223  68.632  1.00  0.00    -0.220 C  
HETATM   23  C   UNL     1      -7.461  18.320  67.763  1.00  0.00    -0.224 C  
HETATM   24  C   UNL     1      -9.589  17.066  69.255  1.00  0.00    -0.040 C  
HETATM   25  C   UNL     1      -6.936  18.557  69.205  1.00  0.00    -0.242 C  
HETATM   26  C   UNL     1      -6.422  18.856  66.807  1.00  0.00    -0.201 C  
HETATM   27  O   UNL     1      -5.767  19.238  69.191  1.00  0.00    -0.207 OA 
HETATM   28  C   UNL     1     -12.014  17.211  68.389  1.00  0.00     1.492 C  
HETATM   29  C   UNL     1     -10.659  16.542  68.251  1.00  0.00    -0.326 C  
HETATM   30  O   UNL     1      -7.375  18.183  70.267  1.00  0.00     1.188 OA 
ENDROOT
BRANCH  22  31
HETATM   31  O   UNL     1      -7.078  15.713  69.176  1.00  0.00    -0.142 OA 
BRANCH  31  32
HETATM   32  C   UNL     1      -6.514  14.597  68.583  1.00  0.00    -0.085 C  
HETATM   33  O   UNL     1      -6.027  14.596  67.454  1.00  0.00    -0.343 OA 
HETATM   34  C   UNL     1      -6.642  13.253  69.274  1.00  0.00    -0.093 C  
ENDBRANCH  31  32
ENDBRANCH  22  31
BRANCH  26  35
HETATM   35  C   UNL     1      -6.580  18.505  65.346  1.00  0.00    -0.257 C  
BRANCH  35  36
HETATM   36  C   UNL     1      -6.242  19.729  64.545  1.00  0.00    -0.277 C  
HETATM   37  C   UNL     1      -5.623  19.748  63.348  1.00  0.00    -0.344 C  
HETATM   38  C   UNL     1      -5.345  21.055  62.673  1.00  0.00    -0.236 C  
HETATM   39  C   UNL     1      -5.136  18.528  62.608  1.00  0.00     0.102 C  
ENDBRANCH  35  36
ENDBRANCH  26  35
TORSDOF 4
ENDMDL
MODEL       57
REMARK 921   NORMALIZED FREE ENERGY PREDICTED BY IDOCK:   -4.13 KCAL/MOL
REMARK 922        TOTAL FREE ENERGY PREDICTED BY IDOCK:   -5.27 KCAL/MOL
REMARK 923 INTER-LIGAND FREE ENERGY PREDICTED BY IDOCK:   -4.34 KCAL/MOL
REMARK 924 INTRA-LIGAND FREE ENERGY PREDICTED BY IDOCK:   -0.94 KCAL/MOL
REMARK 927      BINDING AFFINITY PREDICTED BY RF-SCORE:    0.00 PKD
ROOT
HETATM    1  O   UNL     1      -9.972  12.703  66.524  1.00  0.00    -0.239 OA 
HETATM    2  H   UNL     1      -9.509  12.944  65.730  1.00  0.00     0.000 HD 
HETATM    3  C   UNL     1     -10.165  11.301  66.628  1.00  0.00    -0.229 C  
HETATM    4  C   UNL     1     -10.912  10.911  67.909  1.00  0.00    -0.325 C  
HETATM    5  C   UNL     1     -11.150   9.361  68.021  1.00  0.00    -0.004 C  
HETATM    6  C   UNL     1      -9.775   8.558  67.945  1.00  0.00    -0.193 C  
HETATM    7  C   UNL     1      -9.185   8.946  69.310  1.00  0.00    -0.145 C  
HETATM    8  C   UNL     1      -9.221   9.063  66.565  1.00  0.00    -0.226 C  
HETATM    9  C   UNL     1      -8.834  10.553  66.490  1.00  0.00    -0.155 C  
HETATM   10  C   UNL     1      -8.376   8.214  65.634  1.00  0.00    -0.148 C  
HETATM   11  C   UNL     1      -8.768   6.697  65.672  1.00  0.00    -0.093 C  
HETATM   12  C   UNL     1      -7.682  11.037  67.393  1.00  0.00    -0.114 C  
HETATM   13  C   UNL     1      -8.535   6.164  67.133  1.00  0.00    -0.104 C  
HETATM   14  C   UNL     1      -6.940   6.453  66.975  1.00  0.00    -0.071 C  
HETATM   15  C   UNL     1      -9.813   6.945  67.928  1.00  0.00    -0.155 C  
HETATM   16  C   UNL     1     -10.456   6.299  69.254  1.00  0.00    -0.244 C  
HETATM   17  C   UNL     1     -10.562   4.772  69.283  1.00  0.00     0.380 C  
HETATM   18  O   UNL     1      -9.821   6.668  70.465  1.00  0.00    -0.175 OA 
HETATM   19  C   UNL     1      -9.249   4.072  68.998  1.00  0.00    -0.215 C  
HETATM   20  H   UNL     1     -10.202   6.287  71.248  1.00  0.00     0.000 HD 
HETATM   21  C   UNL     1      -8.099   4.262  70.151  1.00  0.00    -0.060 C  
HETATM   22  C   UNL     1      -7.254   5.254  69.425  1.00  0.00    -0.061 C  
HETATM   23  C   UNL     1      -7.420   3.280  70.833  1.00  0.00    -0.037 C  
HETATM   24  C   UNL     1      -7.150   4.253  68.129  1.00  0.00    -0.059 C  
HETATM   25  C   UNL     1      -5.877   3.198  70.685  1.00  0.00    -0.017 C  
HETATM   26  C   UNL     1      -7.765   2.869  72.244  1.00  0.00    -0.054 C  
HETATM   27  O   UNL     1      -5.307   2.709  71.809  1.00  0.00    -0.003 OA 
HETATM   28  C   UNL     1      -8.959   3.687  66.380  1.00  0.00    -0.148 C  
HETATM   29  C   UNL     1      -8.570   4.554  67.564  1.00  0.00    -0.105 C  
HETATM   30  O   UNL     1      -5.160   3.548  69.778  1.00  0.00    -0.003 OA 
ENDROOT
BRANCH  22  31
HETATM   31  O   UNL     1      -6.284   5.979  70.231  1.00  0.00    -0.029 OA 
BRANCH  31  32
HETATM   32  C   UNL     1      -6.599   7.265  70.633  1.00  0.00    -0.047 C  
HETATM   33  O   UNL     1      -6.084   8.275  70.157  1.00  0.00    -0.031 OA 
HETATM   34  C   UNL     1      -7.501   7.459  71.836  1.00  0.00    -0.080 C  
ENDBRANCH  31  32
ENDBRANCH  22  31
BRANCH  26  35
HETATM   35  C   UNL     1      -9.179   3.121  72.712  1.00  0.00    -0.126 C  
BRANCH  35  36
HETATM   36  C   UNL     1      -9.184   4.420  73.465  1.00  0.00    -0.113 C  
HETATM   37  C   UNL     1     -10.238   5.247  73.614  1.00  0.00    -0.237 C  
HETATM   38  C   UNL     1     -10.084   6.518  74.390  1.00  0.00    -0.371 C  
HETATM   39  C   UNL     1     -11.606   5.018  73.024  1.00  0.00    -0.299 C  
ENDBRANCH  35  36
ENDBRANCH  26  35
TORSDOF 4
ENDMDL
MODEL       58
REMARK 921   NORMALIZED FREE ENERGY PREDICTED BY IDOCK:   -4.05 KCAL/MOL
REMARK 922        TOTAL FREE ENERGY PREDICTED BY IDOCK:   -5.18 KCAL/MOL
REMARK 923 INTER-LIGAND FREE ENERGY PREDICTED BY IDOCK:   -5.21 KCAL/MOL
REMARK 924 INTRA-LIGAND FREE ENERGY PREDICTED BY IDOCK:    0.03 KCAL/MOL
REMARK 927      BINDING AFFINITY PREDICTED BY RF-SCORE:    0.00 PKD
ROOT
HETATM    1  O   UNL     1     -11.122  14.711  65.982  1.00  0.00    -0.321 OA 
HETATM    2  H   UNL     1     -12.058  14.869  66.028  1.00  0.00     0.000 HD 
HETATM    3  C   UNL     1     -10.658  13.914  67.059  1.00  0.00    -0.279 C  
HETATM    4  C   UNL     1      -9.148  13.660  66.985  1.00  0.00    -0.254 C  
HETATM    5  C   UNL     1      -8.621  12.796  68.190  1.00  0.00    -0.185 C  
HETATM    6  C   UNL     1      -9.389  11.403  68.280  1.00  0.00    -0.187 C  
HETATM    7  C   UNL     1      -8.800  10.713  67.038  1.00  0.00    -0.141 C  
HETATM    8  C   UNL     1     -10.875  11.898  68.397  1.00  0.00    -0.263 C  
HETATM    9  C   UNL     1     -11.455  12.609  67.159  1.00  0.00    -0.406 C  
HETATM   10  C   UNL     1     -11.948  11.166  69.181  1.00  0.00    -0.413 C  
HETATM   11  C   UNL     1     -11.387  10.456  70.461  1.00  0.00    -0.424 C  
HETATM   12  C   UNL     1     -11.586  11.789  65.860  1.00  0.00    -0.200 C  
HETATM   13  C   UNL     1     -10.328   9.386  70.006  1.00  0.00    -0.265 C  
HETATM   14  C   UNL     1     -11.502   8.566  69.229  1.00  0.00     0.586 C  
HETATM   15  C   UNL     1      -9.074  10.416  69.518  1.00  0.00    -0.129 C  
HETATM   16  C   UNL     1      -7.546   9.914  69.572  1.00  0.00    -0.125 C  
HETATM   17  C   UNL     1      -7.169   9.009  70.748  1.00  0.00    -0.098 C  
HETATM   18  O   UNL     1      -7.098   9.244  68.406  1.00  0.00    -0.071 OA 
HETATM   19  C   UNL     1      -8.076   7.804  70.895  1.00  0.00    -0.102 C  
HETATM   20  H   UNL     1      -6.197   8.947  68.438  1.00  0.00     0.000 HD 
HETATM   21  C   UNL     1      -7.961   6.700  69.688  1.00  0.00    -0.124 C  
HETATM   22  C   UNL     1      -9.226   7.050  68.980  1.00  0.00    -0.137 C  
HETATM   23  C   UNL     1      -7.686   5.358  69.798  1.00  0.00    -0.077 C  
HETATM   24  C   UNL     1     -10.083   6.861  70.367  1.00  0.00    -0.201 C  
HETATM   25  C   UNL     1      -8.749   4.335  69.316  1.00  0.00    -0.084 C  
HETATM   26  C   UNL     1      -6.325   4.770  69.510  1.00  0.00    -0.027 C  
HETATM   27  O   UNL     1      -8.164   3.201  68.868  1.00  0.00    -0.059 OA 
HETATM   28  C   UNL     1     -10.164   8.403  72.433  1.00  0.00    -0.399 C  
HETATM   29  C   UNL     1      -9.677   8.222  71.007  1.00  0.00    -0.201 C  
HETATM   30  O   UNL     1      -9.951   4.436  69.237  1.00  0.00    -0.183 OA 
ENDROOT
BRANCH  22  31
HETATM   31  O   UNL     1      -9.362   6.541  67.624  1.00  0.00    -0.120 OA 
BRANCH  31  32
HETATM   32  C   UNL     1      -8.434   6.942  66.680  1.00  0.00    -0.121 C  
HETATM   33  O   UNL     1      -7.220   6.801  66.813  1.00  0.00    -0.073 OA 
HETATM   34  C   UNL     1      -8.902   7.750  65.485  1.00  0.00    -0.048 C  
ENDBRANCH  31  32
ENDBRANCH  22  31
BRANCH  26  35
HETATM   35  C   UNL     1      -5.132   5.688  69.646  1.00  0.00    -0.004 C  
BRANCH  35  36
HETATM   36  C   UNL     1      -5.170   6.281  71.025  1.00  0.00    -0.018 C  
HETATM   37  C   UNL     1      -5.250   5.594  72.181  1.00  0.00    -0.017 C  
HETATM   38  C   UNL     1      -5.286   6.332  73.484  1.00  0.00    -0.037 C  
HETATM   39  C   UNL     1      -5.339   4.094  72.291  1.00  0.00     0.000 C  
ENDBRANCH  35  36
ENDBRANCH  26  35
TORSDOF 4
ENDMDL
MODEL       59
REMARK 921   NORMALIZED FREE ENERGY PREDICTED BY IDOCK:   -3.91 KCAL/MOL
REMARK 922        TOTAL FREE ENERGY PREDICTED BY IDOCK:   -5.00 KCAL/MOL
REMARK 923 INTER-LIGAND FREE ENERGY PREDICTED BY IDOCK:   -5.21 KCAL/MOL
REMARK 924 INTRA-LIGAND FREE ENERGY PREDICTED BY IDOCK:    0.21 KCAL/MOL
REMARK 927      BINDING AFFINITY PREDICTED BY RF-SCORE:    0.00 PKD
ROOT
HETATM    1  O   UNL     1     -12.471  16.358  68.495  1.00  0.00     0.230 OA 
HETATM    2  H   UNL     1     -12.062  17.157  68.808  1.00  0.00     0.000 HD 
HETATM    3  C   UNL     1     -11.530  15.465  67.920  1.00  0.00    -0.299 C  
HETATM    4  C   UNL     1     -12.189  14.175  67.415  1.00  0.00    -0.278 C  
HETATM    5  C   UNL     1     -11.156  13.189  66.755  1.00  0.00    -0.314 C  
HETATM    6  C   UNL     1      -9.981  12.822  67.767  1.00  0.00    -0.219 C  
HETATM    7  C   UNL     1     -10.767  11.940  68.751  1.00  0.00    -0.257 C  
HETATM    8  C   UNL     1      -9.432  14.254  68.105  1.00  0.00    -0.204 C  
HETATM    9  C   UNL     1     -10.381  15.178  68.893  1.00  0.00    -0.243 C  
HETATM   10  C   UNL     1      -7.976  14.548  68.412  1.00  0.00    -0.141 C  
HETATM   11  C   UNL     1      -6.989  13.638  67.603  1.00  0.00    -0.183 C  
HETATM   12  C   UNL     1     -10.784  14.742  70.316  1.00  0.00    -0.006 C  
HETATM   13  C   UNL     1      -7.259  12.141  68.003  1.00  0.00    -0.099 C  
HETATM   14  C   UNL     1      -6.789  12.472  69.527  1.00  0.00     0.089 C  
HETATM   15  C   UNL     1      -8.757  11.909  67.244  1.00  0.00    -0.171 C  
HETATM   16  C   UNL     1      -9.204  10.439  66.768  1.00  0.00    -0.155 C  
HETATM   17  C   UNL     1      -8.096   9.536  66.218  1.00  0.00    -0.111 C  
HETATM   18  O   UNL     1      -9.878   9.673  67.751  1.00  0.00    -0.149 OA 
HETATM   19  C   UNL     1      -6.913   9.398  67.155  1.00  0.00    -0.085 C  
HETATM   20  H   UNL     1     -10.142   8.805  67.469  1.00  0.00     0.000 HD 
HETATM   21  C   UNL     1      -7.223   8.589  68.547  1.00  0.00    -0.081 C  
HETATM   22  C   UNL     1      -7.277   9.770  69.454  1.00  0.00    -0.076 C  
HETATM   23  C   UNL     1      -6.573   7.482  69.039  1.00  0.00    -0.044 C  
HETATM   24  C   UNL     1      -5.796  10.260  68.944  1.00  0.00    -0.041 C  
HETATM   25  C   UNL     1      -5.845   7.590  70.406  1.00  0.00    -0.027 C  
HETATM   26  C   UNL     1      -7.130   6.083  68.930  1.00  0.00    -0.081 C  
HETATM   27  O   UNL     1      -5.844   6.402  71.052  1.00  0.00    -0.026 OA 
HETATM   28  C   UNL     1      -5.138  11.327  66.690  1.00  0.00    -0.105 C  
HETATM   29  C   UNL     1      -6.270  10.864  67.589  1.00  0.00    -0.051 C  
HETATM   30  O   UNL     1      -5.363   8.550  70.960  1.00  0.00    -0.028 OA 
ENDROOT
BRANCH  22  31
HETATM   31  O   UNL     1      -7.882   9.549  70.758  1.00  0.00    -0.242 OA 
BRANCH  31  32
HETATM   32  C   UNL     1      -9.210   9.165  70.806  1.00  0.00    -0.262 C  
HETATM   33  O   UNL     1     -10.125   9.808  70.295  1.00  0.00    -0.248 OA 
HETATM   34  C   UNL     1      -9.604   7.982  71.669  1.00  0.00    -0.218 C  
ENDBRANCH  31  32
ENDBRANCH  22  31
BRANCH  26  35
HETATM   35  C   UNL     1      -8.106   5.813  67.809  1.00  0.00    -0.102 C  
BRANCH  35  36
HETATM   36  C   UNL     1      -9.481   6.142  68.314  1.00  0.00    -0.117 C  
HETATM   37  C   UNL     1     -10.039   5.681  69.451  1.00  0.00    -0.290 C  
HETATM   38  C   UNL     1     -11.430   6.095  69.818  1.00  0.00    -0.362 C  
HETATM   39  C   UNL     1      -9.380   4.725  70.412  1.00  0.00    -0.216 C  
ENDBRANCH  35  36
ENDBRANCH  26  35
TORSDOF 4
ENDMDL
MODEL       60
REMARK 921   NORMALIZED FREE ENERGY PREDICTED BY IDOCK:   -3.89 KCAL/MOL
REMARK 922        TOTAL FREE ENERGY PREDICTED BY IDOCK:   -4.98 KCAL/MOL
REMARK 923 INTER-LIGAND FREE ENERGY PREDICTED BY IDOCK:   -3.75 KCAL/MOL
REMARK 924 INTRA-LIGAND FREE ENERGY PREDICTED BY IDOCK:   -1.22 KCAL/MOL
REMARK 927      BINDING AFFINITY PREDICTED BY RF-SCORE:    0.00 PKD
ROOT
HETATM    1  O   UNL     1      -8.436   1.850  63.641  1.00  0.00    -0.079 OA 
HETATM    2  H   UNL     1      -9.263   1.391  63.559  1.00  0.00     0.000 HD 
HETATM    3  C   UNL     1      -8.601   3.172  64.127  1.00  0.00    -0.089 C  
HETATM    4  C   UNL     1      -7.266   3.914  64.259  1.00  0.00    -0.058 C  
HETATM    5  C   UNL     1      -7.443   5.389  64.776  1.00  0.00    -0.070 C  
HETATM    6  C   UNL     1      -8.209   5.423  66.173  1.00  0.00    -0.111 C  
HETATM    7  C   UNL     1      -7.108   4.840  67.074  1.00  0.00    -0.072 C  
HETATM    8  C   UNL     1      -9.535   4.671  65.796  1.00  0.00    -0.176 C  
HETATM    9  C   UNL     1      -9.394   3.179  65.439  1.00  0.00    -0.127 C  
HETATM   10  C   UNL     1     -10.884   4.976  66.419  1.00  0.00    -0.116 C  
HETATM   11  C   UNL     1     -11.063   6.495  66.767  1.00  0.00    -0.229 C  
HETATM   12  C   UNL     1      -8.893   2.226  66.543  1.00  0.00    -0.133 C  
HETATM   13  C   UNL     1      -9.962   6.893  67.816  1.00  0.00    -0.180 C  
HETATM   14  C   UNL     1     -10.624   5.863  68.890  1.00  0.00    -0.357 C  
HETATM   15  C   UNL     1      -8.590   6.852  66.820  1.00  0.00    -0.120 C  
HETATM   16  C   UNL     1      -7.314   7.769  67.162  1.00  0.00    -0.091 C  
HETATM   17  C   UNL     1      -7.608   9.157  67.738  1.00  0.00    -0.085 C  
HETATM   18  O   UNL     1      -6.372   7.176  68.039  1.00  0.00    -0.040 OA 
HETATM   19  C   UNL     1      -8.514   9.125  68.951  1.00  0.00    -0.129 C  
HETATM   20  H   UNL     1      -5.618   7.717  68.241  1.00  0.00     0.000 HD 
HETATM   21  C   UNL     1      -7.859   8.438  70.288  1.00  0.00    -0.096 C  
HETATM   22  C   UNL     1      -8.589   7.139  70.220  1.00  0.00    -0.143 C  
HETATM   23  C   UNL     1      -7.728   8.989  71.540  1.00  0.00    -0.034 C  
HETATM   24  C   UNL     1     -10.029   7.925  70.160  1.00  0.00    -0.190 C  
HETATM   25  C   UNL     1      -8.450   8.310  72.734  1.00  0.00    -0.183 C  
HETATM   26  C   UNL     1      -6.429   9.559  72.058  1.00  0.00     0.350 C  
HETATM   27  O   UNL     1      -7.766   8.496  73.886  1.00  0.00    -0.354 OA 
HETATM   28  C   UNL     1     -11.066   9.241  68.200  1.00  0.00     0.050 C  
HETATM   29  C   UNL     1      -9.941   8.331  68.659  1.00  0.00    -0.203 C  
HETATM   30  O   UNL     1      -9.448   7.629  72.758  1.00  0.00    -0.156 OA 
ENDROOT
BRANCH  22  31
HETATM   31  O   UNL     1      -8.052   6.060  71.035  1.00  0.00    -0.117 OA 
BRANCH  31  32
HETATM   32  C   UNL     1      -6.942   5.379  70.569  1.00  0.00    -0.053 C  
HETATM   33  O   UNL     1      -5.862   5.917  70.330  1.00  0.00    -0.022 OA 
HETATM   34  C   UNL     1      -7.086   3.925  70.165  1.00  0.00    -0.041 C  
ENDBRANCH  31  32
ENDBRANCH  22  31
BRANCH  26  35
HETATM   35  C   UNL     1      -5.426  10.037  71.033  1.00  0.00    -0.080 C  
BRANCH  35  36
HETATM   36  C   UNL     1      -5.164  11.491  71.299  1.00  0.00    -0.060 C  
HETATM   37  C   UNL     1      -5.769  12.530  70.690  1.00  0.00    -0.146 C  
HETATM   38  C   UNL     1      -5.392  13.932  71.058  1.00  0.00    -0.162 C  
HETATM   39  C   UNL     1      -6.811  12.410  69.608  1.00  0.00     0.148 C  
ENDBRANCH  35  36
ENDBRANCH  26  35
TORSDOF 4
ENDMDL
MODEL       61
REMARK 921   NORMALIZED FREE ENERGY PREDICTED BY IDOCK:   -3.54 KCAL/MOL
REMARK 922        TOTAL FREE ENERGY PREDICTED BY IDOCK:   -4.54 KCAL/MOL
REMARK 923 INTER-LIGAND FREE ENERGY PREDICTED BY IDOCK:   -4.68 KCAL/MOL
REMARK 924 INTRA-LIGAND FREE ENERGY PREDICTED BY IDOCK:    0.14 KCAL/MOL
REMARK 927      BINDING AFFINITY PREDICTED BY RF-SCORE:    0.00 PKD
ROOT
HETATM    1  O   UNL     1     -10.397  18.868  67.550  1.00  0.00    -0.375 OA 
HETATM    2  H   UNL     1     -10.180  19.305  66.734  1.00  0.00     0.000 HD 
HETATM    3  C   UNL     1     -10.794  17.521  67.347  1.00  0.00    -0.170 C  
HETATM    4  C   UNL     1     -11.145  16.816  68.663  1.00  0.00    -0.247 C  
HETATM    5  C   UNL     1     -11.609  15.328  68.445  1.00  0.00    -0.365 C  
HETATM    6  C   UNL     1     -10.499  14.485  67.671  1.00  0.00    -0.246 C  
HETATM    7  C   UNL     1      -9.440  14.389  68.781  1.00  0.00    -0.161 C  
HETATM    8  C   UNL     1     -10.339  15.345  66.367  1.00  0.00    -0.303 C  
HETATM    9  C   UNL     1      -9.737  16.752  66.548  1.00  0.00    -0.298 C  
HETATM   10  C   UNL     1     -10.007  14.761  65.007  1.00  0.00    -0.204 C  
HETATM   11  C   UNL     1     -10.631  13.340  64.787  1.00  0.00    -0.402 C  
HETATM   12  C   UNL     1      -8.287  16.846  67.067  1.00  0.00    -0.227 C  
HETATM   13  C   UNL     1     -10.039  12.368  65.872  1.00  0.00    -0.272 C  
HETATM   14  C   UNL     1      -8.555  12.569  65.230  1.00  0.00     1.516 C  
HETATM   15  C   UNL     1     -10.829  12.963  67.249  1.00  0.00    -0.277 C  
HETATM   16  C   UNL     1     -11.115  11.992  68.500  1.00  0.00    -0.244 C  
HETATM   17  C   UNL     1     -11.478  10.542  68.167  1.00  0.00    -0.255 C  
HETATM   18  O   UNL     1     -10.068  11.922  69.452  1.00  0.00    -0.388 OA 
HETATM   19  C   UNL     1     -10.475   9.866  67.255  1.00  0.00    -0.319 C  
HETATM   20  H   UNL     1     -10.237  11.350  70.190  1.00  0.00     0.000 HD 
HETATM   21  C   UNL     1      -9.000   9.604  67.921  1.00  0.00    -0.120 C  
HETATM   22  C   UNL     1      -8.271  10.703  67.225  1.00  0.00    -0.116 C  
HETATM   23  C   UNL     1      -8.326   8.412  68.031  1.00  0.00    -0.128 C  
HETATM   24  C   UNL     1      -8.773  10.143  65.765  1.00  0.00    -0.166 C  
HETATM   25  C   UNL     1      -6.954   8.260  67.320  1.00  0.00    -0.075 C  
HETATM   26  C   UNL     1      -8.264   7.614  69.311  1.00  0.00    -0.133 C  
HETATM   27  O   UNL     1      -6.149   7.408  67.993  1.00  0.00    -0.033 OA 
HETATM   28  C   UNL     1     -11.120  10.282  64.706  1.00  0.00     1.487 C  
HETATM   29  C   UNL     1     -10.221  10.711  65.851  1.00  0.00    -0.314 C  
HETATM   30  O   UNL     1      -6.518   8.816  66.339  1.00  0.00    -0.060 OA 
ENDROOT
BRANCH  22  31
HETATM   31  O   UNL     1      -6.980  11.069  67.784  1.00  0.00    -0.077 OA 
BRANCH  31  32
HETATM   32  C   UNL     1      -6.208  11.990  67.098  1.00  0.00    -0.151 C  
HETATM   33  O   UNL     1      -6.400  13.204  67.135  1.00  0.00    -0.257 OA 
HETATM   34  C   UNL     1      -5.172  11.491  66.110  1.00  0.00     0.028 C  
ENDBRANCH  31  32
ENDBRANCH  22  31
BRANCH  26  35
HETATM   35  C   UNL     1      -9.382   7.818  70.307  1.00  0.00    -0.156 C  
BRANCH  35  36
HETATM   36  C   UNL     1      -8.761   7.942  71.669  1.00  0.00    -0.153 C  
HETATM   37  C   UNL     1      -9.420   7.927  72.845  1.00  0.00    -0.321 C  
HETATM   38  C   UNL     1      -8.658   8.069  74.126  1.00  0.00    -0.256 C  
HETATM   39  C   UNL     1     -10.914   7.805  72.997  1.00  0.00    -0.442 C  
ENDBRANCH  35  36
ENDBRANCH  26  35
TORSDOF 4
ENDMDL
MODEL       62
REMARK 921   NORMALIZED FREE ENERGY PREDICTED BY IDOCK:   -3.44 KCAL/MOL
REMARK 922        TOTAL FREE ENERGY PREDICTED BY IDOCK:   -4.43 KCAL/MOL
REMARK 923 INTER-LIGAND FREE ENERGY PREDICTED BY IDOCK:   -3.76 KCAL/MOL
REMARK 924 INTRA-LIGAND FREE ENERGY PREDICTED BY IDOCK:   -0.67 KCAL/MOL
REMARK 927      BINDING AFFINITY PREDICTED BY RF-SCORE:    0.00 PKD
ROOT
HETATM    1  O   UNL     1      -5.133  20.558  66.510  1.00  0.00    -0.152 OA 
HETATM    2  H   UNL     1      -5.503  21.173  65.887  1.00  0.00     0.000 HD 
HETATM    3  C   UNL     1      -6.133  19.831  67.204  1.00  0.00    -0.183 C  
HETATM    4  C   UNL     1      -5.536  18.839  68.210  1.00  0.00    -0.190 C  
HETATM    5  C   UNL     1      -6.640  18.044  69.001  1.00  0.00    -0.251 C  
HETATM    6  C   UNL     1      -7.617  17.270  68.009  1.00  0.00    -0.197 C  
HETATM    7  C   UNL     1      -6.653  16.179  67.512  1.00  0.00    -0.200 C  
HETATM    8  C   UNL     1      -8.137  18.460  67.127  1.00  0.00    -0.244 C  
HETATM    9  C   UNL     1      -7.094  19.147  66.225  1.00  0.00    -0.258 C  
HETATM   10  C   UNL     1      -9.528  18.517  66.523  1.00  0.00    -0.322 C  
HETATM   11  C   UNL     1     -10.614  17.847  67.435  1.00  0.00    -0.370 C  
HETATM   12  C   UNL     1      -6.444  18.300  65.112  1.00  0.00     0.007 C  
HETATM   13  C   UNL     1     -10.241  16.330  67.611  1.00  0.00    -0.272 C  
HETATM   14  C   UNL     1     -10.455  16.100  66.013  1.00  0.00    -0.349 C  
HETATM   15  C   UNL     1      -8.887  16.484  68.619  1.00  0.00    -0.237 C  
HETATM   16  C   UNL     1      -8.489  15.295  69.627  1.00  0.00    -0.101 C  
HETATM   17  C   UNL     1      -9.651  14.537  70.277  1.00  0.00     1.179 C  
HETATM   18  O   UNL     1      -7.639  14.305  69.075  1.00  0.00    -0.147 OA 
HETATM   19  C   UNL     1     -10.654  14.001  69.276  1.00  0.00    -0.095 C  
HETATM   20  H   UNL     1      -7.404  13.603  69.670  1.00  0.00     0.000 HD 
HETATM   21  C   UNL     1     -10.093  12.806  68.304  1.00  0.00    -0.237 C  
HETATM   22  C   UNL     1      -9.916  13.623  67.069  1.00  0.00    -0.248 C  
HETATM   23  C   UNL     1     -10.620  11.551  68.123  1.00  0.00    -0.226 C  
HETATM   24  C   UNL     1     -11.475  14.131  67.153  1.00  0.00    -0.373 C  
HETATM   25  C   UNL     1     -11.109  11.142  66.708  1.00  0.00    -0.214 C  
HETATM   26  C   UNL     1     -10.054  10.316  68.782  1.00  0.00    -0.198 C  
HETATM   27  O   UNL     1     -10.971   9.812  66.510  1.00  0.00     0.044 OA 
HETATM   28  C   UNL     1     -12.531  15.825  68.787  1.00  0.00     0.515 C  
HETATM   29  C   UNL     1     -11.252  15.184  68.279  1.00  0.00    -0.315 C  
HETATM   30  O   UNL     1     -11.515  11.823  65.795  1.00  0.00    -0.300 OA 
ENDROOT
BRANCH  22  31
HETATM   31  O   UNL     1      -9.094  13.034  66.023  1.00  0.00    -0.007 OA 
BRANCH  31  32
HETATM   32  C   UNL     1      -7.969  12.323  66.400  1.00  0.00     0.345 C  
HETATM   33  O   UNL     1      -7.075  12.784  67.108  1.00  0.00    -0.116 OA 
HETATM   34  C   UNL     1      -7.720  10.959  65.786  1.00  0.00    -0.036 C  
ENDBRANCH  31  32
ENDBRANCH  22  31
BRANCH  26  35
HETATM   35  C   UNL     1      -9.275  10.511  70.062  1.00  0.00     0.406 C  
BRANCH  35  36
HETATM   36  C   UNL     1      -9.354   9.230  70.842  1.00  0.00    -0.313 C  
HETATM   37  C   UNL     1     -10.312   8.901  71.730  1.00  0.00    -0.426 C  
HETATM   38  C   UNL     1     -10.250   7.583  72.439  1.00  0.00    -0.261 C  
HETATM   39  C   UNL     1     -11.473   9.781  72.115  1.00  0.00     0.584 C  
ENDBRANCH  35  36
ENDBRANCH  26  35
TORSDOF 4
ENDMDL
MODEL       63
REMARK 921   NORMALIZED FREE ENERGY PREDICTED BY IDOCK:   -3.38 KCAL/MOL
REMARK 922        TOTAL FREE ENERGY PREDICTED BY IDOCK:   -4.34 KCAL/MOL
REMARK 923 INTER-LIGAND FREE ENERGY PREDICTED BY IDOCK:   -6.33 KCAL/MOL
REMARK 924 INTRA-LIGAND FREE ENERGY PREDICTED BY IDOCK:    1.98 KCAL/MOL
REMARK 927      BINDING AFFINITY PREDICTED BY RF-SCORE:    0.00 PKD
ROOT
HETATM    1  O   UNL     1     -10.182   4.340  70.032  1.00  0.00    -0.113 OA 
HETATM    2  H   UNL     1      -9.985   3.640  69.421  1.00  0.00     0.000 HD 
HETATM    3  C   UNL     1      -9.445   5.519  69.752  1.00  0.00    -0.149 C  
HETATM    4  C   UNL     1      -9.762   6.650  70.737  1.00  0.00    -0.190 C  
HETATM    5  C   UNL     1      -8.931   7.954  70.447  1.00  0.00    -0.147 C  
HETATM    6  C   UNL     1      -9.166   8.469  68.957  1.00  0.00    -0.146 C  
HETATM    7  C   UNL     1     -10.614   8.968  69.091  1.00  0.00    -0.219 C  
HETATM    8  C   UNL     1      -8.740   7.196  68.141  1.00  0.00    -0.127 C  
HETATM    9  C   UNL     1      -9.641   5.955  68.295  1.00  0.00    -0.134 C  
HETATM   10  C   UNL     1      -8.087   7.251  66.772  1.00  0.00    -0.119 C  
HETATM   11  C   UNL     1      -7.145   8.492  66.599  1.00  0.00    -0.077 C  
HETATM   12  C   UNL     1     -11.100   6.067  67.807  1.00  0.00    -0.216 C  
HETATM   13  C   UNL     1      -8.010   9.795  66.758  1.00  0.00    -0.105 C  
HETATM   14  C   UNL     1      -8.854   9.387  65.426  1.00  0.00    -0.220 C  
HETATM   15  C   UNL     1      -8.316   9.733  68.424  1.00  0.00    -0.110 C  
HETATM   16  C   UNL     1      -8.586  11.088  69.248  1.00  0.00     0.087 C  
HETATM   17  C   UNL     1      -7.777  12.316  68.822  1.00  0.00    -0.016 C  
HETATM   18  O   UNL     1      -9.939  11.506  69.281  1.00  0.00    -0.418 OA 
HETATM   19  C   UNL     1      -7.887  12.624  67.343  1.00  0.00    -0.175 C  
HETATM   20  H   UNL     1     -10.099  12.305  69.767  1.00  0.00     0.000 HD 
HETATM   21  C   UNL     1      -9.368  13.121  66.847  1.00  0.00    -0.246 C  
HETATM   22  C   UNL     1      -9.794  11.850  66.193  1.00  0.00    -0.232 C  
HETATM   23  C   UNL     1      -9.688  14.277  66.177  1.00  0.00    -0.325 C  
HETATM   24  C   UNL     1      -8.434  11.840  65.274  1.00  0.00     0.672 C  
HETATM   25  C   UNL     1     -10.324  14.172  64.765  1.00  0.00    -0.359 C  
HETATM   26  C   UNL     1     -10.289  15.484  66.856  1.00  0.00    -0.290 C  
HETATM   27  O   UNL     1     -11.148  15.216  64.522  1.00  0.00    -0.333 OA 
HETATM   28  C   UNL     1      -6.012  11.309  65.985  1.00  0.00     0.006 C  
HETATM   29  C   UNL     1      -7.475  11.330  66.391  1.00  0.00    -0.064 C  
HETATM   30  O   UNL     1     -10.231  13.302  63.930  1.00  0.00    -0.322 OA 
ENDROOT
BRANCH  22  31
HETATM   31  O   UNL     1     -11.214  11.721  65.908  1.00  0.00    -0.324 OA 
BRANCH  31  32
HETATM   32  C   UNL     1     -11.593  11.344  64.632  1.00  0.00     0.056 C  
HETATM   33  O   UNL     1     -10.867  10.718  63.861  1.00  0.00    -0.168 OA 
HETATM   34  C   UNL     1     -12.903  11.862  64.070  1.00  0.00    -0.282 C  
ENDBRANCH  31  32
ENDBRANCH  22  31
BRANCH  26  35
HETATM   35  C   UNL     1     -10.028  15.646  68.336  1.00  0.00    -0.210 C  
BRANCH  35  36
HETATM   36  C   UNL     1      -8.875  16.595  68.493  1.00  0.00    -0.235 C  
HETATM   37  C   UNL     1      -8.946  17.940  68.466  1.00  0.00    -0.291 C  
HETATM   38  C   UNL     1      -7.700  18.755  68.629  1.00  0.00    -0.358 C  
HETATM   39  C   UNL     1     -10.208  18.735  68.248  1.00  0.00    -0.425 C  
ENDBRANCH  35  36
ENDBRANCH  26  35
TORSDOF 4
ENDMDL
MODEL       64
REMARK 921   NORMALIZED FREE ENERGY PREDICTED BY IDOCK:   -3.29 KCAL/MOL
REMARK 922        TOTAL FREE ENERGY PREDICTED BY IDOCK:   -4.24 KCAL/MOL
REMARK 923 INTER-LIGAND FREE ENERGY PREDICTED BY IDOCK:   -3.57 KCAL/MOL
REMARK 924 INTRA-LIGAND FREE ENERGY PREDICTED BY IDOCK:   -0.68 KCAL/MOL
REMARK 927      BINDING AFFINITY PREDICTED BY RF-SCORE:    0.00 PKD
ROOT
HETATM    1  O   UNL     1     -11.765  16.195  69.382  1.00  0.00    -0.304 OA 
HETATM    2  H   UNL     1     -11.430  16.958  68.925  1.00  0.00     0.000 HD 
HETATM    3  C   UNL     1     -11.738  15.030  68.573  1.00  0.00    -0.320 C  
HETATM    4  C   UNL     1     -12.279  13.799  69.310  1.00  0.00    -0.307 C  
HETATM    5  C   UNL     1     -12.275  12.508  68.412  1.00  0.00     0.076 C  
HETATM    6  C   UNL     1     -10.814  12.194  67.858  1.00  0.00    -0.254 C  
HETATM    7  C   UNL     1     -10.144  11.744  69.166  1.00  0.00     0.099 C  
HETATM    8  C   UNL     1     -10.491  13.540  67.115  1.00  0.00    -0.256 C  
HETATM    9  C   UNL     1     -10.336  14.789  68.004  1.00  0.00    -0.237 C  
HETATM   10  C   UNL     1      -9.635  13.629  65.865  1.00  0.00    -0.140 C  
HETATM   11  C   UNL     1      -9.796  12.381  64.930  1.00  0.00    -0.122 C  
HETATM   12  C   UNL     1      -9.176  14.801  69.022  1.00  0.00    -0.145 C  
HETATM   13  C   UNL     1      -9.332  11.106  65.725  1.00  0.00    -0.238 C  
HETATM   14  C   UNL     1      -7.822  11.713  65.802  1.00  0.00     0.542 C  
HETATM   15  C   UNL     1     -10.617  10.972  66.823  1.00  0.00    -0.317 C  
HETATM   16  C   UNL     1     -11.014   9.537  67.433  1.00  0.00    -0.033 C  
HETATM   17  C   UNL     1     -10.892   8.339  66.488  1.00  0.00     0.594 C  
HETATM   18  O   UNL     1     -10.313   9.176  68.611  1.00  0.00    -0.200 OA 
HETATM   19  C   UNL     1      -9.528   8.223  65.837  1.00  0.00    -0.125 C  
HETATM   20  H   UNL     1     -10.548   8.329  68.971  1.00  0.00     0.000 HD 
HETATM   21  C   UNL     1      -8.301   7.855  66.860  1.00  0.00    -0.116 C  
HETATM   22  C   UNL     1      -7.693   9.215  66.935  1.00  0.00    -0.098 C  
HETATM   23  C   UNL     1      -7.418   6.806  66.772  1.00  0.00    -0.082 C  
HETATM   24  C   UNL     1      -7.583   9.282  65.299  1.00  0.00    -0.099 C  
HETATM   25  C   UNL     1      -5.904   7.115  66.621  1.00  0.00    -0.034 C  
HETATM   26  C   UNL     1      -7.545   5.550  67.600  1.00  0.00    -0.088 C  
HETATM   27  O   UNL     1      -5.151   6.144  67.187  1.00  0.00    -0.004 OA 
HETATM   28  C   UNL     1      -9.468   9.617  63.570  1.00  0.00     0.143 C  
HETATM   29  C   UNL     1      -9.085   9.607  65.039  1.00  0.00    -0.284 C  
HETATM   30  O   UNL     1      -5.347   8.077  66.147  1.00  0.00    -0.025 OA 
ENDROOT
BRANCH  22  31
HETATM   31  O   UNL     1      -6.759   9.438  68.027  1.00  0.00    -0.062 OA 
BRANCH  31  32
HETATM   32  C   UNL     1      -7.112   8.997  69.290  1.00  0.00    -0.058 C  
HETATM   33  O   UNL     1      -8.133   9.353  69.877  1.00  0.00    -0.105 OA 
HETATM   34  C   UNL     1      -6.124   8.162  70.081  1.00  0.00    -0.032 C  
ENDBRANCH  31  32
ENDBRANCH  22  31
BRANCH  26  35
HETATM   35  C   UNL     1      -8.923   5.194  68.109  1.00  0.00    -0.118 C  
BRANCH  35  36
HETATM   36  C   UNL     1      -8.781   3.997  69.004  1.00  0.00    -0.130 C  
HETATM   37  C   UNL     1      -9.366   3.833  70.207  1.00  0.00    -0.238 C  
HETATM   38  C   UNL     1      -9.121   2.580  70.990  1.00  0.00    -0.179 C  
HETATM   39  C   UNL     1     -10.257   4.846  70.880  1.00  0.00    -0.272 C  
ENDBRANCH  35  36
ENDBRANCH  26  35
TORSDOF 4
ENDMDL
MODEL       65
REMARK 921   NORMALIZED FREE ENERGY PREDICTED BY IDOCK:   -3.21 KCAL/MOL
REMARK 922        TOTAL FREE ENERGY PREDICTED BY IDOCK:   -4.14 KCAL/MOL
REMARK 923 INTER-LIGAND FREE ENERGY PREDICTED BY IDOCK:   -4.22 KCAL/MOL
REMARK 924 INTRA-LIGAND FREE ENERGY PREDICTED BY IDOCK:    0.08 KCAL/MOL
REMARK 927      BINDING AFFINITY PREDICTED BY RF-SCORE:    0.00 PKD
ROOT
HETATM    1  O   UNL     1     -11.830  15.374  66.419  1.00  0.00     0.067 OA 
HETATM    2  H   UNL     1     -12.758  15.515  66.572  1.00  0.00     0.000 HD 
HETATM    3  C   UNL     1     -11.252  14.513  67.387  1.00  0.00    -0.327 C  
HETATM    4  C   UNL     1      -9.756  14.284  67.140  1.00  0.00    -0.254 C  
HETATM    5  C   UNL     1      -9.102  13.349  68.223  1.00  0.00    -0.181 C  
HETATM    6  C   UNL     1      -9.848  11.943  68.298  1.00  0.00    -0.199 C  
HETATM    7  C   UNL     1      -9.387  11.345  66.958  1.00  0.00    -0.183 C  
HETATM    8  C   UNL     1     -11.317  12.410  68.600  1.00  0.00    -0.332 C  
HETATM    9  C   UNL     1     -12.027  13.194  67.480  1.00  0.00    -0.367 C  
HETATM   10  C   UNL     1     -12.298  11.614  69.440  1.00  0.00    -0.131 C  
HETATM   11  C   UNL     1     -11.603  10.827  70.604  1.00  0.00    -0.388 C  
HETATM   12  C   UNL     1     -12.287  12.460  66.149  1.00  0.00     0.112 C  
HETATM   13  C   UNL     1     -10.591   9.804  69.972  1.00  0.00    -0.320 C  
HETATM   14  C   UNL     1     -11.833   9.022  69.266  1.00  0.00     1.028 C  
HETATM   15  C   UNL     1      -9.400  10.880  69.427  1.00  0.00     0.062 C  
HETATM   16  C   UNL     1      -7.872  10.395  69.289  1.00  0.00    -0.147 C  
HETATM   17  C   UNL     1      -7.369   9.419  70.356  1.00  0.00    -0.124 C  
HETATM   18  O   UNL     1      -7.543   9.810  68.041  1.00  0.00    -0.082 OA 
HETATM   19  C   UNL     1      -8.248   8.196  70.514  1.00  0.00    -0.117 C  
HETATM   20  H   UNL     1      -6.641   9.524  67.959  1.00  0.00     0.000 HD 
HETATM   21  C   UNL     1      -8.253   7.176  69.230  1.00  0.00    -0.128 C  
HETATM   22  C   UNL     1      -9.587   7.555  68.682  1.00  0.00    -0.151 C  
HETATM   23  C   UNL     1      -7.959   5.834  69.221  1.00  0.00    -0.101 C  
HETATM   24  C   UNL     1     -10.294   7.264  70.135  1.00  0.00    -0.221 C  
HETATM   25  C   UNL     1      -9.060   4.831  68.783  1.00  0.00    -0.112 C  
HETATM   26  C   UNL     1      -6.633   5.284  68.755  1.00  0.00    -0.048 C  
HETATM   27  O   UNL     1      -8.519   3.736  68.202  1.00  0.00    -0.090 OA 
HETATM   28  C   UNL     1     -10.169   8.664  72.297  1.00  0.00    -0.372 C  
HETATM   29  C   UNL     1      -9.832   8.585  70.819  1.00  0.00    -0.220 C  
HETATM   30  O   UNL     1     -10.265   4.921  68.836  1.00  0.00    -0.157 OA 
ENDROOT
BRANCH  22  31
HETATM   31  O   UNL     1      -9.860   7.136  67.316  1.00  0.00    -0.146 OA 
BRANCH  31  32
HETATM   32  C   UNL     1      -9.459   7.967  66.285  1.00  0.00    -0.172 C  
HETATM   33  O   UNL     1      -9.944   9.078  66.076  1.00  0.00    -0.283 OA 
HETATM   34  C   UNL     1      -8.491   7.436  65.246  1.00  0.00    -0.066 C  
ENDBRANCH  31  32
ENDBRANCH  22  31
BRANCH  26  35
HETATM   35  C   UNL     1      -5.438   6.206  68.828  1.00  0.00    -0.008 C  
BRANCH  35  36
HETATM   36  C   UNL     1      -5.334   6.920  67.511  1.00  0.00    -0.012 C  
HETATM   37  C   UNL     1      -5.267   6.338  66.297  1.00  0.00    -0.013 C  
HETATM   38  C   UNL     1      -5.157   7.187  65.069  1.00  0.00    -0.028 C  
HETATM   39  C   UNL     1      -5.263   4.851  66.051  1.00  0.00    -0.009 C  
ENDBRANCH  35  36
ENDBRANCH  26  35
TORSDOF 4
ENDMDL
MODEL       66
REMARK 921   NORMALIZED FREE ENERGY PREDICTED BY IDOCK:   -3.20 KCAL/MOL
REMARK 922        TOTAL FREE ENERGY PREDICTED BY IDOCK:   -4.12 KCAL/MOL
REMARK 923 INTER-LIGAND FREE ENERGY PREDICTED BY IDOCK:   -4.02 KCAL/MOL
REMARK 924 INTRA-LIGAND FREE ENERGY PREDICTED BY IDOCK:   -0.11 KCAL/MOL
REMARK 927      BINDING AFFINITY PREDICTED BY RF-SCORE:    0.00 PKD
ROOT
HETATM    1  O   UNL     1     -10.250  18.279  69.683  1.00  0.00    -0.221 OA 
HETATM    2  H   UNL     1     -11.173  18.463  69.807  1.00  0.00     0.000 HD 
HETATM    3  C   UNL     1      -9.971  16.888  69.714  1.00  0.00     0.237 C  
HETATM    4  C   UNL     1      -8.480  16.590  69.514  1.00  0.00     0.272 C  
HETATM    5  C   UNL     1      -8.160  15.051  69.570  1.00  0.00    -0.122 C  
HETATM    6  C   UNL     1      -9.011  14.244  68.492  1.00  0.00    -0.185 C  
HETATM    7  C   UNL     1      -8.311  14.726  67.211  1.00  0.00    -0.234 C  
HETATM    8  C   UNL     1     -10.469  14.651  68.910  1.00  0.00    -0.248 C  
HETATM    9  C   UNL     1     -10.848  16.131  68.711  1.00  0.00    -0.310 C  
HETATM   10  C   UNL     1     -11.672  13.737  68.769  1.00  0.00    -0.391 C  
HETATM   11  C   UNL     1     -11.318  12.227  68.993  1.00  0.00    -0.333 C  
HETATM   12  C   UNL     1     -10.860  16.676  67.268  1.00  0.00    -0.158 C  
HETATM   13  C   UNL     1     -10.273  11.797  67.900  1.00  0.00    -0.203 C  
HETATM   14  C   UNL     1     -11.384  12.073  66.741  1.00  0.00    -0.398 C  
HETATM   15  C   UNL     1      -8.910  12.634  68.464  1.00  0.00    -0.044 C  
HETATM   16  C   UNL     1      -7.433  12.083  68.144  1.00  0.00    -0.112 C  
HETATM   17  C   UNL     1      -7.259  10.562  68.146  1.00  0.00    -0.087 C  
HETATM   18  O   UNL     1      -6.880  12.536  66.920  1.00  0.00    -0.366 OA 
HETATM   19  C   UNL     1      -8.244   9.842  67.247  1.00  0.00    -0.121 C  
HETATM   20  H   UNL     1      -6.008  12.211  66.731  1.00  0.00     0.000 HD 
HETATM   21  C   UNL     1      -8.042  10.111  65.643  1.00  0.00    -0.149 C  
HETATM   22  C   UNL     1      -9.185  11.049  65.454  1.00  0.00    -0.210 C  
HETATM   23  C   UNL     1      -7.859   9.179  64.650  1.00  0.00    -0.118 C  
HETATM   24  C   UNL     1     -10.219   9.959  66.116  1.00  0.00    -0.277 C  
HETATM   25  C   UNL     1      -8.909   9.085  63.511  1.00  0.00     0.018 C  
HETATM   26  C   UNL     1      -6.509   8.868  64.050  1.00  0.00    -0.083 C  
HETATM   27  O   UNL     1      -8.339   8.675  62.355  1.00  0.00    -0.183 OA 
HETATM   28  C   UNL     1     -10.472   9.274  68.589  1.00  0.00    -0.236 C  
HETATM   29  C   UNL     1      -9.820  10.221  67.598  1.00  0.00    -0.199 C  
HETATM   30  O   UNL     1     -10.084   9.370  63.507  1.00  0.00     1.457 OA 
ENDROOT
BRANCH  22  31
HETATM   31  O   UNL     1      -9.179  11.828  64.225  1.00  0.00     0.058 OA 
BRANCH  31  32
HETATM   32  C   UNL     1     -10.240  12.684  63.989  1.00  0.00    -0.338 C  
HETATM   33  O   UNL     1     -11.145  12.446  63.191  1.00  0.00    -0.379 OA 
HETATM   34  C   UNL     1     -10.220  14.068  64.610  1.00  0.00    -0.242 C  
ENDBRANCH  31  32
ENDBRANCH  22  31
BRANCH  26  35
HETATM   35  C   UNL     1      -5.292   9.154  64.899  1.00  0.00    -0.045 C  
BRANCH  35  36
HETATM   36  C   UNL     1      -5.223   8.098  65.964  1.00  0.00    -0.025 C  
HETATM   37  C   UNL     1      -5.212   6.766  65.760  1.00  0.00    -0.022 C  
HETATM   38  C   UNL     1      -5.148   5.834  66.931  1.00  0.00    -0.005 C  
HETATM   39  C   UNL     1      -5.289   6.098  64.412  1.00  0.00    -0.017 C  
ENDBRANCH  35  36
ENDBRANCH  26  35
TORSDOF 4
ENDMDL
MODEL       67
REMARK 921   NORMALIZED FREE ENERGY PREDICTED BY IDOCK:   -3.05 KCAL/MOL
REMARK 922        TOTAL FREE ENERGY PREDICTED BY IDOCK:   -3.94 KCAL/MOL
REMARK 923 INTER-LIGAND FREE ENERGY PREDICTED BY IDOCK:   -3.58 KCAL/MOL
REMARK 924 INTRA-LIGAND FREE ENERGY PREDICTED BY IDOCK:   -0.36 KCAL/MOL
REMARK 927      BINDING AFFINITY PREDICTED BY RF-SCORE:    0.00 PKD
ROOT
HETATM    1  O   UNL     1      -7.596   6.665  62.373  1.00  0.00    -0.071 OA 
HETATM    2  H   UNL     1      -7.405   5.861  62.842  1.00  0.00     0.000 HD 
HETATM    3  C   UNL     1      -8.479   7.509  63.093  1.00  0.00     0.257 C  
HETATM    4  C   UNL     1      -8.788   8.806  62.335  1.00  0.00    -0.084 C  
HETATM    5  C   UNL     1      -9.785   9.739  63.116  1.00  0.00     0.441 C  
HETATM    6  C   UNL     1      -9.229  10.093  64.567  1.00  0.00    -0.305 C  
HETATM    7  C   UNL     1      -8.074  11.027  64.170  1.00  0.00     0.431 C  
HETATM    8  C   UNL     1      -9.037   8.652  65.163  1.00  0.00    -0.045 C  
HETATM    9  C   UNL     1      -7.949   7.782  64.504  1.00  0.00    -0.135 C  
HETATM   10  C   UNL     1      -9.214   8.317  66.632  1.00  0.00    -0.224 C  
HETATM   11  C   UNL     1     -10.335   9.171  67.319  1.00  0.00    -0.338 C  
HETATM   12  C   UNL     1      -6.489   8.270  64.602  1.00  0.00    -0.064 C  
HETATM   13  C   UNL     1      -9.924  10.686  67.231  1.00  0.00    -0.224 C  
HETATM   14  C   UNL     1      -8.627  10.380  68.168  1.00  0.00    -0.125 C  
HETATM   15  C   UNL     1     -10.157  10.948  65.572  1.00  0.00    -0.325 C  
HETATM   16  C   UNL     1     -10.514  12.420  65.028  1.00  0.00    -0.294 C  
HETATM   17  C   UNL     1     -11.429  13.269  65.915  1.00  0.00    -0.359 C  
HETATM   18  O   UNL     1      -9.393  13.235  64.733  1.00  0.00    -0.134 OA 
HETATM   19  C   UNL     1     -10.938  13.392  67.343  1.00  0.00    -0.287 C  
HETATM   20  H   UNL     1      -9.603  14.103  64.412  1.00  0.00     0.000 HD 
HETATM   21  C   UNL     1      -9.552  14.248  67.527  1.00  0.00    -0.216 C  
HETATM   22  C   UNL     1      -8.634  13.094  67.746  1.00  0.00    -0.188 C  
HETATM   23  C   UNL     1      -9.340  15.344  68.329  1.00  0.00    -0.193 C  
HETATM   24  C   UNL     1      -9.583  12.540  68.966  1.00  0.00     0.358 C  
HETATM   25  C   UNL     1      -8.285  15.248  69.463  1.00  0.00    -0.188 C  
HETATM   26  C   UNL     1      -9.312  16.759  67.800  1.00  0.00    -0.233 C  
HETATM   27  O   UNL     1      -7.719  16.453  69.705  1.00  0.00    -0.048 OA 
HETATM   28  C   UNL     1     -11.888  11.391  68.820  1.00  0.00    -0.388 C  
HETATM   29  C   UNL     1     -10.685  11.917  68.058  1.00  0.00    -0.242 C  
HETATM   30  O   UNL     1      -7.884  14.287  70.077  1.00  0.00     0.449 OA 
ENDROOT
BRANCH  22  31
HETATM   31  O   UNL     1      -7.213  13.371  67.610  1.00  0.00    -0.135 OA 
BRANCH  31  32
HETATM   32  C   UNL     1      -6.323  12.328  67.798  1.00  0.00    -0.101 C  
HETATM   33  O   UNL     1      -6.021  11.879  68.903  1.00  0.00    -0.051 OA 
HETATM   34  C   UNL     1      -5.540  11.805  66.610  1.00  0.00    -0.059 C  
ENDBRANCH  31  32
ENDBRANCH  22  31
BRANCH  26  35
HETATM   35  C   UNL     1     -10.060  17.032  66.516  1.00  0.00    -0.318 C  
BRANCH  35  36
HETATM   36  C   UNL     1      -9.585  18.354  65.986  1.00  0.00    -0.067 C  
HETATM   37  C   UNL     1     -10.009  19.568  66.390  1.00  0.00    -0.532 C  
HETATM   38  C   UNL     1      -9.444  20.803  65.758  1.00  0.00     0.614 C  
HETATM   39  C   UNL     1     -11.061  19.811  67.441  1.00  0.00    -0.157 C  
ENDBRANCH  35  36
ENDBRANCH  26  35
TORSDOF 4
ENDMDL
MODEL       68
REMARK 921   NORMALIZED FREE ENERGY PREDICTED BY IDOCK:   -3.05 KCAL/MOL
REMARK 922        TOTAL FREE ENERGY PREDICTED BY IDOCK:   -3.94 KCAL/MOL
REMARK 923 INTER-LIGAND FREE ENERGY PREDICTED BY IDOCK:   -2.51 KCAL/MOL
REMARK 924 INTRA-LIGAND FREE ENERGY PREDICTED BY IDOCK:   -1.43 KCAL/MOL
REMARK 927      BINDING AFFINITY PREDICTED BY RF-SCORE:    0.00 PKD
ROOT
HETATM    1  O   UNL     1     -13.932   8.536  73.160  1.00  0.00    -0.807 OA 
HETATM    2  H   UNL     1     -14.584   7.846  73.199  1.00  0.00     0.000 HD 
HETATM    3  C   UNL     1     -12.696   8.076  72.638  1.00  0.00     0.050 C  
HETATM    4  C   UNL     1     -11.642   9.189  72.576  1.00  0.00     0.238 C  
HETATM    5  C   UNL     1     -10.261   8.681  72.020  1.00  0.00    -0.407 C  
HETATM    6  C   UNL     1     -10.425   8.026  70.576  1.00  0.00    -0.217 C  
HETATM    7  C   UNL     1     -10.716   9.296  69.759  1.00  0.00    -0.245 C  
HETATM    8  C   UNL     1     -11.485   6.909  70.884  1.00  0.00    -0.368 C  
HETATM    9  C   UNL     1     -12.893   7.396  71.279  1.00  0.00    -0.365 C  
HETATM   10  C   UNL     1     -11.532   5.571  70.171  1.00  0.00     0.726 C  
HETATM   11  C   UNL     1     -10.109   5.041  69.782  1.00  0.00    -0.337 C  
HETATM   12  C   UNL     1     -13.693   8.193  70.228  1.00  0.00     1.872 C  
HETATM   13  C   UNL     1      -9.450   6.074  68.797  1.00  0.00    -0.137 C  
HETATM   14  C   UNL     1     -10.617   5.764  67.703  1.00  0.00    -0.313 C  
HETATM   15  C   UNL     1      -9.141   7.342  69.879  1.00  0.00    -0.141 C  
HETATM   16  C   UNL     1      -7.933   8.368  69.600  1.00  0.00    -0.106 C  
HETATM   17  C   UNL     1      -6.666   7.774  68.979  1.00  0.00    -0.049 C  
HETATM   18  O   UNL     1      -8.273   9.484  68.796  1.00  0.00    -0.108 OA 
HETATM   19  C   UNL     1      -6.929   6.987  67.711  1.00  0.00    -0.083 C  
HETATM   20  H   UNL     1      -7.560  10.090  68.632  1.00  0.00     0.000 HD 
HETATM   21  C   UNL     1      -7.434   7.881  66.433  1.00  0.00    -0.087 C  
HETATM   22  C   UNL     1      -8.874   7.498  66.480  1.00  0.00    -0.148 C  
HETATM   23  C   UNL     1      -6.871   7.952  65.181  1.00  0.00    -0.051 C  
HETATM   24  C   UNL     1      -8.476   5.906  66.432  1.00  0.00    -0.120 C  
HETATM   25  C   UNL     1      -7.714   7.505  63.957  1.00  0.00    -0.125 C  
HETATM   26  C   UNL     1      -5.995   9.098  64.735  1.00  0.00    -0.065 C  
HETATM   27  O   UNL     1      -7.366   8.196  62.848  1.00  0.00    -0.093 OA 
HETATM   28  C   UNL     1      -7.456   4.444  68.297  1.00  0.00    -0.065 C  
HETATM   29  C   UNL     1      -8.055   5.789  67.928  1.00  0.00    -0.098 C  
HETATM   30  O   UNL     1      -8.625   6.713  63.883  1.00  0.00     0.218 OA 
ENDROOT
BRANCH  22  31
HETATM   31  O   UNL     1      -9.786   8.341  65.722  1.00  0.00    -0.030 OA 
BRANCH  31  32
HETATM   32  C   UNL     1      -9.720   9.710  65.912  1.00  0.00    -0.275 C  
HETATM   33  O   UNL     1     -10.101  10.276  66.935  1.00  0.00    -0.202 OA 
HETATM   34  C   UNL     1      -9.315  10.595  64.749  1.00  0.00    -0.276 C  
ENDBRANCH  31  32
ENDBRANCH  22  31
BRANCH  26  35
HETATM   35  C   UNL     1      -5.276   9.879  65.811  1.00  0.00    -0.041 C  
BRANCH  35  36
HETATM   36  C   UNL     1      -6.031  11.159  66.025  1.00  0.00    -0.064 C  
HETATM   37  C   UNL     1      -6.081  11.869  67.170  1.00  0.00    -0.152 C  
HETATM   38  C   UNL     1      -6.888  13.129  67.230  1.00  0.00    -0.001 C  
HETATM   39  C   UNL     1      -5.397  11.483  68.456  1.00  0.00    -0.042 C  
ENDBRANCH  35  36
ENDBRANCH  26  35
TORSDOF 4
ENDMDL
MODEL       69
REMARK 921   NORMALIZED FREE ENERGY PREDICTED BY IDOCK:   -2.97 KCAL/MOL
REMARK 922        TOTAL FREE ENERGY PREDICTED BY IDOCK:   -3.85 KCAL/MOL
REMARK 923 INTER-LIGAND FREE ENERGY PREDICTED BY IDOCK:   -3.24 KCAL/MOL
REMARK 924 INTRA-LIGAND FREE ENERGY PREDICTED BY IDOCK:   -0.61 KCAL/MOL
REMARK 927      BINDING AFFINITY PREDICTED BY RF-SCORE:    0.00 PKD
ROOT
HETATM    1  O   UNL     1     -10.466  16.912  66.626  1.00  0.00    -0.307 OA 
HETATM    2  H   UNL     1     -11.194  17.022  66.025  1.00  0.00     0.000 HD 
HETATM    3  C   UNL     1     -10.509  15.664  67.298  1.00  0.00    -0.292 C  
HETATM    4  C   UNL     1      -9.333  15.486  68.267  1.00  0.00    -0.192 C  
HETATM    5  C   UNL     1      -9.387  14.114  69.035  1.00  0.00     0.079 C  
HETATM    6  C   UNL     1      -9.427  12.885  68.020  1.00  0.00    -0.213 C  
HETATM    7  C   UNL     1      -7.988  12.960  67.483  1.00  0.00    -0.178 C  
HETATM    8  C   UNL     1     -10.704  13.245  67.181  1.00  0.00    -0.264 C  
HETATM    9  C   UNL     1     -10.609  14.505  66.300  1.00  0.00    -0.304 C  
HETATM   10  C   UNL     1     -11.640  12.210  66.584  1.00  0.00    -0.416 C  
HETATM   11  C   UNL     1     -11.775  10.928  67.476  1.00  0.00     0.082 C  
HETATM   12  C   UNL     1      -9.574  14.500  65.156  1.00  0.00     0.221 C  
HETATM   13  C   UNL     1     -10.356  10.261  67.599  1.00  0.00    -0.264 C  
HETATM   14  C   UNL     1     -10.358   9.981  65.994  1.00  0.00    -0.222 C  
HETATM   15  C   UNL     1      -9.596  11.392  68.607  1.00  0.00    -0.179 C  
HETATM   16  C   UNL     1      -8.393  10.936  69.573  1.00  0.00     0.177 C  
HETATM   17  C   UNL     1      -8.514   9.544  70.200  1.00  0.00    -0.227 C  
HETATM   18  O   UNL     1      -7.105  10.986  68.984  1.00  0.00    -0.087 OA 
HETATM   19  C   UNL     1      -8.757   8.446  69.184  1.00  0.00    -0.142 C  
HETATM   20  H   UNL     1      -6.395  10.717  69.554  1.00  0.00     0.000 HD 
HETATM   21  C   UNL     1      -7.504   8.151  68.170  1.00  0.00    -0.097 C  
HETATM   22  C   UNL     1      -8.063   8.825  66.963  1.00  0.00    -0.099 C  
HETATM   23  C   UNL     1      -6.864   6.955  67.948  1.00  0.00    -0.081 C  
HETATM   24  C   UNL     1      -9.435   7.929  67.070  1.00  0.00    -0.222 C  
HETATM   25  C   UNL     1      -6.894   6.345  66.522  1.00  0.00    -0.062 C  
HETATM   26  C   UNL     1      -5.529   6.608  68.563  1.00  0.00    -0.016 C  
HETATM   27  O   UNL     1      -5.778   5.621  66.278  1.00  0.00    -0.016 OA 
HETATM   28  C   UNL     1     -11.368   8.140  68.764  1.00  0.00     0.684 C  
HETATM   29  C   UNL     1     -10.081   8.743  68.231  1.00  0.00    -0.220 C  
HETATM   30  O   UNL     1      -7.705   6.474  65.634  1.00  0.00    -0.085 OA 
ENDROOT
BRANCH  22  31
HETATM   31  O   UNL     1      -7.118   9.113  65.896  1.00  0.00    -0.087 OA 
BRANCH  31  32
HETATM   32  C   UNL     1      -6.765  10.433  65.676  1.00  0.00    -0.127 C  
HETATM   33  O   UNL     1      -7.563  11.307  65.343  1.00  0.00     0.262 OA 
HETATM   34  C   UNL     1      -5.296  10.811  65.676  1.00  0.00    -0.138 C  
ENDBRANCH  31  32
ENDBRANCH  22  31
BRANCH  26  35
HETATM   35  C   UNL     1      -5.155   7.312  69.846  1.00  0.00    -0.015 C  
BRANCH  35  36
HETATM   36  C   UNL     1      -5.978   6.714  70.950  1.00  0.00    -0.028 C  
HETATM   37  C   UNL     1      -6.119   7.214  72.194  1.00  0.00    -0.041 C  
HETATM   38  C   UNL     1      -6.973   6.496  73.193  1.00  0.00    -0.077 C  
HETATM   39  C   UNL     1      -5.449   8.464  72.704  1.00  0.00    -0.046 C  
ENDBRANCH  35  36
ENDBRANCH  26  35
TORSDOF 4
ENDMDL
MODEL       70
REMARK 921   NORMALIZED FREE ENERGY PREDICTED BY IDOCK:   -2.79 KCAL/MOL
REMARK 922        TOTAL FREE ENERGY PREDICTED BY IDOCK:   -3.62 KCAL/MOL
REMARK 923 INTER-LIGAND FREE ENERGY PREDICTED BY IDOCK:   -4.16 KCAL/MOL
REMARK 924 INTRA-LIGAND FREE ENERGY PREDICTED BY IDOCK:    0.55 KCAL/MOL
REMARK 927      BINDING AFFINITY PREDICTED BY RF-SCORE:    0.00 PKD
ROOT
HETATM    1  O   UNL     1     -14.168  16.150  73.026  1.00  0.00    -0.533 OA 
HETATM    2  H   UNL     1     -14.169  17.087  72.868  1.00  0.00     0.000 HD 
HETATM    3  C   UNL     1     -13.911  15.406  71.846  1.00  0.00    -0.528 C  
HETATM    4  C   UNL     1     -13.910  13.894  72.102  1.00  0.00    -0.636 C  
HETATM    5  C   UNL     1     -13.650  13.061  70.793  1.00  0.00     0.861 C  
HETATM    6  C   UNL     1     -12.275  13.483  70.104  1.00  0.00    -0.400 C  
HETATM    7  C   UNL     1     -11.292  12.891  71.128  1.00  0.00     2.207 C  
HETATM    8  C   UNL     1     -12.517  15.020  69.895  1.00  0.00    -0.269 C  
HETATM    9  C   UNL     1     -12.617  15.875  71.173  1.00  0.00    -0.387 C  
HETATM   10  C   UNL     1     -11.950  15.812  68.731  1.00  0.00    -0.226 C  
HETATM   11  C   UNL     1     -11.862  14.971  67.410  1.00  0.00    -0.167 C  
HETATM   12  C   UNL     1     -11.369  15.957  72.076  1.00  0.00    -0.277 C  
HETATM   13  C   UNL     1     -10.898  13.755  67.663  1.00  0.00    -0.264 C  
HETATM   14  C   UNL     1      -9.664  14.791  67.896  1.00  0.00    -0.211 C  
HETATM   15  C   UNL     1     -11.878  12.823  68.686  1.00  0.00    -0.341 C  
HETATM   16  C   UNL     1     -11.699  11.225  68.743  1.00  0.00    -0.338 C  
HETATM   17  C   UNL     1     -11.365  10.531  67.420  1.00  0.00    -0.120 C  
HETATM   18  O   UNL     1     -10.738  10.766  69.677  1.00  0.00    -0.272 OA 
HETATM   19  C   UNL     1     -10.161  11.123  66.718  1.00  0.00    -0.255 C  
HETATM   20  H   UNL     1     -10.633   9.823  69.711  1.00  0.00     0.000 HD 
HETATM   21  C   UNL     1      -8.730  10.894  67.484  1.00  0.00    -0.130 C  
HETATM   22  C   UNL     1      -8.575  12.274  68.028  1.00  0.00    -0.176 C  
HETATM   23  C   UNL     1      -7.589  10.315  66.983  1.00  0.00    -0.099 C  
HETATM   24  C   UNL     1      -8.761  12.912  66.528  1.00  0.00     0.039 C  
HETATM   25  C   UNL     1      -6.295  11.167  66.894  1.00  0.00    -0.114 C  
HETATM   26  C   UNL     1      -7.179   8.896  67.297  1.00  0.00    -0.083 C  
HETATM   27  O   UNL     1      -5.193  10.395  67.034  1.00  0.00    -0.040 OA 
HETATM   28  C   UNL     1     -10.913  13.115  65.119  1.00  0.00    -0.317 C  
HETATM   29  C   UNL     1     -10.310  12.755  66.465  1.00  0.00    -0.262 C  
HETATM   30  O   UNL     1      -6.153  12.362  66.784  1.00  0.00    -0.210 OA 
ENDROOT
BRANCH  22  31
HETATM   31  O   UNL     1      -7.591  12.438  69.087  1.00  0.00     0.049 OA 
BRANCH  31  32
HETATM   32  C   UNL     1      -7.039  13.692  69.278  1.00  0.00     0.018 C  
HETATM   33  O   UNL     1      -5.860  13.960  69.053  1.00  0.00    -0.082 OA 
HETATM   34  C   UNL     1      -7.868  14.766  69.955  1.00  0.00     0.224 C  
ENDBRANCH  31  32
ENDBRANCH  22  31
BRANCH  26  35
HETATM   35  C   UNL     1      -8.273   7.932  67.694  1.00  0.00    -0.124 C  
BRANCH  35  36
HETATM   36  C   UNL     1      -8.356   6.875  66.630  1.00  0.00    -0.118 C  
HETATM   37  C   UNL     1      -9.468   6.215  66.255  1.00  0.00    -0.144 C  
HETATM   38  C   UNL     1      -9.390   5.177  65.178  1.00  0.00    -0.011 C  
HETATM   39  C   UNL     1     -10.835   6.408  66.861  1.00  0.00    -0.428 C  
ENDBRANCH  35  36
ENDBRANCH  26  35
TORSDOF 4
ENDMDL
MODEL       71
REMARK 921   NORMALIZED FREE ENERGY PREDICTED BY IDOCK:   -2.78 KCAL/MOL
REMARK 922        TOTAL FREE ENERGY PREDICTED BY IDOCK:   -3.62 KCAL/MOL
REMARK 923 INTER-LIGAND FREE ENERGY PREDICTED BY IDOCK:   -4.07 KCAL/MOL
REMARK 924 INTRA-LIGAND FREE ENERGY PREDICTED BY IDOCK:    0.45 KCAL/MOL
REMARK 927      BINDING AFFINITY PREDICTED BY RF-SCORE:    0.00 PKD
ROOT
HETATM    1  O   UNL     1      -5.270  21.069  67.820  1.00  0.00    -0.226 OA 
HETATM    2  H   UNL     1      -5.684  21.924  67.788  1.00  0.00     0.000 HD 
HETATM    3  C   UNL     1      -6.105  20.091  68.417  1.00  0.00    -0.258 C  
HETATM    4  C   UNL     1      -5.438  18.711  68.468  1.00  0.00    -0.188 C  
HETATM    5  C   UNL     1      -6.349  17.625  69.151  1.00  0.00    -0.232 C  
HETATM    6  C   UNL     1      -7.757  17.506  68.414  1.00  0.00    -0.260 C  
HETATM    7  C   UNL     1      -7.297  16.841  67.105  1.00  0.00    -0.222 C  
HETATM    8  C   UNL     1      -8.267  18.987  68.523  1.00  0.00    -0.390 C  
HETATM    9  C   UNL     1      -7.473  20.042  67.728  1.00  0.00    -0.330 C  
HETATM   10  C   UNL     1      -9.730  19.367  68.658  1.00  0.00    -0.504 C  
HETATM   11  C   UNL     1     -10.554  18.322  69.486  1.00  0.00     0.764 C  
HETATM   12  C   UNL     1      -7.457  19.914  66.191  1.00  0.00    -0.326 C  
HETATM   13  C   UNL     1     -10.497  16.942  68.735  1.00  0.00    -0.343 C  
HETATM   14  C   UNL     1     -11.296  17.601  67.478  1.00  0.00     0.514 C  
HETATM   15  C   UNL     1      -8.880  16.525  69.030  1.00  0.00    -0.223 C  
HETATM   16  C   UNL     1      -8.438  14.978  69.069  1.00  0.00    -0.200 C  
HETATM   17  C   UNL     1      -9.442  13.999  69.684  1.00  0.00     0.893 C  
HETATM   18  O   UNL     1      -8.078  14.429  67.814  1.00  0.00    -0.142 OA 
HETATM   19  C   UNL     1     -10.823  14.087  69.066  1.00  0.00    -0.268 C  
HETATM   20  H   UNL     1      -7.816  13.517  67.837  1.00  0.00     0.000 HD 
HETATM   21  C   UNL     1     -10.917  13.591  67.506  1.00  0.00    -0.283 C  
HETATM   22  C   UNL     1     -10.999  14.939  66.875  1.00  0.00    -0.327 C  
HETATM   23  C   UNL     1     -11.744  12.629  66.978  1.00  0.00    -0.438 C  
HETATM   24  C   UNL     1     -12.275  15.335  67.828  1.00  0.00     0.380 C  
HETATM   25  C   UNL     1     -12.770  13.041  65.889  1.00  0.00     0.082 C  
HETATM   26  C   UNL     1     -11.278  11.228  66.657  1.00  0.00    -0.247 C  
HETATM   27  O   UNL     1     -13.012  12.020  65.037  1.00  0.00    -0.222 OA 
HETATM   28  C   UNL     1     -12.290  15.904  70.344  1.00  0.00    -0.253 C  
HETATM   29  C   UNL     1     -11.445  15.624  69.115  1.00  0.00    -0.365 C  
HETATM   30  O   UNL     1     -13.301  14.107  65.681  1.00  0.00    -0.602 OA 
ENDROOT
BRANCH  22  31
HETATM   31  O   UNL     1     -10.744  14.992  65.443  1.00  0.00    -0.321 OA 
BRANCH  31  32
HETATM   32  C   UNL     1     -10.099  13.918  64.855  1.00  0.00    -0.263 C  
HETATM   33  O   UNL     1      -9.039  13.450  65.266  1.00  0.00     0.625 OA 
HETATM   34  C   UNL     1     -10.619  13.381  63.536  1.00  0.00     0.843 C  
ENDBRANCH  31  32
ENDBRANCH  22  31
BRANCH  26  35
HETATM   35  C   UNL     1     -10.082  10.705  67.418  1.00  0.00    -0.231 C  
BRANCH  35  36
HETATM   36  C   UNL     1      -9.045  10.301  66.411  1.00  0.00    -0.174 C  
HETATM   37  C   UNL     1      -7.713  10.469  66.533  1.00  0.00    -0.131 C  
HETATM   38  C   UNL     1      -6.801  10.019  65.434  1.00  0.00    -0.122 C  
HETATM   39  C   UNL     1      -7.029  11.122  67.707  1.00  0.00    -0.078 C  
ENDBRANCH  35  36
ENDBRANCH  26  35
TORSDOF 4
ENDMDL
MODEL       72
REMARK 921   NORMALIZED FREE ENERGY PREDICTED BY IDOCK:   -2.68 KCAL/MOL
REMARK 922        TOTAL FREE ENERGY PREDICTED BY IDOCK:   -3.49 KCAL/MOL
REMARK 923 INTER-LIGAND FREE ENERGY PREDICTED BY IDOCK:   -3.24 KCAL/MOL
REMARK 924 INTRA-LIGAND FREE ENERGY PREDICTED BY IDOCK:   -0.25 KCAL/MOL
REMARK 927      BINDING AFFINITY PREDICTED BY RF-SCORE:    0.00 PKD
ROOT
HETATM    1  O   UNL     1     -13.584  14.824  72.585  1.00  0.00    -0.427 OA 
HETATM    2  H   UNL     1     -13.653  15.740  72.340  1.00  0.00     0.000 HD 
HETATM    3  C   UNL     1     -13.437  13.977  71.458  1.00  0.00    -0.328 C  
HETATM    4  C   UNL     1     -13.325  12.499  71.853  1.00  0.00    -0.467 C  
HETATM    5  C   UNL     1     -13.185  11.550  70.607  1.00  0.00     0.355 C  
HETATM    6  C   UNL     1     -11.931  11.955  69.711  1.00  0.00    -0.377 C  
HETATM    7  C   UNL     1     -10.799  11.509  70.651  1.00  0.00     1.659 C  
HETATM    8  C   UNL     1     -12.276  13.452  69.389  1.00  0.00    -0.246 C  
HETATM    9  C   UNL     1     -12.262  14.427  70.582  1.00  0.00    -0.414 C  
HETATM   10  C   UNL     1     -11.900  14.145  68.092  1.00  0.00    -0.387 C  
HETATM   11  C   UNL     1     -11.933  13.180  66.857  1.00  0.00    -0.421 C  
HETATM   12  C   UNL     1     -10.918  14.649  71.306  1.00  0.00     0.432 C  
HETATM   13  C   UNL     1     -10.883  12.035  67.098  1.00  0.00    -0.297 C  
HETATM   14  C   UNL     1      -9.685  13.138  67.072  1.00  0.00    -0.241 C  
HETATM   15  C   UNL     1     -11.678  11.172  68.322  1.00  0.00    -0.323 C  
HETATM   16  C   UNL     1     -11.411   9.596  68.507  1.00  0.00     0.168 C  
HETATM   17  C   UNL     1     -11.207   8.786  67.223  1.00  0.00     0.716 C  
HETATM   18  O   UNL     1     -10.318   9.272  69.349  1.00  0.00    -0.201 OA 
HETATM   19  C   UNL     1     -10.131   9.353  66.319  1.00  0.00    -0.328 C  
HETATM   20  H   UNL     1     -10.160   8.342  69.458  1.00  0.00     0.000 HD 
HETATM   21  C   UNL     1      -8.606   9.260  66.914  1.00  0.00    -0.132 C  
HETATM   22  C   UNL     1      -8.458  10.692  67.301  1.00  0.00    -0.126 C  
HETATM   23  C   UNL     1      -7.508   8.679  66.327  1.00  0.00    -0.090 C  
HETATM   24  C   UNL     1      -8.862  11.168  65.783  1.00  0.00    -0.182 C  
HETATM   25  C   UNL     1      -6.281   9.568  65.993  1.00  0.00    -0.064 C  
HETATM   26  C   UNL     1      -6.988   7.316  66.719  1.00  0.00    -0.074 C  
HETATM   27  O   UNL     1      -5.132   8.859  66.063  1.00  0.00    -0.032 OA 
HETATM   28  C   UNL     1     -11.179  11.142  64.649  1.00  0.00    -0.052 C  
HETATM   29  C   UNL     1     -10.396  10.944  65.935  1.00  0.00    -0.310 C  
HETATM   30  O   UNL     1      -6.217  10.751  65.753  1.00  0.00    -0.130 OA 
ENDROOT
BRANCH  22  31
HETATM   31  O   UNL     1      -7.360  11.001  68.204  1.00  0.00    -0.081 OA 
BRANCH  31  32
HETATM   32  C   UNL     1      -7.321  10.356  69.428  1.00  0.00    -0.123 C  
HETATM   33  O   UNL     1      -8.108   9.471  69.759  1.00  0.00    -0.107 OA 
HETATM   34  C   UNL     1      -6.373  10.863  70.497  1.00  0.00    -0.020 C  
ENDBRANCH  31  32
ENDBRANCH  22  31
BRANCH  26  35
HETATM   35  C   UNL     1      -7.972   6.354  67.343  1.00  0.00    -0.116 C  
BRANCH  35  36
HETATM   36  C   UNL     1      -8.784   5.750  66.233  1.00  0.00    -0.134 C  
HETATM   37  C   UNL     1      -9.723   4.793  66.368  1.00  0.00    -0.206 C  
HETATM   38  C   UNL     1     -10.445   4.283  65.159  1.00  0.00    -0.195 C  
HETATM   39  C   UNL     1     -10.110   4.140  67.670  1.00  0.00     0.070 C  
ENDBRANCH  35  36
ENDBRANCH  26  35
TORSDOF 4
ENDMDL
MODEL       73
REMARK 921   NORMALIZED FREE ENERGY PREDICTED BY IDOCK:   -2.44 KCAL/MOL
REMARK 922        TOTAL FREE ENERGY PREDICTED BY IDOCK:   -3.20 KCAL/MOL
REMARK 923 INTER-LIGAND FREE ENERGY PREDICTED BY IDOCK:   -3.92 KCAL/MOL
REMARK 924 INTRA-LIGAND FREE ENERGY PREDICTED BY IDOCK:    0.73 KCAL/MOL
REMARK 927      BINDING AFFINITY PREDICTED BY RF-SCORE:    0.00 PKD
ROOT
HETATM    1  O   UNL     1      -9.659   3.949  73.521  1.00  0.00    -0.106 OA 
HETATM    2  H   UNL     1      -9.437   4.303  74.375  1.00  0.00     0.000 HD 
HETATM    3  C   UNL     1     -10.026   4.963  72.600  1.00  0.00    -0.165 C  
HETATM    4  C   UNL     1     -10.384   4.392  71.222  1.00  0.00    -0.060 C  
HETATM    5  C   UNL     1     -10.815   5.508  70.200  1.00  0.00    -0.299 C  
HETATM    6  C   UNL     1      -9.677   6.612  70.037  1.00  0.00    -0.172 C  
HETATM    7  C   UNL     1      -8.634   5.783  69.269  1.00  0.00    -0.111 C  
HETATM    8  C   UNL     1      -9.513   7.081  71.527  1.00  0.00    -0.155 C  
HETATM    9  C   UNL     1      -8.941   6.042  72.510  1.00  0.00    -0.132 C  
HETATM   10  C   UNL     1      -9.147   8.497  71.929  1.00  0.00    -0.314 C  
HETATM   11  C   UNL     1      -9.740   9.577  70.959  1.00  0.00    -0.196 C  
HETATM   12  C   UNL     1      -7.502   5.543  72.264  1.00  0.00    -0.096 C  
HETATM   13  C   UNL     1      -9.146   9.330  69.524  1.00  0.00    -0.163 C  
HETATM   14  C   UNL     1      -7.656   9.665  70.091  1.00  0.00    -0.165 C  
HETATM   15  C   UNL     1      -9.969   7.905  69.117  1.00  0.00    -0.184 C  
HETATM   16  C   UNL     1     -10.257   7.549  67.574  1.00  0.00    -0.223 C  
HETATM   17  C   UNL     1     -10.586   8.729  66.654  1.00  0.00    -0.141 C  
HETATM   18  O   UNL     1      -9.224   6.827  66.926  1.00  0.00    -0.133 OA 
HETATM   19  C   UNL     1      -9.555   9.838  66.707  1.00  0.00    -0.228 C  
HETATM   20  H   UNL     1      -9.394   6.617  66.016  1.00  0.00     0.000 HD 
HETATM   21  C   UNL     1      -8.086   9.448  66.092  1.00  0.00    -0.111 C  
HETATM   22  C   UNL     1      -7.368   9.280  67.388  1.00  0.00    -0.087 C  
HETATM   23  C   UNL     1      -7.391  10.095  65.099  1.00  0.00    -0.141 C  
HETATM   24  C   UNL     1      -7.834  10.779  67.868  1.00  0.00    -0.109 C  
HETATM   25  C   UNL     1      -6.005  10.709  65.436  1.00  0.00    -0.105 C  
HETATM   26  C   UNL     1      -7.334   9.599  63.674  1.00  0.00    -0.115 C  
HETATM   27  O   UNL     1      -5.194  10.701  64.354  1.00  0.00    -0.144 OA 
HETATM   28  C   UNL     1     -10.167  11.574  68.630  1.00  0.00    -0.217 C  
HETATM   29  C   UNL     1      -9.295  10.392  68.248  1.00  0.00    -0.150 C  
HETATM   30  O   UNL     1      -5.564  11.111  66.487  1.00  0.00    -0.096 OA 
ENDROOT
BRANCH  22  31
HETATM   31  O   UNL     1      -6.093   8.583  67.328  1.00  0.00    -0.052 OA 
BRANCH  31  32
HETATM   32  C   UNL     1      -6.033   7.288  67.812  1.00  0.00    -0.034 C  
HETATM   33  O   UNL     1      -6.415   6.305  67.180  1.00  0.00    -0.048 OA 
HETATM   34  C   UNL     1      -5.635   7.061  69.257  1.00  0.00    -0.015 C  
ENDBRANCH  31  32
ENDBRANCH  22  31
BRANCH  26  35
HETATM   35  C   UNL     1      -8.472   8.724  63.201  1.00  0.00    -0.132 C  
BRANCH  35  36
HETATM   36  C   UNL     1      -9.756   9.401  63.586  1.00  0.00     1.049 C  
HETATM   37  C   UNL     1     -10.064  10.696  63.373  1.00  0.00    -0.266 C  
HETATM   38  C   UNL     1     -11.389  11.229  63.825  1.00  0.00    -0.153 C  
HETATM   39  C   UNL     1      -9.154  11.705  62.722  1.00  0.00     0.041 C  
ENDBRANCH  35  36
ENDBRANCH  26  35
TORSDOF 4
ENDMDL
MODEL       74
REMARK 921   NORMALIZED FREE ENERGY PREDICTED BY IDOCK:   -2.41 KCAL/MOL
REMARK 922        TOTAL FREE ENERGY PREDICTED BY IDOCK:   -3.16 KCAL/MOL
REMARK 923 INTER-LIGAND FREE ENERGY PREDICTED BY IDOCK:   -2.12 KCAL/MOL
REMARK 924 INTRA-LIGAND FREE ENERGY PREDICTED BY IDOCK:   -1.03 KCAL/MOL
REMARK 927      BINDING AFFINITY PREDICTED BY RF-SCORE:    0.00 PKD
ROOT
HETATM    1  O   UNL     1      -5.288   5.191  73.251  1.00  0.00    -0.012 OA 
HETATM    2  H   UNL     1      -5.399   5.428  74.165  1.00  0.00     0.000 HD 
HETATM    3  C   UNL     1      -6.421   5.531  72.468  1.00  0.00    -0.060 C  
HETATM    4  C   UNL     1      -6.242   5.149  70.993  1.00  0.00    -0.023 C  
HETATM    5  C   UNL     1      -7.503   5.501  70.122  1.00  0.00    -0.070 C  
HETATM    6  C   UNL     1      -7.865   7.049  70.228  1.00  0.00    -0.105 C  
HETATM    7  C   UNL     1      -6.685   7.635  69.434  1.00  0.00    -0.040 C  
HETATM    8  C   UNL     1      -8.048   7.198  71.780  1.00  0.00    -0.101 C  
HETATM    9  C   UNL     1      -6.782   7.010  72.637  1.00  0.00    -0.068 C  
HETATM   10  C   UNL     1      -9.027   8.162  72.425  1.00  0.00    -0.265 C  
HETATM   11  C   UNL     1     -10.337   8.350  71.585  1.00  0.00    -0.312 C  
HETATM   12  C   UNL     1      -5.631   8.019  72.442  1.00  0.00    -0.037 C  
HETATM   13  C   UNL     1      -9.943   8.949  70.185  1.00  0.00    -0.207 C  
HETATM   14  C   UNL     1      -9.405  10.298  70.923  1.00  0.00     1.545 C  
HETATM   15  C   UNL     1      -9.196   7.592  69.495  1.00  0.00    -0.150 C  
HETATM   16  C   UNL     1      -9.177   7.404  67.897  1.00  0.00    -0.131 C  
HETATM   17  C   UNL     1     -10.431   7.859  67.144  1.00  0.00    -0.414 C  
HETATM   18  O   UNL     1      -8.083   8.017  67.237  1.00  0.00    -0.118 OA 
HETATM   19  C   UNL     1     -10.833   9.286  67.454  1.00  0.00    -0.165 C  
HETATM   20  H   UNL     1      -8.072   7.906  66.295  1.00  0.00     0.000 HD 
HETATM   21  C   UNL     1      -9.792  10.432  66.915  1.00  0.00    -0.236 C  
HETATM   22  C   UNL     1      -9.164  10.761  68.227  1.00  0.00    -0.157 C  
HETATM   23  C   UNL     1     -10.068  11.501  66.097  1.00  0.00    -0.266 C  
HETATM   24  C   UNL     1     -10.638  11.047  68.889  1.00  0.00    -0.239 C  
HETATM   25  C   UNL     1      -9.840  12.937  66.640  1.00  0.00    -0.250 C  
HETATM   26  C   UNL     1      -9.741  11.517  64.623  1.00  0.00    -0.242 C  
HETATM   27  O   UNL     1      -9.506  13.788  65.644  1.00  0.00    -0.079 OA 
HETATM   28  C   UNL     1     -12.459   9.349  69.561  1.00  0.00     1.456 C  
HETATM   29  C   UNL     1     -11.034   9.552  69.079  1.00  0.00    -0.127 C  
HETATM   30  O   UNL     1      -9.861  13.355  67.775  1.00  0.00    -0.221 OA 
ENDROOT
BRANCH  22  31
HETATM   31  O   UNL     1      -7.914  11.502  68.170  1.00  0.00    -0.121 OA 
BRANCH  31  32
HETATM   32  C   UNL     1      -6.813  10.884  67.604  1.00  0.00    -0.081 C  
HETATM   33  O   UNL     1      -5.982  10.245  68.247  1.00  0.00    -0.041 OA 
HETATM   34  C   UNL     1      -6.501  11.133  66.141  1.00  0.00    -0.038 C  
ENDBRANCH  31  32
ENDBRANCH  22  31
BRANCH  26  35
HETATM   35  C   UNL     1      -9.630  10.181  63.925  1.00  0.00    -0.302 C  
BRANCH  35  36
HETATM   36  C   UNL     1      -8.259  10.097  63.319  1.00  0.00    -0.162 C  
HETATM   37  C   UNL     1      -7.561   8.967  63.089  1.00  0.00    -0.105 C  
HETATM   38  C   UNL     1      -6.194   9.046  62.482  1.00  0.00    -0.094 C  
HETATM   39  C   UNL     1      -8.034   7.576  63.425  1.00  0.00    -0.085 C  
ENDBRANCH  35  36
ENDBRANCH  26  35
TORSDOF 4
ENDMDL
MODEL       75
REMARK 921   NORMALIZED FREE ENERGY PREDICTED BY IDOCK:   -2.21 KCAL/MOL
REMARK 922        TOTAL FREE ENERGY PREDICTED BY IDOCK:   -2.90 KCAL/MOL
REMARK 923 INTER-LIGAND FREE ENERGY PREDICTED BY IDOCK:   -2.71 KCAL/MOL
REMARK 924 INTRA-LIGAND FREE ENERGY PREDICTED BY IDOCK:   -0.20 KCAL/MOL
REMARK 927      BINDING AFFINITY PREDICTED BY RF-SCORE:    0.00 PKD
ROOT
HETATM    1  O   UNL     1     -10.530   5.089  69.268  1.00  0.00    -0.190 OA 
HETATM    2  H   UNL     1     -10.167   4.484  68.631  1.00  0.00     0.000 HD 
HETATM    3  C   UNL     1      -9.838   6.326  69.289  1.00  0.00    -0.141 C  
HETATM    4  C   UNL     1     -10.425   7.302  70.316  1.00  0.00    -0.231 C  
HETATM    5  C   UNL     1      -9.648   8.669  70.362  1.00  0.00    -0.196 C  
HETATM    6  C   UNL     1      -9.618   9.365  68.928  1.00  0.00    -0.155 C  
HETATM    7  C   UNL     1     -11.095   9.776  68.820  1.00  0.00    -0.140 C  
HETATM    8  C   UNL     1      -8.949   8.231  68.071  1.00  0.00    -0.138 C  
HETATM    9  C   UNL     1      -9.771   6.941  67.887  1.00  0.00    -0.136 C  
HETATM   10  C   UNL     1      -8.043   8.496  66.883  1.00  0.00    -0.099 C  
HETATM   11  C   UNL     1      -7.175   9.790  67.058  1.00  0.00    -0.090 C  
HETATM   12  C   UNL     1     -11.108   7.050  67.125  1.00  0.00    -0.298 C  
HETATM   13  C   UNL     1      -8.146  11.020  67.190  1.00  0.00    -0.134 C  
HETATM   14  C   UNL     1      -8.677  10.754  65.674  1.00  0.00    -0.198 C  
HETATM   15  C   UNL     1      -8.771  10.725  68.738  1.00  0.00    -0.163 C  
HETATM   16  C   UNL     1      -9.296  11.946  69.645  1.00  0.00     1.552 C  
HETATM   17  C   UNL     1      -8.508  13.255  69.545  1.00  0.00     1.323 C  
HETATM   18  O   UNL     1     -10.655  12.294  69.447  1.00  0.00    -0.436 OA 
HETATM   19  C   UNL     1      -8.343  13.751  68.123  1.00  0.00    -0.165 C  
HETATM   20  H   UNL     1     -10.965  13.014  69.983  1.00  0.00     0.000 HD 
HETATM   21  C   UNL     1      -9.728  14.240  67.395  1.00  0.00    -0.235 C  
HETATM   22  C   UNL     1      -9.924  13.049  66.520  1.00  0.00    -0.262 C  
HETATM   23  C   UNL     1      -9.990  15.459  66.817  1.00  0.00    -0.256 C  
HETATM   24  C   UNL     1      -8.411  13.222  65.907  1.00  0.00     1.366 C  
HETATM   25  C   UNL     1     -10.323  15.512  65.302  1.00  0.00    -0.386 C  
HETATM   26  C   UNL     1     -10.798  16.538  67.498  1.00  0.00    -0.237 C  
HETATM   27  O   UNL     1     -11.155  16.541  65.022  1.00  0.00    -0.439 OA 
HETATM   28  C   UNL     1      -6.147  12.712  67.033  1.00  0.00     0.197 C  
HETATM   29  C   UNL     1      -7.659  12.614  67.128  1.00  0.00    -0.067 C  
HETATM   30  O   UNL     1     -10.005  14.765  64.407  1.00  0.00     0.137 OA 
ENDROOT
BRANCH  22  31
HETATM   31  O   UNL     1     -11.246  12.894  65.935  1.00  0.00    -0.282 OA 
BRANCH  31  32
HETATM   32  C   UNL     1     -11.493  11.772  65.165  1.00  0.00    -0.183 C  
HETATM   33  O   UNL     1     -11.499  10.626  65.611  1.00  0.00     0.427 OA 
HETATM   34  C   UNL     1     -11.598  11.921  63.660  1.00  0.00    -0.559 C  
ENDBRANCH  31  32
ENDBRANCH  22  31
BRANCH  26  35
HETATM   35  C   UNL     1     -10.849  16.515  69.009  1.00  0.00    -0.329 C  
BRANCH  35  36
HETATM   36  C   UNL     1     -11.933  15.557  69.412  1.00  0.00    -0.358 C  
HETATM   37  C   UNL     1     -12.314  15.277  70.674  1.00  0.00    -0.427 C  
HETATM   38  C   UNL     1     -13.411  14.288  70.919  1.00  0.00    -0.191 C  
HETATM   39  C   UNL     1     -11.696  15.869  71.915  1.00  0.00    -0.590 C  
ENDBRANCH  35  36
ENDBRANCH  26  35
TORSDOF 4
ENDMDL
MODEL       76
REMARK 921   NORMALIZED FREE ENERGY PREDICTED BY IDOCK:   -2.04 KCAL/MOL
REMARK 922        TOTAL FREE ENERGY PREDICTED BY IDOCK:   -2.70 KCAL/MOL
REMARK 923 INTER-LIGAND FREE ENERGY PREDICTED BY IDOCK:   -4.88 KCAL/MOL
REMARK 924 INTRA-LIGAND FREE ENERGY PREDICTED BY IDOCK:    2.18 KCAL/MOL
REMARK 927      BINDING AFFINITY PREDICTED BY RF-SCORE:    0.00 PKD
ROOT
HETATM    1  O   UNL     1     -14.411   9.508  72.536  1.00  0.00    -0.585 OA 
HETATM    2  H   UNL     1     -14.611   9.119  73.379  1.00  0.00     0.000 HD 
HETATM    3  C   UNL     1     -13.014   9.599  72.305  1.00  0.00    -0.356 C  
HETATM    4  C   UNL     1     -12.691  10.225  70.943  1.00  0.00    -0.462 C  
HETATM    5  C   UNL     1     -11.144  10.351  70.689  1.00  0.00    -0.283 C  
HETATM    6  C   UNL     1     -10.422   8.935  70.805  1.00  0.00    -0.283 C  
HETATM    7  C   UNL     1     -10.961   8.276  69.524  1.00  0.00    -0.051 C  
HETATM    8  C   UNL     1     -10.840   8.516  72.259  1.00  0.00    -0.418 C  
HETATM    9  C   UNL     1     -12.339   8.235  72.484  1.00  0.00    -0.335 C  
HETATM   10  C   UNL     1      -9.968   7.684  73.181  1.00  0.00    -0.363 C  
HETATM   11  C   UNL     1      -8.438   7.971  72.990  1.00  0.00    -0.252 C  
HETATM   12  C   UNL     1     -12.967   7.056  71.712  1.00  0.00    -0.356 C  
HETATM   13  C   UNL     1      -8.047   7.600  71.514  1.00  0.00    -0.102 C  
HETATM   14  C   UNL     1      -8.417   6.043  71.815  1.00  0.00    -0.127 C  
HETATM   15  C   UNL     1      -8.814   8.866  70.688  1.00  0.00    -0.234 C  
HETATM   16  C   UNL     1      -8.246   9.370  69.270  1.00  0.00    -0.111 C  
HETATM   17  C   UNL     1      -6.723   9.372  69.109  1.00  0.00    -0.050 C  
HETATM   18  O   UNL     1      -8.755   8.676  68.144  1.00  0.00    -0.139 OA 
HETATM   19  C   UNL     1      -6.083   8.038  69.436  1.00  0.00    -0.034 C  
HETATM   20  H   UNL     1      -8.420   8.974  67.307  1.00  0.00     0.000 HD 
HETATM   21  C   UNL     1      -6.439   6.824  68.394  1.00  0.00    -0.042 C  
HETATM   22  C   UNL     1      -7.415   6.101  69.259  1.00  0.00    -0.089 C  
HETATM   23  C   UNL     1      -5.562   6.035  67.689  1.00  0.00    -0.009 C  
HETATM   24  C   UNL     1      -6.314   6.023  70.475  1.00  0.00    -0.036 C  
HETATM   25  C   UNL     1      -5.560   4.505  67.947  1.00  0.00    -0.017 C  
HETATM   26  C   UNL     1      -5.252   6.251  66.227  1.00  0.00    -0.013 C  
HETATM   27  O   UNL     1      -5.204   3.824  66.834  1.00  0.00    -0.011 OA 
HETATM   28  C   UNL     1      -5.494   7.910  72.029  1.00  0.00    -0.035 C  
HETATM   29  C   UNL     1      -6.480   7.497  70.952  1.00  0.00    -0.039 C  
HETATM   30  O   UNL     1      -5.874   3.879  68.932  1.00  0.00    -0.021 OA 
ENDROOT
BRANCH  22  31
HETATM   31  O   UNL     1      -8.263   5.126  68.592  1.00  0.00    -0.086 OA 
BRANCH  31  32
HETATM   32  C   UNL     1      -9.358   4.634  69.279  1.00  0.00    -0.142 C  
HETATM   33  O   UNL     1     -10.520   4.779  68.905  1.00  0.00    -0.027 OA 
HETATM   34  C   UNL     1      -9.152   4.026  70.653  1.00  0.00    -0.179 C  
ENDBRANCH  31  32
ENDBRANCH  22  31
BRANCH  26  35
HETATM   35  C   UNL     1      -5.458   7.642  65.674  1.00  0.00    -0.029 C  
BRANCH  35  36
HETATM   36  C   UNL     1      -6.508   7.555  64.604  1.00  0.00    -0.041 C  
HETATM   37  C   UNL     1      -7.776   7.132  64.771  1.00  0.00    -0.115 C  
HETATM   38  C   UNL     1      -8.708   7.094  63.599  1.00  0.00     0.719 C  
HETATM   39  C   UNL     1      -8.362   6.648  66.072  1.00  0.00    -0.134 C  
ENDBRANCH  35  36
ENDBRANCH  26  35
TORSDOF 4
ENDMDL
MODEL       77
REMARK 921   NORMALIZED FREE ENERGY PREDICTED BY IDOCK:   -1.84 KCAL/MOL
REMARK 922        TOTAL FREE ENERGY PREDICTED BY IDOCK:   -2.45 KCAL/MOL
REMARK 923 INTER-LIGAND FREE ENERGY PREDICTED BY IDOCK:   -3.51 KCAL/MOL
REMARK 924 INTRA-LIGAND FREE ENERGY PREDICTED BY IDOCK:    1.05 KCAL/MOL
REMARK 927      BINDING AFFINITY PREDICTED BY RF-SCORE:    0.00 PKD
ROOT
HETATM    1  O   UNL     1     -11.117  17.399  68.604  1.00  0.00    -0.220 OA 
HETATM    2  H   UNL     1     -10.514  18.000  68.181  1.00  0.00     0.000 HD 
HETATM    3  C   UNL     1     -11.124  16.123  67.986  1.00  0.00    -0.317 C  
HETATM    4  C   UNL     1     -12.097  15.153  68.668  1.00  0.00    -0.184 C  
HETATM    5  C   UNL     1     -12.129  13.742  67.974  1.00  0.00    -0.315 C  
HETATM    6  C   UNL     1     -10.676  13.089  67.927  1.00  0.00    -0.249 C  
HETATM    7  C   UNL     1     -10.498  12.769  69.420  1.00  0.00     0.342 C  
HETATM    8  C   UNL     1      -9.881  14.206  67.160  1.00  0.00    -0.253 C  
HETATM    9  C   UNL     1      -9.707  15.547  67.899  1.00  0.00    -0.211 C  
HETATM   10  C   UNL     1      -8.721  13.924  66.224  1.00  0.00     0.352 C  
HETATM   11  C   UNL     1      -8.887  12.576  65.440  1.00  0.00     0.865 C  
HETATM   12  C   UNL     1      -8.892  15.540  69.208  1.00  0.00    -0.256 C  
HETATM   13  C   UNL     1      -8.943  11.402  66.484  1.00  0.00    -0.192 C  
HETATM   14  C   UNL     1      -7.416  11.744  66.938  1.00  0.00    -0.106 C  
HETATM   15  C   UNL     1     -10.474  11.687  67.153  1.00  0.00    -0.252 C  
HETATM   16  C   UNL     1     -11.322  10.473  67.783  1.00  0.00    -0.190 C  
HETATM   17  C   UNL     1     -11.210   9.123  67.068  1.00  0.00     0.738 C  
HETATM   18  O   UNL     1     -11.061  10.211  69.151  1.00  0.00    -0.222 OA 
HETATM   19  C   UNL     1      -9.780   8.661  66.876  1.00  0.00    -0.278 C  
HETATM   20  H   UNL     1     -11.561   9.495  69.522  1.00  0.00     0.000 HD 
HETATM   21  C   UNL     1      -8.985   8.276  68.256  1.00  0.00    -0.136 C  
HETATM   22  C   UNL     1      -8.142   9.502  68.348  1.00  0.00    -0.101 C  
HETATM   23  C   UNL     1      -8.359   7.092  68.565  1.00  0.00    -0.121 C  
HETATM   24  C   UNL     1      -7.581   9.258  66.824  1.00  0.00    -0.090 C  
HETATM   25  C   UNL     1      -6.831   7.103  68.840  1.00  0.00    -0.069 C  
HETATM   26  C   UNL     1      -8.974   6.043  69.460  1.00  0.00    -0.131 C  
HETATM   27  O   UNL     1      -6.487   6.134  69.717  1.00  0.00    -0.039 OA 
HETATM   28  C   UNL     1      -8.808   9.601  64.582  1.00  0.00    -0.253 C  
HETATM   29  C   UNL     1      -8.849   9.785  66.088  1.00  0.00    -0.162 C  
HETATM   30  O   UNL     1      -5.973   7.857  68.444  1.00  0.00    -0.034 OA 
ENDROOT
BRANCH  22  31
HETATM   31  O   UNL     1      -7.512   9.751  69.635  1.00  0.00    -0.085 OA 
BRANCH  31  32
HETATM   32  C   UNL     1      -6.676  10.848  69.752  1.00  0.00    -0.144 C  
HETATM   33  O   UNL     1      -7.072  12.012  69.748  1.00  0.00     0.137 OA 
HETATM   34  C   UNL     1      -5.175  10.635  69.716  1.00  0.00    -0.038 C  
ENDBRANCH  31  32
ENDBRANCH  22  31
BRANCH  26  35
HETATM   35  C   UNL     1     -10.481   6.024  69.570  1.00  0.00    -0.330 C  
BRANCH  35  36
HETATM   36  C   UNL     1     -10.896   7.250  70.331  1.00  0.00    -0.265 C  
HETATM   37  C   UNL     1     -10.269   7.765  71.407  1.00  0.00    -0.211 C  
HETATM   38  C   UNL     1     -10.812   8.995  72.067  1.00  0.00    -0.342 C  
HETATM   39  C   UNL     1      -9.041   7.179  72.054  1.00  0.00    -0.142 C  
ENDBRANCH  35  36
ENDBRANCH  26  35
TORSDOF 4
ENDMDL
MODEL       78
REMARK 921   NORMALIZED FREE ENERGY PREDICTED BY IDOCK:   -1.51 KCAL/MOL
REMARK 922        TOTAL FREE ENERGY PREDICTED BY IDOCK:   -2.04 KCAL/MOL
REMARK 923 INTER-LIGAND FREE ENERGY PREDICTED BY IDOCK:   -2.33 KCAL/MOL
REMARK 924 INTRA-LIGAND FREE ENERGY PREDICTED BY IDOCK:    0.29 KCAL/MOL
REMARK 927      BINDING AFFINITY PREDICTED BY RF-SCORE:    0.00 PKD
ROOT
HETATM    1  O   UNL     1      -7.466   4.066  66.956  1.00  0.00    -0.071 OA 
HETATM    2  H   UNL     1      -7.473   3.575  67.770  1.00  0.00     0.000 HD 
HETATM    3  C   UNL     1      -8.351   5.173  66.989  1.00  0.00    -0.107 C  
HETATM    4  C   UNL     1      -8.339   5.966  65.676  1.00  0.00    -0.143 C  
HETATM    5  C   UNL     1      -9.336   7.182  65.696  1.00  0.00     0.278 C  
HETATM    6  C   UNL     1      -9.023   8.165  66.911  1.00  0.00    -0.163 C  
HETATM    7  C   UNL     1      -7.703   8.771  66.408  1.00  0.00    -0.099 C  
HETATM    8  C   UNL     1      -9.137   7.173  68.123  1.00  0.00    -0.133 C  
HETATM    9  C   UNL     1      -8.067   6.067  68.201  1.00  0.00    -0.110 C  
HETATM   10  C   UNL     1      -9.632   7.576  69.500  1.00  0.00    -0.156 C  
HETATM   11  C   UNL     1     -10.741   8.683  69.446  1.00  0.00    -0.169 C  
HETATM   12  C   UNL     1      -6.601   6.505  68.397  1.00  0.00    -0.059 C  
HETATM   13  C   UNL     1     -10.127   9.965  68.775  1.00  0.00    -0.186 C  
HETATM   14  C   UNL     1      -9.082  10.105  70.016  1.00  0.00    -0.031 C  
HETATM   15  C   UNL     1     -10.005   9.418  67.174  1.00  0.00    -0.263 C  
HETATM   16  C   UNL     1     -10.058  10.466  65.955  1.00  0.00    -0.261 C  
HETATM   17  C   UNL     1     -11.006  11.657  66.122  1.00  0.00    -0.339 C  
HETATM   18  O   UNL     1      -8.805  11.016  65.587  1.00  0.00    -0.189 OA 
HETATM   19  C   UNL     1     -10.782  12.428  67.407  1.00  0.00    -0.257 C  
HETATM   20  H   UNL     1      -8.836  11.634  64.867  1.00  0.00     0.000 HD 
HETATM   21  C   UNL     1      -9.357  13.233  67.493  1.00  0.00    -0.218 C  
HETATM   22  C   UNL     1      -8.656  12.296  68.417  1.00  0.00    -0.136 C  
HETATM   23  C   UNL     1      -9.160  14.572  67.732  1.00  0.00    -0.190 C  
HETATM   24  C   UNL     1      -9.883  12.410  69.502  1.00  0.00     1.129 C  
HETATM   25  C   UNL     1      -8.360  14.996  68.993  1.00  0.00    -0.194 C  
HETATM   26  C   UNL     1      -8.848  15.567  66.640  1.00  0.00    -0.325 C  
HETATM   27  O   UNL     1      -7.699  16.157  68.782  1.00  0.00    -0.174 OA 
HETATM   28  C   UNL     1     -12.248  11.389  69.372  1.00  0.00    -0.288 C  
HETATM   29  C   UNL     1     -10.864  11.460  68.752  1.00  0.00    -0.251 C  
HETATM   30  O   UNL     1      -8.213  14.430  70.051  1.00  0.00     0.541 OA 
ENDROOT
BRANCH  22  31
HETATM   31  O   UNL     1      -7.211  12.439  68.498  1.00  0.00    -0.092 OA 
BRANCH  31  32
HETATM   32  C   UNL     1      -6.515  12.716  67.335  1.00  0.00    -0.149 C  
HETATM   33  O   UNL     1      -6.519  11.984  66.346  1.00  0.00     0.051 OA 
HETATM   34  C   UNL     1      -5.559  13.892  67.311  1.00  0.00     0.532 C  
ENDBRANCH  31  32
ENDBRANCH  22  31
BRANCH  26  35
HETATM   35  C   UNL     1      -9.297  15.220  65.240  1.00  0.00     0.379 C  
BRANCH  35  36
HETATM   36  C   UNL     1     -10.786  15.408  65.180  1.00  0.00    -0.460 C  
HETATM   37  C   UNL     1     -11.676  14.527  64.683  1.00  0.00    -0.438 C  
HETATM   38  C   UNL     1     -13.136  14.862  64.685  1.00  0.00     0.843 C  
HETATM   39  C   UNL     1     -11.326  13.195  64.072  1.00  0.00    -0.437 C  
ENDBRANCH  35  36
ENDBRANCH  26  35
TORSDOF 4
ENDMDL
MODEL       79
REMARK 921   NORMALIZED FREE ENERGY PREDICTED BY IDOCK:   -1.42 KCAL/MOL
REMARK 922        TOTAL FREE ENERGY PREDICTED BY IDOCK:   -1.94 KCAL/MOL
REMARK 923 INTER-LIGAND FREE ENERGY PREDICTED BY IDOCK:   -2.00 KCAL/MOL
REMARK 924 INTRA-LIGAND FREE ENERGY PREDICTED BY IDOCK:    0.06 KCAL/MOL
REMARK 927      BINDING AFFINITY PREDICTED BY RF-SCORE:    0.00 PKD
ROOT
HETATM    1  O   UNL     1      -7.719  13.820  69.293  1.00  0.00    -0.332 OA 
HETATM    2  H   UNL     1      -7.096  14.390  68.858  1.00  0.00     0.000 HD 
HETATM    3  C   UNL     1      -8.183  12.785  68.442  1.00  0.00    -0.128 C  
HETATM    4  C   UNL     1      -9.188  11.863  69.144  1.00  0.00     0.437 C  
HETATM    5  C   UNL     1      -9.726  10.726  68.199  1.00  0.00    -0.169 C  
HETATM    6  C   UNL     1      -8.532   9.854  67.606  1.00  0.00    -0.114 C  
HETATM    7  C   UNL     1      -8.109   9.111  68.884  1.00  0.00    -0.100 C  
HETATM    8  C   UNL     1      -7.677  10.971  66.907  1.00  0.00    -0.140 C  
HETATM    9  C   UNL     1      -7.012  12.003  67.838  1.00  0.00    -0.095 C  
HETATM   10  C   UNL     1      -6.865  10.745  65.645  1.00  0.00    -0.023 C  
HETATM   11  C   UNL     1      -7.535   9.718  64.668  1.00  0.00    -0.134 C  
HETATM   12  C   UNL     1      -5.951  11.487  68.833  1.00  0.00    -0.049 C  
HETATM   13  C   UNL     1      -7.645   8.335  65.407  1.00  0.00    -0.096 C  
HETATM   14  C   UNL     1      -6.020   8.251  65.477  1.00  0.00    -0.045 C  
HETATM   15  C   UNL     1      -8.866   8.705  66.524  1.00  0.00    -0.163 C  
HETATM   16  C   UNL     1      -9.826   7.543  67.089  1.00  0.00    -0.201 C  
HETATM   17  C   UNL     1     -10.218   6.444  66.098  1.00  0.00     0.191 C  
HETATM   18  O   UNL     1      -9.338   6.875  68.239  1.00  0.00    -0.127 OA 
HETATM   19  C   UNL     1      -9.030   5.795  65.417  1.00  0.00    -0.047 C  
HETATM   20  H   UNL     1      -9.904   6.189  68.572  1.00  0.00     0.000 HD 
HETATM   21  C   UNL     1      -8.067   4.907  66.403  1.00  0.00    -0.107 C  
HETATM   22  C   UNL     1      -6.946   5.884  66.516  1.00  0.00    -0.060 C  
HETATM   23  C   UNL     1      -7.704   3.589  66.260  1.00  0.00    -0.084 C  
HETATM   24  C   UNL     1      -6.821   5.966  64.881  1.00  0.00    -0.048 C  
HETATM   25  C   UNL     1      -6.200   3.243  66.091  1.00  0.00    -0.028 C  
HETATM   26  C   UNL     1      -8.343   2.469  67.044  1.00  0.00    -0.090 C  
HETATM   27  O   UNL     1      -5.921   2.024  66.607  1.00  0.00    -0.021 OA 
HETATM   28  C   UNL     1      -8.396   7.129  63.202  1.00  0.00     0.170 C  
HETATM   29  C   UNL     1      -8.049   6.899  64.662  1.00  0.00    -0.082 C  
HETATM   30  O   UNL     1      -5.292   3.903  65.642  1.00  0.00    -0.009 OA 
ENDROOT
BRANCH  22  31
HETATM   31  O   UNL     1      -6.001   5.651  67.597  1.00  0.00    -0.020 OA 
BRANCH  31  32
HETATM   32  C   UNL     1      -5.879   6.620  68.578  1.00  0.00    -0.021 C  
HETATM   33  O   UNL     1      -5.618   7.798  68.344  1.00  0.00    -0.026 OA 
HETATM   34  C   UNL     1      -5.899   6.199  70.034  1.00  0.00    -0.018 C  
ENDBRANCH  31  32
ENDBRANCH  22  31
BRANCH  26  35
HETATM   35  C   UNL     1      -9.743   2.700  67.565  1.00  0.00     0.221 C  
BRANCH  35  36
HETATM   36  C   UNL     1      -9.623   3.319  68.928  1.00  0.00    -0.102 C  
HETATM   37  C   UNL     1      -8.843   2.876  69.934  1.00  0.00    -0.149 C  
HETATM   38  C   UNL     1      -8.838   3.599  71.246  1.00  0.00    -0.138 C  
HETATM   39  C   UNL     1      -7.962   1.656  69.871  1.00  0.00    -0.052 C  
ENDBRANCH  35  36
ENDBRANCH  26  35
TORSDOF 4
ENDMDL
MODEL       80
REMARK 921   NORMALIZED FREE ENERGY PREDICTED BY IDOCK:   -1.32 KCAL/MOL
REMARK 922        TOTAL FREE ENERGY PREDICTED BY IDOCK:   -1.81 KCAL/MOL
REMARK 923 INTER-LIGAND FREE ENERGY PREDICTED BY IDOCK:   -1.85 KCAL/MOL
REMARK 924 INTRA-LIGAND FREE ENERGY PREDICTED BY IDOCK:    0.04 KCAL/MOL
REMARK 927      BINDING AFFINITY PREDICTED BY RF-SCORE:    0.00 PKD
ROOT
HETATM    1  O   UNL     1      -9.911   7.515  65.894  1.00  0.00    -0.401 OA 
HETATM    2  H   UNL     1      -9.889   6.910  66.626  1.00  0.00     0.000 HD 
HETATM    3  C   UNL     1     -10.289   8.823  66.291  1.00  0.00     0.041 C  
HETATM    4  C   UNL     1     -10.323   9.802  65.111  1.00  0.00     0.334 C  
HETATM    5  C   UNL     1     -10.765  11.249  65.540  1.00  0.00    -0.283 C  
HETATM    6  C   UNL     1      -9.815  11.829  66.680  1.00  0.00    -0.223 C  
HETATM    7  C   UNL     1      -8.540  12.055  65.851  1.00  0.00     0.289 C  
HETATM    8  C   UNL     1      -9.970  10.718  67.779  1.00  0.00    -0.195 C  
HETATM    9  C   UNL     1      -9.398   9.330  67.431  1.00  0.00    -0.153 C  
HETATM   10  C   UNL     1      -9.913  10.992  69.270  1.00  0.00    -0.088 C  
HETATM   11  C   UNL     1     -10.515  12.388  69.654  1.00  0.00     0.695 C  
HETATM   12  C   UNL     1      -7.876   9.222  67.206  1.00  0.00    -0.099 C  
HETATM   13  C   UNL     1      -9.667  13.503  68.940  1.00  0.00     0.089 C  
HETATM   14  C   UNL     1      -8.364  13.059  69.809  1.00  0.00     2.100 C  
HETATM   15  C   UNL     1     -10.167  13.260  67.338  1.00  0.00    -0.229 C  
HETATM   16  C   UNL     1     -10.142  14.478  66.288  1.00  0.00    -0.295 C  
HETATM   17  C   UNL     1     -10.511  15.859  66.839  1.00  0.00    -0.309 C  
HETATM   18  O   UNL     1      -8.914  14.649  65.603  1.00  0.00    -0.335 OA 
HETATM   19  C   UNL     1      -9.701  16.257  68.055  1.00  0.00    -0.230 C  
HETATM   20  H   UNL     1      -8.899  15.368  64.983  1.00  0.00     0.000 HD 
HETATM   21  C   UNL     1      -8.109  16.523  67.770  1.00  0.00    -0.170 C  
HETATM   22  C   UNL     1      -7.589  15.252  68.351  1.00  0.00    -0.116 C  
HETATM   23  C   UNL     1      -7.381  17.654  68.052  1.00  0.00    -0.214 C  
HETATM   24  C   UNL     1      -8.368  15.552  69.765  1.00  0.00     0.016 C  
HETATM   25  C   UNL     1      -6.188  17.549  69.039  1.00  0.00    -0.212 C  
HETATM   26  C   UNL     1      -7.016  18.681  67.007  1.00  0.00    -0.211 C  
HETATM   27  O   UNL     1      -5.225  18.449  68.737  1.00  0.00    -0.177 OA 
HETATM   28  C   UNL     1     -10.891  15.399  70.277  1.00  0.00    -0.332 C  
HETATM   29  C   UNL     1      -9.785  15.133  69.272  1.00  0.00    -0.225 C  
HETATM   30  O   UNL     1      -5.993  16.776  69.948  1.00  0.00    -0.216 OA 
ENDROOT
BRANCH  22  31
HETATM   31  O   UNL     1      -6.222  14.899  67.998  1.00  0.00    -0.127 OA 
BRANCH  31  32
HETATM   32  C   UNL     1      -5.710  13.708  68.482  1.00  0.00    -0.090 C  
HETATM   33  O   UNL     1      -5.146  13.599  69.570  1.00  0.00    -0.083 OA 
HETATM   34  C   UNL     1      -5.681  12.496  67.572  1.00  0.00    -0.139 C  
ENDBRANCH  31  32
ENDBRANCH  22  31
BRANCH  26  35
HETATM   35  C   UNL     1      -7.903  18.771  65.786  1.00  0.00     0.036 C  
BRANCH  35  36
HETATM   36  C   UNL     1      -9.309  18.998  66.262  1.00  0.00    -0.319 C  
HETATM   37  C   UNL     1      -9.743  20.058  66.973  1.00  0.00    -0.555 C  
HETATM   38  C   UNL     1     -11.181  20.140  67.383  1.00  0.00     0.477 C  
HETATM   39  C   UNL     1      -8.878  21.200  67.438  1.00  0.00     0.102 C  
ENDBRANCH  35  36
ENDBRANCH  26  35
TORSDOF 4
ENDMDL
MODEL       81
REMARK 921   NORMALIZED FREE ENERGY PREDICTED BY IDOCK:   -1.30 KCAL/MOL
REMARK 922        TOTAL FREE ENERGY PREDICTED BY IDOCK:   -1.78 KCAL/MOL
REMARK 923 INTER-LIGAND FREE ENERGY PREDICTED BY IDOCK:   -0.63 KCAL/MOL
REMARK 924 INTRA-LIGAND FREE ENERGY PREDICTED BY IDOCK:   -1.15 KCAL/MOL
REMARK 927      BINDING AFFINITY PREDICTED BY RF-SCORE:    0.00 PKD
ROOT
HETATM    1  O   UNL     1     -10.427  10.188  72.099  1.00  0.00     1.564 OA 
HETATM    2  H   UNL     1     -10.863   9.860  72.877  1.00  0.00     0.000 HD 
HETATM    3  C   UNL     1      -9.473   9.270  71.591  1.00  0.00     0.063 C  
HETATM    4  C   UNL     1      -8.770   9.799  70.335  1.00  0.00    -0.106 C  
HETATM    5  C   UNL     1      -7.694   8.796  69.779  1.00  0.00    -0.084 C  
HETATM    6  C   UNL     1      -8.338   7.372  69.465  1.00  0.00    -0.132 C  
HETATM    7  C   UNL     1      -9.177   7.746  68.231  1.00  0.00    -0.139 C  
HETATM    8  C   UNL     1      -8.942   7.012  70.869  1.00  0.00    -0.152 C  
HETATM    9  C   UNL     1     -10.107   7.894  71.357  1.00  0.00    -0.212 C  
HETATM   10  C   UNL     1      -9.045   5.596  71.404  1.00  0.00    -0.152 C  
HETATM   11  C   UNL     1      -7.856   4.684  70.943  1.00  0.00    -0.077 C  
HETATM   12  C   UNL     1     -11.411   7.875  70.533  1.00  0.00    -0.242 C  
HETATM   13  C   UNL     1      -7.883   4.595  69.373  1.00  0.00    -0.062 C  
HETATM   14  C   UNL     1      -9.328   3.847  69.448  1.00  0.00    -0.246 C  
HETATM   15  C   UNL     1      -7.376   6.167  68.990  1.00  0.00    -0.085 C  
HETATM   16  C   UNL     1      -6.613   6.456  67.603  1.00  0.00    -0.058 C  
HETATM   17  C   UNL     1      -5.650   5.369  67.118  1.00  0.00    -0.013 C  
HETATM   18  O   UNL     1      -7.462   6.742  66.505  1.00  0.00    -0.076 OA 
HETATM   19  C   UNL     1      -6.283   3.995  67.039  1.00  0.00    -0.032 C  
HETATM   20  H   UNL     1      -7.011   6.913  65.687  1.00  0.00     0.000 HD 
HETATM   21  C   UNL     1      -7.440   3.830  65.889  1.00  0.00    -0.077 C  
HETATM   22  C   UNL     1      -8.625   3.872  66.794  1.00  0.00    -0.107 C  
HETATM   23  C   UNL     1      -7.492   2.906  64.874  1.00  0.00    -0.075 C  
HETATM   24  C   UNL     1      -8.003   2.655  67.703  1.00  0.00    -0.067 C  
HETATM   25  C   UNL     1      -8.681   1.909  64.831  1.00  0.00    -0.109 C  
HETATM   26  C   UNL     1      -7.115   3.226  63.447  1.00  0.00    -0.049 C  
HETATM   27  O   UNL     1      -8.973   1.556  63.559  1.00  0.00    -0.085 OA 
HETATM   28  C   UNL     1      -6.036   2.732  69.370  1.00  0.00    -0.024 C  
HETATM   29  C   UNL     1      -6.969   3.528  68.475  1.00  0.00    -0.050 C  
HETATM   30  O   UNL     1      -9.374   1.482  65.724  1.00  0.00    -0.046 OA 
ENDROOT
BRANCH  22  31
HETATM   31  O   UNL     1      -9.910   4.110  66.155  1.00  0.00    -0.199 OA 
BRANCH  31  32
HETATM   32  C   UNL     1     -10.259   5.415  65.855  1.00  0.00     0.009 C  
HETATM   33  O   UNL     1      -9.772   6.056  64.925  1.00  0.00     0.818 OA 
HETATM   34  C   UNL     1     -11.163   6.172  66.809  1.00  0.00    -0.080 C  
ENDBRANCH  31  32
ENDBRANCH  22  31
BRANCH  26  35
HETATM   35  C   UNL     1      -6.160   4.376  63.226  1.00  0.00    -0.018 C  
BRANCH  35  36
HETATM   36  C   UNL     1      -6.982   5.617  63.023  1.00  0.00    -0.040 C  
HETATM   37  C   UNL     1      -6.575   6.882  63.247  1.00  0.00    -0.043 C  
HETATM   38  C   UNL     1      -7.517   8.021  63.006  1.00  0.00    -0.114 C  
HETATM   39  C   UNL     1      -5.216   7.274  63.767  1.00  0.00    -0.029 C  
ENDBRANCH  35  36
ENDBRANCH  26  35
TORSDOF 4
ENDMDL
MODEL       82
REMARK 921   NORMALIZED FREE ENERGY PREDICTED BY IDOCK:   -1.20 KCAL/MOL
REMARK 922        TOTAL FREE ENERGY PREDICTED BY IDOCK:   -1.66 KCAL/MOL
REMARK 923 INTER-LIGAND FREE ENERGY PREDICTED BY IDOCK:   -0.65 KCAL/MOL
REMARK 924 INTRA-LIGAND FREE ENERGY PREDICTED BY IDOCK:   -1.01 KCAL/MOL
REMARK 927      BINDING AFFINITY PREDICTED BY RF-SCORE:    0.00 PKD
ROOT
HETATM    1  O   UNL     1      -8.909   4.324  62.465  1.00  0.00    -0.097 OA 
HETATM    2  H   UNL     1      -9.303   3.537  62.824  1.00  0.00     0.000 HD 
HETATM    3  C   UNL     1      -9.318   5.492  63.157  1.00  0.00     0.725 C  
HETATM    4  C   UNL     1      -8.682   6.762  62.579  1.00  0.00     0.358 C  
HETATM    5  C   UNL     1      -9.149   8.065  63.326  1.00  0.00     1.282 C  
HETATM    6  C   UNL     1      -8.835   7.980  64.886  1.00  0.00     0.190 C  
HETATM    7  C   UNL     1      -7.303   8.102  64.839  1.00  0.00    -0.087 C  
HETATM    8  C   UNL     1      -9.607   6.666  65.265  1.00  0.00     0.998 C  
HETATM    9  C   UNL     1      -9.061   5.357  64.662  1.00  0.00     0.152 C  
HETATM   10  C   UNL     1     -10.266   6.433  66.612  1.00  0.00    -0.216 C  
HETATM   11  C   UNL     1     -10.853   7.746  67.235  1.00  0.00    -0.225 C  
HETATM   12  C   UNL     1      -7.640   4.919  65.075  1.00  0.00    -0.077 C  
HETATM   13  C   UNL     1      -9.671   8.757  67.460  1.00  0.00    -0.214 C  
HETATM   14  C   UNL     1      -9.007   7.729  68.535  1.00  0.00    -0.133 C  
HETATM   15  C   UNL     1      -9.339   9.172  65.850  1.00  0.00    -0.306 C  
HETATM   16  C   UNL     1      -8.695  10.604  65.499  1.00  0.00    -0.188 C  
HETATM   17  C   UNL     1      -9.165  11.788  66.349  1.00  0.00    -0.223 C  
HETATM   18  O   UNL     1      -7.278  10.643  65.527  1.00  0.00    -0.258 OA 
HETATM   19  C   UNL     1      -9.025  11.551  67.839  1.00  0.00    -0.159 C  
HETATM   20  H   UNL     1      -6.898  11.488  65.320  1.00  0.00     0.000 HD 
HETATM   21  C   UNL     1      -7.482  11.454  68.384  1.00  0.00    -0.111 C  
HETATM   22  C   UNL     1      -7.427   9.975  68.561  1.00  0.00    -0.086 C  
HETATM   23  C   UNL     1      -6.890  12.200  69.375  1.00  0.00    -0.010 C  
HETATM   24  C   UNL     1      -8.770  10.015  69.504  1.00  0.00    -0.205 C  
HETATM   25  C   UNL     1      -6.351  11.474  70.636  1.00  0.00     0.404 C  
HETATM   26  C   UNL     1      -5.971  13.365  69.093  1.00  0.00    -0.087 C  
HETATM   27  O   UNL     1      -5.289  12.128  71.158  1.00  0.00    -0.230 OA 
HETATM   28  C   UNL     1     -11.222  10.394  68.799  1.00  0.00    -0.295 C  
HETATM   29  C   UNL     1      -9.793  10.169  68.339  1.00  0.00    -0.164 C  
HETATM   30  O   UNL     1      -6.695  10.433  71.144  1.00  0.00    -0.274 OA 
ENDROOT
BRANCH  22  31
HETATM   31  O   UNL     1      -6.101   9.396  68.705  1.00  0.00    -0.043 OA 
BRANCH  31  32
HETATM   32  C   UNL     1      -5.608   8.625  67.667  1.00  0.00    -0.039 C  
HETATM   33  O   UNL     1      -5.162   9.094  66.621  1.00  0.00    -0.037 OA 
HETATM   34  C   UNL     1      -5.767   7.119  67.728  1.00  0.00    -0.028 C  
ENDBRANCH  31  32
ENDBRANCH  22  31
BRANCH  26  35
HETATM   35  C   UNL     1      -6.132  14.067  67.764  1.00  0.00    -0.134 C  
BRANCH  35  36
HETATM   36  C   UNL     1      -6.724  15.421  68.035  1.00  0.00    -0.156 C  
HETATM   37  C   UNL     1      -7.862  15.909  67.504  1.00  0.00    -0.176 C  
HETATM   38  C   UNL     1      -8.321  17.288  67.866  1.00  0.00    -0.220 C  
HETATM   39  C   UNL     1      -8.737  15.180  66.517  1.00  0.00    -0.280 C  
ENDBRANCH  35  36
ENDBRANCH  26  35
TORSDOF 4
ENDMDL
MODEL       83
REMARK 921   NORMALIZED FREE ENERGY PREDICTED BY IDOCK:   -0.89 KCAL/MOL
REMARK 922        TOTAL FREE ENERGY PREDICTED BY IDOCK:   -1.27 KCAL/MOL
REMARK 923 INTER-LIGAND FREE ENERGY PREDICTED BY IDOCK:   -2.29 KCAL/MOL
REMARK 924 INTRA-LIGAND FREE ENERGY PREDICTED BY IDOCK:    1.02 KCAL/MOL
REMARK 927      BINDING AFFINITY PREDICTED BY RF-SCORE:    0.00 PKD
ROOT
HETATM    1  O   UNL     1     -11.110   7.933  67.673  1.00  0.00    -0.504 OA 
HETATM    2  H   UNL     1     -10.410   7.304  67.546  1.00  0.00     0.000 HD 
HETATM    3  C   UNL     1     -10.652   9.131  68.278  1.00  0.00    -0.174 C  
HETATM    4  C   UNL     1     -11.782  10.147  68.484  1.00  0.00     0.166 C  
HETATM    5  C   UNL     1     -11.286  11.469  69.176  1.00  0.00    -0.337 C  
HETATM    6  C   UNL     1     -10.108  12.149  68.346  1.00  0.00    -0.210 C  
HETATM    7  C   UNL     1     -10.911  12.640  67.130  1.00  0.00    -0.296 C  
HETATM    8  C   UNL     1      -9.068  10.973  68.303  1.00  0.00    -0.158 C  
HETATM    9  C   UNL     1      -9.479   9.728  67.493  1.00  0.00    -0.170 C  
HETATM   10  C   UNL     1      -7.564  11.176  68.298  1.00  0.00    -0.111 C  
HETATM   11  C   UNL     1      -7.118  12.422  69.138  1.00  0.00     0.007 C  
HETATM   12  C   UNL     1      -9.694   9.903  65.976  1.00  0.00    -0.310 C  
HETATM   13  C   UNL     1      -7.766  13.705  68.501  1.00  0.00    -0.129 C  
HETATM   14  C   UNL     1      -6.906  13.454  67.141  1.00  0.00     0.282 C  
HETATM   15  C   UNL     1      -9.383  13.459  68.948  1.00  0.00     0.211 C  
HETATM   16  C   UNL     1     -10.370  14.715  69.137  1.00  0.00    -0.216 C  
HETATM   17  C   UNL     1      -9.755  15.978  69.747  1.00  0.00    -0.064 C  
HETATM   18  O   UNL     1     -11.033  15.136  67.958  1.00  0.00    -0.274 OA 
HETATM   19  C   UNL     1      -8.511  16.451  69.021  1.00  0.00    -0.225 C  
HETATM   20  H   UNL     1     -11.616  15.877  68.070  1.00  0.00     0.000 HD 
HETATM   21  C   UNL     1      -8.766  17.009  67.501  1.00  0.00    -0.215 C  
HETATM   22  C   UNL     1      -8.244  15.822  66.765  1.00  0.00    -0.267 C  
HETATM   23  C   UNL     1      -8.420  18.235  66.986  1.00  0.00    -0.256 C  
HETATM   24  C   UNL     1      -6.826  15.906  67.587  1.00  0.00    -0.191 C  
HETATM   25  C   UNL     1      -7.427  18.293  65.795  1.00  0.00    -0.091 C  
HETATM   26  C   UNL     1      -9.409  19.363  66.808  1.00  0.00    -0.395 C  
HETATM   27  O   UNL     1      -7.674  19.363  65.006  1.00  0.00     0.020 OA 
HETATM   28  C   UNL     1      -6.348  15.283  70.043  1.00  0.00    -0.147 C  
HETATM   29  C   UNL     1      -7.354  15.269  68.907  1.00  0.00    -0.146 C  
HETATM   30  O   UNL     1      -6.556  17.521  65.467  1.00  0.00    -0.087 OA 
ENDROOT
BRANCH  22  31
HETATM   31  O   UNL     1      -8.600  15.735  65.357  1.00  0.00     0.590 OA 
BRANCH  31  32
HETATM   32  C   UNL     1      -9.932  15.553  65.030  1.00  0.00    -0.022 C  
HETATM   33  O   UNL     1     -10.792  16.422  65.161  1.00  0.00    -0.512 OA 
HETATM   34  C   UNL     1     -10.412  14.167  64.645  1.00  0.00    -0.366 C  
ENDBRANCH  31  32
ENDBRANCH  22  31
BRANCH  26  35
HETATM   35  C   UNL     1     -10.633  19.356  67.695  1.00  0.00    -0.575 C  
BRANCH  35  36
HETATM   36  C   UNL     1     -10.168  19.536  69.112  1.00  0.00    -0.267 C  
HETATM   37  C   UNL     1      -9.024  20.132  69.501  1.00  0.00     0.665 C  
HETATM   38  C   UNL     1      -8.693  20.229  70.958  1.00  0.00     1.982 C  
HETATM   39  C   UNL     1      -7.989  20.709  68.569  1.00  0.00     0.500 C  
ENDBRANCH  35  36
ENDBRANCH  26  35
TORSDOF 4
ENDMDL
MODEL       84
REMARK 921   NORMALIZED FREE ENERGY PREDICTED BY IDOCK:   -0.79 KCAL/MOL
REMARK 922        TOTAL FREE ENERGY PREDICTED BY IDOCK:   -1.16 KCAL/MOL
REMARK 923 INTER-LIGAND FREE ENERGY PREDICTED BY IDOCK:   -0.95 KCAL/MOL
REMARK 924 INTRA-LIGAND FREE ENERGY PREDICTED BY IDOCK:   -0.21 KCAL/MOL
REMARK 927      BINDING AFFINITY PREDICTED BY RF-SCORE:    0.00 PKD
ROOT
HETATM    1  O   UNL     1     -11.375   6.300  70.543  1.00  0.00    -0.337 OA 
HETATM    2  H   UNL     1     -11.023   5.577  70.036  1.00  0.00     0.000 HD 
HETATM    3  C   UNL     1     -10.611   7.485  70.390  1.00  0.00    -0.229 C  
HETATM    4  C   UNL     1     -11.179   8.651  71.208  1.00  0.00    -0.338 C  
HETATM    5  C   UNL     1     -10.324   9.963  71.063  1.00  0.00    -0.010 C  
HETATM    6  C   UNL     1     -10.194  10.401  69.537  1.00  0.00    -0.258 C  
HETATM    7  C   UNL     1     -11.638  10.865  69.287  1.00  0.00    -0.388 C  
HETATM    8  C   UNL     1      -9.560   9.105  68.916  1.00  0.00    -0.152 C  
HETATM    9  C   UNL     1     -10.451   7.847  68.910  1.00  0.00    -0.205 C  
HETATM   10  C   UNL     1      -8.592   9.115  67.748  1.00  0.00    -0.121 C  
HETATM   11  C   UNL     1      -7.656  10.373  67.747  1.00  0.00    -0.089 C  
HETATM   12  C   UNL     1     -11.747   7.895  68.075  1.00  0.00     1.948 C  
HETATM   13  C   UNL     1      -8.555  11.657  67.621  1.00  0.00    -0.142 C  
HETATM   14  C   UNL     1      -9.039  11.164  66.146  1.00  0.00    -0.214 C  
HETATM   15  C   UNL     1      -9.260  11.663  69.163  1.00  0.00     0.303 C  
HETATM   16  C   UNL     1      -9.746  13.046  69.825  1.00  0.00     1.993 C  
HETATM   17  C   UNL     1      -8.877  14.276  69.547  1.00  0.00     0.552 C  
HETATM   18  O   UNL     1     -11.073  13.427  69.504  1.00  0.00    -0.433 OA 
HETATM   19  C   UNL     1      -8.625  14.513  68.072  1.00  0.00    -0.162 C  
HETATM   20  H   UNL     1     -11.360  14.243  69.895  1.00  0.00     0.000 HD 
HETATM   21  C   UNL     1      -9.948  14.943  67.203  1.00  0.00    -0.231 C  
HETATM   22  C   UNL     1     -10.179  13.632  66.532  1.00  0.00    -0.284 C  
HETATM   23  C   UNL     1     -10.111  16.058  66.417  1.00  0.00    -0.314 C  
HETATM   24  C   UNL     1      -8.635  13.619  65.975  1.00  0.00     0.964 C  
HETATM   25  C   UNL     1     -10.379  15.869  64.900  1.00  0.00    -0.014 C  
HETATM   26  C   UNL     1     -10.880  17.278  66.866  1.00  0.00    -0.004 C  
HETATM   27  O   UNL     1     -11.135  16.878  64.409  1.00  0.00    -1.128 OA 
HETATM   28  C   UNL     1      -6.454  13.190  67.283  1.00  0.00     0.065 C  
HETATM   29  C   UNL     1      -7.971  13.189  67.317  1.00  0.00    -0.140 C  
HETATM   30  O   UNL     1     -10.070  14.965  64.159  1.00  0.00     0.634 OA 
ENDROOT
BRANCH  22  31
HETATM   31  O   UNL     1     -11.483  13.450  65.916  1.00  0.00    -0.309 OA 
BRANCH  31  32
HETATM   32  C   UNL     1     -11.790  12.207  65.391  1.00  0.00    -0.295 C  
HETATM   33  O   UNL     1     -12.124  11.241  66.075  1.00  0.00     0.249 OA 
HETATM   34  C   UNL     1     -11.548  11.950  63.916  1.00  0.00    -0.515 C  
ENDBRANCH  31  32
ENDBRANCH  22  31
BRANCH  26  35
HETATM   35  C   UNL     1     -10.994  17.515  68.354  1.00  0.00    -0.057 C  
BRANCH  35  36
HETATM   36  C   UNL     1      -9.724  18.176  68.807  1.00  0.00    -0.337 C  
HETATM   37  C   UNL     1      -9.346  19.439  68.530  1.00  0.00    -0.446 C  
HETATM   38  C   UNL     1      -8.039  19.956  69.049  1.00  0.00    -0.031 C  
HETATM   39  C   UNL     1     -10.132  20.413  67.691  1.00  0.00    -0.476 C  
ENDBRANCH  35  36
ENDBRANCH  26  35
TORSDOF 4
ENDMDL
MODEL       85
REMARK 921   NORMALIZED FREE ENERGY PREDICTED BY IDOCK:   -0.29 KCAL/MOL
REMARK 922        TOTAL FREE ENERGY PREDICTED BY IDOCK:   -0.54 KCAL/MOL
REMARK 923 INTER-LIGAND FREE ENERGY PREDICTED BY IDOCK:   -2.72 KCAL/MOL
REMARK 924 INTRA-LIGAND FREE ENERGY PREDICTED BY IDOCK:    2.18 KCAL/MOL
REMARK 927      BINDING AFFINITY PREDICTED BY RF-SCORE:    0.00 PKD
ROOT
HETATM    1  O   UNL     1     -14.335   8.965  72.852  1.00  0.00    -1.050 OA 
HETATM    2  H   UNL     1     -14.127   8.052  72.687  1.00  0.00     0.000 HD 
HETATM    3  C   UNL     1     -13.300   9.836  72.427  1.00  0.00    -0.284 C  
HETATM    4  C   UNL     1     -13.635  11.309  72.692  1.00  0.00     0.959 C  
HETATM    5  C   UNL     1     -12.481  12.280  72.245  1.00  0.00     0.794 C  
HETATM    6  C   UNL     1     -12.130  12.087  70.702  1.00  0.00    -0.369 C  
HETATM    7  C   UNL     1     -13.397  12.697  70.080  1.00  0.00     1.467 C  
HETATM    8  C   UNL     1     -11.778  10.557  70.675  1.00  0.00    -0.453 C  
HETATM    9  C   UNL     1     -12.940   9.585  70.958  1.00  0.00    -0.277 C  
HETATM   10  C   UNL     1     -10.747   9.945  69.746  1.00  0.00    -0.298 C  
HETATM   11  C   UNL     1      -9.539  10.904  69.463  1.00  0.00     0.118 C  
HETATM   12  C   UNL     1     -14.117   9.571  69.961  1.00  0.00     1.927 C  
HETATM   13  C   UNL     1     -10.092  12.199  68.762  1.00  0.00    -0.098 C  
HETATM   14  C   UNL     1     -10.562  11.298  67.488  1.00  0.00    -0.257 C  
HETATM   15  C   UNL     1     -10.894  12.913  70.074  1.00  0.00     0.814 C  
HETATM   16  C   UNL     1     -11.086  14.509  70.133  1.00  0.00    -0.082 C  
HETATM   17  C   UNL     1      -9.928  15.354  69.593  1.00  0.00    -0.270 C  
HETATM   18  O   UNL     1     -12.253  14.993  69.492  1.00  0.00    -0.449 OA 
HETATM   19  C   UNL     1      -9.512  14.973  68.187  1.00  0.00    -0.196 C  
HETATM   20  H   UNL     1     -12.366  15.935  69.528  1.00  0.00     0.000 HD 
HETATM   21  C   UNL     1     -10.620  15.299  67.023  1.00  0.00    -0.306 C  
HETATM   22  C   UNL     1     -11.104  13.905  66.815  1.00  0.00    -0.303 C  
HETATM   23  C   UNL     1     -10.449  16.052  65.886  1.00  0.00    -0.373 C  
HETATM   24  C   UNL     1      -9.569  13.386  66.552  1.00  0.00    -0.277 C  
HETATM   25  C   UNL     1     -10.634  15.370  64.504  1.00  0.00     0.124 C  
HETATM   26  C   UNL     1     -10.937  17.476  65.759  1.00  0.00     0.185 C  
HETATM   27  O   UNL     1     -11.085  16.251  63.583  1.00  0.00    -0.203 OA 
HETATM   28  C   UNL     1      -7.665  13.057  68.260  1.00  0.00    -0.141 C  
HETATM   29  C   UNL     1      -9.136  13.364  68.048  1.00  0.00    -0.205 C  
HETATM   30  O   UNL     1     -10.493  14.215  64.179  1.00  0.00    -0.075 OA 
ENDROOT
BRANCH  22  31
HETATM   31  O   UNL     1     -12.362  13.764  66.098  1.00  0.00    -0.445 OA 
BRANCH  31  32
HETATM   32  C   UNL     1     -12.484  12.727  65.191  1.00  0.00    -0.501 C  
HETATM   33  O   UNL     1     -13.523  12.467  64.586  1.00  0.00    -0.639 OA 
HETATM   34  C   UNL     1     -11.341  11.741  65.042  1.00  0.00    -0.288 C  
ENDBRANCH  31  32
ENDBRANCH  22  31
BRANCH  26  35
HETATM   35  C   UNL     1     -11.107  18.265  67.037  1.00  0.00     0.188 C  
BRANCH  35  36
HETATM   36  C   UNL     1     -10.112  19.389  67.013  1.00  0.00    -0.492 C  
HETATM   37  C   UNL     1      -8.881  19.369  67.563  1.00  0.00    -0.352 C  
HETATM   38  C   UNL     1      -8.002  20.578  67.463  1.00  0.00    -0.306 C  
HETATM   39  C   UNL     1      -8.293  18.210  68.325  1.00  0.00    -0.301 C  
ENDBRANCH  35  36
ENDBRANCH  26  35
TORSDOF 4
ENDMDL
MODEL       86
REMARK 921   NORMALIZED FREE ENERGY PREDICTED BY IDOCK:   -0.24 KCAL/MOL
REMARK 922        TOTAL FREE ENERGY PREDICTED BY IDOCK:   -0.47 KCAL/MOL
REMARK 923 INTER-LIGAND FREE ENERGY PREDICTED BY IDOCK:   -0.30 KCAL/MOL
REMARK 924 INTRA-LIGAND FREE ENERGY PREDICTED BY IDOCK:   -0.17 KCAL/MOL
REMARK 927      BINDING AFFINITY PREDICTED BY RF-SCORE:    0.00 PKD
ROOT
HETATM    1  O   UNL     1     -10.114   6.607  67.218  1.00  0.00    -0.141 OA 
HETATM    2  H   UNL     1      -9.467   6.083  66.761  1.00  0.00     0.000 HD 
HETATM    3  C   UNL     1      -9.536   7.726  67.869  1.00  0.00    -0.144 C  
HETATM    4  C   UNL     1     -10.580   8.572  68.607  1.00  0.00    -0.154 C  
HETATM    5  C   UNL     1      -9.943   9.803  69.352  1.00  0.00    -0.217 C  
HETATM    6  C   UNL     1      -9.129  10.729  68.343  1.00  0.00    -0.164 C  
HETATM    7  C   UNL     1     -10.304  11.333  67.556  1.00  0.00    -0.224 C  
HETATM    8  C   UNL     1      -8.110   9.690  67.754  1.00  0.00    -0.113 C  
HETATM    9  C   UNL     1      -8.708   8.564  66.889  1.00  0.00    -0.137 C  
HETATM   10  C   UNL     1      -6.699  10.044  67.321  1.00  0.00    -0.074 C  
HETATM   11  C   UNL     1      -6.058  11.170  68.203  1.00  0.00    -0.049 C  
HETATM   12  C   UNL     1      -9.411   8.969  65.576  1.00  0.00    -0.255 C  
HETATM   13  C   UNL     1      -6.932  12.468  68.059  1.00  0.00    -0.095 C  
HETATM   14  C   UNL     1      -6.550  12.540  66.477  1.00  0.00     1.080 C  
HETATM   15  C   UNL     1      -8.305  11.986  68.930  1.00  0.00     0.147 C  
HETATM   16  C   UNL     1      -9.229  13.085  69.655  1.00  0.00     1.954 C  
HETATM   17  C   UNL     1      -8.504  14.283  70.274  1.00  0.00     1.845 C  
HETATM   18  O   UNL     1     -10.257  13.628  68.844  1.00  0.00    -0.373 OA 
HETATM   19  C   UNL     1      -7.585  14.996  69.303  1.00  0.00    -0.187 C  
HETATM   20  H   UNL     1     -10.803  14.276  69.273  1.00  0.00     0.000 HD 
HETATM   21  C   UNL     1      -8.343  15.774  68.075  1.00  0.00    -0.153 C  
HETATM   22  C   UNL     1      -8.038  14.788  66.999  1.00  0.00    -0.144 C  
HETATM   23  C   UNL     1      -8.236  17.098  67.724  1.00  0.00    -0.200 C  
HETATM   24  C   UNL     1      -6.435  14.877  67.339  1.00  0.00     0.010 C  
HETATM   25  C   UNL     1      -7.686  17.457  66.317  1.00  0.00    -0.305 C  
HETATM   26  C   UNL     1      -9.276  18.132  68.082  1.00  0.00    -0.298 C  
HETATM   27  O   UNL     1      -8.221  18.614  65.866  1.00  0.00    -0.488 OA 
HETATM   28  C   UNL     1      -5.159  13.901  69.357  1.00  0.00    -0.082 C  
HETATM   29  C   UNL     1      -6.478  13.975  68.609  1.00  0.00    -0.091 C  
HETATM   30  O   UNL     1      -6.937  16.845  65.593  1.00  0.00     0.313 OA 
ENDROOT
BRANCH  22  31
HETATM   31  O   UNL     1      -8.827  14.903  65.782  1.00  0.00     0.154 OA 
BRANCH  31  32
HETATM   32  C   UNL     1     -10.183  15.154  65.905  1.00  0.00    -0.324 C  
HETATM   33  O   UNL     1     -10.991  14.338  66.344  1.00  0.00    -0.303 OA 
HETATM   34  C   UNL     1     -10.751  16.431  65.318  1.00  0.00    -0.312 C  
ENDBRANCH  31  32
ENDBRANCH  22  31
BRANCH  26  35
HETATM   35  C   UNL     1     -10.144  17.851  69.287  1.00  0.00    -0.115 C  
BRANCH  35  36
HETATM   36  C   UNL     1     -11.153  16.813  68.888  1.00  0.00    -0.194 C  
HETATM   37  C   UNL     1     -11.757  15.936  69.714  1.00  0.00    -0.323 C  
HETATM   38  C   UNL     1     -12.741  14.950  69.163  1.00  0.00     0.321 C  
HETATM   39  C   UNL     1     -11.505  15.830  71.196  1.00  0.00    -0.466 C  
ENDBRANCH  35  36
ENDBRANCH  26  35
TORSDOF 4
ENDMDL
MODEL       87
REMARK 921   NORMALIZED FREE ENERGY PREDICTED BY IDOCK:   -0.15 KCAL/MOL
REMARK 922        TOTAL FREE ENERGY PREDICTED BY IDOCK:   -0.37 KCAL/MOL
REMARK 923 INTER-LIGAND FREE ENERGY PREDICTED BY IDOCK:    0.52 KCAL/MOL
REMARK 924 INTRA-LIGAND FREE ENERGY PREDICTED BY IDOCK:   -0.89 KCAL/MOL
REMARK 927      BINDING AFFINITY PREDICTED BY RF-SCORE:    0.00 PKD
ROOT
HETATM    1  O   UNL     1      -6.062  16.505  70.036  1.00  0.00    -0.215 OA 
HETATM    2  H   UNL     1      -5.292  16.785  69.556  1.00  0.00     0.000 HD 
HETATM    3  C   UNL     1      -6.852  15.589  69.295  1.00  0.00    -0.160 C  
HETATM    4  C   UNL     1      -8.096  15.136  70.070  1.00  0.00     0.302 C  
HETATM    5  C   UNL     1      -8.989  14.138  69.246  1.00  0.00     0.357 C  
HETATM    6  C   UNL     1      -8.156  12.859  68.788  1.00  0.00     0.087 C  
HETATM    7  C   UNL     1      -7.986  12.172  70.153  1.00  0.00     2.940 C  
HETATM    8  C   UNL     1      -6.989  13.544  67.991  1.00  0.00    -0.133 C  
HETATM    9  C   UNL     1      -6.010  14.401  68.816  1.00  0.00    -0.084 C  
HETATM   10  C   UNL     1      -6.312  12.920  66.785  1.00  0.00     1.007 C  
HETATM   11  C   UNL     1      -7.294  12.064  65.913  1.00  0.00     1.251 C  
HETATM   12  C   UNL     1      -5.167  13.685  69.891  1.00  0.00    -0.085 C  
HETATM   13  C   UNL     1      -7.845  10.889  66.800  1.00  0.00    -0.141 C  
HETATM   14  C   UNL     1      -6.337  10.285  66.924  1.00  0.00    -0.069 C  
HETATM   15  C   UNL     1      -8.863  11.766  67.835  1.00  0.00    -0.165 C  
HETATM   16  C   UNL     1     -10.144  11.058  68.501  1.00  0.00    -0.190 C  
HETATM   17  C   UNL     1     -10.889  10.041  67.631  1.00  0.00    -0.336 C  
HETATM   18  O   UNL     1      -9.890  10.404  69.733  1.00  0.00    -0.368 OA 
HETATM   19  C   UNL     1      -9.988   8.964  67.061  1.00  0.00    -0.300 C  
HETATM   20  H   UNL     1     -10.647   9.986  70.126  1.00  0.00     0.000 HD 
HETATM   21  C   UNL     1      -9.360   7.930  68.166  1.00  0.00    -0.146 C  
HETATM   22  C   UNL     1      -7.978   8.490  68.198  1.00  0.00    -0.111 C  
HETATM   23  C   UNL     1      -9.452   6.559  68.184  1.00  0.00    -0.114 C  
HETATM   24  C   UNL     1      -7.853   8.337  66.569  1.00  0.00    -0.093 C  
HETATM   25  C   UNL     1      -8.149   5.721  68.096  1.00  0.00    -0.104 C  
HETATM   26  C   UNL     1     -10.416   5.809  69.072  1.00  0.00    -0.336 C  
HETATM   27  O   UNL     1      -8.280   4.546  68.754  1.00  0.00    -0.080 OA 
HETATM   28  C   UNL     1      -8.977   9.750  64.727  1.00  0.00    -0.266 C  
HETATM   29  C   UNL     1      -8.708   9.590  66.212  1.00  0.00    -0.158 C  
HETATM   30  O   UNL     1      -7.080   5.989  67.600  1.00  0.00    -0.070 OA 
ENDROOT
BRANCH  22  31
HETATM   31  O   UNL     1      -7.150   8.087  69.324  1.00  0.00    -0.064 OA 
BRANCH  31  32
HETATM   32  C   UNL     1      -7.727   8.056  70.581  1.00  0.00    -0.089 C  
HETATM   33  O   UNL     1      -8.279   9.023  71.103  1.00  0.00    -0.166 OA 
HETATM   34  C   UNL     1      -7.535   6.827  71.449  1.00  0.00    -0.087 C  
ENDBRANCH  31  32
ENDBRANCH  22  31
BRANCH  26  35
HETATM   35  C   UNL     1     -11.655   6.546  69.526  1.00  0.00    -0.298 C  
BRANCH  35  36
HETATM   36  C   UNL     1     -11.260   7.439  70.666  1.00  0.00    -0.292 C  
HETATM   37  C   UNL     1     -12.103   8.098  71.486  1.00  0.00    -0.332 C  
HETATM   38  C   UNL     1     -11.555   8.963  72.579  1.00  0.00    -0.093 C  
HETATM   39  C   UNL     1     -13.606   8.069  71.384  1.00  0.00    -0.279 C  
ENDBRANCH  35  36
ENDBRANCH  26  35
TORSDOF 4
ENDMDL
MODEL       88
REMARK 921   NORMALIZED FREE ENERGY PREDICTED BY IDOCK:   -0.13 KCAL/MOL
REMARK 922        TOTAL FREE ENERGY PREDICTED BY IDOCK:   -0.34 KCAL/MOL
REMARK 923 INTER-LIGAND FREE ENERGY PREDICTED BY IDOCK:   -1.00 KCAL/MOL
REMARK 924 INTRA-LIGAND FREE ENERGY PREDICTED BY IDOCK:    0.67 KCAL/MOL
REMARK 927      BINDING AFFINITY PREDICTED BY RF-SCORE:    0.00 PKD
ROOT
HETATM    1  O   UNL     1      -9.093  12.903  64.844  1.00  0.00     0.140 OA 
HETATM    2  H   UNL     1      -8.875  13.573  65.481  1.00  0.00     0.000 HD 
HETATM    3  C   UNL     1      -8.392  11.692  65.079  1.00  0.00     0.848 C  
HETATM    4  C   UNL     1      -8.744  10.609  64.052  1.00  0.00    -0.136 C  
HETATM    5  C   UNL     1      -7.953   9.271  64.291  1.00  0.00    -0.135 C  
HETATM    6  C   UNL     1      -8.202   8.708  65.761  1.00  0.00    -0.126 C  
HETATM    7  C   UNL     1      -9.664   8.257  65.610  1.00  0.00     0.319 C  
HETATM    8  C   UNL     1      -7.738   9.935  66.623  1.00  0.00    -0.106 C  
HETATM    9  C   UNL     1      -8.600  11.208  66.518  1.00  0.00    -0.169 C  
HETATM   10  C   UNL     1      -7.086   9.809  67.988  1.00  0.00    -0.079 C  
HETATM   11  C   UNL     1      -6.181   8.534  68.112  1.00  0.00    -0.051 C  
HETATM   12  C   UNL     1     -10.061  11.122  67.004  1.00  0.00    -0.235 C  
HETATM   13  C   UNL     1      -7.085   7.265  67.906  1.00  0.00    -0.085 C  
HETATM   14  C   UNL     1      -7.916   7.648  69.254  1.00  0.00    -0.126 C  
HETATM   15  C   UNL     1      -7.390   7.399  66.244  1.00  0.00    -0.082 C  
HETATM   16  C   UNL     1      -7.702   6.085  65.369  1.00  0.00    -0.091 C  
HETATM   17  C   UNL     1      -6.930   4.818  65.747  1.00  0.00    -0.063 C  
HETATM   18  O   UNL     1      -9.068   5.710  65.324  1.00  0.00    -0.321 OA 
HETATM   19  C   UNL     1      -7.048   4.457  67.214  1.00  0.00    -0.068 C  
HETATM   20  H   UNL     1      -9.252   4.934  64.808  1.00  0.00     0.000 HD 
HETATM   21  C   UNL     1      -8.544   3.987  67.694  1.00  0.00    -0.110 C  
HETATM   22  C   UNL     1      -8.930   5.245  68.396  1.00  0.00    -0.108 C  
HETATM   23  C   UNL     1      -8.898   2.816  68.320  1.00  0.00    -0.165 C  
HETATM   24  C   UNL     1      -7.570   5.179  69.312  1.00  0.00    -0.069 C  
HETATM   25  C   UNL     1      -9.529   2.888  69.737  1.00  0.00    -0.097 C  
HETATM   26  C   UNL     1      -9.535   1.655  67.597  1.00  0.00    -0.084 C  
HETATM   27  O   UNL     1     -10.384   1.860  69.941  1.00  0.00     0.737 OA 
HETATM   28  C   UNL     1      -5.134   5.663  68.617  1.00  0.00     0.000 C  
HETATM   29  C   UNL     1      -6.597   5.701  68.214  1.00  0.00    -0.049 C  
HETATM   30  O   UNL     1      -9.410   3.722  70.603  1.00  0.00    -0.124 OA 
ENDROOT
BRANCH  22  31
HETATM   31  O   UNL     1     -10.346   5.406  68.688  1.00  0.00    -0.185 OA 
BRANCH  31  32
HETATM   32  C   UNL     1     -10.718   6.372  69.606  1.00  0.00    -0.282 C  
HETATM   33  O   UNL     1     -11.193   6.116  70.711  1.00  0.00    -0.302 OA 
HETATM   34  C   UNL     1     -10.704   7.829  69.187  1.00  0.00    -0.139 C  
ENDBRANCH  31  32
ENDBRANCH  22  31
BRANCH  26  35
HETATM   35  C   UNL     1      -9.281   1.541  66.111  1.00  0.00     0.025 C  
BRANCH  35  36
HETATM   36  C   UNL     1      -9.970   2.696  65.443  1.00  0.00     0.505 C  
HETATM   37  C   UNL     1     -10.393   2.733  64.164  1.00  0.00    -0.008 C  
HETATM   38  C   UNL     1     -11.060   3.966  63.636  1.00  0.00     0.138 C  
HETATM   39  C   UNL     1     -10.227   1.617  63.165  1.00  0.00    -0.120 C  
ENDBRANCH  35  36
ENDBRANCH  26  35
TORSDOF 4
ENDMDL
MODEL       89
REMARK 921   NORMALIZED FREE ENERGY PREDICTED BY IDOCK:   -0.12 KCAL/MOL
REMARK 922        TOTAL FREE ENERGY PREDICTED BY IDOCK:   -0.33 KCAL/MOL
REMARK 923 INTER-LIGAND FREE ENERGY PREDICTED BY IDOCK:   -1.58 KCAL/MOL
REMARK 924 INTRA-LIGAND FREE ENERGY PREDICTED BY IDOCK:    1.25 KCAL/MOL
REMARK 927      BINDING AFFINITY PREDICTED BY RF-SCORE:    0.00 PKD
ROOT
HETATM    1  O   UNL     1     -11.346  16.987  69.296  1.00  0.00    -0.179 OA 
HETATM    2  H   UNL     1     -10.697  17.659  69.126  1.00  0.00     0.000 HD 
HETATM    3  C   UNL     1     -11.168  15.848  68.468  1.00  0.00    -0.362 C  
HETATM    4  C   UNL     1     -12.215  14.762  68.742  1.00  0.00    -0.135 C  
HETATM    5  C   UNL     1     -12.038  13.506  67.812  1.00  0.00    -0.316 C  
HETATM    6  C   UNL     1     -10.579  12.882  67.955  1.00  0.00    -0.232 C  
HETATM    7  C   UNL     1     -10.699  12.289  69.368  1.00  0.00     0.085 C  
HETATM    8  C   UNL     1      -9.695  14.128  67.590  1.00  0.00    -0.228 C  
HETATM    9  C   UNL     1      -9.738  15.308  68.580  1.00  0.00    -0.211 C  
HETATM   10  C   UNL     1      -8.355  14.033  66.885  1.00  0.00    -0.043 C  
HETATM   11  C   UNL     1      -8.294  12.856  65.852  1.00  0.00     1.336 C  
HETATM   12  C   UNL     1      -9.212  15.061  70.008  1.00  0.00     0.350 C  
HETATM   13  C   UNL     1      -8.510  11.506  66.629  1.00  0.00    -0.172 C  
HETATM   14  C   UNL     1      -7.128  11.767  67.450  1.00  0.00    -0.126 C  
HETATM   15  C   UNL     1     -10.158  11.652  66.999  1.00  0.00    -0.234 C  
HETATM   16  C   UNL     1     -11.061  10.336  67.204  1.00  0.00    -0.091 C  
HETATM   17  C   UNL     1     -10.743   9.144  66.296  1.00  0.00     0.366 C  
HETATM   18  O   UNL     1     -11.077   9.824  68.526  1.00  0.00    -0.419 OA 
HETATM   19  C   UNL     1      -9.284   8.736  66.330  1.00  0.00    -0.241 C  
HETATM   20  H   UNL     1     -11.610   9.048  68.647  1.00  0.00     0.000 HD 
HETATM   21  C   UNL     1      -8.775   8.103  67.754  1.00  0.00    -0.130 C  
HETATM   22  C   UNL     1      -8.025   9.296  68.243  1.00  0.00    -0.102 C  
HETATM   23  C   UNL     1      -8.172   6.886  67.967  1.00  0.00    -0.115 C  
HETATM   24  C   UNL     1      -7.151   9.345  66.854  1.00  0.00    -0.086 C  
HETATM   25  C   UNL     1      -6.737   6.856  68.556  1.00  0.00    -0.064 C  
HETATM   26  C   UNL     1      -8.911   5.685  68.507  1.00  0.00    -0.108 C  
HETATM   27  O   UNL     1      -6.538   5.742  69.296  1.00  0.00    -0.049 OA 
HETATM   28  C   UNL     1      -7.903  10.094  64.504  1.00  0.00    -0.141 C  
HETATM   29  C   UNL     1      -8.263   9.993  65.975  1.00  0.00    -0.126 C  
HETATM   30  O   UNL     1      -5.850   7.675  68.495  1.00  0.00    -0.026 OA 
ENDROOT
BRANCH  22  31
HETATM   31  O   UNL     1      -7.687   9.303  69.658  1.00  0.00    -0.075 OA 
BRANCH  31  32
HETATM   32  C   UNL     1      -6.856  10.306  70.125  1.00  0.00    -0.151 C  
HETATM   33  O   UNL     1      -7.203  11.480  70.246  1.00  0.00     0.346 OA 
HETATM   34  C   UNL     1      -5.388  10.000  70.349  1.00  0.00    -0.047 C  
ENDBRANCH  31  32
ENDBRANCH  22  31
BRANCH  26  35
HETATM   35  C   UNL     1     -10.405   5.636  68.290  1.00  0.00    -0.253 C  
BRANCH  35  36
HETATM   36  C   UNL     1     -10.673   4.652  67.187  1.00  0.00     0.429 C  
HETATM   37  C   UNL     1     -10.198   4.724  65.928  1.00  0.00    -0.286 C  
HETATM   38  C   UNL     1     -10.562   3.665  64.934  1.00  0.00     0.105 C  
HETATM   39  C   UNL     1      -9.322   5.829  65.397  1.00  0.00     0.154 C  
ENDBRANCH  35  36
ENDBRANCH  26  35
TORSDOF 4
ENDMDL
MODEL       90
REMARK 921   NORMALIZED FREE ENERGY PREDICTED BY IDOCK:   -0.11 KCAL/MOL
REMARK 922        TOTAL FREE ENERGY PREDICTED BY IDOCK:   -0.32 KCAL/MOL
REMARK 923 INTER-LIGAND FREE ENERGY PREDICTED BY IDOCK:    0.24 KCAL/MOL
REMARK 924 INTRA-LIGAND FREE ENERGY PREDICTED BY IDOCK:   -0.56 KCAL/MOL
REMARK 927      BINDING AFFINITY PREDICTED BY RF-SCORE:    0.00 PKD
ROOT
HETATM    1  O   UNL     1     -13.947  14.854  72.179  1.00  0.00    -0.408 OA 
HETATM    2  H   UNL     1     -13.798  15.704  71.783  1.00  0.00     0.000 HD 
HETATM    3  C   UNL     1     -13.667  13.789  71.285  1.00  0.00    -0.038 C  
HETATM    4  C   UNL     1     -13.907  12.416  71.924  1.00  0.00     0.129 C  
HETATM    5  C   UNL     1     -13.621  11.230  70.931  1.00  0.00     0.900 C  
HETATM    6  C   UNL     1     -12.132  11.297  70.365  1.00  0.00    -0.474 C  
HETATM    7  C   UNL     1     -11.364  10.913  71.641  1.00  0.00     1.795 C  
HETATM    8  C   UNL     1     -12.129  12.732  69.728  1.00  0.00    -0.305 C  
HETATM    9  C   UNL     1     -12.251  13.914  70.710  1.00  0.00    -0.441 C  
HETATM   10  C   UNL     1     -11.329  13.105  68.495  1.00  0.00    -0.321 C  
HETATM   11  C   UNL     1     -11.213  11.927  67.467  1.00  0.00    -0.359 C  
HETATM   12  C   UNL     1     -11.115  14.112  71.733  1.00  0.00     1.966 C  
HETATM   13  C   UNL     1     -10.465  10.734  68.167  1.00  0.00    -0.214 C  
HETATM   14  C   UNL     1      -9.131  11.659  68.300  1.00  0.00    -0.187 C  
HETATM   15  C   UNL     1     -11.675  10.231  69.243  1.00  0.00    -0.141 C  
HETATM   16  C   UNL     1     -11.731   8.702  69.741  1.00  0.00     0.519 C  
HETATM   17  C   UNL     1     -11.351   7.637  68.709  1.00  0.00     0.536 C  
HETATM   18  O   UNL     1     -10.955   8.422  70.893  1.00  0.00    -0.232 OA 
HETATM   19  C   UNL     1     -10.003   7.881  68.061  1.00  0.00    -0.213 C  
HETATM   20  H   UNL     1     -10.988   7.520  71.187  1.00  0.00     0.000 HD 
HETATM   21  C   UNL     1      -8.715   7.725  69.062  1.00  0.00    -0.135 C  
HETATM   22  C   UNL     1      -8.429   9.177  69.243  1.00  0.00    -0.132 C  
HETATM   23  C   UNL     1      -7.618   6.913  68.902  1.00  0.00    -0.105 C  
HETATM   24  C   UNL     1      -8.354   9.390  67.617  1.00  0.00    -0.119 C  
HETATM   25  C   UNL     1      -6.215   7.566  68.785  1.00  0.00    -0.032 C  
HETATM   26  C   UNL     1      -7.450   5.602  69.633  1.00  0.00    -0.075 C  
HETATM   27  O   UNL     1      -5.256   6.752  69.281  1.00  0.00    -0.013 OA 
HETATM   28  C   UNL     1     -10.283   9.418  65.905  1.00  0.00    -0.123 C  
HETATM   29  C   UNL     1      -9.892   9.385  67.372  1.00  0.00    -0.222 C  
HETATM   30  O   UNL     1      -5.894   8.662  68.388  1.00  0.00    -0.040 OA 
ENDROOT
BRANCH  22  31
HETATM   31  O   UNL     1      -7.558   9.524  70.355  1.00  0.00    -0.130 OA 
BRANCH  31  32
HETATM   32  C   UNL     1      -7.790   8.923  71.579  1.00  0.00    -0.058 C  
HETATM   33  O   UNL     1      -8.880   8.930  72.148  1.00  0.00    -0.381 OA 
HETATM   34  C   UNL     1      -6.616   8.363  72.358  1.00  0.00    -0.095 C  
ENDBRANCH  31  32
ENDBRANCH  22  31
BRANCH  26  35
HETATM   35  C   UNL     1      -8.706   4.906  70.103  1.00  0.00    -0.118 C  
BRANCH  35  36
HETATM   36  C   UNL     1      -8.315   3.538  70.582  1.00  0.00    -0.093 C  
HETATM   37  C   UNL     1      -8.878   2.865  71.605  1.00  0.00    -0.124 C  
HETATM   38  C   UNL     1      -8.371   1.504  71.970  1.00  0.00    -0.046 C  
HETATM   39  C   UNL     1      -9.995   3.387  72.472  1.00  0.00    -0.228 C  
ENDBRANCH  35  36
ENDBRANCH  26  35
TORSDOF 4
ENDMDL
MODEL       91
REMARK 921   NORMALIZED FREE ENERGY PREDICTED BY IDOCK:    0.02 KCAL/MOL
REMARK 922        TOTAL FREE ENERGY PREDICTED BY IDOCK:   -0.15 KCAL/MOL
REMARK 923 INTER-LIGAND FREE ENERGY PREDICTED BY IDOCK:   -3.26 KCAL/MOL
REMARK 924 INTRA-LIGAND FREE ENERGY PREDICTED BY IDOCK:    3.11 KCAL/MOL
REMARK 927      BINDING AFFINITY PREDICTED BY RF-SCORE:    0.00 PKD
ROOT
HETATM    1  O   UNL     1     -10.795   5.058  74.270  1.00  0.00    -0.320 OA 
HETATM    2  H   UNL     1     -11.395   5.487  74.869  1.00  0.00     0.000 HD 
HETATM    3  C   UNL     1     -10.859   5.604  72.963  1.00  0.00    -0.271 C  
HETATM    4  C   UNL     1      -9.891   4.912  71.996  1.00  0.00    -0.232 C  
HETATM    5  C   UNL     1      -9.974   5.497  70.538  1.00  0.00    -0.276 C  
HETATM    6  C   UNL     1      -9.699   7.067  70.529  1.00  0.00    -0.178 C  
HETATM    7  C   UNL     1      -8.195   7.058  70.845  1.00  0.00    -0.121 C  
HETATM    8  C   UNL     1     -10.810   7.560  71.523  1.00  0.00    -0.253 C  
HETATM    9  C   UNL     1     -10.654   7.123  72.992  1.00  0.00    -0.346 C  
HETATM   10  C   UNL     1     -11.510   8.901  71.407  1.00  0.00    -0.381 C  
HETATM   11  C   UNL     1     -11.706   9.357  69.919  1.00  0.00     0.111 C  
HETATM   12  C   UNL     1      -9.415   7.628  73.759  1.00  0.00    -0.300 C  
HETATM   13  C   UNL     1     -10.287   9.511  69.260  1.00  0.00    -0.219 C  
HETATM   14  C   UNL     1      -9.941  10.713  70.303  1.00  0.00     0.591 C  
HETATM   15  C   UNL     1      -9.849   7.878  69.142  1.00  0.00    -0.174 C  
HETATM   16  C   UNL     1      -8.827   7.395  67.997  1.00  0.00    -0.126 C  
HETATM   17  C   UNL     1      -8.946   8.094  66.640  1.00  0.00    -0.181 C  
HETATM   18  O   UNL     1      -7.457   7.466  68.352  1.00  0.00    -0.100 OA 
HETATM   19  C   UNL     1      -8.881   9.605  66.734  1.00  0.00    -0.148 C  
HETATM   20  H   UNL     1      -6.854   7.180  67.676  1.00  0.00     0.000 HD 
HETATM   21  C   UNL     1      -7.429  10.208  67.195  1.00  0.00    -0.091 C  
HETATM   22  C   UNL     1      -7.793  10.548  68.601  1.00  0.00    -0.116 C  
HETATM   23  C   UNL     1      -6.653  11.131  66.536  1.00  0.00    -0.124 C  
HETATM   24  C   UNL     1      -9.073  11.434  68.080  1.00  0.00    -0.171 C  
HETATM   25  C   UNL     1      -6.342  12.482  67.236  1.00  0.00    -0.123 C  
HETATM   26  C   UNL     1      -5.443  10.755  65.715  1.00  0.00    -0.135 C  
HETATM   27  O   UNL     1      -5.140  12.965  66.849  1.00  0.00    -0.302 OA 
HETATM   28  C   UNL     1     -11.317  10.610  67.113  1.00  0.00    -0.046 C  
HETATM   29  C   UNL     1     -10.009  10.226  67.780  1.00  0.00    -0.203 C  
HETATM   30  O   UNL     1      -6.967  13.089  68.074  1.00  0.00    -0.085 OA 
ENDROOT
BRANCH  22  31
HETATM   31  O   UNL     1      -6.684  10.799  69.507  1.00  0.00    -0.079 OA 
BRANCH  31  32
HETATM   32  C   UNL     1      -6.184   9.736  70.239  1.00  0.00    -0.074 C  
HETATM   33  O   UNL     1      -5.642   9.858  71.336  1.00  0.00    -0.076 OA 
HETATM   34  C   UNL     1      -6.141   8.361  69.603  1.00  0.00    -0.032 C  
ENDBRANCH  31  32
ENDBRANCH  22  31
BRANCH  26  35
HETATM   35  C   UNL     1      -5.398   9.354  65.152  1.00  0.00    -0.045 C  
BRANCH  35  36
HETATM   36  C   UNL     1      -6.572   9.197  64.229  1.00  0.00    -0.084 C  
HETATM   37  C   UNL     1      -7.018  10.117  63.352  1.00  0.00    -0.121 C  
HETATM   38  C   UNL     1      -8.213   9.816  62.500  1.00  0.00    -0.146 C  
HETATM   39  C   UNL     1      -6.424  11.488  63.159  1.00  0.00     1.714 C  
ENDBRANCH  35  36
ENDBRANCH  26  35
TORSDOF 4
ENDMDL
MODEL       92
REMARK 921   NORMALIZED FREE ENERGY PREDICTED BY IDOCK:    1.31 KCAL/MOL
REMARK 922        TOTAL FREE ENERGY PREDICTED BY IDOCK:    1.44 KCAL/MOL
REMARK 923 INTER-LIGAND FREE ENERGY PREDICTED BY IDOCK:    1.43 KCAL/MOL
REMARK 924 INTRA-LIGAND FREE ENERGY PREDICTED BY IDOCK:    0.02 KCAL/MOL
REMARK 927      BINDING AFFINITY PREDICTED BY RF-SCORE:    0.00 PKD
ROOT
HETATM    1  O   UNL     1      -9.226   5.547  69.606  1.00  0.00    -0.128 OA 
HETATM    2  H   UNL     1      -9.136   5.333  70.527  1.00  0.00     0.000 HD 
HETATM    3  C   UNL     1     -10.066   6.671  69.396  1.00  0.00    -0.173 C  
HETATM    4  C   UNL     1     -10.211   7.017  67.909  1.00  0.00    -0.224 C  
HETATM    5  C   UNL     1     -11.160   8.248  67.667  1.00  0.00     0.321 C  
HETATM    6  C   UNL     1     -10.654   9.533  68.463  1.00  0.00    -0.247 C  
HETATM    7  C   UNL     1      -9.398   9.858  67.638  1.00  0.00    -0.156 C  
HETATM    8  C   UNL     1     -10.629   8.973  69.930  1.00  0.00    -0.240 C  
HETATM    9  C   UNL     1      -9.591   7.872  70.221  1.00  0.00    -0.171 C  
HETATM   10  C   UNL     1     -10.916   9.815  71.159  1.00  0.00    -0.386 C  
HETATM   11  C   UNL     1     -11.990  10.927  70.895  1.00  0.00    -0.416 C  
HETATM   12  C   UNL     1      -8.100   8.243  70.089  1.00  0.00    -0.112 C  
HETATM   13  C   UNL     1     -11.437  11.893  69.785  1.00  0.00    -0.303 C  
HETATM   14  C   UNL     1     -10.227  12.334  70.782  1.00  0.00     5.354 C  
HETATM   15  C   UNL     1     -11.553  10.873  68.436  1.00  0.00    -0.346 C  
HETATM   16  C   UNL     1     -11.743  11.495  66.964  1.00  0.00    -0.005 C  
HETATM   17  C   UNL     1     -12.623  12.744  66.862  1.00  0.00     0.783 C  
HETATM   18  O   UNL     1     -10.537  11.814  66.292  1.00  0.00    -0.236 OA 
HETATM   19  C   UNL     1     -12.202  13.855  67.802  1.00  0.00    -0.217 C  
HETATM   20  H   UNL     1     -10.648  12.181  65.424  1.00  0.00     0.000 HD 
HETATM   21  C   UNL     1     -10.755  14.544  67.456  1.00  0.00    -0.276 C  
HETATM   22  C   UNL     1      -9.961  13.890  68.535  1.00  0.00    -0.221 C  
HETATM   23  C   UNL     1     -10.488  15.874  67.236  1.00  0.00    -0.310 C  
HETATM   24  C   UNL     1     -11.023  14.419  69.670  1.00  0.00    -0.194 C  
HETATM   25  C   UNL     1      -9.510  16.608  68.192  1.00  0.00    -0.228 C  
HETATM   26  C   UNL     1     -10.300  16.459  65.857  1.00  0.00    -0.378 C  
HETATM   27  O   UNL     1      -8.850  17.597  67.548  1.00  0.00    -0.228 OA 
HETATM   28  C   UNL     1     -13.412  13.578  70.158  1.00  0.00     1.250 C  
HETATM   29  C   UNL     1     -12.126  13.357  69.382  1.00  0.00    -0.321 C  
HETATM   30  O   UNL     1      -9.234  16.386  69.348  1.00  0.00    -0.201 OA 
ENDROOT
BRANCH  22  31
HETATM   31  O   UNL     1      -8.515  13.948  68.391  1.00  0.00    -0.159 OA 
BRANCH  31  32
HETATM   32  C   UNL     1      -7.862  12.829  67.905  1.00  0.00    -0.156 C  
HETATM   33  O   UNL     1      -7.772  12.557  66.709  1.00  0.00    -0.005 OA 
HETATM   34  C   UNL     1      -7.368  11.782  68.884  1.00  0.00    -0.093 C  
ENDBRANCH  31  32
ENDBRANCH  22  31
BRANCH  26  35
HETATM   35  C   UNL     1     -10.948  15.731  64.702  1.00  0.00    -0.333 C  
BRANCH  35  36
HETATM   36  C   UNL     1     -10.122  14.511  64.413  1.00  0.00     0.753 C  
HETATM   37  C   UNL     1     -10.577  13.347  63.909  1.00  0.00     0.061 C  
HETATM   38  C   UNL     1      -9.626  12.212  63.683  1.00  0.00    -0.019 C  
HETATM   39  C   UNL     1     -12.015  13.057  63.565  1.00  0.00    -0.615 C  
ENDBRANCH  35  36
ENDBRANCH  26  35
TORSDOF 4
ENDMDL
MODEL       93
REMARK 921   NORMALIZED FREE ENERGY PREDICTED BY IDOCK:    2.85 KCAL/MOL
REMARK 922        TOTAL FREE ENERGY PREDICTED BY IDOCK:    3.33 KCAL/MOL
REMARK 923 INTER-LIGAND FREE ENERGY PREDICTED BY IDOCK:    0.46 KCAL/MOL
REMARK 924 INTRA-LIGAND FREE ENERGY PREDICTED BY IDOCK:    2.87 KCAL/MOL
REMARK 927      BINDING AFFINITY PREDICTED BY RF-SCORE:    0.00 PKD
ROOT
HETATM    1  O   UNL     1      -8.380   5.101  65.809  1.00  0.00    -0.114 OA 
HETATM    2  H   UNL     1      -8.790   4.535  66.453  1.00  0.00     0.000 HD 
HETATM    3  C   UNL     1      -8.871   6.430  65.874  1.00  0.00    -0.131 C  
HETATM    4  C   UNL     1      -8.210   7.344  64.835  1.00  0.00    -0.080 C  
HETATM    5  C   UNL     1      -8.767   8.815  64.885  1.00  0.00    -0.161 C  
HETATM    6  C   UNL     1      -8.592   9.450  66.336  1.00  0.00    -0.144 C  
HETATM    7  C   UNL     1      -7.064   9.625  66.348  1.00  0.00    -0.093 C  
HETATM    8  C   UNL     1      -9.369   8.399  67.207  1.00  0.00    -0.181 C  
HETATM    9  C   UNL     1      -8.747   6.992  67.294  1.00  0.00    -0.120 C  
HETATM   10  C   UNL     1     -10.141   8.753  68.464  1.00  0.00    -0.210 C  
HETATM   11  C   UNL     1     -10.807  10.170  68.390  1.00  0.00    -0.284 C  
HETATM   12  C   UNL     1      -7.361   6.865  67.959  1.00  0.00    -0.097 C  
HETATM   13  C   UNL     1      -9.668  11.241  68.223  1.00  0.00    -0.199 C  
HETATM   14  C   UNL     1      -9.084  10.837  69.689  1.00  0.00     0.255 C  
HETATM   15  C   UNL     1      -9.202  10.915  66.626  1.00  0.00    -0.184 C  
HETATM   16  C   UNL     1      -8.556  12.076  65.718  1.00  0.00     0.399 C  
HETATM   17  C   UNL     1      -9.122  13.486  65.912  1.00  0.00     0.331 C  
HETATM   18  O   UNL     1      -7.149  12.204  65.827  1.00  0.00     0.604 OA 
HETATM   19  C   UNL     1      -9.111  13.944  67.357  1.00  0.00    -0.217 C  
HETATM   20  H   UNL     1      -6.768  12.889  65.291  1.00  0.00     0.000 HD 
HETATM   21  C   UNL     1      -7.621  14.187  67.995  1.00  0.00    -0.142 C  
HETATM   22  C   UNL     1      -7.555  12.946  68.819  1.00  0.00    -0.025 C  
HETATM   23  C   UNL     1      -7.135  15.328  68.587  1.00  0.00    -0.116 C  
HETATM   24  C   UNL     1      -8.978  13.324  69.546  1.00  0.00     1.451 C  
HETATM   25  C   UNL     1      -6.696  15.269  70.075  1.00  0.00    -0.104 C  
HETATM   26  C   UNL     1      -6.216  16.296  67.880  1.00  0.00    -0.142 C  
HETATM   27  O   UNL     1      -5.698  16.147  70.323  1.00  0.00    -0.180 OA 
HETATM   28  C   UNL     1     -11.364  13.212  68.573  1.00  0.00    -0.321 C  
HETATM   29  C   UNL     1      -9.895  12.887  68.366  1.00  0.00    -0.197 C  
HETATM   30  O   UNL     1      -7.066  14.545  70.970  1.00  0.00     0.616 OA 
ENDROOT
BRANCH  22  31
HETATM   31  O   UNL     1      -6.236  12.568  69.302  1.00  0.00    -0.090 OA 
BRANCH  31  32
HETATM   32  C   UNL     1      -6.154  11.849  70.481  1.00  0.00     0.050 C  
HETATM   33  O   UNL     1      -6.514  10.678  70.594  1.00  0.00    -0.310 OA 
HETATM   34  C   UNL     1      -5.757  12.568  71.756  1.00  0.00     0.689 C  
ENDBRANCH  31  32
ENDBRANCH  22  31
BRANCH  26  35
HETATM   35  C   UNL     1      -6.272  16.324  66.370  1.00  0.00     0.861 C  
BRANCH  35  36
HETATM   36  C   UNL     1      -7.027  17.558  65.967  1.00  0.00    -0.296 C  
HETATM   37  C   UNL     1      -8.157  18.018  66.539  1.00  0.00    -0.298 C  
HETATM   38  C   UNL     1      -8.801  19.265  66.016  1.00  0.00    -0.134 C  
HETATM   39  C   UNL     1      -8.880  17.353  67.682  1.00  0.00    -0.225 C  
ENDBRANCH  35  36
ENDBRANCH  26  35
TORSDOF 4
ENDMDL
MODEL       94
REMARK 921   NORMALIZED FREE ENERGY PREDICTED BY IDOCK:    4.06 KCAL/MOL
REMARK 922        TOTAL FREE ENERGY PREDICTED BY IDOCK:    4.83 KCAL/MOL
REMARK 923 INTER-LIGAND FREE ENERGY PREDICTED BY IDOCK:    2.16 KCAL/MOL
REMARK 924 INTRA-LIGAND FREE ENERGY PREDICTED BY IDOCK:    2.67 KCAL/MOL
REMARK 927      BINDING AFFINITY PREDICTED BY RF-SCORE:    0.00 PKD
ROOT
HETATM    1  O   UNL     1      -8.848   3.123  71.244  1.00  0.00    -0.075 OA 
HETATM    2  H   UNL     1      -8.937   3.063  72.188  1.00  0.00     0.000 HD 
HETATM    3  C   UNL     1      -9.516   4.256  70.713  1.00  0.00    -0.171 C  
HETATM    4  C   UNL     1      -9.372   4.355  69.190  1.00  0.00    -0.221 C  
HETATM    5  C   UNL     1     -10.130   5.596  68.591  1.00  0.00    -0.240 C  
HETATM    6  C   UNL     1      -9.631   6.955  69.259  1.00  0.00    -0.149 C  
HETATM    7  C   UNL     1      -8.227   7.037  68.638  1.00  0.00    -0.122 C  
HETATM    8  C   UNL     1      -9.913   6.653  70.774  1.00  0.00    -0.201 C  
HETATM    9  C   UNL     1      -9.062   5.540  71.417  1.00  0.00    -0.157 C  
HETATM   10  C   UNL     1     -10.312   7.711  71.785  1.00  0.00    -0.233 C  
HETATM   11  C   UNL     1     -11.202   8.841  71.161  1.00  0.00    -0.339 C  
HETATM   12  C   UNL     1      -7.539   5.767  71.505  1.00  0.00    -0.099 C  
HETATM   13  C   UNL     1     -10.370   9.559  70.036  1.00  0.00    -0.284 C  
HETATM   14  C   UNL     1      -9.306  10.068  71.158  1.00  0.00     1.316 C  
HETATM   15  C   UNL     1     -10.366   8.336  68.862  1.00  0.00    -0.230 C  
HETATM   16  C   UNL     1     -10.238   8.711  67.302  1.00  0.00    -0.268 C  
HETATM   17  C   UNL     1     -10.951   9.989  66.850  1.00  0.00    -0.070 C  
HETATM   18  O   UNL     1      -8.909   8.816  66.822  1.00  0.00    -0.123 OA 
HETATM   19  C   UNL     1     -10.578  11.208  67.669  1.00  0.00    -0.250 C  
HETATM   20  H   UNL     1      -8.833   9.038  65.902  1.00  0.00     0.000 HD 
HETATM   21  C   UNL     1      -9.029  11.714  67.492  1.00  0.00    -0.165 C  
HETATM   22  C   UNL     1      -8.502  11.193  68.786  1.00  0.00    -0.134 C  
HETATM   23  C   UNL     1      -8.588  12.962  67.122  1.00  0.00    -0.198 C  
HETATM   24  C   UNL     1      -9.677  11.989  69.611  1.00  0.00     1.360 C  
HETATM   25  C   UNL     1      -7.712  13.770  68.117  1.00  0.00    -0.140 C  
HETATM   26  C   UNL     1      -8.110  13.288  65.727  1.00  0.00     2.577 C  
HETATM   27  O   UNL     1      -6.852  14.581  67.460  1.00  0.00    -0.181 OA 
HETATM   28  C   UNL     1     -12.189  11.430  69.776  1.00  0.00    -0.332 C  
HETATM   29  C   UNL     1     -10.822  10.981  69.293  1.00  0.00    -0.285 C  
HETATM   30  O   UNL     1      -7.660  13.728  69.324  1.00  0.00     0.029 OA 
ENDROOT
BRANCH  22  31
HETATM   31  O   UNL     1      -7.054  11.114  68.902  1.00  0.00    -0.084 OA 
BRANCH  31  32
HETATM   32  C   UNL     1      -6.520  10.590  70.066  1.00  0.00    -0.135 C  
HETATM   33  O   UNL     1      -6.405   9.385  70.283  1.00  0.00    -0.047 OA 
HETATM   34  C   UNL     1      -6.206  11.525  71.217  1.00  0.00     1.196 C  
ENDBRANCH  31  32
ENDBRANCH  22  31
BRANCH  26  35
HETATM   35  C   UNL     1      -8.628  12.425  64.600  1.00  0.00     2.045 C  
BRANCH  35  36
HETATM   36  C   UNL     1     -10.128  12.505  64.619  1.00  0.00    -0.258 C  
HETATM   37  C   UNL     1     -10.862  13.481  65.188  1.00  0.00    -0.336 C  
HETATM   38  C   UNL     1     -12.357  13.416  65.132  1.00  0.00    -0.501 C  
HETATM   39  C   UNL     1     -10.299  14.666  65.929  1.00  0.00    -0.334 C  
ENDBRANCH  35  36
ENDBRANCH  26  35
TORSDOF 4
ENDMDL
MODEL       95
REMARK 921   NORMALIZED FREE ENERGY PREDICTED BY IDOCK:    4.28 KCAL/MOL
REMARK 922        TOTAL FREE ENERGY PREDICTED BY IDOCK:    5.11 KCAL/MOL
REMARK 923 INTER-LIGAND FREE ENERGY PREDICTED BY IDOCK:    4.90 KCAL/MOL
REMARK 924 INTRA-LIGAND FREE ENERGY PREDICTED BY IDOCK:    0.20 KCAL/MOL
REMARK 927      BINDING AFFINITY PREDICTED BY RF-SCORE:    0.00 PKD
ROOT
HETATM    1  O   UNL     1     -13.379   8.371  72.388  1.00  0.00    -0.520 OA 
HETATM    2  H   UNL     1     -13.895   7.705  71.949  1.00  0.00     0.000 HD 
HETATM    3  C   UNL     1     -12.343   8.878  71.563  1.00  0.00    -0.324 C  
HETATM    4  C   UNL     1     -11.510   9.953  72.271  1.00  0.00     1.161 C  
HETATM    5  C   UNL     1     -10.344  10.504  71.370  1.00  0.00     2.547 C  
HETATM    6  C   UNL     1     -10.903  11.088  69.997  1.00  0.00    -0.054 C  
HETATM    7  C   UNL     1     -11.597  12.353  70.528  1.00  0.00     0.239 C  
HETATM    8  C   UNL     1     -11.661   9.832  69.435  1.00  0.00     0.072 C  
HETATM    9  C   UNL     1     -12.902   9.376  70.225  1.00  0.00     0.556 C  
HETATM   10  C   UNL     1     -11.785   9.514  67.957  1.00  0.00     1.389 C  
HETATM   11  C   UNL     1     -10.522   9.945  67.134  1.00  0.00    -0.305 C  
HETATM   12  C   UNL     1     -14.096  10.350  70.305  1.00  0.00     1.992 C  
HETATM   13  C   UNL     1     -10.357  11.503  67.266  1.00  0.00    -0.236 C  
HETATM   14  C   UNL     1     -11.777  11.711  66.496  1.00  0.00    -0.034 C  
HETATM   15  C   UNL     1      -9.855  11.601  68.882  1.00  0.00    -0.057 C  
HETATM   16  C   UNL     1      -8.939  12.830  69.372  1.00  0.00     1.308 C  
HETATM   17  C   UNL     1      -7.892  13.337  68.377  1.00  0.00    -0.137 C  
HETATM   18  O   UNL     1      -9.657  13.975  69.799  1.00  0.00     0.097 OA 
HETATM   19  C   UNL     1      -8.470  13.681  67.019  1.00  0.00    -0.141 C  
HETATM   20  H   UNL     1      -9.116  14.700  70.088  1.00  0.00     0.000 HD 
HETATM   21  C   UNL     1      -9.473  14.977  67.002  1.00  0.00    -0.240 C  
HETATM   22  C   UNL     1     -10.760  14.229  66.902  1.00  0.00    -0.290 C  
HETATM   23  C   UNL     1      -9.374  16.108  66.228  1.00  0.00    -0.351 C  
HETATM   24  C   UNL     1     -10.216  13.426  65.577  1.00  0.00    -0.300 C  
HETATM   25  C   UNL     1     -10.519  16.435  65.232  1.00  0.00    -0.261 C  
HETATM   26  C   UNL     1      -8.838  17.420  66.750  1.00  0.00    -0.272 C  
HETATM   27  O   UNL     1     -10.645  17.770  65.056  1.00  0.00    -0.487 OA 
HETATM   28  C   UNL     1      -8.468  11.534  65.445  1.00  0.00     0.326 C  
HETATM   29  C   UNL     1      -9.310  12.419  66.347  1.00  0.00    -0.219 C  
HETATM   30  O   UNL     1     -11.302  15.702  64.675  1.00  0.00    -0.431 OA 
ENDROOT
BRANCH  22  31
HETATM   31  O   UNL     1     -11.964  14.984  67.210  1.00  0.00    -0.252 OA 
BRANCH  31  32
HETATM   32  C   UNL     1     -12.311  15.146  68.539  1.00  0.00     0.185 C  
HETATM   33  O   UNL     1     -12.019  16.139  69.205  1.00  0.00    -0.281 OA 
HETATM   34  C   UNL     1     -12.939  13.984  69.284  1.00  0.00     1.071 C  
ENDBRANCH  31  32
ENDBRANCH  22  31
BRANCH  26  35
HETATM   35  C   UNL     1      -7.898  17.361  67.932  1.00  0.00    -0.201 C  
BRANCH  35  36
HETATM   36  C   UNL     1      -6.865  18.435  67.744  1.00  0.00    -0.208 C  
HETATM   37  C   UNL     1      -6.591  19.431  68.609  1.00  0.00    -0.310 C  
HETATM   38  C   UNL     1      -5.532  20.436  68.276  1.00  0.00    -0.266 C  
HETATM   39  C   UNL     1      -7.299  19.657  69.920  1.00  0.00     0.137 C  
ENDBRANCH  35  36
ENDBRANCH  26  35
TORSDOF 4
ENDMDL
MODEL       96
REMARK 921   NORMALIZED FREE ENERGY PREDICTED BY IDOCK:    5.42 KCAL/MOL
REMARK 922        TOTAL FREE ENERGY PREDICTED BY IDOCK:    6.51 KCAL/MOL
REMARK 923 INTER-LIGAND FREE ENERGY PREDICTED BY IDOCK:    6.35 KCAL/MOL
REMARK 924 INTRA-LIGAND FREE ENERGY PREDICTED BY IDOCK:    0.16 KCAL/MOL
REMARK 927      BINDING AFFINITY PREDICTED BY RF-SCORE:    0.00 PKD
ROOT
HETATM    1  O   UNL     1     -14.061  13.625  72.225  1.00  0.00    -0.535 OA 
HETATM    2  H   UNL     1     -14.154  14.283  71.546  1.00  0.00     0.000 HD 
HETATM    3  C   UNL     1     -13.839  12.330  71.689  1.00  0.00     0.666 C  
HETATM    4  C   UNL     1     -13.689  11.267  72.783  1.00  0.00     1.428 C  
HETATM    5  C   UNL     1     -13.467   9.824  72.196  1.00  0.00    -0.491 C  
HETATM    6  C   UNL     1     -12.195   9.781  71.237  1.00  0.00    -0.465 C  
HETATM    7  C   UNL     1     -11.084   9.933  72.290  1.00  0.00     1.720 C  
HETATM    8  C   UNL     1     -12.582  10.887  70.193  1.00  0.00    -0.304 C  
HETATM    9  C   UNL     1     -12.649  12.332  70.723  1.00  0.00    -0.302 C  
HETATM   10  C   UNL     1     -12.181  10.843  68.730  1.00  0.00     0.036 C  
HETATM   11  C   UNL     1     -12.131   9.384  68.158  1.00  0.00     3.126 C  
HETATM   12  C   UNL     1     -11.343  12.960  71.252  1.00  0.00     2.536 C  
HETATM   13  C   UNL     1     -11.051   8.575  68.964  1.00  0.00     0.209 C  
HETATM   14  C   UNL     1      -9.894   9.571  68.397  1.00  0.00    -0.175 C  
HETATM   15  C   UNL     1     -11.860   8.415  70.445  1.00  0.00     0.093 C  
HETATM   16  C   UNL     1     -11.543   7.168  71.411  1.00  0.00    -0.283 C  
HETATM   17  C   UNL     1     -11.260   5.830  70.722  1.00  0.00    -0.198 C  
HETATM   18  O   UNL     1     -10.472   7.373  72.316  1.00  0.00    -0.208 OA 
HETATM   19  C   UNL     1     -10.172   5.912  69.671  1.00  0.00    -0.281 C  
HETATM   20  H   UNL     1     -10.285   6.637  72.886  1.00  0.00     0.000 HD 
HETATM   21  C   UNL     1      -8.669   6.212  70.253  1.00  0.00    -0.145 C  
HETATM   22  C   UNL     1      -8.587   7.648  69.858  1.00  0.00    -0.138 C  
HETATM   23  C   UNL     1      -7.528   5.470  70.060  1.00  0.00    -0.070 C  
HETATM   24  C   UNL     1      -8.950   7.265  68.303  1.00  0.00    -0.125 C  
HETATM   25  C   UNL     1      -6.322   6.128  69.337  1.00  0.00    -0.041 C  
HETATM   26  C   UNL     1      -6.975   4.525  71.099  1.00  0.00    -0.036 C  
HETATM   27  O   UNL     1      -5.152   5.612  69.775  1.00  0.00    -0.004 OA 
HETATM   28  C   UNL     1     -11.219   6.548  67.308  1.00  0.00    -0.314 C  
HETATM   29  C   UNL     1     -10.480   7.071  68.526  1.00  0.00    -0.226 C  
HETATM   30  O   UNL     1      -6.292   7.026  68.528  1.00  0.00    -0.033 OA 
ENDROOT
BRANCH  22  31
HETATM   31  O   UNL     1      -7.538   8.428  70.494  1.00  0.00    -0.067 OA 
BRANCH  31  32
HETATM   32  C   UNL     1      -7.331   8.261  71.852  1.00  0.00    -0.096 C  
HETATM   33  O   UNL     1      -8.169   8.537  72.709  1.00  0.00    -0.332 OA 
HETATM   34  C   UNL     1      -5.950   7.875  72.344  1.00  0.00    -0.042 C  
ENDBRANCH  31  32
ENDBRANCH  22  31
BRANCH  26  35
HETATM   35  C   UNL     1      -7.946   3.964  72.111  1.00  0.00    -0.080 C  
BRANCH  35  36
HETATM   36  C   UNL     1      -9.165   3.503  71.365  1.00  0.00    -0.195 C  
HETATM   37  C   UNL     1      -9.215   2.488  70.480  1.00  0.00    -0.197 C  
HETATM   38  C   UNL     1     -10.510   2.151  69.806  1.00  0.00     1.976 C  
HETATM   39  C   UNL     1      -8.037   1.645  70.064  1.00  0.00    -0.055 C  
ENDBRANCH  35  36
ENDBRANCH  26  35
TORSDOF 4
ENDMDL
MODEL       97
REMARK 921   NORMALIZED FREE ENERGY PREDICTED BY IDOCK:    5.98 KCAL/MOL
REMARK 922        TOTAL FREE ENERGY PREDICTED BY IDOCK:    7.20 KCAL/MOL
REMARK 923 INTER-LIGAND FREE ENERGY PREDICTED BY IDOCK:    7.50 KCAL/MOL
REMARK 924 INTRA-LIGAND FREE ENERGY PREDICTED BY IDOCK:   -0.29 KCAL/MOL
REMARK 927      BINDING AFFINITY PREDICTED BY RF-SCORE:    0.00 PKD
ROOT
HETATM    1  O   UNL     1     -14.354   9.478  73.550  1.00  0.00    -0.226 OA 
HETATM    2  H   UNL     1     -15.162   8.989  73.658  1.00  0.00     0.000 HD 
HETATM    3  C   UNL     1     -13.252   8.636  73.254  1.00  0.00     1.114 C  
HETATM    4  C   UNL     1     -11.949   9.425  73.080  1.00  0.00     1.808 C  
HETATM    5  C   UNL     1     -10.717   8.495  72.775  1.00  0.00    -0.061 C  
HETATM    6  C   UNL     1     -10.973   7.604  71.479  1.00  0.00    -0.263 C  
HETATM    7  C   UNL     1     -10.892   8.700  70.403  1.00  0.00    -0.250 C  
HETATM    8  C   UNL     1     -12.296   6.865  71.893  1.00  0.00    -0.364 C  
HETATM    9  C   UNL     1     -13.551   7.746  72.042  1.00  0.00    -0.253 C  
HETATM   10  C   UNL     1     -12.646   5.455  71.455  1.00  0.00     2.519 C  
HETATM   11  C   UNL     1     -11.388   4.530  71.321  1.00  0.00     1.676 C  
HETATM   12  C   UNL     1     -14.072   8.466  70.781  1.00  0.00     0.376 C  
HETATM   13  C   UNL     1     -10.442   5.140  70.223  1.00  0.00    -0.296 C  
HETATM   14  C   UNL     1     -11.596   4.889  69.102  1.00  0.00     4.495 C  
HETATM   15  C   UNL     1      -9.873   6.500  71.061  1.00  0.00    -0.196 C  
HETATM   16  C   UNL     1      -8.432   7.123  70.707  1.00  0.00    -0.133 C  
HETATM   17  C   UNL     1      -7.329   6.125  70.345  1.00  0.00    -0.089 C  
HETATM   18  O   UNL     1      -8.439   8.089  69.671  1.00  0.00    -0.128 OA 
HETATM   19  C   UNL     1      -7.723   5.170  69.236  1.00  0.00    -0.076 C  
HETATM   20  H   UNL     1      -7.589   8.457  69.462  1.00  0.00     0.000 HD 
HETATM   21  C   UNL     1      -7.923   5.863  67.764  1.00  0.00    -0.098 C  
HETATM   22  C   UNL     1      -9.414   5.853  67.741  1.00  0.00    -0.113 C  
HETATM   23  C   UNL     1      -7.302   5.527  66.585  1.00  0.00    -0.083 C  
HETATM   24  C   UNL     1      -9.431   4.240  68.047  1.00  0.00    -0.212 C  
HETATM   25  C   UNL     1      -8.171   5.041  65.394  1.00  0.00    -0.120 C  
HETATM   26  C   UNL     1      -6.143   6.307  66.012  1.00  0.00    -0.033 C  
HETATM   27  O   UNL     1      -7.607   5.374  64.212  1.00  0.00    -0.067 OA 
HETATM   28  C   UNL     1      -8.906   3.013  70.254  1.00  0.00    -0.147 C  
HETATM   29  C   UNL     1      -9.126   4.351  69.571  1.00  0.00    -0.175 C  
HETATM   30  O   UNL     1      -9.249   4.492  65.387  1.00  0.00    -0.141 OA 
ENDROOT
BRANCH  22  31
HETATM   31  O   UNL     1     -10.045   6.706  66.746  1.00  0.00    -0.179 OA 
BRANCH  31  32
HETATM   32  C   UNL     1      -9.591   8.007  66.619  1.00  0.00    -0.230 C  
HETATM   33  O   UNL     1      -9.954   8.930  67.345  1.00  0.00    -0.178 OA 
HETATM   34  C   UNL     1      -8.729   8.372  65.426  1.00  0.00    -0.175 C  
ENDBRANCH  31  32
ENDBRANCH  22  31
BRANCH  26  35
HETATM   35  C   UNL     1      -5.302   7.107  66.980  1.00  0.00    -0.021 C  
BRANCH  35  36
HETATM   36  C   UNL     1      -5.735   8.541  66.882  1.00  0.00    -0.041 C  
HETATM   37  C   UNL     1      -5.953   9.376  67.918  1.00  0.00    -0.052 C  
HETATM   38  C   UNL     1      -6.393  10.784  67.659  1.00  0.00    -0.056 C  
HETATM   39  C   UNL     1      -5.819   9.003  69.371  1.00  0.00    -0.034 C  
ENDBRANCH  35  36
ENDBRANCH  26  35
TORSDOF 4
ENDMDL
MODEL       98
REMARK 921   NORMALIZED FREE ENERGY PREDICTED BY IDOCK:    6.88 KCAL/MOL
REMARK 922        TOTAL FREE ENERGY PREDICTED BY IDOCK:    8.30 KCAL/MOL
REMARK 923 INTER-LIGAND FREE ENERGY PREDICTED BY IDOCK:    8.66 KCAL/MOL
REMARK 924 INTRA-LIGAND FREE ENERGY PREDICTED BY IDOCK:   -0.35 KCAL/MOL
REMARK 927      BINDING AFFINITY PREDICTED BY RF-SCORE:    0.00 PKD
ROOT
HETATM    1  O   UNL     1      -7.104  14.545  70.666  1.00  0.00    -0.271 OA 
HETATM    2  H   UNL     1      -6.865  15.345  70.212  1.00  0.00     0.000 HD 
HETATM    3  C   UNL     1      -7.829  13.654  69.835  1.00  0.00     1.335 C  
HETATM    4  C   UNL     1      -8.215  12.363  70.566  1.00  0.00     5.665 C  
HETATM    5  C   UNL     1      -9.041  11.378  69.658  1.00  0.00     1.001 C  
HETATM    6  C   UNL     1      -8.244  11.015  68.327  1.00  0.00    -0.130 C  
HETATM    7  C   UNL     1      -7.140  10.131  68.931  1.00  0.00    -0.069 C  
HETATM    8  C   UNL     1      -8.004  12.448  67.733  1.00  0.00    -0.156 C  
HETATM    9  C   UNL     1      -7.067  13.371  68.536  1.00  0.00    -0.108 C  
HETATM   10  C   UNL     1      -7.949  12.747  66.246  1.00  0.00     0.947 C  
HETATM   11  C   UNL     1      -8.914  11.838  65.409  1.00  0.00     0.151 C  
HETATM   12  C   UNL     1      -5.595  12.935  68.690  1.00  0.00    -0.068 C  
HETATM   13  C   UNL     1      -8.474  10.341  65.603  1.00  0.00    -0.165 C  
HETATM   14  C   UNL     1      -7.052  10.674  64.881  1.00  0.00     0.126 C  
HETATM   15  C   UNL     1      -8.967  10.105  67.208  1.00  0.00    -0.144 C  
HETATM   16  C   UNL     1      -9.360   8.633  67.725  1.00  0.00    -0.141 C  
HETATM   17  C   UNL     1     -10.090   7.733  66.724  1.00  0.00    -0.341 C  
HETATM   18  O   UNL     1      -8.276   7.866  68.220  1.00  0.00    -0.121 OA 
HETATM   19  C   UNL     1      -9.368   7.598  65.399  1.00  0.00     0.496 C  
HETATM   20  H   UNL     1      -8.508   6.998  68.526  1.00  0.00     0.000 HD 
HETATM   21  C   UNL     1      -7.944   6.789  65.465  1.00  0.00    -0.119 C  
HETATM   22  C   UNL     1      -7.040   7.972  65.368  1.00  0.00    -0.060 C  
HETATM   23  C   UNL     1      -7.568   5.685  64.738  1.00  0.00    -0.084 C  
HETATM   24  C   UNL     1      -7.795   8.464  63.996  1.00  0.00    -0.146 C  
HETATM   25  C   UNL     1      -6.346   5.796  63.789  1.00  0.00    -0.025 C  
HETATM   26  C   UNL     1      -7.581   4.284  65.302  1.00  0.00    -0.085 C  
HETATM   27  O   UNL     1      -5.709   4.608  63.674  1.00  0.00    -0.016 OA 
HETATM   28  C   UNL     1     -10.128   9.532  63.735  1.00  0.00     1.757 C  
HETATM   29  C   UNL     1      -9.050   9.066  64.696  1.00  0.00    -0.032 C  
HETATM   30  O   UNL     1      -5.882   6.758  63.222  1.00  0.00    -0.034 OA 
ENDROOT
BRANCH  22  31
HETATM   31  O   UNL     1      -5.652   7.749  65.741  1.00  0.00    -0.032 OA 
BRANCH  31  32
HETATM   32  C   UNL     1      -5.393   7.097  66.933  1.00  0.00    -0.022 C  
HETATM   33  O   UNL     1      -5.204   7.676  68.001  1.00  0.00    -0.027 OA 
HETATM   34  C   UNL     1      -5.159   5.599  66.916  1.00  0.00    -0.005 C  
ENDBRANCH  31  32
ENDBRANCH  22  31
BRANCH  26  35
HETATM   35  C   UNL     1      -8.520   4.011  66.454  1.00  0.00    -0.109 C  
BRANCH  35  36
HETATM   36  C   UNL     1      -7.797   3.124  67.428  1.00  0.00    -0.077 C  
HETATM   37  C   UNL     1      -7.916   3.159  68.770  1.00  0.00    -0.064 C  
HETATM   38  C   UNL     1      -7.120   2.211  69.612  1.00  0.00    -0.033 C  
HETATM   39  C   UNL     1      -8.789   4.120  69.535  1.00  0.00    -0.139 C  
ENDBRANCH  35  36
ENDBRANCH  26  35
TORSDOF 4
ENDMDL
MODEL       99
REMARK 921   NORMALIZED FREE ENERGY PREDICTED BY IDOCK:    8.35 KCAL/MOL
REMARK 922        TOTAL FREE ENERGY PREDICTED BY IDOCK:   10.13 KCAL/MOL
REMARK 923 INTER-LIGAND FREE ENERGY PREDICTED BY IDOCK:   10.74 KCAL/MOL
REMARK 924 INTRA-LIGAND FREE ENERGY PREDICTED BY IDOCK:   -0.61 KCAL/MOL
REMARK 927      BINDING AFFINITY PREDICTED BY RF-SCORE:    0.00 PKD
ROOT
HETATM    1  O   UNL     1      -6.241  19.818  65.121  1.00  0.00    -0.225 OA 
HETATM    2  H   UNL     1      -6.857  20.441  64.753  1.00  0.00     0.000 HD 
HETATM    3  C   UNL     1      -6.799  19.084  66.198  1.00  0.00    -0.235 C  
HETATM    4  C   UNL     1      -5.805  18.079  66.792  1.00  0.00    -0.181 C  
HETATM    5  C   UNL     1      -6.409  17.277  68.003  1.00  0.00    -0.150 C  
HETATM    6  C   UNL     1      -7.745  16.516  67.583  1.00  0.00    -0.167 C  
HETATM    7  C   UNL     1      -7.139  15.430  66.679  1.00  0.00     0.733 C  
HETATM    8  C   UNL     1      -8.612  17.718  67.064  1.00  0.00    -0.248 C  
HETATM    9  C   UNL     1      -8.114  18.414  65.783  1.00  0.00     0.187 C  
HETATM   10  C   UNL     1     -10.122  17.784  67.190  1.00  0.00    -0.338 C  
HETATM   11  C   UNL     1     -10.653  17.105  68.500  1.00  0.00    -0.361 C  
HETATM   12  C   UNL     1      -8.074  17.580  64.487  1.00  0.00     6.969 C  
HETATM   13  C   UNL     1     -10.252  15.585  68.464  1.00  0.00    -0.215 C  
HETATM   14  C   UNL     1     -11.198  15.375  67.154  1.00  0.00    -0.256 C  
HETATM   15  C   UNL     1      -8.581  15.725  68.714  1.00  0.00    -0.203 C  
HETATM   16  C   UNL     1      -7.763  14.523  69.402  1.00  0.00    -0.000 C  
HETATM   17  C   UNL     1      -8.484  13.759  70.516  1.00  0.00     3.879 C  
HETATM   18  O   UNL     1      -7.282  13.538  68.504  1.00  0.00    -0.097 OA 
HETATM   19  C   UNL     1      -9.846  13.237  70.103  1.00  0.00     2.899 C  
HETATM   20  H   UNL     1      -6.799  12.829  68.910  1.00  0.00     0.000 HD 
HETATM   21  C   UNL     1      -9.819  12.053  68.969  1.00  0.00     0.157 C  
HETATM   22  C   UNL     1     -10.241  12.885  67.806  1.00  0.00    -0.224 C  
HETATM   23  C   UNL     1     -10.379  10.801  69.047  1.00  0.00    -0.235 C  
HETATM   24  C   UNL     1     -11.571  13.394  68.622  1.00  0.00    -0.362 C  
HETATM   25  C   UNL     1     -11.482  10.410  68.027  1.00  0.00    -0.082 C  
HETATM   26  C   UNL     1      -9.577   9.557  69.348  1.00  0.00    -0.186 C  
HETATM   27  O   UNL     1     -11.463   9.082  67.774  1.00  0.00     0.553 OA 
HETATM   28  C   UNL     1     -11.718  15.069  70.578  1.00  0.00    -0.344 C  
HETATM   29  C   UNL     1     -10.835  14.433  69.519  1.00  0.00    -0.179 C  
HETATM   30  O   UNL     1     -12.266  11.103  67.421  1.00  0.00    -0.099 OA 
ENDROOT
BRANCH  22  31
HETATM   31  O   UNL     1     -10.016  12.307  66.490  1.00  0.00    -0.212 OA 
BRANCH  31  32
HETATM   32  C   UNL     1      -8.794  11.707  66.241  1.00  0.00    -0.164 C  
HETATM   33  O   UNL     1      -7.759  12.333  66.021  1.00  0.00     0.680 OA 
HETATM   34  C   UNL     1      -8.736  10.202  66.061  1.00  0.00    -0.153 C  
ENDBRANCH  31  32
ENDBRANCH  22  31
BRANCH  26  35
HETATM   35  C   UNL     1      -8.284   9.735  70.109  1.00  0.00    -0.202 C  
BRANCH  35  36
HETATM   36  C   UNL     1      -7.247  10.219  69.136  1.00  0.00    -0.083 C  
HETATM   37  C   UNL     1      -6.112  10.875  69.449  1.00  0.00    -0.056 C  
HETATM   38  C   UNL     1      -5.175  11.303  68.362  1.00  0.00    -0.039 C  
HETATM   39  C   UNL     1      -5.692  11.258  70.845  1.00  0.00    -0.028 C  
ENDBRANCH  35  36
ENDBRANCH  26  35
TORSDOF 4
ENDMDL
MODEL      100
REMARK 921   NORMALIZED FREE ENERGY PREDICTED BY IDOCK:    8.77 KCAL/MOL
REMARK 922        TOTAL FREE ENERGY PREDICTED BY IDOCK:   10.64 KCAL/MOL
REMARK 923 INTER-LIGAND FREE ENERGY PREDICTED BY IDOCK:    8.29 KCAL/MOL
REMARK 924 INTRA-LIGAND FREE ENERGY PREDICTED BY IDOCK:    2.35 KCAL/MOL
REMARK 927      BINDING AFFINITY PREDICTED BY RF-SCORE:    0.00 PKD
ROOT
HETATM    1  O   UNL     1      -7.416   4.802  65.523  1.00  0.00    -0.078 OA 
HETATM    2  H   UNL     1      -8.093   4.402  64.990  1.00  0.00     0.000 HD 
HETATM    3  C   UNL     1      -7.451   6.219  65.458  1.00  0.00    -0.083 C  
HETATM    4  C   UNL     1      -6.359   6.866  66.319  1.00  0.00    -0.050 C  
HETATM    5  C   UNL     1      -6.375   8.437  66.234  1.00  0.00    -0.053 C  
HETATM    6  C   UNL     1      -7.796   9.023  66.653  1.00  0.00    -0.100 C  
HETATM    7  C   UNL     1      -7.751   8.729  68.161  1.00  0.00    -0.101 C  
HETATM    8  C   UNL     1      -8.729   8.277  65.633  1.00  0.00    -0.188 C  
HETATM    9  C   UNL     1      -8.845   6.751  65.806  1.00  0.00    -0.088 C  
HETATM   10  C   UNL     1      -9.998   8.877  65.057  1.00  0.00     1.086 C  
HETATM   11  C   UNL     1      -9.896  10.427  64.846  1.00  0.00    -0.400 C  
HETATM   12  C   UNL     1      -9.468   6.226  67.116  1.00  0.00    -0.136 C  
HETATM   13  C   UNL     1      -9.654  11.100  66.247  1.00  0.00    -0.234 C  
HETATM   14  C   UNL     1     -11.113  10.573  66.744  1.00  0.00    -0.061 C  
HETATM   15  C   UNL     1      -8.055  10.611  66.525  1.00  0.00    -0.140 C  
HETATM   16  C   UNL     1      -7.086  11.501  67.451  1.00  0.00    -0.119 C  
HETATM   17  C   UNL     1      -7.249  13.019  67.344  1.00  0.00    -0.123 C  
HETATM   18  O   UNL     1      -7.142  11.200  68.834  1.00  0.00    -0.084 OA 
HETATM   19  C   UNL     1      -8.675  13.487  67.553  1.00  0.00    -0.208 C  
HETATM   20  H   UNL     1      -6.570  11.725  69.381  1.00  0.00     0.000 HD 
HETATM   21  C   UNL     1      -9.254  13.284  69.073  1.00  0.00     0.423 C  
HETATM   22  C   UNL     1     -10.119  12.100  68.798  1.00  0.00    -0.084 C  
HETATM   23  C   UNL     1      -9.789  14.238  69.905  1.00  0.00     0.782 C  
HETATM   24  C   UNL     1     -10.879  12.908  67.587  1.00  0.00    -0.252 C  
HETATM   25  C   UNL     1     -11.262  14.085  70.368  1.00  0.00     0.192 C  
HETATM   26  C   UNL     1      -9.018  14.866  71.041  1.00  0.00     2.807 C  
HETATM   27  O   UNL     1     -11.446  14.625  71.594  1.00  0.00    -0.221 OA 
HETATM   28  C   UNL     1      -9.990  13.498  65.239  1.00  0.00    -0.206 C  
HETATM   29  C   UNL     1      -9.746  12.740  66.531  1.00  0.00    -0.255 C  
HETATM   30  O   UNL     1     -12.194  13.527  69.837  1.00  0.00    -0.322 OA 
ENDROOT
BRANCH  22  31
HETATM   31  O   UNL     1     -10.570  11.353  69.961  1.00  0.00     0.217 OA 
BRANCH  31  32
HETATM   32  C   UNL     1     -11.680  10.538  69.823  1.00  0.00    -0.281 C  
HETATM   33  O   UNL     1     -11.949   9.615  70.591  1.00  0.00    -0.272 OA 
HETATM   34  C   UNL     1     -12.534  10.663  68.577  1.00  0.00     1.127 C  
ENDBRANCH  31  32
ENDBRANCH  22  31
BRANCH  26  35
HETATM   35  C   UNL     1      -7.511  14.875  70.933  1.00  0.00     1.452 C  
BRANCH  35  36
HETATM   36  C   UNL     1      -7.001  13.622  71.586  1.00  0.00     3.372 C  
HETATM   37  C   UNL     1      -5.975  12.864  71.153  1.00  0.00     0.382 C  
HETATM   38  C   UNL     1      -5.588  11.632  71.912  1.00  0.00     0.675 C  
HETATM   39  C   UNL     1      -5.166  13.132  69.911  1.00  0.00    -0.089 C  
ENDBRANCH  35  36
ENDBRANCH  26  35
TORSDOF 4
ENDMDL
MODEL      101
REMARK 921   NORMALIZED FREE ENERGY PREDICTED BY IDOCK:    8.83 KCAL/MOL
REMARK 922        TOTAL FREE ENERGY PREDICTED BY IDOCK:   10.72 KCAL/MOL
REMARK 923 INTER-LIGAND FREE ENERGY PREDICTED BY IDOCK:   10.09 KCAL/MOL
REMARK 924 INTRA-LIGAND FREE ENERGY PREDICTED BY IDOCK:    0.63 KCAL/MOL
REMARK 927      BINDING AFFINITY PREDICTED BY RF-SCORE:    0.00 PKD
ROOT
HETATM    1  O   UNL     1      -8.141  12.757  65.726  1.00  0.00     0.754 OA 
HETATM    2  H   UNL     1      -7.628  12.713  64.927  1.00  0.00     0.000 HD 
HETATM    3  C   UNL     1      -8.940  11.601  65.915  1.00  0.00    -0.108 C  
HETATM    4  C   UNL     1      -9.768  11.672  67.204  1.00  0.00    -0.195 C  
HETATM    5  C   UNL     1     -10.675  10.404  67.409  1.00  0.00    -0.338 C  
HETATM    6  C   UNL     1      -9.808   9.067  67.410  1.00  0.00    -0.244 C  
HETATM    7  C   UNL     1      -9.090   9.236  68.758  1.00  0.00    -0.136 C  
HETATM    8  C   UNL     1      -9.103   9.179  66.011  1.00  0.00    -0.245 C  
HETATM    9  C   UNL     1      -8.089  10.328  65.849  1.00  0.00    -0.143 C  
HETATM   10  C   UNL     1      -8.739   7.983  65.151  1.00  0.00    -0.015 C  
HETATM   11  C   UNL     1      -9.771   6.808  65.278  1.00  0.00     1.298 C  
HETATM   12  C   UNL     1      -6.831  10.302  66.741  1.00  0.00    -0.088 C  
HETATM   13  C   UNL     1      -9.784   6.323  66.774  1.00  0.00    -0.193 C  
HETATM   14  C   UNL     1      -8.231   5.856  66.628  1.00  0.00    -0.106 C  
HETATM   15  C   UNL     1     -10.565   7.644  67.495  1.00  0.00    -0.323 C  
HETATM   16  C   UNL     1     -11.415   7.443  68.846  1.00  0.00     0.567 C  
HETATM   17  C   UNL     1     -12.195   6.131  68.971  1.00  0.00     2.633 C  
HETATM   18  O   UNL     1     -10.667   7.566  70.044  1.00  0.00    -0.233 OA 
HETATM   19  C   UNL     1     -11.338   4.900  68.755  1.00  0.00     2.931 C  
HETATM   20  H   UNL     1     -11.168   7.448  70.841  1.00  0.00     0.000 HD 
HETATM   21  C   UNL     1     -10.211   4.628  69.914  1.00  0.00    -0.156 C  
HETATM   22  C   UNL     1      -9.020   5.087  69.143  1.00  0.00    -0.100 C  
HETATM   23  C   UNL     1     -10.038   3.493  70.669  1.00  0.00     0.247 C  
HETATM   24  C   UNL     1      -9.392   4.063  67.915  1.00  0.00    -0.220 C  
HETATM   25  C   UNL     1      -8.698   2.718  70.556  1.00  0.00    -0.069 C  
HETATM   26  C   UNL     1     -10.513   3.372  72.097  1.00  0.00     0.017 C  
HETATM   27  O   UNL     1      -8.394   2.099  71.719  1.00  0.00    -0.054 OA 
HETATM   28  C   UNL     1     -11.283   4.257  66.172  1.00  0.00     1.847 C  
HETATM   29  C   UNL     1     -10.532   4.932  67.306  1.00  0.00    -0.099 C  
HETATM   30  O   UNL     1      -7.911   2.649  69.641  1.00  0.00    -0.043 OA 
ENDROOT
BRANCH  22  31
HETATM   31  O   UNL     1      -7.818   5.350  69.918  1.00  0.00    -0.078 OA 
BRANCH  31  32
HETATM   32  C   UNL     1      -7.265   6.616  69.856  1.00  0.00    -0.080 C  
HETATM   33  O   UNL     1      -7.366   7.451  70.753  1.00  0.00    -0.068 OA 
HETATM   34  C   UNL     1      -6.638   7.082  68.556  1.00  0.00    -0.055 C  
ENDBRANCH  31  32
ENDBRANCH  22  31
BRANCH  26  35
HETATM   35  C   UNL     1     -11.658   4.262  72.522  1.00  0.00     0.514 C  
BRANCH  35  36
HETATM   36  C   UNL     1     -12.762   3.375  73.022  1.00  0.00     1.368 C  
HETATM   37  C   UNL     1     -12.610   2.275  73.785  1.00  0.00     0.646 C  
HETATM   38  C   UNL     1     -13.812   1.484  74.199  1.00  0.00     0.721 C  
HETATM   39  C   UNL     1     -11.288   1.725  74.256  1.00  0.00    -0.062 C  
ENDBRANCH  35  36
ENDBRANCH  26  35
TORSDOF 4
ENDMDL
MODEL      102
REMARK 921   NORMALIZED FREE ENERGY PREDICTED BY IDOCK:    8.89 KCAL/MOL
REMARK 922        TOTAL FREE ENERGY PREDICTED BY IDOCK:   10.79 KCAL/MOL
REMARK 923 INTER-LIGAND FREE ENERGY PREDICTED BY IDOCK:    9.06 KCAL/MOL
REMARK 924 INTRA-LIGAND FREE ENERGY PREDICTED BY IDOCK:    1.73 KCAL/MOL
REMARK 927      BINDING AFFINITY PREDICTED BY RF-SCORE:    0.00 PKD
ROOT
HETATM    1  O   UNL     1      -7.382   5.832  65.258  1.00  0.00    -0.071 OA 
HETATM    2  H   UNL     1      -7.571   5.597  64.357  1.00  0.00     0.000 HD 
HETATM    3  C   UNL     1      -7.319   7.236  65.445  1.00  0.00    -0.079 C  
HETATM    4  C   UNL     1      -7.015   7.615  66.899  1.00  0.00    -0.079 C  
HETATM    5  C   UNL     1      -6.920   9.171  67.111  1.00  0.00    -0.081 C  
HETATM    6  C   UNL     1      -8.258   9.900  66.643  1.00  0.00    -0.121 C  
HETATM    7  C   UNL     1      -9.203   9.426  67.759  1.00  0.00    -0.141 C  
HETATM    8  C   UNL     1      -8.342   9.420  65.150  1.00  0.00    -0.151 C  
HETATM    9  C   UNL     1      -8.593   7.916  64.930  1.00  0.00     0.031 C  
HETATM   10  C   UNL     1      -8.923  10.258  64.026  1.00  0.00    -0.261 C  
HETATM   11  C   UNL     1      -8.658  11.792  64.213  1.00  0.00     1.034 C  
HETATM   12  C   UNL     1      -9.929   7.334  65.435  1.00  0.00     1.743 C  
HETATM   13  C   UNL     1      -9.350  12.253  65.548  1.00  0.00     0.057 C  
HETATM   14  C   UNL     1     -10.803  11.884  64.913  1.00  0.00    -0.356 C  
HETATM   15  C   UNL     1      -8.321  11.512  66.673  1.00  0.00    -0.167 C  
HETATM   16  C   UNL     1      -8.144  12.139  68.144  1.00  0.00    -0.161 C  
HETATM   17  C   UNL     1      -8.149  13.667  68.237  1.00  0.00    -0.155 C  
HETATM   18  O   UNL     1      -9.087  11.687  69.101  1.00  0.00    -0.384 OA 
HETATM   19  C   UNL     1      -9.360  14.305  67.586  1.00  0.00    -0.201 C  
HETATM   20  H   UNL     1      -8.982  12.057  69.970  1.00  0.00     0.000 HD 
HETATM   21  C   UNL     1     -10.787  14.007  68.336  1.00  0.00    -0.263 C  
HETATM   22  C   UNL     1     -11.312  13.000  67.370  1.00  0.00    -0.305 C  
HETATM   23  C   UNL     1     -11.699  14.923  68.804  1.00  0.00    -0.353 C  
HETATM   24  C   UNL     1     -11.088  14.045  66.123  1.00  0.00    -0.302 C  
HETATM   25  C   UNL     1     -13.130  14.927  68.202  1.00  0.00     2.626 C  
HETATM   26  C   UNL     1     -11.818  15.296  70.262  1.00  0.00    -0.353 C  
HETATM   27  O   UNL     1     -14.040  15.339  69.113  1.00  0.00     3.686 OA 
HETATM   28  C   UNL     1      -8.880  14.777  65.011  1.00  0.00     2.943 C  
HETATM   29  C   UNL     1      -9.548  13.844  66.004  1.00  0.00    -0.210 C  
HETATM   30  O   UNL     1     -13.520  14.574  67.114  1.00  0.00     2.407 OA 
ENDROOT
BRANCH  22  31
HETATM   31  O   UNL     1     -12.430  12.192  67.831  1.00  0.00    -0.094 OA 
BRANCH  31  32
HETATM   32  C   UNL     1     -12.371  11.665  69.109  1.00  0.00     0.031 C  
HETATM   33  O   UNL     1     -12.349  12.351  70.130  1.00  0.00    -0.236 OA 
HETATM   34  C   UNL     1     -12.154  10.174  69.281  1.00  0.00     0.209 C  
ENDBRANCH  31  32
ENDBRANCH  22  31
BRANCH  26  35
HETATM   35  C   UNL     1     -10.595  15.102  71.128  1.00  0.00     0.228 C  
BRANCH  35  36
HETATM   36  C   UNL     1     -10.997  15.371  72.549  1.00  0.00     0.429 C  
HETATM   37  C   UNL     1     -12.259  15.418  73.021  1.00  0.00    -0.542 C  
HETATM   38  C   UNL     1     -12.502  15.706  74.470  1.00  0.00    -0.749 C  
HETATM   39  C   UNL     1     -13.500  15.228  72.188  1.00  0.00    -0.546 C  
ENDBRANCH  35  36
ENDBRANCH  26  35
TORSDOF 4
ENDMDL
MODEL      103
REMARK 921   NORMALIZED FREE ENERGY PREDICTED BY IDOCK:    8.96 KCAL/MOL
REMARK 922        TOTAL FREE ENERGY PREDICTED BY IDOCK:   10.88 KCAL/MOL
REMARK 923 INTER-LIGAND FREE ENERGY PREDICTED BY IDOCK:   10.67 KCAL/MOL
REMARK 924 INTRA-LIGAND FREE ENERGY PREDICTED BY IDOCK:    0.20 KCAL/MOL
REMARK 927      BINDING AFFINITY PREDICTED BY RF-SCORE:    0.00 PKD
ROOT
HETATM    1  O   UNL     1     -11.270   6.258  69.398  1.00  0.00    -0.382 OA 
HETATM    2  H   UNL     1     -10.610   5.588  69.535  1.00  0.00     0.000 HD 
HETATM    3  C   UNL     1     -10.853   7.527  69.871  1.00  0.00    -0.240 C  
HETATM    4  C   UNL     1     -11.917   8.608  69.650  1.00  0.00     1.009 C  
HETATM    5  C   UNL     1     -11.471  10.015  70.194  1.00  0.00    -0.344 C  
HETATM    6  C   UNL     1     -10.098  10.481  69.532  1.00  0.00    -0.208 C  
HETATM    7  C   UNL     1     -10.595  10.770  68.106  1.00  0.00    -0.238 C  
HETATM    8  C   UNL     1      -9.168   9.277  69.919  1.00  0.00    -0.209 C  
HETATM    9  C   UNL     1      -9.501   7.921  69.266  1.00  0.00    -0.152 C  
HETATM   10  C   UNL     1      -7.684   9.415  70.203  1.00  0.00    -0.140 C  
HETATM   11  C   UNL     1      -7.322  10.776  70.892  1.00  0.00     1.937 C  
HETATM   12  C   UNL     1      -9.385   7.821  67.731  1.00  0.00    -0.155 C  
HETATM   13  C   UNL     1      -7.723  11.944  69.918  1.00  0.00     1.402 C  
HETATM   14  C   UNL     1      -6.625  11.411  68.839  1.00  0.00    -0.071 C  
HETATM   15  C   UNL     1      -9.411  11.850  70.041  1.00  0.00     2.689 C  
HETATM   16  C   UNL     1     -10.315  13.158  69.794  1.00  0.00     1.107 C  
HETATM   17  C   UNL     1      -9.740  14.486  70.294  1.00  0.00     1.078 C  
HETATM   18  O   UNL     1     -10.687  13.379  68.445  1.00  0.00    -0.242 OA 
HETATM   19  C   UNL     1      -8.341  14.766  69.784  1.00  0.00     0.258 C  
HETATM   20  H   UNL     1     -11.220  14.151  68.299  1.00  0.00     0.000 HD 
HETATM   21  C   UNL     1      -8.234  15.043  68.171  1.00  0.00    -0.140 C  
HETATM   22  C   UNL     1      -7.668  13.720  67.781  1.00  0.00    -0.168 C  
HETATM   23  C   UNL     1      -7.695  16.138  67.539  1.00  0.00    -0.170 C  
HETATM   24  C   UNL     1      -6.445  13.898  68.862  1.00  0.00    -0.098 C  
HETATM   25  C   UNL     1      -6.478  15.933  66.599  1.00  0.00     0.683 C  
HETATM   26  C   UNL     1      -8.535  17.251  66.960  1.00  0.00    -0.240 C  
HETATM   27  O   UNL     1      -6.473  16.848  65.603  1.00  0.00     0.352 OA 
HETATM   28  C   UNL     1      -6.531  13.722  71.434  1.00  0.00     0.977 C  
HETATM   29  C   UNL     1      -7.281  13.538  70.127  1.00  0.00     0.972 C  
HETATM   30  O   UNL     1      -5.621  15.080  66.605  1.00  0.00     0.921 OA 
ENDROOT
BRANCH  22  31
HETATM   31  O   UNL     1      -7.733  13.388  66.366  1.00  0.00     0.856 OA 
BRANCH  31  32
HETATM   32  C   UNL     1      -8.199  12.135  66.010  1.00  0.00     0.544 C  
HETATM   33  O   UNL     1      -9.390  11.831  65.987  1.00  0.00    -0.226 OA 
HETATM   34  C   UNL     1      -7.202  11.013  65.795  1.00  0.00     0.097 C  
ENDBRANCH  31  32
ENDBRANCH  22  31
BRANCH  26  35
HETATM   35  C   UNL     1      -9.911  17.458  67.550  1.00  0.00    -0.277 C  
BRANCH  35  36
HETATM   36  C   UNL     1     -10.189  18.934  67.547  1.00  0.00    -0.456 C  
HETATM   37  C   UNL     1      -9.464  19.879  68.178  1.00  0.00    -0.431 C  
HETATM   38  C   UNL     1      -9.874  21.316  68.088  1.00  0.00     0.562 C  
HETATM   39  C   UNL     1      -8.246  19.611  69.025  1.00  0.00    -0.182 C  
ENDBRANCH  35  36
ENDBRANCH  26  35
TORSDOF 4
ENDMDL
MODEL      104
REMARK 921   NORMALIZED FREE ENERGY PREDICTED BY IDOCK:    9.07 KCAL/MOL
REMARK 922        TOTAL FREE ENERGY PREDICTED BY IDOCK:   11.01 KCAL/MOL
REMARK 923 INTER-LIGAND FREE ENERGY PREDICTED BY IDOCK:   10.67 KCAL/MOL
REMARK 924 INTRA-LIGAND FREE ENERGY PREDICTED BY IDOCK:    0.33 KCAL/MOL
REMARK 927      BINDING AFFINITY PREDICTED BY RF-SCORE:    0.00 PKD
ROOT
HETATM    1  O   UNL     1      -6.158  17.150  71.395  1.00  0.00     1.156 OA 
HETATM    2  H   UNL     1      -5.833  17.868  70.866  1.00  0.00     0.000 HD 
HETATM    3  C   UNL     1      -7.259  16.492  70.790  1.00  0.00     2.836 C  
HETATM    4  C   UNL     1      -7.784  15.332  71.644  1.00  0.00     4.026 C  
HETATM    5  C   UNL     1      -9.020  14.612  70.990  1.00  0.00     3.253 C  
HETATM    6  C   UNL     1      -8.672  14.079  69.529  1.00  0.00     0.777 C  
HETATM    7  C   UNL     1      -7.723  12.929  69.904  1.00  0.00     1.679 C  
HETATM    8  C   UNL     1      -8.216  15.412  68.835  1.00  0.00    -0.192 C  
HETATM    9  C   UNL     1      -6.915  16.046  69.364  1.00  0.00    -0.216 C  
HETATM   10  C   UNL     1      -8.431  15.714  67.364  1.00  0.00    -0.191 C  
HETATM   11  C   UNL     1      -9.763  15.102  66.808  1.00  0.00    -0.255 C  
HETATM   12  C   UNL     1      -5.610  15.240  69.198  1.00  0.00    -0.098 C  
HETATM   13  C   UNL     1      -9.689  13.539  66.960  1.00  0.00    -0.251 C  
HETATM   14  C   UNL     1      -8.436  13.505  65.920  1.00  0.00     1.469 C  
HETATM   15  C   UNL     1      -9.842  13.409  68.643  1.00  0.00    -0.116 C  
HETATM   16  C   UNL     1     -10.469  12.080  69.298  1.00  0.00     0.132 C  
HETATM   17  C   UNL     1     -11.616  11.418  68.529  1.00  0.00    -0.384 C  
HETATM   18  O   UNL     1      -9.534  11.049  69.566  1.00  0.00    -0.407 OA 
HETATM   19  C   UNL     1     -11.279  11.125  67.081  1.00  0.00    -0.320 C  
HETATM   20  H   UNL     1      -9.904  10.265  69.953  1.00  0.00     0.000 HD 
HETATM   21  C   UNL     1     -10.134   9.974  66.856  1.00  0.00    -0.287 C  
HETATM   22  C   UNL     1      -9.005  10.883  66.506  1.00  0.00    -0.168 C  
HETATM   23  C   UNL     1     -10.232   8.824  66.110  1.00  0.00    -0.028 C  
HETATM   24  C   UNL     1      -9.903  11.580  65.321  1.00  0.00    -0.286 C  
HETATM   25  C   UNL     1      -9.275   8.631  64.904  1.00  0.00     0.295 C  
HETATM   26  C   UNL     1     -10.473   7.464  66.721  1.00  0.00    -0.316 C  
HETATM   27  O   UNL     1      -9.008   7.321  64.698  1.00  0.00     0.456 OA 
HETATM   28  C   UNL     1     -11.880  13.220  65.553  1.00  0.00    -0.405 C  
HETATM   29  C   UNL     1     -10.766  12.473  66.263  1.00  0.00    -0.288 C  
HETATM   30  O   UNL     1      -8.723   9.450  64.206  1.00  0.00    -0.191 OA 
ENDROOT
BRANCH  22  31
HETATM   31  O   UNL     1      -7.673  10.302  66.562  1.00  0.00    -0.106 OA 
BRANCH  31  32
HETATM   32  C   UNL     1      -6.610  11.058  66.100  1.00  0.00    -0.076 C  
HETATM   33  O   UNL     1      -6.393  12.216  66.451  1.00  0.00     0.064 OA 
HETATM   34  C   UNL     1      -5.752  10.510  64.977  1.00  0.00    -0.131 C  
ENDBRANCH  31  32
ENDBRANCH  22  31
BRANCH  26  35
HETATM   35  C   UNL     1     -11.159   7.422  68.067  1.00  0.00     0.084 C  
BRANCH  35  36
HETATM   36  C   UNL     1     -10.090   7.360  69.120  1.00  0.00    -0.189 C  
HETATM   37  C   UNL     1     -10.269   7.542  70.443  1.00  0.00    -0.202 C  
HETATM   38  C   UNL     1      -9.097   7.458  71.372  1.00  0.00    -0.146 C  
HETATM   39  C   UNL     1     -11.586   7.865  71.100  1.00  0.00    -0.302 C  
ENDBRANCH  35  36
ENDBRANCH  26  35
TORSDOF 4
ENDMDL
MODEL      105
REMARK 921   NORMALIZED FREE ENERGY PREDICTED BY IDOCK:    9.19 KCAL/MOL
REMARK 922        TOTAL FREE ENERGY PREDICTED BY IDOCK:   11.16 KCAL/MOL
REMARK 923 INTER-LIGAND FREE ENERGY PREDICTED BY IDOCK:   11.63 KCAL/MOL
REMARK 924 INTRA-LIGAND FREE ENERGY PREDICTED BY IDOCK:   -0.47 KCAL/MOL
REMARK 927      BINDING AFFINITY PREDICTED BY RF-SCORE:    0.00 PKD
ROOT
HETATM    1  O   UNL     1     -14.021  15.553  70.561  1.00  0.00    -0.775 OA 
HETATM    2  H   UNL     1     -13.971  15.732  71.492  1.00  0.00     0.000 HD 
HETATM    3  C   UNL     1     -12.741  15.538  69.948  1.00  0.00    -0.034 C  
HETATM    4  C   UNL     1     -12.821  15.250  68.444  1.00  0.00     1.449 C  
HETATM    5  C   UNL     1     -11.408  15.255  67.753  1.00  0.00    -0.331 C  
HETATM    6  C   UNL     1     -10.425  14.207  68.442  1.00  0.00    -0.254 C  
HETATM    7  C   UNL     1     -11.075  12.900  67.958  1.00  0.00    -0.283 C  
HETATM    8  C   UNL     1     -10.456  14.714  69.928  1.00  0.00     0.045 C  
HETATM    9  C   UNL     1     -11.799  14.568  70.669  1.00  0.00    -0.367 C  
HETATM   10  C   UNL     1      -9.276  14.619  70.876  1.00  0.00     2.733 C  
HETATM   11  C   UNL     1      -7.897  14.790  70.150  1.00  0.00     0.537 C  
HETATM   12  C   UNL     1     -12.336  13.141  70.900  1.00  0.00    -0.393 C  
HETATM   13  C   UNL     1      -7.747  13.632  69.098  1.00  0.00     0.182 C  
HETATM   14  C   UNL     1      -7.750  12.542  70.308  1.00  0.00     3.097 C  
HETATM   15  C   UNL     1      -8.889  14.138  67.951  1.00  0.00    -0.182 C  
HETATM   16  C   UNL     1      -8.722  13.725  66.405  1.00  0.00     0.244 C  
HETATM   17  C   UNL     1      -7.290  13.684  65.863  1.00  0.00     4.711 C  
HETATM   18  O   UNL     1      -9.306  12.483  66.054  1.00  0.00    -0.378 OA 
HETATM   19  C   UNL     1      -6.357  12.825  66.693  1.00  0.00     1.209 C  
HETATM   20  H   UNL     1      -9.208  12.239  65.141  1.00  0.00     0.000 HD 
HETATM   21  C   UNL     1      -6.680  11.218  66.657  1.00  0.00    -0.132 C  
HETATM   22  C   UNL     1      -7.309  11.113  68.005  1.00  0.00    -0.088 C  
HETATM   23  C   UNL     1      -5.830  10.196  66.310  1.00  0.00    -0.065 C  
HETATM   24  C   UNL     1      -5.993  11.807  68.699  1.00  0.00    -0.050 C  
HETATM   25  C   UNL     1      -5.488   9.115  67.370  1.00  0.00    -0.041 C  
HETATM   26  C   UNL     1      -5.865   9.516  64.962  1.00  0.00    -0.066 C  
HETATM   27  O   UNL     1      -5.241   7.921  66.786  1.00  0.00    -0.026 OA 
HETATM   28  C   UNL     1      -5.248  14.275  68.630  1.00  0.00    -0.091 C  
HETATM   29  C   UNL     1      -6.334  13.271  68.290  1.00  0.00    -0.099 C  
HETATM   30  O   UNL     1      -5.475   9.182  68.577  1.00  0.00    -0.037 OA 
ENDROOT
BRANCH  22  31
HETATM   31  O   UNL     1      -8.075   9.904  68.262  1.00  0.00    -0.102 OA 
BRANCH  31  32
HETATM   32  C   UNL     1      -8.983   9.490  67.304  1.00  0.00    -0.131 C  
HETATM   33  O   UNL     1      -9.721  10.257  66.687  1.00  0.00    -0.172 OA 
HETATM   34  C   UNL     1      -9.219   8.006  67.105  1.00  0.00    -0.172 C  
ENDBRANCH  31  32
ENDBRANCH  22  31
BRANCH  26  35
HETATM   35  C   UNL     1      -6.436  10.303  63.805  1.00  0.00    -0.090 C  
BRANCH  35  36
HETATM   36  C   UNL     1      -7.796   9.745  63.502  1.00  0.00    -0.140 C  
HETATM   37  C   UNL     1      -8.915  10.461  63.275  1.00  0.00    -0.241 C  
HETATM   38  C   UNL     1     -10.206   9.757  62.993  1.00  0.00     1.690 C  
HETATM   39  C   UNL     1      -8.999  11.966  63.307  1.00  0.00     0.473 C  
ENDBRANCH  35  36
ENDBRANCH  26  35
TORSDOF 4
ENDMDL
MODEL      106
REMARK 921   NORMALIZED FREE ENERGY PREDICTED BY IDOCK:   10.81 KCAL/MOL
REMARK 922        TOTAL FREE ENERGY PREDICTED BY IDOCK:   13.16 KCAL/MOL
REMARK 923 INTER-LIGAND FREE ENERGY PREDICTED BY IDOCK:    9.96 KCAL/MOL
REMARK 924 INTRA-LIGAND FREE ENERGY PREDICTED BY IDOCK:    3.20 KCAL/MOL
REMARK 927      BINDING AFFINITY PREDICTED BY RF-SCORE:    0.00 PKD
ROOT
HETATM    1  O   UNL     1     -13.860  12.532  69.222  1.00  0.00     4.301 OA 
HETATM    2  H   UNL     1     -13.724  12.896  68.355  1.00  0.00     0.000 HD 
HETATM    3  C   UNL     1     -13.583  11.141  69.270  1.00  0.00     3.781 C  
HETATM    4  C   UNL     1     -13.802  10.553  70.669  1.00  0.00     0.983 C  
HETATM    5  C   UNL     1     -13.520   9.007  70.724  1.00  0.00     0.272 C  
HETATM    6  C   UNL     1     -12.041   8.672  70.235  1.00  0.00     0.370 C  
HETATM    7  C   UNL     1     -11.250   9.241  71.425  1.00  0.00    -0.433 C  
HETATM    8  C   UNL     1     -12.060   9.308  68.800  1.00  0.00     2.027 C  
HETATM    9  C   UNL     1     -12.178  10.843  68.736  1.00  0.00     0.036 C  
HETATM   10  C   UNL     1     -11.281   8.754  67.621  1.00  0.00     0.578 C  
HETATM   11  C   UNL     1     -11.170   7.190  67.649  1.00  0.00     0.008 C  
HETATM   12  C   UNL     1     -11.028  11.673  69.342  1.00  0.00    -0.211 C  
HETATM   13  C   UNL     1     -10.401   6.774  68.955  1.00  0.00    -0.212 C  
HETATM   14  C   UNL     1      -9.073   7.544  68.411  1.00  0.00    -0.133 C  
HETATM   15  C   UNL     1     -11.590   7.127  70.111  1.00  0.00    -0.211 C  
HETATM   16  C   UNL     1     -11.625   6.329  71.507  1.00  0.00    -0.287 C  
HETATM   17  C   UNL     1     -11.251   4.845  71.451  1.00  0.00     0.557 C  
HETATM   18  O   UNL     1     -10.830   6.892  72.536  1.00  0.00    -0.224 OA 
HETATM   19  C   UNL     1      -9.916   4.586  70.784  1.00  0.00    -0.269 C  
HETATM   20  H   UNL     1     -10.851   6.420  73.360  1.00  0.00     0.000 HD 
HETATM   21  C   UNL     1      -8.611   5.138  71.608  1.00  0.00    -0.132 C  
HETATM   22  C   UNL     1      -8.336   6.335  70.763  1.00  0.00    -0.126 C  
HETATM   23  C   UNL     1      -7.510   4.425  72.017  1.00  0.00    -0.075 C  
HETATM   24  C   UNL     1      -8.286   5.401  69.415  1.00  0.00    -0.096 C  
HETATM   25  C   UNL     1      -6.114   4.826  71.468  1.00  0.00    -0.018 C  
HETATM   26  C   UNL     1      -7.319   3.943  73.435  1.00  0.00    -0.069 C  
HETATM   27  O   UNL     1      -5.141   4.552  72.366  1.00  0.00    -0.003 OA 
HETATM   28  C   UNL     1     -10.240   4.280  68.159  1.00  0.00     0.206 C  
HETATM   29  C   UNL     1      -9.828   5.238  69.262  1.00  0.00    -0.256 C  
HETATM   30  O   UNL     1      -5.810   5.371  70.433  1.00  0.00    -0.019 OA 
ENDROOT
BRANCH  22  31
HETATM   31  O   UNL     1      -7.451   7.336  71.340  1.00  0.00    -0.080 OA 
BRANCH  31  32
HETATM   32  C   UNL     1      -7.287   8.531  70.662  1.00  0.00    -0.061 C  
HETATM   33  O   UNL     1      -8.174   9.375  70.541  1.00  0.00    -0.169 OA 
HETATM   34  C   UNL     1      -6.011   8.763  69.877  1.00  0.00    -0.031 C  
ENDBRANCH  31  32
ENDBRANCH  22  31
BRANCH  26  35
HETATM   35  C   UNL     1      -8.562   3.748  74.272  1.00  0.00    -0.088 C  
BRANCH  35  36
HETATM   36  C   UNL     1      -9.273   5.068  74.344  1.00  0.00    -0.116 C  
HETATM   37  C   UNL     1      -8.690   6.278  74.457  1.00  0.00    -0.149 C  
HETATM   38  C   UNL     1      -9.538   7.510  74.527  1.00  0.00     0.408 C  
HETATM   39  C   UNL     1      -7.205   6.515  74.554  1.00  0.00    -0.099 C  
ENDBRANCH  35  36
ENDBRANCH  26  35
TORSDOF 4
ENDMDL
MODEL      107
REMARK 921   NORMALIZED FREE ENERGY PREDICTED BY IDOCK:   10.95 KCAL/MOL
REMARK 922        TOTAL FREE ENERGY PREDICTED BY IDOCK:   13.34 KCAL/MOL
REMARK 923 INTER-LIGAND FREE ENERGY PREDICTED BY IDOCK:   12.26 KCAL/MOL
REMARK 924 INTRA-LIGAND FREE ENERGY PREDICTED BY IDOCK:    1.08 KCAL/MOL
REMARK 927      BINDING AFFINITY PREDICTED BY RF-SCORE:    0.00 PKD
ROOT
HETATM    1  O   UNL     1     -13.091   5.371  72.959  1.00  0.00    -0.180 OA 
HETATM    2  H   UNL     1     -13.917   5.120  72.563  1.00  0.00     0.000 HD 
HETATM    3  C   UNL     1     -12.253   6.071  72.053  1.00  0.00    -0.029 C  
HETATM    4  C   UNL     1     -10.919   6.477  72.692  1.00  0.00    -0.287 C  
HETATM    5  C   UNL     1      -9.975   7.233  71.687  1.00  0.00    -0.192 C  
HETATM    6  C   UNL     1     -10.688   8.525  71.084  1.00  0.00    -0.290 C  
HETATM    7  C   UNL     1     -10.692   9.415  72.338  1.00  0.00     0.951 C  
HETATM    8  C   UNL     1     -11.972   7.878  70.454  1.00  0.00     0.134 C  
HETATM    9  C   UNL     1     -12.986   7.271  71.443  1.00  0.00    -0.420 C  
HETATM   10  C   UNL     1     -12.652   8.400  69.202  1.00  0.00     3.964 C  
HETATM   11  C   UNL     1     -11.639   8.999  68.166  1.00  0.00     1.314 C  
HETATM   12  C   UNL     1     -13.673   8.228  72.438  1.00  0.00    -0.193 C  
HETATM   13  C   UNL     1     -10.904  10.214  68.842  1.00  0.00    -0.256 C  
HETATM   14  C   UNL     1     -12.324  11.005  68.945  1.00  0.00     0.080 C  
HETATM   15  C   UNL     1      -9.926   9.378  69.946  1.00  0.00    -0.237 C  
HETATM   16  C   UNL     1      -8.533  10.015  70.438  1.00  0.00     0.244 C  
HETATM   17  C   UNL     1      -7.737  10.801  69.392  1.00  0.00    -0.107 C  
HETATM   18  O   UNL     1      -8.633  10.863  71.569  1.00  0.00     4.616 OA 
HETATM   19  C   UNL     1      -8.547  11.885  68.711  1.00  0.00     0.046 C  
HETATM   20  H   UNL     1      -7.811  11.239  71.859  1.00  0.00     0.000 HD 
HETATM   21  C   UNL     1      -8.984  13.135  69.678  1.00  0.00     1.897 C  
HETATM   22  C   UNL     1     -10.414  12.754  69.858  1.00  0.00     1.298 C  
HETATM   23  C   UNL     1      -8.738  14.473  69.486  1.00  0.00     0.320 C  
HETATM   24  C   UNL     1     -10.626  12.687  68.232  1.00  0.00    -0.250 C  
HETATM   25  C   UNL     1      -9.943  15.440  69.336  1.00  0.00    -0.272 C  
HETATM   26  C   UNL     1      -7.642  15.221  70.207  1.00  0.00     0.490 C  
HETATM   27  O   UNL     1      -9.639  16.672  69.805  1.00  0.00     0.072 OA 
HETATM   28  C   UNL     1      -9.787  10.902  66.570  1.00  0.00    -0.245 C  
HETATM   29  C   UNL     1      -9.941  11.303  68.026  1.00  0.00    -0.191 C  
HETATM   30  O   UNL     1     -11.065  15.234  68.937  1.00  0.00    -0.240 OA 
ENDROOT
BRANCH  22  31
HETATM   31  O   UNL     1     -11.118  13.410  70.949  1.00  0.00     1.150 OA 
BRANCH  31  32
HETATM   32  C   UNL     1     -12.498  13.311  70.989  1.00  0.00    -0.336 C  
HETATM   33  O   UNL     1     -13.253  14.047  70.356  1.00  0.00    -0.097 OA 
HETATM   34  C   UNL     1     -13.139  12.364  71.985  1.00  0.00    -0.470 C  
ENDBRANCH  31  32
ENDBRANCH  22  31
BRANCH  26  35
HETATM   35  C   UNL     1      -6.466  14.413  70.706  1.00  0.00     0.067 C  
BRANCH  35  36
HETATM   36  C   UNL     1      -5.901  13.661  69.535  1.00  0.00    -0.102 C  
HETATM   37  C   UNL     1      -5.748  14.140  68.285  1.00  0.00    -0.117 C  
HETATM   38  C   UNL     1      -5.175  13.262  67.216  1.00  0.00     0.290 C  
HETATM   39  C   UNL     1      -6.142  15.523  67.835  1.00  0.00    -0.163 C  
ENDBRANCH  35  36
ENDBRANCH  26  35
TORSDOF 4
ENDMDL
MODEL      108
REMARK 921   NORMALIZED FREE ENERGY PREDICTED BY IDOCK:   11.23 KCAL/MOL
REMARK 922        TOTAL FREE ENERGY PREDICTED BY IDOCK:   13.68 KCAL/MOL
REMARK 923 INTER-LIGAND FREE ENERGY PREDICTED BY IDOCK:   14.23 KCAL/MOL
REMARK 924 INTRA-LIGAND FREE ENERGY PREDICTED BY IDOCK:   -0.55 KCAL/MOL
REMARK 927      BINDING AFFINITY PREDICTED BY RF-SCORE:    0.00 PKD
ROOT
HETATM    1  O   UNL     1      -5.563   5.456  69.055  1.00  0.00    -0.007 OA 
HETATM    2  H   UNL     1      -5.572   4.644  68.561  1.00  0.00     0.000 HD 
HETATM    3  C   UNL     1      -5.498   6.595  68.214  1.00  0.00    -0.012 C  
HETATM    4  C   UNL     1      -5.484   7.905  69.011  1.00  0.00    -0.030 C  
HETATM    5  C   UNL     1      -5.388   9.174  68.086  1.00  0.00    -0.034 C  
HETATM    6  C   UNL     1      -6.581   9.210  67.029  1.00  0.00    -0.064 C  
HETATM    7  C   UNL     1      -7.746   9.526  67.981  1.00  0.00    -0.087 C  
HETATM    8  C   UNL     1      -6.373   7.828  66.312  1.00  0.00    -0.046 C  
HETATM    9  C   UNL     1      -6.619   6.571  67.169  1.00  0.00    -0.055 C  
HETATM   10  C   UNL     1      -6.689   7.582  64.849  1.00  0.00    -0.047 C  
HETATM   11  C   UNL     1      -6.422   8.839  63.950  1.00  0.00    -0.076 C  
HETATM   12  C   UNL     1      -8.047   6.342  67.707  1.00  0.00    -0.115 C  
HETATM   13  C   UNL     1      -7.356  10.004  64.441  1.00  0.00    -0.138 C  
HETATM   14  C   UNL     1      -8.661   9.126  64.017  1.00  0.00    -0.186 C  
HETATM   15  C   UNL     1      -6.600  10.374  65.913  1.00  0.00    -0.123 C  
HETATM   16  C   UNL     1      -6.707  11.858  66.527  1.00  0.00     0.207 C  
HETATM   17  C   UNL     1      -6.686  13.013  65.522  1.00  0.00     6.897 C  
HETATM   18  O   UNL     1      -7.838  12.081  67.352  1.00  0.00    -0.144 OA 
HETATM   19  C   UNL     1      -7.719  12.873  64.423  1.00  0.00     8.318 C  
HETATM   20  H   UNL     1      -7.901  12.956  67.714  1.00  0.00     0.000 HD 
HETATM   21  C   UNL     1      -9.277  13.004  64.916  1.00  0.00     0.933 C  
HETATM   22  C   UNL     1      -9.624  11.555  64.861  1.00  0.00    -0.186 C  
HETATM   23  C   UNL     1     -10.238  13.870  64.450  1.00  0.00     0.067 C  
HETATM   24  C   UNL     1      -9.121  11.469  63.301  1.00  0.00    -0.055 C  
HETATM   25  C   UNL     1     -11.516  13.284  63.792  1.00  0.00    -0.314 C  
HETATM   26  C   UNL     1     -10.640  15.127  65.184  1.00  0.00    -0.447 C  
HETATM   27  O   UNL     1     -12.579  14.096  63.987  1.00  0.00    -0.691 OA 
HETATM   28  C   UNL     1      -6.712  11.494  62.381  1.00  0.00     0.625 C  
HETATM   29  C   UNL     1      -7.596  11.431  63.613  1.00  0.00     1.419 C  
HETATM   30  O   UNL     1     -11.687  12.235  63.216  1.00  0.00    -0.433 OA 
ENDROOT
BRANCH  22  31
HETATM   31  O   UNL     1     -10.836  11.160  65.561  1.00  0.00    -0.228 OA 
BRANCH  31  32
HETATM   32  C   UNL     1     -10.707  10.441  66.737  1.00  0.00    -0.168 C  
HETATM   33  O   UNL     1     -10.500   9.230  66.778  1.00  0.00    -0.244 OA 
HETATM   34  C   UNL     1     -10.995  11.131  68.056  1.00  0.00    -0.307 C  
ENDBRANCH  31  32
ENDBRANCH  22  31
BRANCH  26  35
HETATM   35  C   UNL     1      -9.624  15.734  66.124  1.00  0.00    -0.364 C  
BRANCH  35  36
HETATM   36  C   UNL     1     -10.375  16.524  67.156  1.00  0.00    -0.298 C  
HETATM   37  C   UNL     1     -10.756  17.812  67.046  1.00  0.00    -0.192 C  
HETATM   38  C   UNL     1     -11.496  18.469  68.170  1.00  0.00     1.245 C  
HETATM   39  C   UNL     1     -10.470  18.699  65.862  1.00  0.00    -0.395 C  
ENDBRANCH  35  36
ENDBRANCH  26  35
TORSDOF 4
ENDMDL
MODEL      109
REMARK 921   NORMALIZED FREE ENERGY PREDICTED BY IDOCK:   11.40 KCAL/MOL
REMARK 922        TOTAL FREE ENERGY PREDICTED BY IDOCK:   13.88 KCAL/MOL
REMARK 923 INTER-LIGAND FREE ENERGY PREDICTED BY IDOCK:   13.54 KCAL/MOL
REMARK 924 INTRA-LIGAND FREE ENERGY PREDICTED BY IDOCK:    0.34 KCAL/MOL
REMARK 927      BINDING AFFINITY PREDICTED BY RF-SCORE:    0.00 PKD
ROOT
HETATM    1  O   UNL     1     -10.601  20.255  66.106  1.00  0.00    -0.324 OA 
HETATM    2  H   UNL     1      -9.815  20.684  65.786  1.00  0.00     0.000 HD 
HETATM    3  C   UNL     1     -10.597  18.862  65.841  1.00  0.00    -0.373 C  
HETATM    4  C   UNL     1     -11.864  18.169  66.358  1.00  0.00     3.002 C  
HETATM    5  C   UNL     1     -11.878  16.627  66.047  1.00  0.00     1.836 C  
HETATM    6  C   UNL     1     -10.594  15.904  66.655  1.00  0.00    -0.305 C  
HETATM    7  C   UNL     1     -10.945  15.989  68.149  1.00  0.00    -0.339 C  
HETATM    8  C   UNL     1      -9.446  16.726  65.967  1.00  0.00    -0.257 C  
HETATM    9  C   UNL     1      -9.322  18.204  66.382  1.00  0.00    -0.274 C  
HETATM   10  C   UNL     1      -8.104  16.136  65.578  1.00  0.00     1.907 C  
HETATM   11  C   UNL     1      -8.207  14.638  65.125  1.00  0.00     5.578 C  
HETATM   12  C   UNL     1      -8.972  18.504  67.854  1.00  0.00    -0.300 C  
HETATM   13  C   UNL     1      -8.757  13.795  66.332  1.00  0.00     0.213 C  
HETATM   14  C   UNL     1      -7.419  14.159  67.187  1.00  0.00     0.080 C  
HETATM   15  C   UNL     1     -10.364  14.337  66.350  1.00  0.00    -0.287 C  
HETATM   16  C   UNL     1     -11.532  13.388  66.918  1.00  0.00    -0.342 C  
HETATM   17  C   UNL     1     -11.396  11.891  66.624  1.00  0.00    -0.400 C  
HETATM   18  O   UNL     1     -11.757  13.491  68.314  1.00  0.00    -0.318 OA 
HETATM   19  C   UNL     1     -10.061  11.314  67.047  1.00  0.00    -0.238 C  
HETATM   20  H   UNL     1     -12.446  12.931  68.649  1.00  0.00     0.000 HD 
HETATM   21  C   UNL     1      -9.806  11.271  68.666  1.00  0.00    -0.208 C  
HETATM   22  C   UNL     1      -8.867  12.426  68.749  1.00  0.00     0.159 C  
HETATM   23  C   UNL     1      -9.487  10.180  69.439  1.00  0.00    -0.240 C  
HETATM   24  C   UNL     1      -7.896  11.749  67.612  1.00  0.00    -0.138 C  
HETATM   25  C   UNL     1      -8.139  10.179  70.209  1.00  0.00     0.164 C  
HETATM   26  C   UNL     1     -10.497   9.449  70.290  1.00  0.00    -0.298 C  
HETATM   27  O   UNL     1      -8.233   9.465  71.353  1.00  0.00    -0.302 OA 
HETATM   28  C   UNL     1      -8.291  11.542  65.072  1.00  0.00     0.654 C  
HETATM   29  C   UNL     1      -8.777  12.128  66.385  1.00  0.00    -0.052 C  
HETATM   30  O   UNL     1      -7.100  10.747  69.965  1.00  0.00    -0.144 OA 
ENDROOT
BRANCH  22  31
HETATM   31  O   UNL     1      -8.647  12.977  70.077  1.00  0.00     2.492 OA 
BRANCH  31  32
HETATM   32  C   UNL     1      -8.508  14.349  70.200  1.00  0.00     1.357 C  
HETATM   33  O   UNL     1      -9.333  15.159  69.780  1.00  0.00    -0.157 OA 
HETATM   34  C   UNL     1      -7.202  14.912  70.726  1.00  0.00     0.904 C  
ENDBRANCH  31  32
ENDBRANCH  22  31
BRANCH  26  35
HETATM   35  C   UNL     1     -11.948   9.547  69.879  1.00  0.00     0.227 C  
BRANCH  35  36
HETATM   36  C   UNL     1     -12.730  10.005  71.076  1.00  0.00    -0.455 C  
HETATM   37  C   UNL     1     -12.799  11.268  71.542  1.00  0.00    -0.519 C  
HETATM   38  C   UNL     1     -13.618  11.569  72.759  1.00  0.00     1.390 C  
HETATM   39  C   UNL     1     -12.076  12.449  70.947  1.00  0.00    -0.150 C  
ENDBRANCH  35  36
ENDBRANCH  26  35
TORSDOF 4
ENDMDL
MODEL      110
REMARK 921   NORMALIZED FREE ENERGY PREDICTED BY IDOCK:   11.50 KCAL/MOL
REMARK 922        TOTAL FREE ENERGY PREDICTED BY IDOCK:   14.01 KCAL/MOL
REMARK 923 INTER-LIGAND FREE ENERGY PREDICTED BY IDOCK:   10.74 KCAL/MOL
REMARK 924 INTRA-LIGAND FREE ENERGY PREDICTED BY IDOCK:    3.26 KCAL/MOL
REMARK 927      BINDING AFFINITY PREDICTED BY RF-SCORE:    0.00 PKD
ROOT
HETATM    1  O   UNL     1      -8.223   8.608  74.274  1.00  0.00    -0.361 OA 
HETATM    2  H   UNL     1      -8.973   8.116  74.589  1.00  0.00     0.000 HD 
HETATM    3  C   UNL     1      -7.778   8.154  73.006  1.00  0.00    -0.148 C  
HETATM    4  C   UNL     1      -6.569   8.947  72.497  1.00  0.00     0.063 C  
HETATM    5  C   UNL     1      -6.054   8.434  71.102  1.00  0.00    -0.037 C  
HETATM    6  C   UNL     1      -7.213   8.476  70.008  1.00  0.00    -0.051 C  
HETATM    7  C   UNL     1      -7.330   9.999  69.829  1.00  0.00    -0.141 C  
HETATM    8  C   UNL     1      -8.299   7.580  70.704  1.00  0.00    -0.126 C  
HETATM    9  C   UNL     1      -8.927   8.146  71.992  1.00  0.00    -0.236 C  
HETATM   10  C   UNL     1      -9.270   6.692  69.947  1.00  0.00    -0.146 C  
HETATM   11  C   UNL     1      -8.646   6.082  68.645  1.00  0.00    -0.112 C  
HETATM   12  C   UNL     1      -9.742   9.451  71.875  1.00  0.00     0.479 C  
HETATM   13  C   UNL     1      -8.249   7.264  67.687  1.00  0.00    -0.114 C  
HETATM   14  C   UNL     1      -9.819   7.680  67.563  1.00  0.00    -0.214 C  
HETATM   15  C   UNL     1      -6.919   7.884  68.536  1.00  0.00    -0.071 C  
HETATM   16  C   UNL     1      -5.746   8.657  67.751  1.00  0.00    -0.039 C  
HETATM   17  C   UNL     1      -5.387   8.117  66.364  1.00  0.00    -0.028 C  
HETATM   18  O   UNL     1      -5.957  10.048  67.584  1.00  0.00    -0.052 OA 
HETATM   19  C   UNL     1      -6.581   7.991  65.439  1.00  0.00    -0.048 C  
HETATM   20  H   UNL     1      -5.264  10.504  67.121  1.00  0.00     0.000 HD 
HETATM   21  C   UNL     1      -7.256   9.413  64.983  1.00  0.00    -0.105 C  
HETATM   22  C   UNL     1      -8.456   9.355  65.867  1.00  0.00    -0.126 C  
HETATM   23  C   UNL     1      -7.474   9.870  63.705  1.00  0.00    -0.136 C  
HETATM   24  C   UNL     1      -8.851   7.876  65.273  1.00  0.00     0.036 C  
HETATM   25  C   UNL     1      -8.931  10.149  63.249  1.00  0.00    -0.247 C  
HETATM   26  C   UNL     1      -6.584  10.886  63.031  1.00  0.00     0.248 C  
HETATM   27  O   UNL     1      -8.972  11.142  62.333  1.00  0.00    -0.319 OA 
HETATM   28  C   UNL     1      -7.722   5.603  65.727  1.00  0.00    -0.088 C  
HETATM   29  C   UNL     1      -7.798   7.074  66.094  1.00  0.00    -0.102 C  
HETATM   30  O   UNL     1      -9.973   9.666  63.627  1.00  0.00     0.551 OA 
ENDROOT
BRANCH  22  31
HETATM   31  O   UNL     1      -9.178  10.604  66.049  1.00  0.00    -0.171 OA 
BRANCH  31  32
HETATM   32  C   UNL     1     -10.117  10.674  67.063  1.00  0.00    -0.211 C  
HETATM   33  O   UNL     1     -11.331  10.621  66.875  1.00  0.00    -0.257 OA 
HETATM   34  C   UNL     1      -9.656  11.000  68.470  1.00  0.00    -0.187 C  
ENDBRANCH  31  32
ENDBRANCH  22  31
BRANCH  26  35
HETATM   35  C   UNL     1      -5.158  10.989  63.520  1.00  0.00    -0.004 C  
BRANCH  35  36
HETATM   36  C   UNL     1      -5.202  11.290  64.990  1.00  0.00     0.461 C  
HETATM   37  C   UNL     1      -6.039  12.155  65.597  1.00  0.00     2.812 C  
HETATM   38  C   UNL     1      -5.956  12.354  67.079  1.00  0.00     0.026 C  
HETATM   39  C   UNL     1      -7.071  12.997  64.894  1.00  0.00     9.944 C  
ENDBRANCH  35  36
ENDBRANCH  26  35
TORSDOF 4
ENDMDL
MODEL      111
REMARK 921   NORMALIZED FREE ENERGY PREDICTED BY IDOCK:   14.35 KCAL/MOL
REMARK 922        TOTAL FREE ENERGY PREDICTED BY IDOCK:   17.52 KCAL/MOL
REMARK 923 INTER-LIGAND FREE ENERGY PREDICTED BY IDOCK:   16.96 KCAL/MOL
REMARK 924 INTRA-LIGAND FREE ENERGY PREDICTED BY IDOCK:    0.56 KCAL/MOL
REMARK 927      BINDING AFFINITY PREDICTED BY RF-SCORE:    0.00 PKD
ROOT
HETATM    1  O   UNL     1      -8.454  12.626  71.618  1.00  0.00    12.230 OA 
HETATM    2  H   UNL     1      -8.688  12.367  72.502  1.00  0.00     0.000 HD 
HETATM    3  C   UNL     1      -7.698  11.629  70.950  1.00  0.00     5.232 C  
HETATM    4  C   UNL     1      -7.320  12.046  69.524  1.00  0.00     0.337 C  
HETATM    5  C   UNL     1      -6.461  10.956  68.784  1.00  0.00    -0.053 C  
HETATM    6  C   UNL     1      -7.218   9.554  68.743  1.00  0.00    -0.073 C  
HETATM    7  C   UNL     1      -8.330   9.901  67.739  1.00  0.00    -0.114 C  
HETATM    8  C   UNL     1      -7.454   9.308  70.276  1.00  0.00    -0.113 C  
HETATM    9  C   UNL     1      -8.422  10.279  70.981  1.00  0.00     2.099 C  
HETATM   10  C   UNL     1      -7.471   7.933  70.916  1.00  0.00    -0.073 C  
HETATM   11  C   UNL     1      -6.474   6.933  70.234  1.00  0.00    -0.043 C  
HETATM   12  C   UNL     1      -9.893  10.283  70.517  1.00  0.00     0.398 C  
HETATM   13  C   UNL     1      -6.906   6.756  68.732  1.00  0.00    -0.066 C  
HETATM   14  C   UNL     1      -8.310   6.092  69.222  1.00  0.00    -0.116 C  
HETATM   15  C   UNL     1      -6.456   8.273  68.125  1.00  0.00    -0.056 C  
HETATM   16  C   UNL     1      -6.063   8.440  66.574  1.00  0.00    -0.053 C  
HETATM   17  C   UNL     1      -5.298   7.277  65.937  1.00  0.00    -0.027 C  
HETATM   18  O   UNL     1      -7.153   8.708  65.709  1.00  0.00    -0.077 OA 
HETATM   19  C   UNL     1      -5.981   5.937  66.117  1.00  0.00    -0.025 C  
HETATM   20  H   UNL     1      -6.921   8.807  64.793  1.00  0.00     0.000 HD 
HETATM   21  C   UNL     1      -7.399   5.769  65.312  1.00  0.00    -0.075 C  
HETATM   22  C   UNL     1      -8.311   5.927  66.481  1.00  0.00    -0.112 C  
HETATM   23  C   UNL     1      -7.744   4.792  64.409  1.00  0.00    -0.082 C  
HETATM   24  C   UNL     1      -7.523   4.732  67.286  1.00  0.00    -0.082 C  
HETATM   25  C   UNL     1      -8.942   3.860  64.738  1.00  0.00    -0.131 C  
HETATM   26  C   UNL     1      -7.734   5.009  62.915  1.00  0.00    -0.067 C  
HETATM   27  O   UNL     1      -9.563   3.450  63.609  1.00  0.00    -0.114 OA 
HETATM   28  C   UNL     1      -5.193   4.798  68.391  1.00  0.00    -0.007 C  
HETATM   29  C   UNL     1      -6.294   5.591  67.708  1.00  0.00    -0.042 C  
HETATM   30  O   UNL     1      -9.399   3.523  65.805  1.00  0.00    -0.155 OA 
ENDROOT
BRANCH  22  31
HETATM   31  O   UNL     1      -9.706   6.197  66.174  1.00  0.00    -0.110 OA 
BRANCH  31  32
HETATM   32  C   UNL     1     -10.420   7.010  67.036  1.00  0.00    -0.316 C  
HETATM   33  O   UNL     1     -10.485   8.233  66.924  1.00  0.00    -0.319 OA 
HETATM   34  C   UNL     1     -11.025   6.405  68.288  1.00  0.00    -0.396 C  
ENDBRANCH  31  32
ENDBRANCH  22  31
BRANCH  26  35
HETATM   35  C   UNL     1      -6.825   6.091  62.380  1.00  0.00    -0.040 C  
BRANCH  35  36
HETATM   36  C   UNL     1      -7.541   7.402  62.531  1.00  0.00    -0.110 C  
HETATM   37  C   UNL     1      -6.964   8.598  62.761  1.00  0.00    -0.090 C  
HETATM   38  C   UNL     1      -7.816   9.822  62.897  1.00  0.00    -0.131 C  
HETATM   39  C   UNL     1      -5.484   8.825  62.929  1.00  0.00    -0.070 C  
ENDBRANCH  35  36
ENDBRANCH  26  35
TORSDOF 4
ENDMDL
MODEL      112
REMARK 921   NORMALIZED FREE ENERGY PREDICTED BY IDOCK:   14.66 KCAL/MOL
REMARK 922        TOTAL FREE ENERGY PREDICTED BY IDOCK:   17.90 KCAL/MOL
REMARK 923 INTER-LIGAND FREE ENERGY PREDICTED BY IDOCK:   17.08 KCAL/MOL
REMARK 924 INTRA-LIGAND FREE ENERGY PREDICTED BY IDOCK:    0.83 KCAL/MOL
REMARK 927      BINDING AFFINITY PREDICTED BY RF-SCORE:    0.00 PKD
ROOT
HETATM    1  O   UNL     1      -9.730  13.296  63.148  1.00  0.00     0.792 OA 
HETATM    2  H   UNL     1     -10.487  13.254  62.575  1.00  0.00     0.000 HD 
HETATM    3  C   UNL     1     -10.062  13.022  64.499  1.00  0.00    -0.230 C  
HETATM    4  C   UNL     1      -8.840  13.090  65.423  1.00  0.00     1.291 C  
HETATM    5  C   UNL     1      -9.205  12.811  66.927  1.00  0.00    -0.229 C  
HETATM    6  C   UNL     1      -9.918  11.396  67.096  1.00  0.00    -0.217 C  
HETATM    7  C   UNL     1      -8.716  10.477  66.824  1.00  0.00    -0.136 C  
HETATM    8  C   UNL     1     -11.138  11.569  66.121  1.00  0.00    -0.302 C  
HETATM    9  C   UNL     1     -10.802  11.685  64.622  1.00  0.00    -0.373 C  
HETATM   10  C   UNL     1     -12.494  10.926  66.345  1.00  0.00     4.224 C  
HETATM   11  C   UNL     1     -12.872  10.820  67.863  1.00  0.00     4.612 C  
HETATM   12  C   UNL     1     -10.133  10.472  63.944  1.00  0.00    -0.288 C  
HETATM   13  C   UNL     1     -11.802   9.915  68.576  1.00  0.00     0.676 C  
HETATM   14  C   UNL     1     -12.275   8.651  67.664  1.00  0.00     5.903 C  
HETATM   15  C   UNL     1     -10.474  10.969  68.549  1.00  0.00    -0.210 C  
HETATM   16  C   UNL     1      -9.328  10.855  69.672  1.00  0.00     0.380 C  
HETATM   17  C   UNL     1      -9.794  10.497  71.086  1.00  0.00     2.690 C  
HETATM   18  O   UNL     1      -8.282   9.949  69.366  1.00  0.00    -0.118 OA 
HETATM   19  C   UNL     1     -10.643   9.243  71.139  1.00  0.00    -0.402 C  
HETATM   20  H   UNL     1      -7.605   9.882  70.029  1.00  0.00     0.000 HD 
HETATM   21  C   UNL     1      -9.851   7.854  70.781  1.00  0.00    -0.188 C  
HETATM   22  C   UNL     1     -10.394   7.666  69.405  1.00  0.00    -0.214 C  
HETATM   23  C   UNL     1      -9.756   6.718  71.549  1.00  0.00    -0.168 C  
HETATM   24  C   UNL     1     -11.931   7.770  69.971  1.00  0.00     0.449 C  
HETATM   25  C   UNL     1     -10.333   5.389  70.992  1.00  0.00    -0.236 C  
HETATM   26  C   UNL     1      -8.532   6.375  72.365  1.00  0.00    -0.120 C  
HETATM   27  O   UNL     1      -9.641   4.324  71.459  1.00  0.00    -0.145 OA 
HETATM   28  C   UNL     1     -13.211   9.855  70.787  1.00  0.00    -0.231 C  
HETATM   29  C   UNL     1     -11.954   9.320  70.126  1.00  0.00     0.164 C  
HETATM   30  O   UNL     1     -11.224   5.196  70.198  1.00  0.00     0.326 OA 
ENDROOT
BRANCH  22  31
HETATM   31  O   UNL     1      -9.683   6.719  68.560  1.00  0.00    -0.133 OA 
BRANCH  31  32
HETATM   32  C   UNL     1      -9.092   7.193  67.402  1.00  0.00    -0.121 C  
HETATM   33  O   UNL     1      -8.054   7.853  67.386  1.00  0.00    -0.119 OA 
HETATM   34  C   UNL     1      -9.831   7.046  66.086  1.00  0.00     0.109 C  
ENDBRANCH  31  32
ENDBRANCH  22  31
BRANCH  26  35
HETATM   35  C   UNL     1      -7.643   7.520  72.792  1.00  0.00    -0.102 C  
BRANCH  35  36
HETATM   36  C   UNL     1      -7.165   8.213  71.548  1.00  0.00    -0.077 C  
HETATM   37  C   UNL     1      -6.075   8.999  71.447  1.00  0.00    -0.065 C  
HETATM   38  C   UNL     1      -5.731   9.630  70.133  1.00  0.00    -0.042 C  
HETATM   39  C   UNL     1      -5.148   9.340  72.585  1.00  0.00    -0.076 C  
ENDBRANCH  35  36
ENDBRANCH  26  35
TORSDOF 4
ENDMDL
MODEL      113
REMARK 921   NORMALIZED FREE ENERGY PREDICTED BY IDOCK:   15.12 KCAL/MOL
REMARK 922        TOTAL FREE ENERGY PREDICTED BY IDOCK:   18.47 KCAL/MOL
REMARK 923 INTER-LIGAND FREE ENERGY PREDICTED BY IDOCK:   10.74 KCAL/MOL
REMARK 924 INTRA-LIGAND FREE ENERGY PREDICTED BY IDOCK:    7.73 KCAL/MOL
REMARK 927      BINDING AFFINITY PREDICTED BY RF-SCORE:    0.00 PKD
ROOT
HETATM    1  O   UNL     1     -10.137   7.168  69.539  1.00  0.00    -0.172 OA 
HETATM    2  H   UNL     1     -10.375   6.914  70.423  1.00  0.00     0.000 HD 
HETATM    3  C   UNL     1     -10.611   8.463  69.208  1.00  0.00    -0.182 C  
HETATM    4  C   UNL     1     -10.228   8.874  67.781  1.00  0.00    -0.283 C  
HETATM    5  C   UNL     1     -10.771  10.299  67.397  1.00  0.00    -0.339 C  
HETATM    6  C   UNL     1     -10.260  11.407  68.423  1.00  0.00    -0.206 C  
HETATM    7  C   UNL     1      -8.776  11.451  68.024  1.00  0.00    -0.148 C  
HETATM    8  C   UNL     1     -10.796  10.818  69.776  1.00  0.00    -0.284 C  
HETATM    9  C   UNL     1     -10.157   9.496  70.244  1.00  0.00    -0.314 C  
HETATM   10  C   UNL     1     -11.248  11.670  70.947  1.00  0.00     1.484 C  
HETATM   11  C   UNL     1     -11.927  13.010  70.496  1.00  0.00    -0.294 C  
HETATM   12  C   UNL     1      -8.651   9.510  70.578  1.00  0.00    -0.231 C  
HETATM   13  C   UNL     1     -10.872  13.848  69.686  1.00  0.00     0.032 C  
HETATM   14  C   UNL     1      -9.950  13.966  71.024  1.00  0.00     4.504 C  
HETATM   15  C   UNL     1     -10.798  12.921  68.269  1.00  0.00    -0.263 C  
HETATM   16  C   UNL     1     -10.400  13.610  66.871  1.00  0.00    -0.262 C  
HETATM   17  C   UNL     1     -10.918  15.033  66.642  1.00  0.00    -0.325 C  
HETATM   18  O   UNL     1      -9.009  13.654  66.603  1.00  0.00    -0.375 OA 
HETATM   19  C   UNL     1     -10.566  15.988  67.764  1.00  0.00    -0.309 C  
HETATM   20  H   UNL     1      -8.774  14.061  65.777  1.00  0.00     0.000 HD 
HETATM   21  C   UNL     1      -8.969  16.327  67.911  1.00  0.00    -0.187 C  
HETATM   22  C   UNL     1      -8.695  15.476  69.104  1.00  0.00    -0.247 C  
HETATM   23  C   UNL     1      -8.367  17.563  67.904  1.00  0.00    -0.229 C  
HETATM   24  C   UNL     1      -9.906  16.209  69.935  1.00  0.00     0.081 C  
HETATM   25  C   UNL     1      -7.585  18.020  69.164  1.00  0.00    -0.042 C  
HETATM   26  C   UNL     1      -7.654  18.125  66.697  1.00  0.00    -0.259 C  
HETATM   27  O   UNL     1      -6.565  18.843  68.831  1.00  0.00    -0.255 OA 
HETATM   28  C   UNL     1     -12.455  15.940  69.641  1.00  0.00     0.108 C  
HETATM   29  C   UNL     1     -11.075  15.444  69.246  1.00  0.00    -0.280 C  
HETATM   30  O   UNL     1      -7.722  17.709  70.324  1.00  0.00     1.805 OA 
ENDROOT
BRANCH  22  31
HETATM   31  O   UNL     1      -7.295  15.196  69.383  1.00  0.00    -0.174 OA 
BRANCH  31  32
HETATM   32  C   UNL     1      -6.988  14.478  70.525  1.00  0.00     0.364 C  
HETATM   33  O   UNL     1      -7.649  13.525  70.931  1.00  0.00     2.516 OA 
HETATM   34  C   UNL     1      -5.879  14.977  71.432  1.00  0.00     0.226 C  
ENDBRANCH  31  32
ENDBRANCH  22  31
BRANCH  26  35
HETATM   35  C   UNL     1      -8.069  17.600  65.342  1.00  0.00     1.296 C  
BRANCH  35  36
HETATM   36  C   UNL     1      -9.563  17.723  65.245  1.00  0.00     1.405 C  
HETATM   37  C   UNL     1     -10.421  16.732  64.936  1.00  0.00     0.247 C  
HETATM   38  C   UNL     1     -11.891  17.013  64.870  1.00  0.00     1.753 C  
HETATM   39  C   UNL     1     -10.024  15.315  64.609  1.00  0.00     0.588 C  
ENDBRANCH  35  36
ENDBRANCH  26  35
TORSDOF 4
ENDMDL
MODEL      114
REMARK 921   NORMALIZED FREE ENERGY PREDICTED BY IDOCK:   16.45 KCAL/MOL
REMARK 922        TOTAL FREE ENERGY PREDICTED BY IDOCK:   20.12 KCAL/MOL
REMARK 923 INTER-LIGAND FREE ENERGY PREDICTED BY IDOCK:   15.75 KCAL/MOL
REMARK 924 INTRA-LIGAND FREE ENERGY PREDICTED BY IDOCK:    4.36 KCAL/MOL
REMARK 927      BINDING AFFINITY PREDICTED BY RF-SCORE:    0.00 PKD
ROOT
HETATM    1  O   UNL     1      -7.777   1.966  70.406  1.00  0.00    -0.039 OA 
HETATM    2  H   UNL     1      -8.198   1.636  71.191  1.00  0.00     0.000 HD 
HETATM    3  C   UNL     1      -8.393   3.149  69.924  1.00  0.00    -0.048 C  
HETATM    4  C   UNL     1      -7.714   3.682  68.657  1.00  0.00    -0.056 C  
HETATM    5  C   UNL     1      -8.406   4.982  68.102  1.00  0.00    -0.096 C  
HETATM    6  C   UNL     1      -8.445   6.131  69.206  1.00  0.00    -0.119 C  
HETATM    7  C   UNL     1      -6.950   6.489  69.245  1.00  0.00    -0.071 C  
HETATM    8  C   UNL     1      -9.209   5.395  70.363  1.00  0.00    -0.190 C  
HETATM    9  C   UNL     1      -8.472   4.214  71.024  1.00  0.00    -0.104 C  
HETATM   10  C   UNL     1     -10.140   6.093  71.338  1.00  0.00    -0.230 C  
HETATM   11  C   UNL     1     -10.922   7.283  70.682  1.00  0.00    -0.278 C  
HETATM   12  C   UNL     1      -7.159   4.521  71.772  1.00  0.00    -0.055 C  
HETATM   13  C   UNL     1      -9.877   8.348  70.188  1.00  0.00    -0.183 C  
HETATM   14  C   UNL     1      -9.416   8.600  71.729  1.00  0.00    -0.354 C  
HETATM   15  C   UNL     1      -9.216   7.509  68.871  1.00  0.00    -0.142 C  
HETATM   16  C   UNL     1      -8.588   8.316  67.629  1.00  0.00    -0.130 C  
HETATM   17  C   UNL     1      -9.300   9.612  67.231  1.00  0.00    -0.163 C  
HETATM   18  O   UNL     1      -7.218   8.651  67.767  1.00  0.00    -0.085 OA 
HETATM   19  C   UNL     1      -9.485  10.576  68.385  1.00  0.00    -0.158 C  
HETATM   20  H   UNL     1      -6.848   9.127  67.034  1.00  0.00     0.000 HD 
HETATM   21  C   UNL     1      -8.099  11.226  68.973  1.00  0.00    -0.045 C  
HETATM   22  C   UNL     1      -8.006  10.404  70.213  1.00  0.00     0.462 C  
HETATM   23  C   UNL     1      -7.786  12.557  69.109  1.00  0.00     0.366 C  
HETATM   24  C   UNL     1      -9.526  10.844  70.648  1.00  0.00     2.794 C  
HETATM   25  C   UNL     1      -7.504  13.117  70.529  1.00  0.00     2.986 C  
HETATM   26  C   UNL     1      -6.892  13.297  68.143  1.00  0.00    -0.114 C  
HETATM   27  O   UNL     1      -6.623  14.141  70.483  1.00  0.00    -0.068 OA 
HETATM   28  C   UNL     1     -11.775  10.075  69.646  1.00  0.00    -0.098 C  
HETATM   29  C   UNL     1     -10.269   9.884  69.672  1.00  0.00    -0.261 C  
HETATM   30  O   UNL     1      -7.897  12.740  71.609  1.00  0.00     8.483 OA 
ENDROOT
BRANCH  22  31
HETATM   31  O   UNL     1      -6.716  10.404  70.885  1.00  0.00    -0.341 OA 
BRANCH  31  32
HETATM   32  C   UNL     1      -6.508   9.485  71.899  1.00  0.00     0.312 C  
HETATM   33  O   UNL     1      -5.403   9.032  72.193  1.00  0.00    -0.049 OA 
HETATM   34  C   UNL     1      -7.708   8.863  72.586  1.00  0.00     0.287 C  
ENDBRANCH  31  32
ENDBRANCH  22  31
BRANCH  26  35
HETATM   35  C   UNL     1      -6.790  12.750  66.738  1.00  0.00     0.673 C  
BRANCH  35  36
HETATM   36  C   UNL     1      -7.925  13.327  65.942  1.00  0.00     2.484 C  
HETATM   37  C   UNL     1      -8.966  12.640  65.433  1.00  0.00     0.751 C  
HETATM   38  C   UNL     1     -10.021  13.358  64.650  1.00  0.00    -0.132 C  
HETATM   39  C   UNL     1      -9.161  11.151  65.556  1.00  0.00    -0.236 C  
ENDBRANCH  35  36
ENDBRANCH  26  35
TORSDOF 4
ENDMDL
MODEL      115
REMARK 921   NORMALIZED FREE ENERGY PREDICTED BY IDOCK:   17.56 KCAL/MOL
REMARK 922        TOTAL FREE ENERGY PREDICTED BY IDOCK:   21.49 KCAL/MOL
REMARK 923 INTER-LIGAND FREE ENERGY PREDICTED BY IDOCK:   21.83 KCAL/MOL
REMARK 924 INTRA-LIGAND FREE ENERGY PREDICTED BY IDOCK:   -0.34 KCAL/MOL
REMARK 927      BINDING AFFINITY PREDICTED BY RF-SCORE:    0.00 PKD
ROOT
HETATM    1  O   UNL     1     -11.831   1.478  62.878  1.00  0.00    -0.377 OA 
HETATM    2  H   UNL     1     -12.457   0.957  63.368  1.00  0.00     0.000 HD 
HETATM    3  C   UNL     1     -11.758   2.813  63.352  1.00  0.00     1.403 C  
HETATM    4  C   UNL     1     -10.748   3.655  62.563  1.00  0.00    -0.179 C  
HETATM    5  C   UNL     1     -10.678   5.143  63.067  1.00  0.00     1.815 C  
HETATM    6  C   UNL     1     -10.325   5.211  64.620  1.00  0.00     0.921 C  
HETATM    7  C   UNL     1      -8.855   4.765  64.561  1.00  0.00    -0.147 C  
HETATM    8  C   UNL     1     -11.490   4.344  65.220  1.00  0.00     0.970 C  
HETATM    9  C   UNL     1     -11.479   2.846  64.859  1.00  0.00     3.036 C  
HETATM   10  C   UNL     1     -12.109   4.591  66.582  1.00  0.00     7.564 C  
HETATM   11  C   UNL     1     -12.156   6.111  66.962  1.00  0.00     3.123 C  
HETATM   12  C   UNL     1     -10.285   2.002  65.350  1.00  0.00     1.193 C  
HETATM   13  C   UNL     1     -10.680   6.652  67.013  1.00  0.00    -0.437 C  
HETATM   14  C   UNL     1     -10.364   5.647  68.256  1.00  0.00    -0.253 C  
HETATM   15  C   UNL     1     -10.317   6.646  65.357  1.00  0.00     2.299 C  
HETATM   16  C   UNL     1      -9.228   7.672  64.764  1.00  0.00     1.125 C  
HETATM   17  C   UNL     1      -9.198   9.069  65.390  1.00  0.00    -0.241 C  
HETATM   18  O   UNL     1      -7.891   7.204  64.793  1.00  0.00    -0.115 OA 
HETATM   19  C   UNL     1      -9.065   9.049  66.899  1.00  0.00    -0.161 C  
HETATM   20  H   UNL     1      -7.249   7.809  64.442  1.00  0.00     0.000 HD 
HETATM   21  C   UNL     1      -7.628   8.495  67.461  1.00  0.00    -0.098 C  
HETATM   22  C   UNL     1      -8.091   7.146  67.896  1.00  0.00    -0.119 C  
HETATM   23  C   UNL     1      -6.754   9.132  68.309  1.00  0.00    -0.060 C  
HETATM   24  C   UNL     1      -9.276   7.822  68.809  1.00  0.00    -0.139 C  
HETATM   25  C   UNL     1      -6.435   8.480  69.681  1.00  0.00    -0.039 C  
HETATM   26  C   UNL     1      -5.499   9.825  67.832  1.00  0.00    -0.039 C  
HETATM   27  O   UNL     1      -5.182   8.787  70.086  1.00  0.00    -0.028 OA 
HETATM   28  C   UNL     1     -11.470   8.935  68.035  1.00  0.00     1.092 C  
HETATM   29  C   UNL     1     -10.243   8.138  67.630  1.00  0.00    -0.296 C  
HETATM   30  O   UNL     1      -7.096   7.733  70.363  1.00  0.00    -0.049 OA 
ENDROOT
BRANCH  22  31
HETATM   31  O   UNL     1      -7.050   6.162  68.147  1.00  0.00    -0.077 OA 
BRANCH  31  32
HETATM   32  C   UNL     1      -6.502   5.500  67.063  1.00  0.00    -0.044 C  
HETATM   33  O   UNL     1      -6.012   6.071  66.090  1.00  0.00    -0.026 OA 
HETATM   34  C   UNL     1      -6.651   3.994  66.968  1.00  0.00    -0.046 C  
ENDBRANCH  31  32
ENDBRANCH  22  31
BRANCH  26  35
HETATM   35  C   UNL     1      -5.478  10.307  66.400  1.00  0.00    -0.053 C  
BRANCH  35  36
HETATM   36  C   UNL     1      -6.457  11.440  66.288  1.00  0.00     0.033 C  
HETATM   37  C   UNL     1      -6.542  12.499  67.117  1.00  0.00    -0.061 C  
HETATM   38  C   UNL     1      -7.583  13.550  66.879  1.00  0.00     0.410 C  
HETATM   39  C   UNL     1      -5.673  12.721  68.328  1.00  0.00    -0.069 C  
ENDBRANCH  35  36
ENDBRANCH  26  35
TORSDOF 4
ENDMDL
MODEL      116
REMARK 921   NORMALIZED FREE ENERGY PREDICTED BY IDOCK:   17.81 KCAL/MOL
REMARK 922        TOTAL FREE ENERGY PREDICTED BY IDOCK:   21.79 KCAL/MOL
REMARK 923 INTER-LIGAND FREE ENERGY PREDICTED BY IDOCK:   15.34 KCAL/MOL
REMARK 924 INTRA-LIGAND FREE ENERGY PREDICTED BY IDOCK:    6.45 KCAL/MOL
REMARK 927      BINDING AFFINITY PREDICTED BY RF-SCORE:    0.00 PKD
ROOT
HETATM    1  O   UNL     1      -8.340  14.357  64.621  1.00  0.00     4.621 OA 
HETATM    2  H   UNL     1      -7.591  14.924  64.765  1.00  0.00     0.000 HD 
HETATM    3  C   UNL     1      -8.091  13.024  65.035  1.00  0.00     4.711 C  
HETATM    4  C   UNL     1      -9.299  12.109  64.803  1.00  0.00     0.270 C  
HETATM    5  C   UNL     1      -9.023  10.623  65.238  1.00  0.00    -0.209 C  
HETATM    6  C   UNL     1      -8.583  10.541  66.768  1.00  0.00    -0.126 C  
HETATM    7  C   UNL     1      -9.927  10.883  67.432  1.00  0.00    -0.215 C  
HETATM    8  C   UNL     1      -7.332  11.490  66.760  1.00  0.00    -0.111 C  
HETATM    9  C   UNL     1      -7.610  12.982  66.490  1.00  0.00     0.990 C  
HETATM   10  C   UNL     1      -6.120  11.296  67.652  1.00  0.00    -0.051 C  
HETATM   11  C   UNL     1      -5.800   9.785  67.921  1.00  0.00    -0.040 C  
HETATM   12  C   UNL     1      -8.473  13.744  67.516  1.00  0.00    -0.199 C  
HETATM   13  C   UNL     1      -7.032   9.143  68.658  1.00  0.00    -0.063 C  
HETATM   14  C   UNL     1      -6.778  10.132  69.927  1.00  0.00    -0.110 C  
HETATM   15  C   UNL     1      -8.145   9.113  67.379  1.00  0.00    -0.107 C  
HETATM   16  C   UNL     1      -9.317   8.011  67.351  1.00  0.00    -0.145 C  
HETATM   17  C   UNL     1      -8.953   6.619  67.877  1.00  0.00    -0.112 C  
HETATM   18  O   UNL     1     -10.503   8.385  68.030  1.00  0.00    -0.256 OA 
HETATM   19  C   UNL     1      -8.347   6.640  69.265  1.00  0.00    -0.124 C  
HETATM   20  H   UNL     1     -11.195   7.735  68.013  1.00  0.00     0.000 HD 
HETATM   21  C   UNL     1      -9.371   7.096  70.462  1.00  0.00    -0.158 C  
HETATM   22  C   UNL     1      -8.843   8.476  70.658  1.00  0.00    -0.155 C  
HETATM   23  C   UNL     1      -9.688   6.405  71.607  1.00  0.00    -0.174 C  
HETATM   24  C   UNL     1      -7.325   7.890  70.874  1.00  0.00    -0.057 C  
HETATM   25  C   UNL     1      -9.351   7.043  72.981  1.00  0.00    -0.147 C  
HETATM   26  C   UNL     1     -10.970   5.625  71.770  1.00  0.00    -0.290 C  
HETATM   27  O   UNL     1     -10.234   6.653  73.928  1.00  0.00    -0.288 OA 
HETATM   28  C   UNL     1      -5.705   6.927  69.113  1.00  0.00    -0.018 C  
HETATM   29  C   UNL     1      -7.024   7.634  69.367  1.00  0.00    -0.063 C  
HETATM   30  O   UNL     1      -8.493   7.839  73.283  1.00  0.00    -0.141 OA 
ENDROOT
BRANCH  22  31
HETATM   31  O   UNL     1      -9.696   9.388  71.404  1.00  0.00    -0.236 OA 
BRANCH  31  32
HETATM   32  C   UNL     1     -10.941   9.692  70.882  1.00  0.00    -0.342 C  
HETATM   33  O   UNL     1     -11.113  10.172  69.763  1.00  0.00    -0.246 OA 
HETATM   34  C   UNL     1     -12.159   9.594  71.780  1.00  0.00    -0.446 C  
ENDBRANCH  31  32
ENDBRANCH  22  31
BRANCH  26  35
HETATM   35  C   UNL     1     -11.645   5.132  70.511  1.00  0.00     1.971 C  
BRANCH  35  36
HETATM   36  C   UNL     1     -11.921   6.328  69.646  1.00  0.00     0.473 C  
HETATM   37  C   UNL     1     -11.822   6.375  68.303  1.00  0.00     1.326 C  
HETATM   38  C   UNL     1     -12.124   7.650  67.577  1.00  0.00     4.056 C  
HETATM   39  C   UNL     1     -11.389   5.226  67.428  1.00  0.00     1.549 C  
ENDBRANCH  35  36
ENDBRANCH  26  35
TORSDOF 4
ENDMDL
MODEL      117
REMARK 921   NORMALIZED FREE ENERGY PREDICTED BY IDOCK:   18.76 KCAL/MOL
REMARK 922        TOTAL FREE ENERGY PREDICTED BY IDOCK:   22.96 KCAL/MOL
REMARK 923 INTER-LIGAND FREE ENERGY PREDICTED BY IDOCK:   11.40 KCAL/MOL
REMARK 924 INTRA-LIGAND FREE ENERGY PREDICTED BY IDOCK:   11.56 KCAL/MOL
REMARK 927      BINDING AFFINITY PREDICTED BY RF-SCORE:    0.00 PKD
ROOT
HETATM    1  O   UNL     1     -13.345   6.760  72.557  1.00  0.00    -0.289 OA 
HETATM    2  H   UNL     1     -14.140   6.361  72.223  1.00  0.00     0.000 HD 
HETATM    3  C   UNL     1     -12.440   7.100  71.519  1.00  0.00    -0.381 C  
HETATM    4  C   UNL     1     -11.157   7.745  72.056  1.00  0.00    -0.318 C  
HETATM    5  C   UNL     1     -10.137   8.104  70.912  1.00  0.00    -0.215 C  
HETATM    6  C   UNL     1     -10.801   9.067  69.829  1.00  0.00    -0.215 C  
HETATM    7  C   UNL     1     -10.896  10.354  70.665  1.00  0.00    -0.090 C  
HETATM    8  C   UNL     1     -12.036   8.202  69.391  1.00  0.00     1.760 C  
HETATM    9  C   UNL     1     -13.122   7.974  70.461  1.00  0.00     0.764 C  
HETATM   10  C   UNL     1     -12.619   8.212  67.991  1.00  0.00     7.924 C  
HETATM   11  C   UNL     1     -11.530   8.416  66.881  1.00  0.00     2.174 C  
HETATM   12  C   UNL     1     -13.879   9.212  70.984  1.00  0.00    -0.017 C  
HETATM   13  C   UNL     1     -10.844   9.812  67.114  1.00  0.00    -0.207 C  
HETATM   14  C   UNL     1     -12.266  10.550  66.819  1.00  0.00     3.622 C  
HETATM   15  C   UNL     1      -9.954   9.462  68.513  1.00  0.00    -0.190 C  
HETATM   16  C   UNL     1      -8.600  10.270  68.834  1.00  0.00    -0.150 C  
HETATM   17  C   UNL     1      -7.726  10.638  67.631  1.00  0.00    -0.097 C  
HETATM   18  O   UNL     1      -8.781  11.471  69.564  1.00  0.00    -0.113 OA 
HETATM   19  C   UNL     1      -8.480  11.377  66.545  1.00  0.00    -0.170 C  
HETATM   20  H   UNL     1      -7.982  11.948  69.754  1.00  0.00     0.000 HD 
HETATM   21  C   UNL     1      -8.984  12.883  66.952  1.00  0.00    -0.210 C  
HETATM   22  C   UNL     1     -10.425  12.559  67.159  1.00  0.00    -0.224 C  
HETATM   23  C   UNL     1      -8.721  14.064  66.301  1.00  0.00     0.331 C  
HETATM   24  C   UNL     1     -10.516  11.896  65.660  1.00  0.00    -0.302 C  
HETATM   25  C   UNL     1      -9.909  14.879  65.722  1.00  0.00    -0.348 C  
HETATM   26  C   UNL     1      -7.680  15.051  66.771  1.00  0.00     0.174 C  
HETATM   27  O   UNL     1      -9.638  16.203  65.726  1.00  0.00    -0.374 OA 
HETATM   28  C   UNL     1      -9.560   9.648  64.832  1.00  0.00    -0.244 C  
HETATM   29  C   UNL     1      -9.820  10.550  66.025  1.00  0.00    -0.277 C  
HETATM   30  O   UNL     1     -10.999  14.512  65.349  1.00  0.00    -0.309 OA 
ENDROOT
BRANCH  22  31
HETATM   31  O   UNL     1     -11.207  13.551  67.881  1.00  0.00    -0.254 OA 
BRANCH  31  32
HETATM   32  C   UNL     1     -10.560  14.337  68.818  1.00  0.00    -0.252 C  
HETATM   33  O   UNL     1      -9.442  14.085  69.266  1.00  0.00     0.136 OA 
HETATM   34  C   UNL     1     -11.315  15.481  69.466  1.00  0.00    -0.317 C  
ENDBRANCH  31  32
ENDBRANCH  22  31
BRANCH  26  35
HETATM   35  C   UNL     1      -6.547  14.511  67.614  1.00  0.00    -0.174 C  
BRANCH  35  36
HETATM   36  C   UNL     1      -7.057  13.300  68.340  1.00  0.00    -0.107 C  
HETATM   37  C   UNL     1      -6.543  12.779  69.471  1.00  0.00    -0.031 C  
HETATM   38  C   UNL     1      -7.160  11.555  70.075  1.00  0.00     0.497 C  
HETATM   39  C   UNL     1      -5.338  13.316  70.200  1.00  0.00    -0.105 C  
ENDBRANCH  35  36
ENDBRANCH  26  35
TORSDOF 4
ENDMDL
MODEL      118
REMARK 921   NORMALIZED FREE ENERGY PREDICTED BY IDOCK:   19.18 KCAL/MOL
REMARK 922        TOTAL FREE ENERGY PREDICTED BY IDOCK:   23.49 KCAL/MOL
REMARK 923 INTER-LIGAND FREE ENERGY PREDICTED BY IDOCK:   20.30 KCAL/MOL
REMARK 924 INTRA-LIGAND FREE ENERGY PREDICTED BY IDOCK:    3.18 KCAL/MOL
REMARK 927      BINDING AFFINITY PREDICTED BY RF-SCORE:    0.00 PKD
ROOT
HETATM    1  O   UNL     1     -13.976  13.646  74.388  1.00  0.00     5.591 OA 
HETATM    2  H   UNL     1     -14.266  12.744  74.468  1.00  0.00     0.000 HD 
HETATM    3  C   UNL     1     -12.847  13.773  73.540  1.00  0.00     1.319 C  
HETATM    4  C   UNL     1     -12.379  15.227  73.410  1.00  0.00    -0.620 C  
HETATM    5  C   UNL     1     -11.112  15.374  72.490  1.00  0.00     0.121 C  
HETATM    6  C   UNL     1     -11.380  14.773  71.038  1.00  0.00    -0.188 C  
HETATM    7  C   UNL     1     -12.356  15.835  70.506  1.00  0.00    -0.388 C  
HETATM    8  C   UNL     1     -11.786  13.301  71.405  1.00  0.00     0.779 C  
HETATM    9  C   UNL     1     -13.111  13.132  72.173  1.00  0.00    -0.481 C  
HETATM   10  C   UNL     1     -11.486  12.100  70.529  1.00  0.00     0.428 C  
HETATM   11  C   UNL     1     -10.128  12.236  69.756  1.00  0.00     1.433 C  
HETATM   12  C   UNL     1     -14.410  13.560  71.459  1.00  0.00     0.547 C  
HETATM   13  C   UNL     1     -10.221  13.492  68.814  1.00  0.00    -0.139 C  
HETATM   14  C   UNL     1     -11.414  12.765  67.976  1.00  0.00    -0.364 C  
HETATM   15  C   UNL     1     -10.165  14.725  69.977  1.00  0.00     0.147 C  
HETATM   16  C   UNL     1      -9.585  16.175  69.591  1.00  0.00    -0.060 C  
HETATM   17  C   UNL     1      -8.401  16.198  68.621  1.00  0.00    -0.211 C  
HETATM   18  O   UNL     1     -10.541  17.077  69.060  1.00  0.00    -0.325 OA 
HETATM   19  C   UNL     1      -8.657  15.428  67.341  1.00  0.00    -0.197 C  
HETATM   20  H   UNL     1     -10.198  17.933  68.833  1.00  0.00     0.000 HD 
HETATM   21  C   UNL     1      -9.795  16.080  66.357  1.00  0.00    -0.308 C  
HETATM   22  C   UNL     1     -10.896  15.123  66.667  1.00  0.00    -0.318 C  
HETATM   23  C   UNL     1      -9.662  16.434  65.036  1.00  0.00     0.982 C  
HETATM   24  C   UNL     1      -9.927  13.851  66.294  1.00  0.00    -0.315 C  
HETATM   25  C   UNL     1     -10.550  15.726  63.979  1.00  0.00     1.883 C  
HETATM   26  C   UNL     1      -9.465  17.861  64.581  1.00  0.00     5.060 C  
HETATM   27  O   UNL     1     -10.813  16.545  62.935  1.00  0.00     3.995 OA 
HETATM   28  C   UNL     1      -7.956  12.878  67.643  1.00  0.00    -0.167 C  
HETATM   29  C   UNL     1      -9.114  13.859  67.623  1.00  0.00    -0.197 C  
HETATM   30  O   UNL     1     -11.056  14.628  63.993  1.00  0.00     0.106 OA 
ENDROOT
BRANCH  22  31
HETATM   31  O   UNL     1     -12.233  15.533  66.267  1.00  0.00     0.572 OA 
BRANCH  31  32
HETATM   32  C   UNL     1     -13.015  14.626  65.575  1.00  0.00     0.129 C  
HETATM   33  O   UNL     1     -14.067  14.922  65.011  1.00  0.00     1.369 OA 
HETATM   34  C   UNL     1     -12.666  13.152  65.643  1.00  0.00    -0.299 C  
ENDBRANCH  31  32
ENDBRANCH  22  31
BRANCH  26  35
HETATM   35  C   UNL     1      -8.857  18.825  65.574  1.00  0.00     1.031 C  
BRANCH  35  36
HETATM   36  C   UNL     1      -9.915  19.163  66.585  1.00  0.00    -0.444 C  
HETATM   37  C   UNL     1      -9.700  19.618  67.835  1.00  0.00    -0.482 C  
HETATM   38  C   UNL     1     -10.863  19.904  68.734  1.00  0.00     0.537 C  
HETATM   39  C   UNL     1      -8.343  19.849  68.449  1.00  0.00    -0.223 C  
ENDBRANCH  35  36
ENDBRANCH  26  35
TORSDOF 4
ENDMDL
MODEL      119
REMARK 921   NORMALIZED FREE ENERGY PREDICTED BY IDOCK:   22.41 KCAL/MOL
REMARK 922        TOTAL FREE ENERGY PREDICTED BY IDOCK:   27.47 KCAL/MOL
REMARK 923 INTER-LIGAND FREE ENERGY PREDICTED BY IDOCK:   19.19 KCAL/MOL
REMARK 924 INTRA-LIGAND FREE ENERGY PREDICTED BY IDOCK:    8.28 KCAL/MOL
REMARK 927      BINDING AFFINITY PREDICTED BY RF-SCORE:    0.00 PKD
ROOT
HETATM    1  O   UNL     1      -5.173  20.916  70.763  1.00  0.00    -0.475 OA 
HETATM    2  H   UNL     1      -5.512  21.782  70.958  1.00  0.00     0.000 HD 
HETATM    3  C   UNL     1      -6.173  19.915  70.856  1.00  0.00    -0.165 C  
HETATM    4  C   UNL     1      -5.626  18.518  70.541  1.00  0.00    -0.198 C  
HETATM    5  C   UNL     1      -6.725  17.398  70.665  1.00  0.00     1.881 C  
HETATM    6  C   UNL     1      -7.971  17.705  69.720  1.00  0.00     1.151 C  
HETATM    7  C   UNL     1      -7.317  17.440  68.353  1.00  0.00    -0.227 C  
HETATM    8  C   UNL     1      -8.387  19.126  70.242  1.00  0.00     1.697 C  
HETATM    9  C   UNL     1      -7.384  20.267  69.985  1.00  0.00     0.500 C  
HETATM   10  C   UNL     1      -9.818  19.629  70.266  1.00  0.00     0.754 C  
HETATM   11  C   UNL     1     -10.857  18.491  70.553  1.00  0.00     2.618 C  
HETATM   12  C   UNL     1      -7.084  20.637  68.518  1.00  0.00     0.018 C  
HETATM   13  C   UNL     1     -10.755  17.428  69.399  1.00  0.00     0.124 C  
HETATM   14  C   UNL     1     -11.250  18.552  68.329  1.00  0.00     0.758 C  
HETATM   15  C   UNL     1      -9.257  16.733  69.784  1.00  0.00     0.721 C  
HETATM   16  C   UNL     1      -8.940  15.211  69.367  1.00  0.00    -0.176 C  
HETATM   17  C   UNL     1     -10.109  14.226  69.449  1.00  0.00     0.111 C  
HETATM   18  O   UNL     1      -8.386  15.051  68.073  1.00  0.00    -0.141 OA 
HETATM   19  C   UNL     1     -11.337  14.685  68.690  1.00  0.00    -0.305 C  
HETATM   20  H   UNL     1      -8.199  14.153  67.827  1.00  0.00     0.000 HD 
HETATM   21  C   UNL     1     -11.167  14.730  67.060  1.00  0.00    -0.347 C  
HETATM   22  C   UNL     1     -11.031  16.208  66.916  1.00  0.00    -0.094 C  
HETATM   23  C   UNL     1     -11.943  14.104  66.115  1.00  0.00    -0.437 C  
HETATM   24  C   UNL     1     -12.435  16.440  67.735  1.00  0.00     2.077 C  
HETATM   25  C   UNL     1     -12.711  14.972  65.083  1.00  0.00     0.296 C  
HETATM   26  C   UNL     1     -11.524  12.832  65.416  1.00  0.00    -0.363 C  
HETATM   27  O   UNL     1     -12.857  14.318  63.909  1.00  0.00    -0.619 OA 
HETATM   28  C   UNL     1     -12.890  16.172  70.260  1.00  0.00     0.902 C  
HETATM   29  C   UNL     1     -11.847  16.192  69.157  1.00  0.00    -0.182 C  
HETATM   30  O   UNL     1     -13.117  16.108  65.167  1.00  0.00     2.147 OA 
ENDROOT
BRANCH  22  31
HETATM   31  O   UNL     1     -10.506  16.683  65.646  1.00  0.00    -0.438 OA 
BRANCH  31  32
HETATM   32  C   UNL     1     -10.364  15.769  64.616  1.00  0.00     0.384 C  
HETATM   33  O   UNL     1      -9.481  14.914  64.579  1.00  0.00     0.757 OA 
HETATM   34  C   UNL     1     -11.226  15.917  63.377  1.00  0.00     2.889 C  
ENDBRANCH  31  32
ENDBRANCH  22  31
BRANCH  26  35
HETATM   35  C   UNL     1     -10.535  11.942  66.133  1.00  0.00    -0.272 C  
BRANCH  35  36
HETATM   36  C   UNL     1     -11.308  10.820  66.764  1.00  0.00     0.094 C  
HETATM   37  C   UNL     1     -11.851  10.827  67.997  1.00  0.00     0.047 C  
HETATM   38  C   UNL     1     -12.589   9.622  68.492  1.00  0.00     4.084 C  
HETATM   39  C   UNL     1     -11.757  11.968  68.977  1.00  0.00    -0.382 C  
ENDBRANCH  35  36
ENDBRANCH  26  35
TORSDOF 4
ENDMDL
MODEL      120
REMARK 921   NORMALIZED FREE ENERGY PREDICTED BY IDOCK:   23.50 KCAL/MOL
REMARK 922        TOTAL FREE ENERGY PREDICTED BY IDOCK:   28.82 KCAL/MOL
REMARK 923 INTER-LIGAND FREE ENERGY PREDICTED BY IDOCK:   26.61 KCAL/MOL
REMARK 924 INTRA-LIGAND FREE ENERGY PREDICTED BY IDOCK:    2.21 KCAL/MOL
REMARK 927      BINDING AFFINITY PREDICTED BY RF-SCORE:    0.00 PKD
ROOT
HETATM    1  O   UNL     1      -5.130  19.648  63.880  1.00  0.00    -0.158 OA 
HETATM    2  H   UNL     1      -5.273  19.507  62.951  1.00  0.00     0.000 HD 
HETATM    3  C   UNL     1      -6.326  19.516  64.631  1.00  0.00    -0.161 C  
HETATM    4  C   UNL     1      -6.097  19.742  66.130  1.00  0.00    -0.189 C  
HETATM    5  C   UNL     1      -7.423  19.621  66.968  1.00  0.00    -0.258 C  
HETATM    6  C   UNL     1      -8.118  18.204  66.747  1.00  0.00    -0.266 C  
HETATM    7  C   UNL     1      -7.115  17.314  67.500  1.00  0.00    -0.181 C  
HETATM    8  C   UNL     1      -8.298  18.210  65.187  1.00  0.00     2.402 C  
HETATM    9  C   UNL     1      -7.004  18.170  64.351  1.00  0.00     3.556 C  
HETATM   10  C   UNL     1      -9.453  17.538  64.469  1.00  0.00     5.527 C  
HETATM   11  C   UNL     1     -10.789  17.589  65.287  1.00  0.00     0.123 C  
HETATM   12  C   UNL     1      -6.112  16.918  64.477  1.00  0.00     5.924 C  
HETATM   13  C   UNL     1     -10.568  16.819  66.641  1.00  0.00    -0.198 C  
HETATM   14  C   UNL     1     -10.329  15.440  65.808  1.00  0.00    -0.381 C  
HETATM   15  C   UNL     1      -9.551  17.921  67.432  1.00  0.00    -0.271 C  
HETATM   16  C   UNL     1      -9.524  17.987  69.040  1.00  0.00    -0.105 C  
HETATM   17  C   UNL     1     -10.863  17.772  69.752  1.00  0.00     1.039 C  
HETATM   18  O   UNL     1      -8.608  17.100  69.657  1.00  0.00     0.417 OA 
HETATM   19  C   UNL     1     -11.567  16.496  69.335  1.00  0.00     0.090 C  
HETATM   20  H   UNL     1      -8.592  17.139  70.605  1.00  0.00     0.000 HD 
HETATM   21  C   UNL     1     -10.819  15.111  69.793  1.00  0.00    -0.298 C  
HETATM   22  C   UNL     1     -10.252  14.745  68.463  1.00  0.00    -0.232 C  
HETATM   23  C   UNL     1     -11.342  14.076  70.529  1.00  0.00     0.065 C  
HETATM   24  C   UNL     1     -11.739  14.843  67.776  1.00  0.00    -0.340 C  
HETATM   25  C   UNL     1     -11.429  12.668  69.882  1.00  0.00    -0.081 C  
HETATM   26  C   UNL     1     -11.057  13.883  71.999  1.00  0.00     3.127 C  
HETATM   27  O   UNL     1     -11.314  11.695  70.815  1.00  0.00     0.370 OA 
HETATM   28  C   UNL     1     -13.122  16.949  67.223  1.00  0.00     6.234 C  
HETATM   29  C   UNL     1     -11.789  16.398  67.695  1.00  0.00     0.641 C  
HETATM   30  O   UNL     1     -11.519  12.347  68.720  1.00  0.00    -0.256 OA 
ENDROOT
BRANCH  22  31
HETATM   31  O   UNL     1      -9.200  13.740  68.471  1.00  0.00    -0.195 OA 
BRANCH  31  32
HETATM   32  C   UNL     1      -7.893  14.164  68.629  1.00  0.00    -0.137 C  
HETATM   33  O   UNL     1      -7.504  14.834  69.585  1.00  0.00    -0.157 OA 
HETATM   34  C   UNL     1      -6.907  13.947  67.498  1.00  0.00    -0.148 C  
ENDBRANCH  31  32
ENDBRANCH  22  31
BRANCH  26  35
HETATM   35  C   UNL     1     -10.666  15.108  72.794  1.00  0.00     1.688 C  
BRANCH  35  36
HETATM   36  C   UNL     1     -11.931  15.787  73.234  1.00  0.00    -0.560 C  
HETATM   37  C   UNL     1     -13.162  15.572  72.730  1.00  0.00    -0.605 C  
HETATM   38  C   UNL     1     -14.331  16.337  73.270  1.00  0.00     1.035 C  
HETATM   39  C   UNL     1     -13.483  14.617  71.610  1.00  0.00    -0.452 C  
ENDBRANCH  35  36
ENDBRANCH  26  35
TORSDOF 4
ENDMDL
MODEL      121
REMARK 921   NORMALIZED FREE ENERGY PREDICTED BY IDOCK:   26.41 KCAL/MOL
REMARK 922        TOTAL FREE ENERGY PREDICTED BY IDOCK:   32.40 KCAL/MOL
REMARK 923 INTER-LIGAND FREE ENERGY PREDICTED BY IDOCK:   31.28 KCAL/MOL
REMARK 924 INTRA-LIGAND FREE ENERGY PREDICTED BY IDOCK:    1.13 KCAL/MOL
REMARK 927      BINDING AFFINITY PREDICTED BY RF-SCORE:    0.00 PKD
ROOT
HETATM    1  O   UNL     1     -12.617   7.318  73.600  1.00  0.00     1.537 OA 
HETATM    2  H   UNL     1     -12.512   7.467  74.533  1.00  0.00     0.000 HD 
HETATM    3  C   UNL     1     -12.856   8.521  72.888  1.00  0.00     0.168 C  
HETATM    4  C   UNL     1     -13.025   8.281  71.383  1.00  0.00    -0.248 C  
HETATM    5  C   UNL     1     -13.315   9.608  70.589  1.00  0.00     0.042 C  
HETATM    6  C   UNL     1     -12.166  10.686  70.828  1.00  0.00    -0.474 C  
HETATM    7  C   UNL     1     -11.029  10.017  70.039  1.00  0.00    -0.352 C  
HETATM    8  C   UNL     1     -12.204  10.808  72.393  1.00  0.00     1.524 C  
HETATM    9  C   UNL     1     -11.770   9.560  73.185  1.00  0.00     3.175 C  
HETATM   10  C   UNL     1     -11.897  12.089  73.147  1.00  0.00     8.294 C  
HETATM   11  C   UNL     1     -12.354  13.373  72.373  1.00  0.00     0.449 C  
HETATM   12  C   UNL     1     -10.311   9.086  73.025  1.00  0.00     1.526 C  
HETATM   13  C   UNL     1     -11.572  13.433  71.011  1.00  0.00     0.726 C  
HETATM   14  C   UNL     1     -10.173  13.590  71.829  1.00  0.00     8.212 C  
HETATM   15  C   UNL     1     -12.333  12.159  70.190  1.00  0.00    -0.219 C  
HETATM   16  C   UNL     1     -12.409  12.163  68.583  1.00  0.00     0.379 C  
HETATM   17  C   UNL     1     -12.612  13.526  67.915  1.00  0.00     0.602 C  
HETATM   18  O   UNL     1     -11.298  11.572  67.932  1.00  0.00    -0.259 OA 
HETATM   19  C   UNL     1     -11.598  14.565  68.349  1.00  0.00    -0.356 C  
HETATM   20  H   UNL     1     -11.343  11.574  66.984  1.00  0.00     0.000 HD 
HETATM   21  C   UNL     1     -10.059  14.278  67.862  1.00  0.00    -0.233 C  
HETATM   22  C   UNL     1      -9.523  13.806  69.170  1.00  0.00     0.355 C  
HETATM   23  C   UNL     1      -9.237  15.108  67.139  1.00  0.00    -0.226 C  
HETATM   24  C   UNL     1     -10.050  15.174  69.907  1.00  0.00    -0.146 C  
HETATM   25  C   UNL     1      -7.909  15.590  67.784  1.00  0.00    -0.143 C  
HETATM   26  C   UNL     1      -8.988  14.939  65.660  1.00  0.00     0.626 C  
HETATM   27  O   UNL     1      -6.960  15.799  66.844  1.00  0.00    -0.225 OA 
HETATM   28  C   UNL     1     -12.464  15.849  70.515  1.00  0.00    -0.241 C  
HETATM   29  C   UNL     1     -11.548  14.756  69.996  1.00  0.00    -0.332 C  
HETATM   30  O   UNL     1      -7.614  15.736  68.947  1.00  0.00    -0.154 OA 
ENDROOT
BRANCH  22  31
HETATM   31  O   UNL     1      -8.251  13.101  69.124  1.00  0.00     0.270 OA 
BRANCH  31  32
HETATM   32  C   UNL     1      -8.206  11.874  68.485  1.00  0.00    -0.126 C  
HETATM   33  O   UNL     1      -9.186  11.336  67.972  1.00  0.00    -0.149 OA 
HETATM   34  C   UNL     1      -6.933  11.054  68.555  1.00  0.00    -0.070 C  
ENDBRANCH  31  32
ENDBRANCH  22  31
BRANCH  26  35
HETATM   35  C   UNL     1     -10.052  14.225  64.857  1.00  0.00    -0.267 C  
BRANCH  35  36
HETATM   36  C   UNL     1     -11.212  15.165  64.704  1.00  0.00    -0.352 C  
HETATM   37  C   UNL     1     -11.137  16.506  64.597  1.00  0.00    -0.135 C  
HETATM   38  C   UNL     1     -12.391  17.314  64.457  1.00  0.00     4.816 C  
HETATM   39  C   UNL     1      -9.861  17.306  64.637  1.00  0.00     3.287 C  
ENDBRANCH  35  36
ENDBRANCH  26  35
TORSDOF 4
ENDMDL
MODEL      122
REMARK 921   NORMALIZED FREE ENERGY PREDICTED BY IDOCK:   27.32 KCAL/MOL
REMARK 922        TOTAL FREE ENERGY PREDICTED BY IDOCK:   33.53 KCAL/MOL
REMARK 923 INTER-LIGAND FREE ENERGY PREDICTED BY IDOCK:    7.49 KCAL/MOL
REMARK 924 INTRA-LIGAND FREE ENERGY PREDICTED BY IDOCK:   26.03 KCAL/MOL
REMARK 927      BINDING AFFINITY PREDICTED BY RF-SCORE:    0.00 PKD
ROOT
HETATM    1  O   UNL     1      -9.096   8.824  66.582  1.00  0.00    -0.142 OA 
HETATM    2  H   UNL     1      -8.338   8.256  66.656  1.00  0.00     0.000 HD 
HETATM    3  C   UNL     1      -9.052   9.900  67.505  1.00  0.00    -0.134 C  
HETATM    4  C   UNL     1     -10.275  10.817  67.387  1.00  0.00    -0.241 C  
HETATM    5  C   UNL     1     -10.246  11.999  68.424  1.00  0.00    -0.211 C  
HETATM    6  C   UNL     1      -8.917  12.866  68.273  1.00  0.00    -0.175 C  
HETATM    7  C   UNL     1      -9.218  13.552  66.930  1.00  0.00    -0.254 C  
HETATM    8  C   UNL     1      -7.823  11.758  68.475  1.00  0.00    -0.144 C  
HETATM    9  C   UNL     1      -7.737  10.677  67.380  1.00  0.00    -0.106 C  
HETATM   10  C   UNL     1      -6.475  12.011  69.122  1.00  0.00    -0.099 C  
HETATM   11  C   UNL     1      -6.540  13.089  70.260  1.00  0.00     0.407 C  
HETATM   12  C   UNL     1      -7.347  11.132  65.958  1.00  0.00     0.045 C  
HETATM   13  C   UNL     1      -7.019  14.446  69.626  1.00  0.00    -0.086 C  
HETATM   14  C   UNL     1      -5.666  14.491  68.720  1.00  0.00    -0.086 C  
HETATM   15  C   UNL     1      -8.642  14.062  69.321  1.00  0.00     0.420 C  
HETATM   16  C   UNL     1      -9.755  15.223  69.286  1.00  0.00    -0.254 C  
HETATM   17  C   UNL     1      -9.577  16.367  70.289  1.00  0.00     1.190 C  
HETATM   18  O   UNL     1      -9.935  15.838  68.022  1.00  0.00    -0.220 OA 
HETATM   19  C   UNL     1      -8.208  17.013  70.226  1.00  0.00     2.765 C  
HETATM   20  H   UNL     1     -10.592  16.522  68.001  1.00  0.00     0.000 HD 
HETATM   21  C   UNL     1      -7.896  17.843  68.847  1.00  0.00    -0.190 C  
HETATM   22  C   UNL     1      -6.996  16.838  68.211  1.00  0.00    -0.161 C  
HETATM   23  C   UNL     1      -7.512  19.156  68.723  1.00  0.00    -0.379 C  
HETATM   24  C   UNL     1      -6.042  16.813  69.546  1.00  0.00    -0.218 C  
HETATM   25  C   UNL     1      -6.139  19.476  68.073  1.00  0.00    -0.212 C  
HETATM   26  C   UNL     1      -8.465  20.261  68.337  1.00  0.00     0.105 C  
HETATM   27  O   UNL     1      -6.168  20.668  67.436  1.00  0.00    -0.209 OA 
HETATM   28  C   UNL     1      -6.516  15.749  71.847  1.00  0.00     2.515 C  
HETATM   29  C   UNL     1      -6.978  15.917  70.410  1.00  0.00     0.740 C  
HETATM   30  O   UNL     1      -5.130  18.812  68.015  1.00  0.00    -0.170 OA 
ENDROOT
BRANCH  22  31
HETATM   31  O   UNL     1      -6.750  17.010  66.788  1.00  0.00    -0.188 OA 
BRANCH  31  32
HETATM   32  C   UNL     1      -6.140  18.178  66.367  1.00  0.00    -0.181 C  
HETATM   33  O   UNL     1      -5.162  18.676  66.922  1.00  0.00    -0.131 OA 
HETATM   34  C   UNL     1      -6.792  18.994  65.268  1.00  0.00    -0.138 C  
ENDBRANCH  31  32
ENDBRANCH  22  31
BRANCH  26  35
HETATM   35  C   UNL     1      -9.932  20.042  68.627  1.00  0.00    -0.432 C  
BRANCH  35  36
HETATM   36  C   UNL     1     -10.175  18.560  68.647  1.00  0.00    -0.363 C  
HETATM   37  C   UNL     1     -11.204  17.918  68.061  1.00  0.00     0.334 C  
HETATM   38  C   UNL     1     -11.315  16.429  68.176  1.00  0.00    -0.205 C  
HETATM   39  C   UNL     1     -12.315  18.586  67.293  1.00  0.00     4.300 C  
ENDBRANCH  35  36
ENDBRANCH  26  35
TORSDOF 4
ENDMDL
MODEL      123
REMARK 921   NORMALIZED FREE ENERGY PREDICTED BY IDOCK:   28.83 KCAL/MOL
REMARK 922        TOTAL FREE ENERGY PREDICTED BY IDOCK:   35.39 KCAL/MOL
REMARK 923 INTER-LIGAND FREE ENERGY PREDICTED BY IDOCK:   31.79 KCAL/MOL
REMARK 924 INTRA-LIGAND FREE ENERGY PREDICTED BY IDOCK:    3.60 KCAL/MOL
REMARK 927      BINDING AFFINITY PREDICTED BY RF-SCORE:    0.00 PKD
ROOT
HETATM    1  O   UNL     1     -11.082  17.098  71.759  1.00  0.00     0.288 OA 
HETATM    2  H   UNL     1     -11.992  17.365  71.817  1.00  0.00     0.000 HD 
HETATM    3  C   UNL     1     -10.934  15.688  71.787  1.00  0.00     0.093 C  
HETATM    4  C   UNL     1      -9.466  15.256  71.693  1.00  0.00     3.557 C  
HETATM    5  C   UNL     1      -9.291  13.694  71.747  1.00  0.00    11.258 C  
HETATM    6  C   UNL     1     -10.127  12.979  70.594  1.00  0.00     4.942 C  
HETATM    7  C   UNL     1      -9.291  13.408  69.377  1.00  0.00     0.982 C  
HETATM    8  C   UNL     1     -11.570  13.513  70.910  1.00  0.00     0.433 C  
HETATM    9  C   UNL     1     -11.797  15.024  70.708  1.00  0.00    -0.372 C  
HETATM   10  C   UNL     1     -12.837  12.715  70.663  1.00  0.00    -0.021 C  
HETATM   11  C   UNL     1     -12.639  11.176  70.888  1.00  0.00    -0.483 C  
HETATM   12  C   UNL     1     -11.651  15.583  69.278  1.00  0.00    -0.369 C  
HETATM   13  C   UNL     1     -11.558  10.664  69.868  1.00  0.00    -0.396 C  
HETATM   14  C   UNL     1     -12.548  11.053  68.635  1.00  0.00     0.962 C  
HETATM   15  C   UNL     1     -10.171  11.367  70.546  1.00  0.00     2.501 C  
HETATM   16  C   UNL     1      -8.730  10.686  70.327  1.00  0.00     1.237 C  
HETATM   17  C   UNL     1      -8.695   9.155  70.317  1.00  0.00    -0.223 C  
HETATM   18  O   UNL     1      -8.048  11.099  69.156  1.00  0.00    -0.304 OA 
HETATM   19  C   UNL     1      -9.670   8.539  69.335  1.00  0.00    -0.177 C  
HETATM   20  H   UNL     1      -7.197  10.698  69.027  1.00  0.00     0.000 HD 
HETATM   21  C   UNL     1      -9.324   8.804  67.755  1.00  0.00    -0.157 C  
HETATM   22  C   UNL     1     -10.360   9.845  67.497  1.00  0.00    -0.236 C  
HETATM   23  C   UNL     1      -9.151   7.870  66.762  1.00  0.00    -0.189 C  
HETATM   24  C   UNL     1     -11.535   8.847  68.061  1.00  0.00     1.092 C  
HETATM   25  C   UNL     1     -10.117   7.884  65.547  1.00  0.00     1.633 C  
HETATM   26  C   UNL     1      -7.793   7.442  66.259  1.00  0.00    -0.106 C  
HETATM   27  O   UNL     1      -9.500   7.436  64.430  1.00  0.00     1.735 OA 
HETATM   28  C   UNL     1     -12.036   8.163  70.497  1.00  0.00     0.063 C  
HETATM   29  C   UNL     1     -11.227   9.057  69.574  1.00  0.00     0.053 C  
HETATM   30  O   UNL     1     -11.257   8.275  65.460  1.00  0.00     4.336 OA 
ENDROOT
BRANCH  22  31
HETATM   31  O   UNL     1     -10.190  10.632  66.286  1.00  0.00    -0.233 OA 
BRANCH  31  32
HETATM   32  C   UNL     1     -11.284  11.325  65.798  1.00  0.00    -0.014 C  
HETATM   33  O   UNL     1     -11.498  11.508  64.601  1.00  0.00    -0.222 OA 
HETATM   34  C   UNL     1     -12.191  12.049  66.774  1.00  0.00     0.441 C  
ENDBRANCH  31  32
ENDBRANCH  22  31
BRANCH  26  35
HETATM   35  C   UNL     1      -6.623   7.607  67.201  1.00  0.00    -0.063 C  
BRANCH  35  36
HETATM   36  C   UNL     1      -6.409   6.292  67.894  1.00  0.00    -0.033 C  
HETATM   37  C   UNL     1      -7.229   5.224  67.837  1.00  0.00    -0.071 C  
HETATM   38  C   UNL     1      -6.883   3.979  68.594  1.00  0.00    -0.047 C  
HETATM   39  C   UNL     1      -8.529   5.171  67.077  1.00  0.00    -0.106 C  
ENDBRANCH  35  36
ENDBRANCH  26  35
TORSDOF 4
ENDMDL
MODEL      124
REMARK 921   NORMALIZED FREE ENERGY PREDICTED BY IDOCK:   32.20 KCAL/MOL
REMARK 922        TOTAL FREE ENERGY PREDICTED BY IDOCK:   39.54 KCAL/MOL
REMARK 923 INTER-LIGAND FREE ENERGY PREDICTED BY IDOCK:   40.68 KCAL/MOL
REMARK 924 INTRA-LIGAND FREE ENERGY PREDICTED BY IDOCK:   -1.14 KCAL/MOL
REMARK 927      BINDING AFFINITY PREDICTED BY RF-SCORE:    0.00 PKD
ROOT
HETATM    1  O   UNL     1     -13.808  10.755  67.276  1.00  0.00    11.344 OA 
HETATM    2  H   UNL     1     -14.697  10.862  67.595  1.00  0.00     0.000 HD 
HETATM    3  C   UNL     1     -13.246  11.980  66.834  1.00  0.00     5.807 C  
HETATM    4  C   UNL     1     -11.812  11.808  66.320  1.00  0.00     0.027 C  
HETATM    5  C   UNL     1     -11.189  13.157  65.805  1.00  0.00    -0.309 C  
HETATM    6  C   UNL     1     -11.214  14.275  66.942  1.00  0.00    -0.333 C  
HETATM    7  C   UNL     1     -10.140  13.699  67.879  1.00  0.00    -0.244 C  
HETATM    8  C   UNL     1     -12.748  14.316  67.273  1.00  0.00     0.634 C  
HETATM    9  C   UNL     1     -13.339  13.052  67.925  1.00  0.00     5.111 C  
HETATM   10  C   UNL     1     -13.483  15.571  67.709  1.00  0.00     5.231 C  
HETATM   11  C   UNL     1     -12.917  16.870  67.038  1.00  0.00     6.119 C  
HETATM   12  C   UNL     1     -12.812  12.654  69.319  1.00  0.00     1.156 C  
HETATM   13  C   UNL     1     -11.414  17.033  67.471  1.00  0.00     0.510 C  
HETATM   14  C   UNL     1     -11.887  17.214  69.019  1.00  0.00     1.527 C  
HETATM   15  C   UNL     1     -10.722  15.768  66.579  1.00  0.00    -0.283 C  
HETATM   16  C   UNL     1      -9.181  15.849  66.122  1.00  0.00    -0.349 C  
HETATM   17  C   UNL     1      -8.662  17.233  65.721  1.00  0.00     0.209 C  
HETATM   18  O   UNL     1      -8.252  15.343  67.065  1.00  0.00    -0.200 OA 
HETATM   19  C   UNL     1      -8.906  18.294  66.774  1.00  0.00    -0.283 C  
HETATM   20  H   UNL     1      -7.343  15.391  66.795  1.00  0.00     0.000 HD 
HETATM   21  C   UNL     1      -8.053  18.103  68.160  1.00  0.00    -0.289 C  
HETATM   22  C   UNL     1      -9.167  17.592  69.009  1.00  0.00    -0.072 C  
HETATM   23  C   UNL     1      -7.207  19.006  68.759  1.00  0.00    -0.358 C  
HETATM   24  C   UNL     1     -10.088  18.896  68.627  1.00  0.00    -0.447 C  
HETATM   25  C   UNL     1      -7.547  19.516  70.185  1.00  0.00     0.677 C  
HETATM   26  C   UNL     1      -5.703  18.922  68.653  1.00  0.00    -0.213 C  
HETATM   27  O   UNL     1      -6.424  19.815  70.876  1.00  0.00    -0.098 OA 
HETATM   28  C   UNL     1     -11.287  19.427  66.406  1.00  0.00     0.394 C  
HETATM   29  C   UNL     1     -10.503  18.405  67.208  1.00  0.00    -0.434 C  
HETATM   30  O   UNL     1      -8.614  19.618  70.744  1.00  0.00     1.588 OA 
ENDROOT
BRANCH  22  31
HETATM   31  O   UNL     1      -8.780  16.951  70.256  1.00  0.00     1.856 OA 
BRANCH  31  32
HETATM   32  C   UNL     1      -8.185  15.703  70.191  1.00  0.00     0.723 C  
HETATM   33  O   UNL     1      -8.813  14.653  70.072  1.00  0.00     0.433 OA 
HETATM   34  C   UNL     1      -6.695  15.584  70.447  1.00  0.00     0.254 C  
ENDBRANCH  31  32
ENDBRANCH  22  31
BRANCH  26  35
HETATM   35  C   UNL     1      -5.134  18.201  67.454  1.00  0.00    -0.142 C  
BRANCH  35  36
HETATM   36  C   UNL     1      -5.172  19.151  66.292  1.00  0.00    -0.163 C  
HETATM   37  C   UNL     1      -5.220  18.809  64.989  1.00  0.00    -0.215 C  
HETATM   38  C   UNL     1      -5.245  19.876  63.939  1.00  0.00    -0.228 C  
HETATM   39  C   UNL     1      -5.220  17.395  64.467  1.00  0.00     1.744 C  
ENDBRANCH  35  36
ENDBRANCH  26  35
TORSDOF 4
ENDMDL
MODEL      125
REMARK 921   NORMALIZED FREE ENERGY PREDICTED BY IDOCK:   33.16 KCAL/MOL
REMARK 922        TOTAL FREE ENERGY PREDICTED BY IDOCK:   40.73 KCAL/MOL
REMARK 923 INTER-LIGAND FREE ENERGY PREDICTED BY IDOCK:   14.94 KCAL/MOL
REMARK 924 INTRA-LIGAND FREE ENERGY PREDICTED BY IDOCK:   25.79 KCAL/MOL
REMARK 927      BINDING AFFINITY PREDICTED BY RF-SCORE:    0.00 PKD
ROOT
HETATM    1  O   UNL     1      -8.876   4.934  64.360  1.00  0.00    -0.152 OA 
HETATM    2  H   UNL     1      -9.195   4.170  64.827  1.00  0.00     0.000 HD 
HETATM    3  C   UNL     1      -9.346   6.145  64.929  1.00  0.00     0.787 C  
HETATM    4  C   UNL     1      -8.831   7.378  64.177  1.00  0.00     0.827 C  
HETATM    5  C   UNL     1      -9.368   8.724  64.788  1.00  0.00     0.377 C  
HETATM    6  C   UNL     1      -8.989   8.849  66.331  1.00  0.00    -0.193 C  
HETATM    7  C   UNL     1      -7.474   9.074  66.199  1.00  0.00    -0.091 C  
HETATM    8  C   UNL     1      -9.644   7.539  66.897  1.00  0.00    -0.242 C  
HETATM    9  C   UNL     1      -9.023   6.209  66.426  1.00  0.00    -0.156 C  
HETATM   10  C   UNL     1     -10.231   7.423  68.291  1.00  0.00    -0.213 C  
HETATM   11  C   UNL     1     -10.894   8.756  68.783  1.00  0.00    -0.026 C  
HETATM   12  C   UNL     1      -7.559   5.926  66.820  1.00  0.00    -0.099 C  
HETATM   13  C   UNL     1      -9.784   9.869  68.833  1.00  0.00    -0.176 C  
HETATM   14  C   UNL     1      -9.003   9.026  69.989  1.00  0.00    -0.184 C  
HETATM   15  C   UNL     1      -9.545  10.109  67.172  1.00  0.00    -0.202 C  
HETATM   16  C   UNL     1      -9.026  11.531  66.627  1.00  0.00    -0.185 C  
HETATM   17  C   UNL     1      -9.552  12.772  67.354  1.00  0.00    -0.199 C  
HETATM   18  O   UNL     1      -7.617  11.674  66.584  1.00  0.00    -0.264 OA 
HETATM   19  C   UNL     1      -9.339  12.726  68.853  1.00  0.00     0.281 C  
HETATM   20  H   UNL     1      -7.310  12.513  66.262  1.00  0.00     0.000 HD 
HETATM   21  C   UNL     1      -7.773  12.806  69.332  1.00  0.00     0.631 C  
HETATM   22  C   UNL     1      -7.599  11.366  69.678  1.00  0.00     0.348 C  
HETATM   23  C   UNL     1      -7.203  13.705  70.201  1.00  0.00     0.866 C  
HETATM   24  C   UNL     1      -8.905  11.423  70.672  1.00  0.00     5.018 C  
HETATM   25  C   UNL     1      -6.562  13.175  71.511  1.00  0.00     2.631 C  
HETATM   26  C   UNL     1      -6.387  14.890  69.742  1.00  0.00    -0.152 C  
HETATM   27  O   UNL     1      -5.534  13.962  71.903  1.00  0.00    -0.205 OA 
HETATM   28  C   UNL     1     -11.404  11.540  70.043  1.00  0.00    -0.222 C  
HETATM   29  C   UNL     1      -9.980  11.363  69.546  1.00  0.00     0.371 C  
HETATM   30  O   UNL     1      -6.807  12.181  72.154  1.00  0.00     4.683 OA 
ENDROOT
BRANCH  22  31
HETATM   31  O   UNL     1      -6.228  10.904  69.828  1.00  0.00    -0.073 OA 
BRANCH  31  32
HETATM   32  C   UNL     1      -5.947   9.583  69.525  1.00  0.00    -0.033 C  
HETATM   33  O   UNL     1      -5.262   9.234  68.565  1.00  0.00    -0.034 OA 
HETATM   34  C   UNL     1      -6.645   8.485  70.303  1.00  0.00    -0.039 C  
ENDBRANCH  31  32
ENDBRANCH  22  31
BRANCH  26  35
HETATM   35  C   UNL     1      -6.651  15.415  68.350  1.00  0.00    -0.113 C  
BRANCH  35  36
HETATM   36  C   UNL     1      -7.392  14.348  67.595  1.00  0.00    -0.197 C  
HETATM   37  C   UNL     1      -6.841  13.274  66.996  1.00  0.00     0.492 C  
HETATM   38  C   UNL     1      -7.715  12.298  66.270  1.00  0.00     0.667 C  
HETATM   39  C   UNL     1      -5.367  12.966  66.959  1.00  0.00     0.417 C  
ENDBRANCH  35  36
ENDBRANCH  26  35
TORSDOF 4
ENDMDL
MODEL      126
REMARK 921   NORMALIZED FREE ENERGY PREDICTED BY IDOCK:   33.82 KCAL/MOL
REMARK 922        TOTAL FREE ENERGY PREDICTED BY IDOCK:   41.55 KCAL/MOL
REMARK 923 INTER-LIGAND FREE ENERGY PREDICTED BY IDOCK:   30.74 KCAL/MOL
REMARK 924 INTRA-LIGAND FREE ENERGY PREDICTED BY IDOCK:   10.81 KCAL/MOL
REMARK 927      BINDING AFFINITY PREDICTED BY RF-SCORE:    0.00 PKD
ROOT
HETATM    1  O   UNL     1     -12.477  15.129  63.499  1.00  0.00    -0.851 OA 
HETATM    2  H   UNL     1     -12.804  14.931  62.629  1.00  0.00     0.000 HD 
HETATM    3  C   UNL     1     -12.558  14.013  64.369  1.00  0.00    -0.164 C  
HETATM    4  C   UNL     1     -12.030  14.332  65.773  1.00  0.00    -0.399 C  
HETATM    5  C   UNL     1     -12.138  13.105  66.752  1.00  0.00    -0.389 C  
HETATM    6  C   UNL     1     -11.369  11.835  66.173  1.00  0.00    -0.342 C  
HETATM    7  C   UNL     1      -9.921  12.323  66.341  1.00  0.00    -0.243 C  
HETATM    8  C   UNL     1     -12.091  11.666  64.789  1.00  0.00     0.106 C  
HETATM    9  C   UNL     1     -11.864  12.789  63.760  1.00  0.00    -0.572 C  
HETATM   10  C   UNL     1     -12.323  10.325  64.117  1.00  0.00     6.310 C  
HETATM   11  C   UNL     1     -12.583   9.168  65.143  1.00  0.00    16.403 C  
HETATM   12  C   UNL     1     -10.426  13.007  63.246  1.00  0.00     0.854 C  
HETATM   13  C   UNL     1     -11.310   9.022  66.054  1.00  0.00     3.334 C  
HETATM   14  C   UNL     1     -10.435   8.593  64.749  1.00  0.00     4.470 C  
HETATM   15  C   UNL     1     -11.455  10.438  66.976  1.00  0.00     0.464 C  
HETATM   16  C   UNL     1     -10.836  10.504  68.459  1.00  0.00    -0.234 C  
HETATM   17  C   UNL     1     -10.926   9.222  69.292  1.00  0.00    -0.105 C  
HETATM   18  O   UNL     1      -9.481  10.915  68.521  1.00  0.00    -0.170 OA 
HETATM   19  C   UNL     1     -10.355   8.008  68.589  1.00  0.00    -0.224 C  
HETATM   20  H   UNL     1      -9.116  10.954  69.397  1.00  0.00     0.000 HD 
HETATM   21  C   UNL     1      -8.733   8.039  68.358  1.00  0.00    -0.130 C  
HETATM   22  C   UNL     1      -8.747   8.363  66.903  1.00  0.00    -0.130 C  
HETATM   23  C   UNL     1      -7.808   7.103  68.756  1.00  0.00    -0.122 C  
HETATM   24  C   UNL     1      -9.729   7.082  66.603  1.00  0.00    -0.226 C  
HETATM   25  C   UNL     1      -6.969   6.374  67.673  1.00  0.00    -0.078 C  
HETATM   26  C   UNL     1      -6.928   7.280  69.971  1.00  0.00    -0.060 C  
HETATM   27  O   UNL     1      -5.749   6.036  68.149  1.00  0.00    -0.008 OA 
HETATM   28  C   UNL     1     -12.239   6.818  67.131  1.00  0.00     4.018 C  
HETATM   29  C   UNL     1     -11.043   7.753  67.102  1.00  0.00     0.201 C  
HETATM   30  O   UNL     1      -7.224   6.137  66.516  1.00  0.00    -0.070 OA 
ENDROOT
BRANCH  22  31
HETATM   31  O   UNL     1      -7.491   8.835  66.340  1.00  0.00    -0.086 OA 
BRANCH  31  32
HETATM   32  C   UNL     1      -7.537   9.852  65.404  1.00  0.00    -0.131 C  
HETATM   33  O   UNL     1      -7.984  10.974  65.636  1.00  0.00    -0.094 OA 
HETATM   34  C   UNL     1      -7.176   9.544  63.963  1.00  0.00    -0.111 C  
ENDBRANCH  31  32
ENDBRANCH  22  31
BRANCH  26  35
HETATM   35  C   UNL     1      -7.431   8.196  71.062  1.00  0.00    -0.067 C  
BRANCH  35  36
HETATM   36  C   UNL     1      -6.881   9.567  70.793  1.00  0.00    -0.105 C  
HETATM   37  C   UNL     1      -6.921  10.221  69.615  1.00  0.00    -0.114 C  
HETATM   38  C   UNL     1      -6.318  11.587  69.501  1.00  0.00    -0.116 C  
HETATM   39  C   UNL     1      -7.513   9.672  68.342  1.00  0.00    -0.080 C  
ENDBRANCH  35  36
ENDBRANCH  26  35
TORSDOF 4
ENDMDL
MODEL      127
REMARK 921   NORMALIZED FREE ENERGY PREDICTED BY IDOCK:   33.83 KCAL/MOL
REMARK 922        TOTAL FREE ENERGY PREDICTED BY IDOCK:   41.56 KCAL/MOL
REMARK 923 INTER-LIGAND FREE ENERGY PREDICTED BY IDOCK:   42.39 KCAL/MOL
REMARK 924 INTRA-LIGAND FREE ENERGY PREDICTED BY IDOCK:   -0.83 KCAL/MOL
REMARK 927      BINDING AFFINITY PREDICTED BY RF-SCORE:    0.00 PKD
ROOT
HETATM    1  O   UNL     1     -13.798  13.945  74.345  1.00  0.00     4.444 OA 
HETATM    2  H   UNL     1     -14.348  13.197  74.548  1.00  0.00     0.000 HD 
HETATM    3  C   UNL     1     -12.724  13.604  73.485  1.00  0.00     1.674 C  
HETATM    4  C   UNL     1     -11.837  14.811  73.157  1.00  0.00    -0.166 C  
HETATM    5  C   UNL     1     -10.629  14.435  72.222  1.00  0.00     3.276 C  
HETATM    6  C   UNL     1     -11.134  13.765  70.867  1.00  0.00     1.300 C  
HETATM    7  C   UNL     1     -11.758  15.000  70.196  1.00  0.00    -0.340 C  
HETATM    8  C   UNL     1     -11.958  12.554  71.432  1.00  0.00     0.779 C  
HETATM    9  C   UNL     1     -13.235  12.906  72.219  1.00  0.00    -0.519 C  
HETATM   10  C   UNL     1     -12.082  11.216  70.727  1.00  0.00    -0.458 C  
HETATM   11  C   UNL     1     -10.785  10.822  69.940  1.00  0.00    -0.202 C  
HETATM   12  C   UNL     1     -14.369  13.622  71.457  1.00  0.00     0.347 C  
HETATM   13  C   UNL     1     -10.528  11.911  68.836  1.00  0.00    -0.164 C  
HETATM   14  C   UNL     1     -11.923  11.491  68.108  1.00  0.00    -0.206 C  
HETATM   15  C   UNL     1     -10.043  13.205  69.818  1.00  0.00     1.425 C  
HETATM   16  C   UNL     1      -9.062  14.339  69.237  1.00  0.00     0.276 C  
HETATM   17  C   UNL     1      -7.973  13.866  68.269  1.00  0.00    -0.148 C  
HETATM   18  O   UNL     1      -9.715  15.417  68.590  1.00  0.00    -0.197 OA 
HETATM   19  C   UNL     1      -8.511  13.056  67.108  1.00  0.00    -0.176 C  
HETATM   20  H   UNL     1      -9.136  16.087  68.247  1.00  0.00     0.000 HD 
HETATM   21  C   UNL     1      -9.436  13.897  66.046  1.00  0.00    -0.145 C  
HETATM   22  C   UNL     1     -10.763  13.380  66.487  1.00  0.00    -0.286 C  
HETATM   23  C   UNL     1      -9.259  14.019  64.689  1.00  0.00     2.293 C  
HETATM   24  C   UNL     1     -10.251  11.832  66.289  1.00  0.00    -0.255 C  
HETATM   25  C   UNL     1     -10.369  13.492  63.741  1.00  0.00     0.886 C  
HETATM   26  C   UNL     1      -8.652  15.242  64.043  1.00  0.00    11.787 C  
HETATM   27  O   UNL     1     -10.413  14.211  62.596  1.00  0.00     5.474 OA 
HETATM   28  C   UNL     1      -8.618  10.476  67.754  1.00  0.00    -0.118 C  
HETATM   29  C   UNL     1      -9.416  11.758  67.603  1.00  0.00    -0.180 C  
HETATM   30  O   UNL     1     -11.187  12.618  63.906  1.00  0.00    -0.381 OA 
ENDROOT
BRANCH  22  31
HETATM   31  O   UNL     1     -11.924  14.131  66.038  1.00  0.00    -0.380 OA 
BRANCH  31  32
HETATM   32  C   UNL     1     -11.865  15.513  66.083  1.00  0.00     0.474 C  
HETATM   33  O   UNL     1     -11.922  16.166  67.123  1.00  0.00     0.640 OA 
HETATM   34  C   UNL     1     -11.898  16.293  64.782  1.00  0.00     0.365 C  
ENDBRANCH  31  32
ENDBRANCH  22  31
BRANCH  26  35
HETATM   35  C   UNL     1      -7.733  16.088  64.893  1.00  0.00     7.302 C  
BRANCH  35  36
HETATM   36  C   UNL     1      -8.549  17.212  65.464  1.00  0.00     0.892 C  
HETATM   37  C   UNL     1      -8.310  18.528  65.299  1.00  0.00     1.700 C  
HETATM   38  C   UNL     1      -9.213  19.535  65.942  1.00  0.00    -0.108 C  
HETATM   39  C   UNL     1      -7.156  19.107  64.522  1.00  0.00     1.483 C  
ENDBRANCH  35  36
ENDBRANCH  26  35
TORSDOF 4
ENDMDL
MODEL      128
REMARK 921   NORMALIZED FREE ENERGY PREDICTED BY IDOCK:   35.63 KCAL/MOL
REMARK 922        TOTAL FREE ENERGY PREDICTED BY IDOCK:   43.78 KCAL/MOL
REMARK 923 INTER-LIGAND FREE ENERGY PREDICTED BY IDOCK:   41.57 KCAL/MOL
REMARK 924 INTRA-LIGAND FREE ENERGY PREDICTED BY IDOCK:    2.21 KCAL/MOL
REMARK 927      BINDING AFFINITY PREDICTED BY RF-SCORE:    0.00 PKD
ROOT
HETATM    1  O   UNL     1      -7.969  14.189  72.698  1.00  0.00     4.518 OA 
HETATM    2  H   UNL     1      -8.303  13.907  73.542  1.00  0.00     0.000 HD 
HETATM    3  C   UNL     1      -7.308  13.143  72.007  1.00  0.00     7.928 C  
HETATM    4  C   UNL     1      -6.769  13.597  70.645  1.00  0.00     0.682 C  
HETATM    5  C   UNL     1      -6.013  12.448  69.881  1.00  0.00    -0.146 C  
HETATM    6  C   UNL     1      -6.949  11.174  69.682  1.00  0.00    -0.088 C  
HETATM    7  C   UNL     1      -7.924  11.742  68.636  1.00  0.00    -0.116 C  
HETATM    8  C   UNL     1      -7.333  10.861  71.172  1.00  0.00     3.045 C  
HETATM    9  C   UNL     1      -8.210  11.910  71.884  1.00  0.00    15.123 C  
HETATM   10  C   UNL     1      -7.586   9.462  71.702  1.00  0.00     0.452 C  
HETATM   11  C   UNL     1      -6.687   8.380  71.011  1.00  0.00    -0.049 C  
HETATM   12  C   UNL     1      -9.627  12.154  71.326  1.00  0.00    11.579 C  
HETATM   13  C   UNL     1      -7.023   8.367  69.475  1.00  0.00    -0.045 C  
HETATM   14  C   UNL     1      -8.539   7.878  69.819  1.00  0.00    -0.133 C  
HETATM   15  C   UNL     1      -6.325   9.842  69.018  1.00  0.00    -0.040 C  
HETATM   16  C   UNL     1      -5.796  10.056  67.513  1.00  0.00    -0.049 C  
HETATM   17  C   UNL     1      -5.151   8.842  66.840  1.00  0.00    -0.035 C  
HETATM   18  O   UNL     1      -6.770  10.534  66.602  1.00  0.00    -0.086 OA 
HETATM   19  C   UNL     1      -6.023   7.603  66.871  1.00  0.00    -0.047 C  
HETATM   20  H   UNL     1      -6.458  10.660  65.714  1.00  0.00     0.000 HD 
HETATM   21  C   UNL     1      -7.385   7.693  65.963  1.00  0.00    -0.077 C  
HETATM   22  C   UNL     1      -8.353   7.900  67.079  1.00  0.00    -0.117 C  
HETATM   23  C   UNL     1      -7.791   6.837  64.967  1.00  0.00    -0.118 C  
HETATM   24  C   UNL     1      -7.800   6.554  67.839  1.00  0.00    -0.108 C  
HETATM   25  C   UNL     1      -9.126   6.065  65.143  1.00  0.00     0.247 C  
HETATM   26  C   UNL     1      -7.638   7.151  63.498  1.00  0.00    -0.109 C  
HETATM   27  O   UNL     1      -9.710   5.825  63.947  1.00  0.00     1.296 OA 
HETATM   28  C   UNL     1      -5.574   6.213  69.097  1.00  0.00    -0.012 C  
HETATM   29  C   UNL     1      -6.500   7.198  68.407  1.00  0.00    -0.040 C  
HETATM   30  O   UNL     1      -9.705   5.725  66.148  1.00  0.00    -0.146 OA 
ENDROOT
BRANCH  22  31
HETATM   31  O   UNL     1      -9.671   8.385  66.702  1.00  0.00    -0.208 OA 
BRANCH  31  32
HETATM   32  C   UNL     1     -10.398   9.096  67.640  1.00  0.00    -0.255 C  
HETATM   33  O   UNL     1     -10.948   8.580  68.612  1.00  0.00    -0.010 OA 
HETATM   34  C   UNL     1     -10.688  10.563  67.388  1.00  0.00    -0.334 C  
ENDBRANCH  31  32
ENDBRANCH  22  31
BRANCH  26  35
HETATM   35  C   UNL     1      -6.551   8.127  63.109  1.00  0.00    -0.085 C  
BRANCH  35  36
HETATM   36  C   UNL     1      -7.218   9.354  62.557  1.00  0.00    -0.099 C  
HETATM   37  C   UNL     1      -8.268   9.998  63.103  1.00  0.00    -0.159 C  
HETATM   38  C   UNL     1      -8.831  11.210  62.427  1.00  0.00    -0.333 C  
HETATM   39  C   UNL     1      -8.977   9.581  64.366  1.00  0.00    -0.255 C  
ENDBRANCH  35  36
ENDBRANCH  26  35
TORSDOF 4
ENDMDL
MODEL      129
REMARK 921   NORMALIZED FREE ENERGY PREDICTED BY IDOCK:   39.04 KCAL/MOL
REMARK 922        TOTAL FREE ENERGY PREDICTED BY IDOCK:   47.99 KCAL/MOL
REMARK 923 INTER-LIGAND FREE ENERGY PREDICTED BY IDOCK:   24.53 KCAL/MOL
REMARK 924 INTRA-LIGAND FREE ENERGY PREDICTED BY IDOCK:   23.45 KCAL/MOL
REMARK 927      BINDING AFFINITY PREDICTED BY RF-SCORE:    0.00 PKD
ROOT
HETATM    1  O   UNL     1     -13.172   9.336  72.529  1.00  0.00    -0.457 OA 
HETATM    2  H   UNL     1     -13.803   8.797  72.066  1.00  0.00     0.000 HD 
HETATM    3  C   UNL     1     -12.084   9.718  71.702  1.00  0.00    -0.394 C  
HETATM    4  C   UNL     1     -11.066  10.588  72.449  1.00  0.00     4.535 C  
HETATM    5  C   UNL     1      -9.844  10.997  71.545  1.00  0.00     7.097 C  
HETATM    6  C   UNL     1     -10.327  11.757  70.230  1.00  0.00     2.054 C  
HETATM    7  C   UNL     1     -10.786  13.081  70.863  1.00  0.00     3.733 C  
HETATM    8  C   UNL     1     -11.298  10.686  69.617  1.00  0.00    -0.360 C  
HETATM    9  C   UNL     1     -12.581  10.391  70.418  1.00  0.00    -0.329 C  
HETATM   10  C   UNL     1     -11.507  10.493  68.127  1.00  0.00    -0.255 C  
HETATM   11  C   UNL     1     -10.208  10.761  67.291  1.00  0.00    -0.245 C  
HETATM   12  C   UNL     1     -13.591  11.543  70.598  1.00  0.00     1.360 C  
HETATM   13  C   UNL     1      -9.779  12.257  67.514  1.00  0.00    -0.190 C  
HETATM   14  C   UNL     1     -11.161  12.751  66.806  1.00  0.00    -0.314 C  
HETATM   15  C   UNL     1      -9.232  12.162  69.116  1.00  0.00     0.554 C  
HETATM   16  C   UNL     1      -8.112  13.184  69.651  1.00  0.00     1.441 C  
HETATM   17  C   UNL     1      -7.016  13.575  68.655  1.00  0.00    -0.100 C  
HETATM   18  O   UNL     1      -8.616  14.402  70.172  1.00  0.00     0.278 OA 
HETATM   19  C   UNL     1      -7.558  14.101  67.342  1.00  0.00    -0.179 C  
HETATM   20  H   UNL     1      -7.955  15.005  70.488  1.00  0.00     0.000 HD 
HETATM   21  C   UNL     1      -8.328  15.545  67.439  1.00  0.00    -0.202 C  
HETATM   22  C   UNL     1      -9.724  15.031  67.335  1.00  0.00    -0.216 C  
HETATM   23  C   UNL     1      -8.057  16.693  66.734  1.00  0.00    -0.281 C  
HETATM   24  C   UNL     1      -9.354  14.239  65.946  1.00  0.00    -0.063 C  
HETATM   25  C   UNL     1      -9.152  17.272  65.799  1.00  0.00     0.200 C  
HETATM   26  C   UNL     1      -7.296  17.859  67.319  1.00  0.00    -0.209 C  
HETATM   27  O   UNL     1      -9.055  18.618  65.712  1.00  0.00    -0.402 OA 
HETATM   28  C   UNL     1      -7.954  12.095  65.638  1.00  0.00     1.374 C  
HETATM   29  C   UNL     1      -8.613  13.046  66.620  1.00  0.00     0.027 C  
HETATM   30  O   UNL     1     -10.060  16.719  65.224  1.00  0.00    -0.577 OA 
ENDROOT
BRANCH  22  31
HETATM   31  O   UNL     1     -10.777  15.953  67.729  1.00  0.00    -0.304 OA 
BRANCH  31  32
HETATM   32  C   UNL     1     -11.645  16.410  66.753  1.00  0.00     0.826 C  
HETATM   33  O   UNL     1     -12.863  16.241  66.789  1.00  0.00     3.170 OA 
HETATM   34  C   UNL     1     -11.074  17.006  65.481  1.00  0.00     0.170 C  
ENDBRANCH  31  32
ENDBRANCH  22  31
BRANCH  26  35
HETATM   35  C   UNL     1      -6.353  17.565  68.463  1.00  0.00    -0.179 C  
BRANCH  35  36
HETATM   36  C   UNL     1      -6.039  16.097  68.427  1.00  0.00    -0.109 C  
HETATM   37  C   UNL     1      -5.581  15.410  67.362  1.00  0.00     0.114 C  
HETATM   38  C   UNL     1      -5.320  13.940  67.479  1.00  0.00     0.171 C  
HETATM   39  C   UNL     1      -5.323  16.000  65.999  1.00  0.00     2.793 C  
ENDBRANCH  35  36
ENDBRANCH  26  35
TORSDOF 4
ENDMDL
MODEL      130
REMARK 921   NORMALIZED FREE ENERGY PREDICTED BY IDOCK:   41.61 KCAL/MOL
REMARK 922        TOTAL FREE ENERGY PREDICTED BY IDOCK:   51.16 KCAL/MOL
REMARK 923 INTER-LIGAND FREE ENERGY PREDICTED BY IDOCK:   43.26 KCAL/MOL
REMARK 924 INTRA-LIGAND FREE ENERGY PREDICTED BY IDOCK:    7.90 KCAL/MOL
REMARK 927      BINDING AFFINITY PREDICTED BY RF-SCORE:    0.00 PKD
ROOT
HETATM    1  O   UNL     1     -13.718  10.087  66.878  1.00  0.00    14.198 OA 
HETATM    2  H   UNL     1     -14.611  10.175  67.190  1.00  0.00     0.000 HD 
HETATM    3  C   UNL     1     -13.165  11.331  66.480  1.00  0.00     8.459 C  
HETATM    4  C   UNL     1     -11.723  11.191  65.976  1.00  0.00     0.718 C  
HETATM    5  C   UNL     1     -11.110  12.563  65.511  1.00  0.00    -0.336 C  
HETATM    6  C   UNL     1     -11.159  13.643  66.682  1.00  0.00    -0.312 C  
HETATM    7  C   UNL     1     -10.088  13.050  67.613  1.00  0.00    -0.217 C  
HETATM    8  C   UNL     1     -12.697  13.658  66.998  1.00  0.00     0.356 C  
HETATM    9  C   UNL     1     -13.281  12.368  67.604  1.00  0.00     4.981 C  
HETATM   10  C   UNL     1     -13.450  14.890  67.466  1.00  0.00     5.075 C  
HETATM   11  C   UNL     1     -12.891  16.216  66.842  1.00  0.00     3.833 C  
HETATM   12  C   UNL     1     -12.764  11.932  68.990  1.00  0.00     1.008 C  
HETATM   13  C   UNL     1     -11.394  16.381  67.296  1.00  0.00     0.218 C  
HETATM   14  C   UNL     1     -11.886  16.508  68.844  1.00  0.00     0.227 C  
HETATM   15  C   UNL     1     -10.679  15.153  66.372  1.00  0.00    -0.317 C  
HETATM   16  C   UNL     1      -9.135  15.264  65.934  1.00  0.00    -0.103 C  
HETATM   17  C   UNL     1      -8.627  16.665  65.582  1.00  0.00     0.483 C  
HETATM   18  O   UNL     1      -8.211  14.739  66.871  1.00  0.00    -0.306 OA 
HETATM   19  C   UNL     1      -8.893  17.690  66.666  1.00  0.00    -0.283 C  
HETATM   20  H   UNL     1      -7.299  14.804  66.612  1.00  0.00     0.000 HD 
HETATM   21  C   UNL     1      -8.053  17.465  68.055  1.00  0.00    -0.227 C  
HETATM   22  C   UNL     1      -9.170  16.915  68.875  1.00  0.00    -0.229 C  
HETATM   23  C   UNL     1      -7.223  18.357  68.691  1.00  0.00    -0.301 C  
HETATM   24  C   UNL     1     -10.101  18.221  68.525  1.00  0.00    -0.419 C  
HETATM   25  C   UNL     1      -7.584  18.818  70.129  1.00  0.00     1.285 C  
HETATM   26  C   UNL     1      -5.717  18.292  68.599  1.00  0.00    -0.182 C  
HETATM   27  O   UNL     1      -6.471  19.107  70.841  1.00  0.00     0.290 OA 
HETATM   28  C   UNL     1     -11.283  18.809  66.309  1.00  0.00     0.571 C  
HETATM   29  C   UNL     1     -10.495  17.770  67.087  1.00  0.00    -0.338 C  
HETATM   30  O   UNL     1      -8.658  18.890  70.679  1.00  0.00     2.622 OA 
ENDROOT
BRANCH  22  31
HETATM   31  O   UNL     1      -8.789  16.239  70.105  1.00  0.00     0.787 OA 
BRANCH  31  32
HETATM   32  C   UNL     1      -9.456  15.075  70.444  1.00  0.00     0.808 C  
HETATM   33  O   UNL     1      -9.309  14.006  69.854  1.00  0.00     1.003 OA 
HETATM   34  C   UNL     1     -10.555  15.134  71.488  1.00  0.00     0.537 C  
ENDBRANCH  31  32
ENDBRANCH  22  31
BRANCH  26  35
HETATM   35  C   UNL     1      -5.127  17.615  67.383  1.00  0.00    -0.144 C  
BRANCH  35  36
HETATM   36  C   UNL     1      -5.422  16.147  67.493  1.00  0.00    -0.154 C  
HETATM   37  C   UNL     1      -5.961  15.524  68.560  1.00  0.00    -0.097 C  
HETATM   38  C   UNL     1      -6.189  14.045  68.522  1.00  0.00    -0.093 C  
HETATM   39  C   UNL     1      -6.346  16.199  69.851  1.00  0.00    -0.138 C  
ENDBRANCH  35  36
ENDBRANCH  26  35
TORSDOF 4
ENDMDL
MODEL      131
REMARK 921   NORMALIZED FREE ENERGY PREDICTED BY IDOCK:   47.32 KCAL/MOL
REMARK 922        TOTAL FREE ENERGY PREDICTED BY IDOCK:   58.21 KCAL/MOL
REMARK 923 INTER-LIGAND FREE ENERGY PREDICTED BY IDOCK:   57.51 KCAL/MOL
REMARK 924 INTRA-LIGAND FREE ENERGY PREDICTED BY IDOCK:    0.70 KCAL/MOL
REMARK 927      BINDING AFFINITY PREDICTED BY RF-SCORE:    0.00 PKD
ROOT
HETATM    1  O   UNL     1      -5.169  19.601  63.137  1.00  0.00    -0.210 OA 
HETATM    2  H   UNL     1      -5.525  19.674  62.259  1.00  0.00     0.000 HD 
HETATM    3  C   UNL     1      -6.153  19.219  64.084  1.00  0.00    -0.049 C  
HETATM    4  C   UNL     1      -5.579  19.100  65.501  1.00  0.00    -0.200 C  
HETATM    5  C   UNL     1      -6.669  18.700  66.563  1.00  0.00    -0.227 C  
HETATM    6  C   UNL     1      -7.386  17.334  66.166  1.00  0.00    -0.316 C  
HETATM    7  C   UNL     1      -6.228  16.358  66.431  1.00  0.00     0.653 C  
HETATM    8  C   UNL     1      -7.929  17.696  64.738  1.00  0.00     4.776 C  
HETATM    9  C   UNL     1      -6.869  17.936  63.646  1.00  0.00     7.979 C  
HETATM   10  C   UNL     1      -9.217  17.139  64.159  1.00  0.00     8.710 C  
HETATM   11  C   UNL     1     -10.322  16.910  65.246  1.00  0.00    -0.027 C  
HETATM   12  C   UNL     1      -5.964  16.750  63.256  1.00  0.00    11.121 C  
HETATM   13  C   UNL     1      -9.783  15.860  66.284  1.00  0.00    -0.332 C  
HETATM   14  C   UNL     1      -9.738  14.733  65.108  1.00  0.00    -0.013 C  
HETATM   15  C   UNL     1      -8.616  16.807  67.069  1.00  0.00    -0.233 C  
HETATM   16  C   UNL     1      -8.211  16.494  68.594  1.00  0.00    -0.234 C  
HETATM   17  C   UNL     1      -9.343  16.032  69.517  1.00  0.00    -0.146 C  
HETATM   18  O   UNL     1      -7.170  15.546  68.752  1.00  0.00    -0.121 OA 
HETATM   19  C   UNL     1     -10.116  14.848  68.973  1.00  0.00    -0.237 C  
HETATM   20  H   UNL     1      -6.930  15.362  69.652  1.00  0.00     0.000 HD 
HETATM   21  C   UNL     1      -9.272  13.445  68.897  1.00  0.00     0.234 C  
HETATM   22  C   UNL     1      -9.032  13.439  67.425  1.00  0.00    -0.215 C  
HETATM   23  C   UNL     1      -9.600  12.234  69.457  1.00  0.00     1.281 C  
HETATM   24  C   UNL     1     -10.641  13.601  67.139  1.00  0.00    -0.272 C  
HETATM   25  C   UNL     1      -9.827  11.015  68.523  1.00  0.00    -0.192 C  
HETATM   26  C   UNL     1      -8.975  11.719  70.732  1.00  0.00     7.246 C  
HETATM   27  O   UNL     1      -9.489   9.860  69.139  1.00  0.00    -0.174 OA 
HETATM   28  C   UNL     1     -12.129  15.685  67.445  1.00  0.00     0.676 C  
HETATM   29  C   UNL     1     -10.718  15.125  67.453  1.00  0.00    -0.286 C  
HETATM   30  O   UNL     1     -10.187  10.972  67.370  1.00  0.00    -0.185 OA 
ENDROOT
BRANCH  22  31
HETATM   31  O   UNL     1      -8.002  12.530  66.948  1.00  0.00    -0.122 OA 
BRANCH  31  32
HETATM   32  C   UNL     1      -6.694  12.767  67.332  1.00  0.00    -0.134 C  
HETATM   33  O   UNL     1      -6.091  13.811  67.093  1.00  0.00    -0.224 OA 
HETATM   34  C   UNL     1      -5.886  11.632  67.933  1.00  0.00    -0.047 C  
ENDBRANCH  31  32
ENDBRANCH  22  31
BRANCH  26  35
HETATM   35  C   UNL     1      -8.416  12.744  71.691  1.00  0.00    15.665 C  
BRANCH  35  36
HETATM   36  C   UNL     1      -7.396  13.555  70.945  1.00  0.00     3.104 C  
HETATM   37  C   UNL     1      -6.155  13.857  71.375  1.00  0.00     0.079 C  
HETATM   38  C   UNL     1      -5.250  14.687  70.517  1.00  0.00    -0.116 C  
HETATM   39  C   UNL     1      -5.577  13.446  72.705  1.00  0.00     0.292 C  
ENDBRANCH  35  36
ENDBRANCH  26  35
TORSDOF 4
ENDMDL
MODEL      132
REMARK 921   NORMALIZED FREE ENERGY PREDICTED BY IDOCK:   47.69 KCAL/MOL
REMARK 922        TOTAL FREE ENERGY PREDICTED BY IDOCK:   58.66 KCAL/MOL
REMARK 923 INTER-LIGAND FREE ENERGY PREDICTED BY IDOCK:    7.93 KCAL/MOL
REMARK 924 INTRA-LIGAND FREE ENERGY PREDICTED BY IDOCK:   50.73 KCAL/MOL
REMARK 927      BINDING AFFINITY PREDICTED BY RF-SCORE:    0.00 PKD
ROOT
HETATM    1  O   UNL     1     -13.238  15.580  70.421  1.00  0.00    -0.703 OA 
HETATM    2  H   UNL     1     -13.056  15.857  71.312  1.00  0.00     0.000 HD 
HETATM    3  C   UNL     1     -12.066  15.160  69.741  1.00  0.00    -0.319 C  
HETATM    4  C   UNL     1     -12.357  14.712  68.304  1.00  0.00     0.041 C  
HETATM    5  C   UNL     1     -11.059  14.268  67.535  1.00  0.00    -0.309 C  
HETATM    6  C   UNL     1     -10.300  13.100  68.310  1.00  0.00    -0.256 C  
HETATM    7  C   UNL     1     -11.294  11.952  68.065  1.00  0.00    -0.352 C  
HETATM    8  C   UNL     1     -10.064  13.784  69.704  1.00  0.00     0.699 C  
HETATM    9  C   UNL     1     -11.325  14.082  70.539  1.00  0.00     0.065 C  
HETATM   10  C   UNL     1      -8.858  13.511  70.583  1.00  0.00     5.696 C  
HETATM   11  C   UNL     1      -7.556  13.231  69.757  1.00  0.00     1.040 C  
HETATM   12  C   UNL     1     -12.170  12.881  71.010  1.00  0.00    -0.211 C  
HETATM   13  C   UNL     1      -7.795  11.948  68.880  1.00  0.00     0.015 C  
HETATM   14  C   UNL     1      -7.948  11.059  70.237  1.00  0.00     1.589 C  
HETATM   15  C   UNL     1      -8.883  12.579  67.743  1.00  0.00    -0.178 C  
HETATM   16  C   UNL     1      -8.970  11.943  66.268  1.00  0.00    -0.157 C  
HETATM   17  C   UNL     1      -7.651  11.469  65.652  1.00  0.00     0.633 C  
HETATM   18  O   UNL     1      -9.872  10.857  66.139  1.00  0.00    -0.206 OA 
HETATM   19  C   UNL     1      -6.882  10.513  66.541  1.00  0.00    -0.113 C  
HETATM   20  H   UNL     1      -9.924  10.482  65.268  1.00  0.00     0.000 HD 
HETATM   21  C   UNL     1      -7.590   9.051  66.763  1.00  0.00    -0.090 C  
HETATM   22  C   UNL     1      -8.093   9.283  68.147  1.00  0.00    -0.107 C  
HETATM   23  C   UNL     1      -7.052   7.810  66.519  1.00  0.00    -0.078 C  
HETATM   24  C   UNL     1      -6.587   9.700  68.650  1.00  0.00    -0.051 C  
HETATM   25  C   UNL     1      -6.886   6.822  67.705  1.00  0.00    -0.080 C  
HETATM   26  C   UNL     1      -7.382   6.995  65.291  1.00  0.00    -0.077 C  
HETATM   27  O   UNL     1      -6.996   5.540  67.289  1.00  0.00    -0.062 OA 
HETATM   28  C   UNL     1      -5.270  11.866  68.172  1.00  0.00    -0.046 C  
HETATM   29  C   UNL     1      -6.597  11.138  68.050  1.00  0.00    -0.058 C  
HETATM   30  O   UNL     1      -6.741   7.036  68.885  1.00  0.00    -0.055 OA 
ENDROOT
BRANCH  22  31
HETATM   31  O   UNL     1      -9.103   8.353  68.625  1.00  0.00    -0.140 OA 
BRANCH  31  32
HETATM   32  C   UNL     1      -8.774   7.011  68.697  1.00  0.00    -0.123 C  
HETATM   33  O   UNL     1      -7.708   6.547  68.294  1.00  0.00    -0.101 OA 
HETATM   34  C   UNL     1      -9.830   6.016  69.137  1.00  0.00    -0.185 C  
ENDBRANCH  31  32
ENDBRANCH  22  31
BRANCH  26  35
HETATM   35  C   UNL     1      -7.851   7.748  64.067  1.00  0.00    -0.127 C  
BRANCH  35  36
HETATM   36  C   UNL     1      -9.218   8.294  64.365  1.00  0.00     1.006 C  
HETATM   37  C   UNL     1      -9.499   9.314  65.200  1.00  0.00    -0.184 C  
HETATM   38  C   UNL     1     -10.920   9.742  65.401  1.00  0.00     1.656 C  
HETATM   39  C   UNL     1      -8.479  10.078  66.005  1.00  0.00    -0.137 C  
ENDBRANCH  35  36
ENDBRANCH  26  35
TORSDOF 4
ENDMDL
MODEL      133
REMARK 921   NORMALIZED FREE ENERGY PREDICTED BY IDOCK:   47.98 KCAL/MOL
REMARK 922        TOTAL FREE ENERGY PREDICTED BY IDOCK:   59.02 KCAL/MOL
REMARK 923 INTER-LIGAND FREE ENERGY PREDICTED BY IDOCK:   52.03 KCAL/MOL
REMARK 924 INTRA-LIGAND FREE ENERGY PREDICTED BY IDOCK:    6.99 KCAL/MOL
REMARK 927      BINDING AFFINITY PREDICTED BY RF-SCORE:    0.00 PKD
ROOT
HETATM    1  O   UNL     1     -10.258   5.395  65.574  1.00  0.00    -0.394 OA 
HETATM    2  H   UNL     1     -10.911   4.865  66.017  1.00  0.00     0.000 HD 
HETATM    3  C   UNL     1     -10.670   6.744  65.431  1.00  0.00     3.635 C  
HETATM    4  C   UNL     1      -9.617   7.600  64.717  1.00  0.00     2.056 C  
HETATM    5  C   UNL     1     -10.076   9.093  64.533  1.00  0.00     1.844 C  
HETATM    6  C   UNL     1     -10.442   9.762  65.933  1.00  0.00    -0.028 C  
HETATM    7  C   UNL     1      -9.030   9.874  66.531  1.00  0.00    -0.166 C  
HETATM    8  C   UNL     1     -11.545   8.770  66.448  1.00  0.00     4.056 C  
HETATM    9  C   UNL     1     -11.074   7.341  66.783  1.00  0.00     0.237 C  
HETATM   10  C   UNL     1     -12.722   9.191  67.307  1.00  0.00    11.098 C  
HETATM   11  C   UNL     1     -13.238  10.632  66.967  1.00  0.00    10.979 C  
HETATM   12  C   UNL     1     -10.058   7.176  67.932  1.00  0.00    -0.211 C  
HETATM   13  C   UNL     1     -12.071  11.650  67.240  1.00  0.00     0.332 C  
HETATM   14  C   UNL     1     -12.116  11.264  68.822  1.00  0.00    -0.258 C  
HETATM   15  C   UNL     1     -11.043  11.259  65.950  1.00  0.00    -0.168 C  
HETATM   16  C   UNL     1     -10.042  12.366  65.348  1.00  0.00    -0.269 C  
HETATM   17  C   UNL     1     -10.569  13.802  65.294  1.00  0.00    -0.363 C  
HETATM   18  O   UNL     1      -8.780  12.438  65.989  1.00  0.00    -0.407 OA 
HETATM   19  C   UNL     1     -11.092  14.301  66.626  1.00  0.00    -0.321 C  
HETATM   20  H   UNL     1      -8.189  13.091  65.634  1.00  0.00     0.000 HD 
HETATM   21  C   UNL     1      -9.952  14.501  67.787  1.00  0.00    -0.225 C  
HETATM   22  C   UNL     1     -10.268  13.282  68.586  1.00  0.00    -0.172 C  
HETATM   23  C   UNL     1      -9.675  15.637  68.508  1.00  0.00    -0.202 C  
HETATM   24  C   UNL     1     -11.840  13.740  68.705  1.00  0.00    -0.409 C  
HETATM   25  C   UNL     1      -9.845  15.603  70.051  1.00  0.00    -0.083 C  
HETATM   26  C   UNL     1      -8.509  16.545  68.200  1.00  0.00    -0.191 C  
HETATM   27  O   UNL     1      -8.977  16.445  70.655  1.00  0.00     2.241 OA 
HETATM   28  C   UNL     1     -13.672  13.698  66.889  1.00  0.00     5.993 C  
HETATM   29  C   UNL     1     -12.254  13.307  67.266  1.00  0.00    -0.258 C  
HETATM   30  O   UNL     1     -10.565  14.921  70.742  1.00  0.00    -0.013 OA 
ENDROOT
BRANCH  22  31
HETATM   31  O   UNL     1      -9.257  12.864  69.544  1.00  0.00     1.064 OA 
BRANCH  31  32
HETATM   32  C   UNL     1      -8.044  12.410  69.056  1.00  0.00     0.312 C  
HETATM   33  O   UNL     1      -7.063  12.189  69.764  1.00  0.00     0.170 OA 
HETATM   34  C   UNL     1      -7.837  12.333  67.556  1.00  0.00    -0.166 C  
ENDBRANCH  31  32
ENDBRANCH  22  31
BRANCH  26  35
HETATM   35  C   UNL     1      -7.978  16.533  66.785  1.00  0.00    -0.290 C  
BRANCH  35  36
HETATM   36  C   UNL     1      -7.645  15.110  66.437  1.00  0.00     1.072 C  
HETATM   37  C   UNL     1      -6.407  14.591  66.321  1.00  0.00     4.608 C  
HETATM   38  C   UNL     1      -6.236  13.149  65.957  1.00  0.00     4.804 C  
HETATM   39  C   UNL     1      -5.126  15.364  66.501  1.00  0.00     2.122 C  
ENDBRANCH  35  36
ENDBRANCH  26  35
TORSDOF 4
ENDMDL
MODEL      134
REMARK 921   NORMALIZED FREE ENERGY PREDICTED BY IDOCK:   50.57 KCAL/MOL
REMARK 922        TOTAL FREE ENERGY PREDICTED BY IDOCK:   62.21 KCAL/MOL
REMARK 923 INTER-LIGAND FREE ENERGY PREDICTED BY IDOCK:   13.87 KCAL/MOL
REMARK 924 INTRA-LIGAND FREE ENERGY PREDICTED BY IDOCK:   48.34 KCAL/MOL
REMARK 927      BINDING AFFINITY PREDICTED BY RF-SCORE:    0.00 PKD
ROOT
HETATM    1  O   UNL     1      -6.761   7.986  65.287  1.00  0.00    -0.054 OA 
HETATM    2  H   UNL     1      -7.328   7.328  64.904  1.00  0.00     0.000 HD 
HETATM    3  C   UNL     1      -7.360   9.271  65.298  1.00  0.00    -0.094 C  
HETATM    4  C   UNL     1      -6.445  10.334  65.917  1.00  0.00    -0.111 C  
HETATM    5  C   UNL     1      -7.094  11.767  65.911  1.00  0.00     0.883 C  
HETATM    6  C   UNL     1      -8.495  11.770  66.669  1.00  0.00    -0.153 C  
HETATM    7  C   UNL     1      -7.998  11.589  68.112  1.00  0.00    -0.136 C  
HETATM    8  C   UNL     1      -9.267  10.671  65.854  1.00  0.00    -0.209 C  
HETATM    9  C   UNL     1      -8.733   9.230  65.978  1.00  0.00    -0.175 C  
HETATM   10  C   UNL     1     -10.764  10.697  65.610  1.00  0.00    -0.104 C  
HETATM   11  C   UNL     1     -11.328  12.152  65.454  1.00  0.00    -0.388 C  
HETATM   12  C   UNL     1      -8.786   8.567  67.369  1.00  0.00    -0.136 C  
HETATM   13  C   UNL     1     -11.057  12.932  66.792  1.00  0.00    -0.315 C  
HETATM   14  C   UNL     1     -12.039  11.900  67.583  1.00  0.00     0.089 C  
HETATM   15  C   UNL     1      -9.376  13.121  66.677  1.00  0.00    -0.242 C  
HETATM   16  C   UNL     1      -8.651  14.362  67.399  1.00  0.00    -0.202 C  
HETATM   17  C   UNL     1      -9.415  15.689  67.403  1.00  0.00    -0.217 C  
HETATM   18  O   UNL     1      -8.269  14.130  68.744  1.00  0.00    -0.198 OA 
HETATM   19  C   UNL     1     -10.822  15.571  67.952  1.00  0.00    -0.307 C  
HETATM   20  H   UNL     1      -7.841  14.862  69.170  1.00  0.00     0.000 HD 
HETATM   21  C   UNL     1     -10.914  15.229  69.553  1.00  0.00    -0.280 C  
HETATM   22  C   UNL     1     -11.284  13.790  69.427  1.00  0.00    -0.207 C  
HETATM   23  C   UNL     1     -11.576  15.936  70.528  1.00  0.00    -0.402 C  
HETATM   24  C   UNL     1     -12.553  14.177  68.459  1.00  0.00     0.491 C  
HETATM   25  C   UNL     1     -12.724  15.241  71.306  1.00  0.00    -0.401 C  
HETATM   26  C   UNL     1     -10.876  16.869  71.487  1.00  0.00     1.400 C  
HETATM   27  O   UNL     1     -12.821  15.724  72.566  1.00  0.00    -0.402 OA 
HETATM   28  C   UNL     1     -12.525  14.956  66.001  1.00  0.00     0.269 C  
HETATM   29  C   UNL     1     -11.717  14.417  67.167  1.00  0.00    -0.424 C  
HETATM   30  O   UNL     1     -13.457  14.338  70.975  1.00  0.00    -0.326 OA 
ENDROOT
BRANCH  22  31
HETATM   31  O   UNL     1     -11.130  12.982  70.626  1.00  0.00     0.963 OA 
BRANCH  31  32
HETATM   32  C   UNL     1     -11.303  13.595  71.854  1.00  0.00     2.807 C  
HETATM   33  O   UNL     1     -11.511  12.983  72.900  1.00  0.00     4.337 OA 
HETATM   34  C   UNL     1     -11.414  15.107  71.912  1.00  0.00    -0.457 C  
ENDBRANCH  31  32
ENDBRANCH  22  31
BRANCH  26  35
HETATM   35  C   UNL     1      -9.560  17.462  71.040  1.00  0.00     4.937 C  
BRANCH  35  36
HETATM   36  C   UNL     1      -9.095  16.684  69.843  1.00  0.00     0.990 C  
HETATM   37  C   UNL     1      -8.375  15.545  69.869  1.00  0.00     0.194 C  
HETATM   38  C   UNL     1      -7.976  14.886  68.585  1.00  0.00    -0.144 C  
HETATM   39  C   UNL     1      -7.887  14.859  71.119  1.00  0.00     2.593 C  
ENDBRANCH  35  36
ENDBRANCH  26  35
TORSDOF 4
ENDMDL
MODEL      135
REMARK 921   NORMALIZED FREE ENERGY PREDICTED BY IDOCK:   53.72 KCAL/MOL
REMARK 922        TOTAL FREE ENERGY PREDICTED BY IDOCK:   66.10 KCAL/MOL
REMARK 923 INTER-LIGAND FREE ENERGY PREDICTED BY IDOCK:   30.74 KCAL/MOL
REMARK 924 INTRA-LIGAND FREE ENERGY PREDICTED BY IDOCK:   35.36 KCAL/MOL
REMARK 927      BINDING AFFINITY PREDICTED BY RF-SCORE:    0.00 PKD
ROOT
HETATM    1  O   UNL     1      -9.052   7.269  64.755  1.00  0.00    -0.041 OA 
HETATM    2  H   UNL     1      -9.759   6.706  64.459  1.00  0.00     0.000 HD 
HETATM    3  C   UNL     1      -9.282   8.631  64.434  1.00  0.00     0.668 C  
HETATM    4  C   UNL     1      -8.143   9.540  64.911  1.00  0.00    -0.131 C  
HETATM    5  C   UNL     1      -8.379  11.050  64.539  1.00  0.00     0.256 C  
HETATM    6  C   UNL     1      -9.761  11.580  65.128  1.00  0.00    -0.268 C  
HETATM    7  C   UNL     1      -9.398  11.614  66.622  1.00  0.00    -0.203 C  
HETATM    8  C   UNL     1     -10.763  10.557  64.484  1.00  0.00     0.193 C  
HETATM    9  C   UNL     1     -10.645   9.096  64.960  1.00  0.00     2.860 C  
HETATM   10  C   UNL     1     -12.185  10.905  64.084  1.00  0.00     2.062 C  
HETATM   11  C   UNL     1     -12.326  12.380  63.571  1.00  0.00    -0.648 C  
HETATM   12  C   UNL     1     -10.938   8.804  66.446  1.00  0.00     0.999 C  
HETATM   13  C   UNL     1     -11.917  13.350  64.738  1.00  0.00    -0.429 C  
HETATM   14  C   UNL     1     -13.176  12.809  65.619  1.00  0.00     1.243 C  
HETATM   15  C   UNL     1     -10.244  13.076  64.763  1.00  0.00    -0.312 C  
HETATM   16  C   UNL     1      -9.243  14.224  65.282  1.00  0.00     0.952 C  
HETATM   17  C   UNL     1      -9.620  15.666  64.929  1.00  0.00     0.857 C  
HETATM   18  O   UNL     1      -9.001  14.216  66.678  1.00  0.00    -0.358 OA 
HETATM   19  C   UNL     1     -11.030  16.036  65.341  1.00  0.00    -0.261 C  
HETATM   20  H   UNL     1      -8.410  14.893  66.985  1.00  0.00     0.000 HD 
HETATM   21  C   UNL     1     -11.285  16.104  66.959  1.00  0.00     0.090 C  
HETATM   22  C   UNL     1     -12.024  14.817  67.097  1.00  0.00    -0.200 C  
HETATM   23  C   UNL     1     -11.774  17.159  67.691  1.00  0.00     1.028 C  
HETATM   24  C   UNL     1     -13.095  15.281  65.943  1.00  0.00     1.706 C  
HETATM   25  C   UNL     1     -13.103  16.974  68.472  1.00  0.00     5.280 C  
HETATM   26  C   UNL     1     -10.894  18.079  68.503  1.00  0.00     0.115 C  
HETATM   27  O   UNL     1     -13.123  17.741  69.586  1.00  0.00     9.555 OA 
HETATM   28  C   UNL     1     -12.745  15.444  63.392  1.00  0.00     1.798 C  
HETATM   29  C   UNL     1     -12.167  14.999  64.723  1.00  0.00    -0.223 C  
HETATM   30  O   UNL     1     -14.036  16.236  68.261  1.00  0.00     5.727 OA 
ENDROOT
BRANCH  22  31
HETATM   31  O   UNL     1     -12.149  14.292  68.448  1.00  0.00    -0.335 OA 
BRANCH  31  32
HETATM   32  C   UNL     1     -11.601  13.051  68.720  1.00  0.00    -0.309 C  
HETATM   33  O   UNL     1     -12.208  11.991  68.580  1.00  0.00    -0.299 OA 
HETATM   34  C   UNL     1     -10.239  12.978  69.383  1.00  0.00     0.548 C  
ENDBRANCH  31  32
ENDBRANCH  22  31
BRANCH  26  35
HETATM   35  C   UNL     1      -9.447  18.200  68.082  1.00  0.00    -0.301 C  
BRANCH  35  36
HETATM   36  C   UNL     1      -8.796  16.866  68.305  1.00  0.00    -0.228 C  
HETATM   37  C   UNL     1      -9.017  15.746  67.588  1.00  0.00    -0.190 C  
HETATM   38  C   UNL     1      -8.294  14.483  67.938  1.00  0.00    -0.159 C  
HETATM   39  C   UNL     1      -9.986  15.633  66.439  1.00  0.00    -0.298 C  
ENDBRANCH  35  36
ENDBRANCH  26  35
TORSDOF 4
ENDMDL
MODEL      136
REMARK 921   NORMALIZED FREE ENERGY PREDICTED BY IDOCK:   54.03 KCAL/MOL
REMARK 922        TOTAL FREE ENERGY PREDICTED BY IDOCK:   66.48 KCAL/MOL
REMARK 923 INTER-LIGAND FREE ENERGY PREDICTED BY IDOCK:   51.54 KCAL/MOL
REMARK 924 INTRA-LIGAND FREE ENERGY PREDICTED BY IDOCK:   14.94 KCAL/MOL
REMARK 927      BINDING AFFINITY PREDICTED BY RF-SCORE:    0.00 PKD
ROOT
HETATM    1  O   UNL     1      -7.693   2.912  70.946  1.00  0.00    -0.039 OA 
HETATM    2  H   UNL     1      -8.147   2.510  71.678  1.00  0.00     0.000 HD 
HETATM    3  C   UNL     1      -8.314   4.117  70.527  1.00  0.00    -0.066 C  
HETATM    4  C   UNL     1      -7.583   4.766  69.346  1.00  0.00    -0.056 C  
HETATM    5  C   UNL     1      -8.279   6.091  68.859  1.00  0.00    -0.104 C  
HETATM    6  C   UNL     1      -8.407   7.145  70.047  1.00  0.00    -0.138 C  
HETATM    7  C   UNL     1      -6.927   7.532  70.197  1.00  0.00    -0.059 C  
HETATM    8  C   UNL     1      -9.212   6.301  71.098  1.00  0.00    -0.159 C  
HETATM    9  C   UNL     1      -8.480   5.087  71.702  1.00  0.00    -0.124 C  
HETATM   10  C   UNL     1     -10.211   6.897  72.072  1.00  0.00    -0.206 C  
HETATM   11  C   UNL     1     -10.989   8.119  71.472  1.00  0.00    -0.294 C  
HETATM   12  C   UNL     1      -7.217   5.361  72.543  1.00  0.00    -0.093 C  
HETATM   13  C   UNL     1      -9.947   9.243  71.123  1.00  0.00    -0.356 C  
HETATM   14  C   UNL     1      -9.576   9.379  72.703  1.00  0.00     2.099 C  
HETATM   15  C   UNL     1      -9.195   8.528  69.782  1.00  0.00    -0.157 C  
HETATM   16  C   UNL     1      -8.524   9.447  68.645  1.00  0.00    -0.119 C  
HETATM   17  C   UNL     1      -9.247  10.755  68.312  1.00  0.00    -0.157 C  
HETATM   18  O   UNL     1      -7.173   9.801  68.885  1.00  0.00    -0.069 OA 
HETATM   19  C   UNL     1      -9.519  11.618  69.528  1.00  0.00     0.888 C  
HETATM   20  H   UNL     1      -6.776  10.343  68.214  1.00  0.00     0.000 HD 
HETATM   21  C   UNL     1      -8.184  12.249  70.242  1.00  0.00     4.119 C  
HETATM   22  C   UNL     1      -8.135  11.331  71.416  1.00  0.00     8.028 C  
HETATM   23  C   UNL     1      -7.914  13.571  70.501  1.00  0.00     3.614 C  
HETATM   24  C   UNL     1      -9.688  11.701  71.800  1.00  0.00    13.115 C  
HETATM   25  C   UNL     1      -7.723  14.019  71.975  1.00  0.00     6.381 C  
HETATM   26  C   UNL     1      -6.990  14.406  69.649  1.00  0.00    -0.086 C  
HETATM   27  O   UNL     1      -6.868  15.064  72.059  1.00  0.00     1.495 OA 
HETATM   28  C   UNL     1     -11.859  10.966  70.617  1.00  0.00    -0.453 C  
HETATM   29  C   UNL     1     -10.352  10.807  70.710  1.00  0.00     1.457 C  
HETATM   30  O   UNL     1      -8.163  13.548  72.998  1.00  0.00     9.201 OA 
ENDROOT
BRANCH  22  31
HETATM   31  O   UNL     1      -6.884  11.305  72.156  1.00  0.00     3.630 OA 
BRANCH  31  32
HETATM   32  C   UNL     1      -5.944  12.284  71.886  1.00  0.00     1.702 C  
HETATM   33  O   UNL     1      -5.182  12.750  72.731  1.00  0.00    -0.371 OA 
HETATM   34  C   UNL     1      -5.949  12.953  70.525  1.00  0.00    -0.075 C  
ENDBRANCH  31  32
ENDBRANCH  22  31
BRANCH  26  35
HETATM   35  C   UNL     1      -6.798  13.978  68.212  1.00  0.00    -0.108 C  
BRANCH  35  36
HETATM   36  C   UNL     1      -7.754  14.773  67.370  1.00  0.00    -0.230 C  
HETATM   37  C   UNL     1      -8.761  15.543  67.827  1.00  0.00    -0.170 C  
HETATM   38  C   UNL     1      -9.640  16.272  66.857  1.00  0.00    -0.244 C  
HETATM   39  C   UNL     1      -9.120  15.726  69.279  1.00  0.00    -0.263 C  
ENDBRANCH  35  36
ENDBRANCH  26  35
TORSDOF 4
ENDMDL
MODEL      137
REMARK 921   NORMALIZED FREE ENERGY PREDICTED BY IDOCK:   55.98 KCAL/MOL
REMARK 922        TOTAL FREE ENERGY PREDICTED BY IDOCK:   68.89 KCAL/MOL
REMARK 923 INTER-LIGAND FREE ENERGY PREDICTED BY IDOCK:   67.78 KCAL/MOL
REMARK 924 INTRA-LIGAND FREE ENERGY PREDICTED BY IDOCK:    1.11 KCAL/MOL
REMARK 927      BINDING AFFINITY PREDICTED BY RF-SCORE:    0.00 PKD
ROOT
HETATM    1  O   UNL     1     -13.910   7.882  65.357  1.00  0.00    14.822 OA 
HETATM    2  H   UNL     1     -14.698   8.299  65.685  1.00  0.00     0.000 HD 
HETATM    3  C   UNL     1     -12.808   8.052  66.234  1.00  0.00    14.860 C  
HETATM    4  C   UNL     1     -11.536   7.380  65.706  1.00  0.00     5.450 C  
HETATM    5  C   UNL     1     -10.304   7.584  66.662  1.00  0.00    -0.252 C  
HETATM    6  C   UNL     1     -10.616   7.047  68.129  1.00  0.00    -0.250 C  
HETATM    7  C   UNL     1     -10.624   5.536  67.845  1.00  0.00    -0.219 C  
HETATM    8  C   UNL     1     -11.895   7.889  68.479  1.00  0.00     2.079 C  
HETATM    9  C   UNL     1     -13.158   7.585  67.651  1.00  0.00    13.366 C  
HETATM   10  C   UNL     1     -12.239   8.356  69.881  1.00  0.00     1.108 C  
HETATM   11  C   UNL     1     -10.970   8.697  70.736  1.00  0.00    -0.286 C  
HETATM   12  C   UNL     1     -13.769   6.174  67.773  1.00  0.00    19.484 C  
HETATM   13  C   UNL     1     -10.105   7.392  70.877  1.00  0.00    -0.188 C  
HETATM   14  C   UNL     1     -11.318   6.687  71.705  1.00  0.00    -0.320 C  
HETATM   15  C   UNL     1      -9.518   7.267  69.291  1.00  0.00    -0.153 C  
HETATM   16  C   UNL     1      -8.116   6.533  69.003  1.00  0.00    -0.112 C  
HETATM   17  C   UNL     1      -7.014   6.738  70.047  1.00  0.00    -0.062 C  
HETATM   18  O   UNL     1      -8.205   5.133  68.802  1.00  0.00    -0.085 OA 
HETATM   19  C   UNL     1      -7.451   6.399  71.457  1.00  0.00    -0.090 C  
HETATM   20  H   UNL     1      -7.378   4.701  68.632  1.00  0.00     0.000 HD 
HETATM   21  C   UNL     1      -7.753   4.810  71.726  1.00  0.00    -0.097 C  
HETATM   22  C   UNL     1      -9.242   4.889  71.724  1.00  0.00    -0.141 C  
HETATM   23  C   UNL     1      -7.196   3.998  72.685  1.00  0.00    -0.062 C  
HETATM   24  C   UNL     1      -9.205   6.061  72.873  1.00  0.00    -0.134 C  
HETATM   25  C   UNL     1      -8.123   3.354  73.750  1.00  0.00    -0.074 C  
HETATM   26  C   UNL     1      -6.091   3.013  72.389  1.00  0.00    -0.009 C  
HETATM   27  O   UNL     1      -7.638   2.161  74.160  1.00  0.00    -0.033 OA 
HETATM   28  C   UNL     1      -8.523   8.536  72.629  1.00  0.00    -0.169 C  
HETATM   29  C   UNL     1      -8.813   7.227  71.917  1.00  0.00    -0.133 C  
HETATM   30  O   UNL     1      -9.186   3.727  74.187  1.00  0.00    -0.089 OA 
ENDROOT
BRANCH  22  31
HETATM   31  O   UNL     1      -9.950   3.626  71.583  1.00  0.00    -0.175 OA 
BRANCH  31  32
HETATM   32  C   UNL     1      -9.550   2.763  70.578  1.00  0.00    -0.088 C  
HETATM   33  O   UNL     1      -9.872   2.891  69.399  1.00  0.00     0.054 OA 
HETATM   34  C   UNL     1      -8.813   1.491  70.952  1.00  0.00    -0.107 C  
ENDBRANCH  31  32
ENDBRANCH  22  31
BRANCH  26  35
HETATM   35  C   UNL     1      -5.212   3.298  71.193  1.00  0.00    -0.004 C  
BRANCH  35  36
HETATM   36  C   UNL     1      -6.110   3.483  70.003  1.00  0.00    -0.023 C  
HETATM   37  C   UNL     1      -6.137   2.706  68.902  1.00  0.00    -0.025 C  
HETATM   38  C   UNL     1      -7.087   3.025  67.790  1.00  0.00    -0.050 C  
HETATM   39  C   UNL     1      -5.245   1.515  68.663  1.00  0.00    -0.012 C  
ENDBRANCH  35  36
ENDBRANCH  26  35
TORSDOF 4
ENDMDL
MODEL      138
REMARK 921   NORMALIZED FREE ENERGY PREDICTED BY IDOCK:   59.20 KCAL/MOL
REMARK 922        TOTAL FREE ENERGY PREDICTED BY IDOCK:   72.86 KCAL/MOL
REMARK 923 INTER-LIGAND FREE ENERGY PREDICTED BY IDOCK:   68.75 KCAL/MOL
REMARK 924 INTRA-LIGAND FREE ENERGY PREDICTED BY IDOCK:    4.11 KCAL/MOL
REMARK 927      BINDING AFFINITY PREDICTED BY RF-SCORE:    0.00 PKD
ROOT
HETATM    1  O   UNL     1      -7.868   7.281  70.016  1.00  0.00    -0.107 OA 
HETATM    2  H   UNL     1      -7.953   6.988  70.916  1.00  0.00     0.000 HD 
HETATM    3  C   UNL     1      -8.909   8.169  69.640  1.00  0.00    -0.143 C  
HETATM    4  C   UNL     1      -8.772   8.642  68.187  1.00  0.00    -0.142 C  
HETATM    5  C   UNL     1      -9.935   9.609  67.755  1.00  0.00    -0.211 C  
HETATM    6  C   UNL     1     -10.020  10.875  68.718  1.00  0.00    -0.203 C  
HETATM    7  C   UNL     1      -8.741  11.608  68.281  1.00  0.00    -0.163 C  
HETATM    8  C   UNL     1     -10.204  10.170  70.109  1.00  0.00    -0.235 C  
HETATM    9  C   UNL     1      -9.007   9.344  70.618  1.00  0.00    -0.285 C  
HETATM   10  C   UNL     1     -11.010  10.757  71.252  1.00  0.00     1.438 C  
HETATM   11  C   UNL     1     -12.251  11.580  70.761  1.00  0.00    -0.463 C  
HETATM   12  C   UNL     1      -7.694  10.098  70.913  1.00  0.00     0.964 C  
HETATM   13  C   UNL     1     -11.731  12.781  69.889  1.00  0.00    -0.321 C  
HETATM   14  C   UNL     1     -10.979  13.395  71.197  1.00  0.00     2.996 C  
HETATM   15  C   UNL     1     -11.221  11.934  68.512  1.00  0.00    -0.308 C  
HETATM   16  C   UNL     1     -11.205  12.658  67.075  1.00  0.00    -0.300 C  
HETATM   17  C   UNL     1     -12.345  13.643  66.798  1.00  0.00    -0.354 C  
HETATM   18  O   UNL     1     -10.008  13.352  66.771  1.00  0.00    -0.251 OA 
HETATM   19  C   UNL     1     -12.496  14.704  67.868  1.00  0.00     0.316 C  
HETATM   20  H   UNL     1      -9.999  13.779  65.923  1.00  0.00     0.000 HD 
HETATM   21  C   UNL     1     -11.260  15.777  67.960  1.00  0.00    -0.338 C  
HETATM   22  C   UNL     1     -10.609  15.223  69.182  1.00  0.00    -0.250 C  
HETATM   23  C   UNL     1     -11.328  17.147  67.884  1.00  0.00     0.238 C  
HETATM   24  C   UNL     1     -12.022  15.324  70.010  1.00  0.00    -0.375 C  
HETATM   25  C   UNL     1     -10.861  17.988  69.102  1.00  0.00     0.676 C  
HETATM   26  C   UNL     1     -10.975  17.921  66.636  1.00  0.00     0.193 C  
HETATM   27  O   UNL     1     -10.365  19.182  68.709  1.00  0.00    -0.334 OA 
HETATM   28  C   UNL     1     -14.126  13.848  69.791  1.00  0.00     4.421 C  
HETATM   29  C   UNL     1     -12.679  14.057  69.384  1.00  0.00     0.320 C  
HETATM   30  O   UNL     1     -10.830  17.707  70.278  1.00  0.00     0.649 OA 
ENDROOT
BRANCH  22  31
HETATM   31  O   UNL     1      -9.247  15.666  69.438  1.00  0.00    -0.258 OA 
BRANCH  31  32
HETATM   32  C   UNL     1      -9.015  16.457  70.550  1.00  0.00     2.637 C  
HETATM   33  O   UNL     1      -9.571  16.290  71.634  1.00  0.00     4.026 OA 
HETATM   34  C   UNL     1      -8.162  17.702  70.403  1.00  0.00     3.619 C  
ENDBRANCH  31  32
ENDBRANCH  22  31
BRANCH  26  35
HETATM   35  C   UNL     1     -11.087  17.194  65.316  1.00  0.00     0.168 C  
BRANCH  35  36
HETATM   36  C   UNL     1     -11.911  18.049  64.396  1.00  0.00     5.368 C  
HETATM   37  C   UNL     1     -12.969  17.638  63.669  1.00  0.00    12.909 C  
HETATM   38  C   UNL     1     -13.688  18.611  62.786  1.00  0.00    27.977 C  
HETATM   39  C   UNL     1     -13.502  16.229  63.637  1.00  0.00     4.875 C  
ENDBRANCH  35  36
ENDBRANCH  26  35
TORSDOF 4
ENDMDL
MODEL      139
REMARK 921   NORMALIZED FREE ENERGY PREDICTED BY IDOCK:   63.27 KCAL/MOL
REMARK 922        TOTAL FREE ENERGY PREDICTED BY IDOCK:   77.88 KCAL/MOL
REMARK 923 INTER-LIGAND FREE ENERGY PREDICTED BY IDOCK:   56.46 KCAL/MOL
REMARK 924 INTRA-LIGAND FREE ENERGY PREDICTED BY IDOCK:   21.42 KCAL/MOL
REMARK 927      BINDING AFFINITY PREDICTED BY RF-SCORE:    0.00 PKD
ROOT
HETATM    1  O   UNL     1     -10.807  17.143  72.174  1.00  0.00     1.433 OA 
HETATM    2  H   UNL     1     -11.498  17.614  71.724  1.00  0.00     0.000 HD 
HETATM    3  C   UNL     1     -11.163  15.797  72.445  1.00  0.00     0.119 C  
HETATM    4  C   UNL     1     -10.048  15.036  73.172  1.00  0.00     5.183 C  
HETATM    5  C   UNL     1     -10.444  13.549  73.497  1.00  0.00    10.072 C  
HETATM    6  C   UNL     1     -10.851  12.758  72.175  1.00  0.00     8.749 C  
HETATM    7  C   UNL     1      -9.465  12.642  71.518  1.00  0.00    15.280 C  
HETATM    8  C   UNL     1     -12.012  13.669  71.638  1.00  0.00     0.424 C  
HETATM    9  C   UNL     1     -11.609  15.079  71.166  1.00  0.00    -0.377 C  
HETATM   10  C   UNL     1     -13.213  13.142  70.875  1.00  0.00     0.074 C  
HETATM   11  C   UNL     1     -13.660  11.718  71.354  1.00  0.00     0.461 C  
HETATM   12  C   UNL     1     -10.655  15.183  69.959  1.00  0.00    -0.237 C  
HETATM   13  C   UNL     1     -12.472  10.718  71.105  1.00  0.00    -0.519 C  
HETATM   14  C   UNL     1     -12.604  10.972  69.502  1.00  0.00    -0.002 C  
HETATM   15  C   UNL     1     -11.399  11.246  72.307  1.00  0.00     5.404 C  
HETATM   16  C   UNL     1     -10.332  10.224  72.944  1.00  0.00     8.283 C  
HETATM   17  C   UNL     1     -10.804   8.781  73.139  1.00  0.00     1.258 C  
HETATM   18  O   UNL     1      -9.100  10.140  72.250  1.00  0.00     3.023 OA 
HETATM   19  C   UNL     1     -11.371   8.158  71.879  1.00  0.00    -0.356 C  
HETATM   20  H   UNL     1      -8.470   9.537  72.626  1.00  0.00     0.000 HD 
HETATM   21  C   UNL     1     -10.280   7.901  70.683  1.00  0.00    -0.199 C  
HETATM   22  C   UNL     1     -10.677   9.040  69.805  1.00  0.00    -0.225 C  
HETATM   23  C   UNL     1      -9.997   6.719  70.041  1.00  0.00    -0.189 C  
HETATM   24  C   UNL     1     -12.236   8.524  69.803  1.00  0.00     1.311 C  
HETATM   25  C   UNL     1     -10.241   6.622  68.512  1.00  0.00    -0.171 C  
HETATM   26  C   UNL     1      -8.786   5.877  70.363  1.00  0.00    -0.139 C  
HETATM   27  O   UNL     1      -9.372   5.761  67.934  1.00  0.00    -0.106 OA 
HETATM   28  C   UNL     1     -13.980   8.656  71.698  1.00  0.00    -0.459 C  
HETATM   29  C   UNL     1     -12.597   9.060  71.220  1.00  0.00    -0.336 C  
HETATM   30  O   UNL     1     -11.016   7.222  67.805  1.00  0.00    -0.165 OA 
ENDROOT
BRANCH  22  31
HETATM   31  O   UNL     1      -9.727   9.411  68.768  1.00  0.00    -0.152 OA 
BRANCH  31  32
HETATM   32  C   UNL     1      -9.323   8.435  67.874  1.00  0.00    -0.135 C  
HETATM   33  O   UNL     1      -8.213   8.412  67.346  1.00  0.00    -0.118 OA 
HETATM   34  C   UNL     1     -10.340   7.427  67.376  1.00  0.00    -0.340 C  
ENDBRANCH  31  32
ENDBRANCH  22  31
BRANCH  26  35
HETATM   35  C   UNL     1      -8.190   6.021  71.744  1.00  0.00    -0.118 C  
BRANCH  35  36
HETATM   36  C   UNL     1      -7.673   4.674  72.159  1.00  0.00    -0.091 C  
HETATM   37  C   UNL     1      -7.750   3.539  71.437  1.00  0.00    -0.056 C  
HETATM   38  C   UNL     1      -7.193   2.264  71.992  1.00  0.00    -0.038 C  
HETATM   39  C   UNL     1      -8.395   3.419  70.081  1.00  0.00    -0.081 C  
ENDBRANCH  35  36
ENDBRANCH  26  35
TORSDOF 4
ENDMDL
MODEL      140
REMARK 921   NORMALIZED FREE ENERGY PREDICTED BY IDOCK:   66.31 KCAL/MOL
REMARK 922        TOTAL FREE ENERGY PREDICTED BY IDOCK:   81.63 KCAL/MOL
REMARK 923 INTER-LIGAND FREE ENERGY PREDICTED BY IDOCK:   80.90 KCAL/MOL
REMARK 924 INTRA-LIGAND FREE ENERGY PREDICTED BY IDOCK:    0.73 KCAL/MOL
REMARK 927      BINDING AFFINITY PREDICTED BY RF-SCORE:    0.00 PKD
ROOT
HETATM    1  O   UNL     1     -14.195  12.531  67.428  1.00  0.00     9.974 OA 
HETATM    2  H   UNL     1     -14.262  12.811  66.522  1.00  0.00     0.000 HD 
HETATM    3  C   UNL     1     -13.942  11.140  67.540  1.00  0.00    15.358 C  
HETATM    4  C   UNL     1     -13.834  10.686  69.001  1.00  0.00     5.865 C  
HETATM    5  C   UNL     1     -13.577   9.140  69.136  1.00  0.00     6.602 C  
HETATM    6  C   UNL     1     -12.263   8.702  68.346  1.00  0.00     4.139 C  
HETATM    7  C   UNL     1     -11.201   9.340  69.257  1.00  0.00     0.066 C  
HETATM    8  C   UNL     1     -12.611   9.210  66.902  1.00  0.00    10.972 C  
HETATM    9  C   UNL     1     -12.710  10.737  66.722  1.00  0.00     6.251 C  
HETATM   10  C   UNL     1     -12.146   8.523  65.631  1.00  0.00    11.466 C  
HETATM   11  C   UNL     1     -12.062   6.965  65.780  1.00  0.00     6.969 C  
HETATM   12  C   UNL     1     -11.433  11.569  66.959  1.00  0.00    -0.290 C  
HETATM   13  C   UNL     1     -11.012   6.633  66.903  1.00  0.00    -0.396 C  
HETATM   14  C   UNL     1      -9.838   7.296  65.991  1.00  0.00     0.252 C  
HETATM   15  C   UNL     1     -11.886   7.135  68.266  1.00  0.00     1.450 C  
HETATM   16  C   UNL     1     -11.603   6.464  69.701  1.00  0.00    -0.282 C  
HETATM   17  C   UNL     1     -11.282   4.967  69.700  1.00  0.00     2.121 C  
HETATM   18  O   UNL     1     -10.575   7.081  70.456  1.00  0.00    -0.216 OA 
HETATM   19  C   UNL     1     -10.149   4.595  68.765  1.00  0.00    -0.085 C  
HETATM   20  H   UNL     1     -10.409   6.685  71.303  1.00  0.00     0.000 HD 
HETATM   21  C   UNL     1      -8.675   5.163  69.204  1.00  0.00    -0.103 C  
HETATM   22  C   UNL     1      -8.585   6.269  68.208  1.00  0.00    -0.117 C  
HETATM   23  C   UNL     1      -7.523   4.443  69.407  1.00  0.00    -0.055 C  
HETATM   24  C   UNL     1      -8.877   5.219  66.980  1.00  0.00    -0.109 C  
HETATM   25  C   UNL     1      -6.290   4.735  68.510  1.00  0.00    -0.036 C  
HETATM   26  C   UNL     1      -7.009   4.080  70.780  1.00  0.00    -0.033 C  
HETATM   27  O   UNL     1      -5.137   4.502  69.176  1.00  0.00     0.000 OA 
HETATM   28  C   UNL     1     -11.095   4.074  66.332  1.00  0.00     2.435 C  
HETATM   29  C   UNL     1     -10.414   5.107  67.210  1.00  0.00    -0.197 C  
HETATM   30  O   UNL     1      -6.230   5.175  67.386  1.00  0.00    -0.032 OA 
ENDROOT
BRANCH  22  31
HETATM   31  O   UNL     1      -7.570   7.278  68.462  1.00  0.00    -0.111 OA 
BRANCH  31  32
HETATM   32  C   UNL     1      -7.854   8.273  69.381  1.00  0.00    -0.104 C  
HETATM   33  O   UNL     1      -8.411   9.331  69.092  1.00  0.00    -0.125 OA 
HETATM   34  C   UNL     1      -7.310   8.149  70.791  1.00  0.00    -0.058 C  
ENDBRANCH  31  32
ENDBRANCH  22  31
BRANCH  26  35
HETATM   35  C   UNL     1      -8.021   4.010  71.901  1.00  0.00    -0.079 C  
BRANCH  35  36
HETATM   36  C   UNL     1      -8.636   5.373  72.043  1.00  0.00    -0.131 C  
HETATM   37  C   UNL     1      -8.707   6.096  73.178  1.00  0.00    -0.120 C  
HETATM   38  C   UNL     1      -9.362   7.443  73.163  1.00  0.00    -0.235 C  
HETATM   39  C   UNL     1      -8.193   5.648  74.522  1.00  0.00    -0.105 C  
ENDBRANCH  35  36
ENDBRANCH  26  35
TORSDOF 4
ENDMDL
MODEL      141
REMARK 921   NORMALIZED FREE ENERGY PREDICTED BY IDOCK:   71.25 KCAL/MOL
REMARK 922        TOTAL FREE ENERGY PREDICTED BY IDOCK:   87.73 KCAL/MOL
REMARK 923 INTER-LIGAND FREE ENERGY PREDICTED BY IDOCK:   86.27 KCAL/MOL
REMARK 924 INTRA-LIGAND FREE ENERGY PREDICTED BY IDOCK:    1.46 KCAL/MOL
REMARK 927      BINDING AFFINITY PREDICTED BY RF-SCORE:    0.00 PKD
ROOT
HETATM    1  O   UNL     1      -7.964  14.753  73.336  1.00  0.00     4.944 OA 
HETATM    2  H   UNL     1      -8.252  14.716  74.241  1.00  0.00     0.000 HD 
HETATM    3  C   UNL     1      -7.508  13.495  72.867  1.00  0.00     8.181 C  
HETATM    4  C   UNL     1      -7.044  13.553  71.407  1.00  0.00     3.602 C  
HETATM    5  C   UNL     1      -6.515  12.167  70.886  1.00  0.00     1.403 C  
HETATM    6  C   UNL     1      -7.620  11.030  71.045  1.00  0.00     3.601 C  
HETATM    7  C   UNL     1      -8.606  11.487  69.958  1.00  0.00     2.247 C  
HETATM    8  C   UNL     1      -7.901  11.114  72.588  1.00  0.00    13.065 C  
HETATM    9  C   UNL     1      -8.567  12.409  73.090  1.00  0.00    23.254 C  
HETATM   10  C   UNL     1      -8.280   9.918  73.442  1.00  0.00     5.277 C  
HETATM   11  C   UNL     1      -7.593   8.591  72.968  1.00  0.00    -0.042 C  
HETATM   12  C   UNL     1      -9.987  12.726  72.578  1.00  0.00    17.593 C  
HETATM   13  C   UNL     1      -8.069   8.287  71.500  1.00  0.00    -0.158 C  
HETATM   14  C   UNL     1      -9.596   8.112  72.040  1.00  0.00    -0.284 C  
HETATM   15  C   UNL     1      -7.234   9.508  70.672  1.00  0.00    -0.130 C  
HETATM   16  C   UNL     1      -6.824   9.304  69.129  1.00  0.00    -0.050 C  
HETATM   17  C   UNL     1      -6.403   7.890  68.718  1.00  0.00    -0.044 C  
HETATM   18  O   UNL     1      -7.809   9.704  68.193  1.00  0.00    -0.086 OA 
HETATM   19  C   UNL     1      -7.419   6.829  69.088  1.00  0.00    -0.095 C  
HETATM   20  H   UNL     1      -7.567   9.585  67.283  1.00  0.00     0.000 HD 
HETATM   21  C   UNL     1      -8.837   6.912  68.270  1.00  0.00    -0.122 C  
HETATM   22  C   UNL     1      -9.663   7.499  69.364  1.00  0.00    -0.164 C  
HETATM   23  C   UNL     1      -9.439   5.926  67.526  1.00  0.00    -0.110 C  
HETATM   24  C   UNL     1      -9.218   6.289  70.380  1.00  0.00    -0.160 C  
HETATM   25  C   UNL     1     -10.839   5.413  67.957  1.00  0.00     0.134 C  
HETATM   26  C   UNL     1      -9.383   5.881  66.018  1.00  0.00    -0.117 C  
HETATM   27  O   UNL     1     -11.557   5.002  66.888  1.00  0.00     1.774 OA 
HETATM   28  C   UNL     1      -6.946   5.917  71.544  1.00  0.00    -0.076 C  
HETATM   29  C   UNL     1      -7.800   6.848  70.702  1.00  0.00    -0.101 C  
HETATM   30  O   UNL     1     -11.360   5.392  69.048  1.00  0.00     0.410 OA 
ENDROOT
BRANCH  22  31
HETATM   31  O   UNL     1     -10.938   8.074  68.966  1.00  0.00    -0.062 OA 
BRANCH  31  32
HETATM   32  C   UNL     1     -10.977   8.840  67.814  1.00  0.00     0.133 C  
HETATM   33  O   UNL     1     -11.962   8.923  67.082  1.00  0.00     2.998 OA 
HETATM   34  C   UNL     1      -9.700   9.489  67.318  1.00  0.00    -0.215 C  
ENDBRANCH  31  32
ENDBRANCH  22  31
BRANCH  26  35
HETATM   35  C   UNL     1      -8.222   6.578  65.347  1.00  0.00    -0.135 C  
BRANCH  35  36
HETATM   36  C   UNL     1      -8.766   7.780  64.630  1.00  0.00     0.280 C  
HETATM   37  C   UNL     1      -8.038   8.778  64.092  1.00  0.00    -0.162 C  
HETATM   38  C   UNL     1      -8.729   9.920  63.412  1.00  0.00    -0.230 C  
HETATM   39  C   UNL     1      -6.535   8.874  64.137  1.00  0.00    -0.079 C  
ENDBRANCH  35  36
ENDBRANCH  26  35
TORSDOF 4
ENDMDL
MODEL      142
REMARK 921   NORMALIZED FREE ENERGY PREDICTED BY IDOCK:   99.58 KCAL/MOL
REMARK 922        TOTAL FREE ENERGY PREDICTED BY IDOCK:  122.68 KCAL/MOL
REMARK 923 INTER-LIGAND FREE ENERGY PREDICTED BY IDOCK:   86.93 KCAL/MOL
REMARK 924 INTRA-LIGAND FREE ENERGY PREDICTED BY IDOCK:   35.75 KCAL/MOL
REMARK 927      BINDING AFFINITY PREDICTED BY RF-SCORE:    0.00 PKD
ROOT
HETATM    1  O   UNL     1     -12.539   2.387  62.957  1.00  0.00     2.239 OA 
HETATM    2  H   UNL     1     -13.218   1.913  63.422  1.00  0.00     0.000 HD 
HETATM    3  C   UNL     1     -12.507   3.761  63.309  1.00  0.00     5.303 C  
HETATM    4  C   UNL     1     -11.410   4.526  62.560  1.00  0.00     0.751 C  
HETATM    5  C   UNL     1     -11.384   6.056  62.927  1.00  0.00     7.225 C  
HETATM    6  C   UNL     1     -11.202   6.270  64.496  1.00  0.00     7.502 C  
HETATM    7  C   UNL     1      -9.738   5.825  64.640  1.00  0.00     1.204 C  
HETATM    8  C   UNL     1     -12.432   5.461  65.042  1.00  0.00     5.113 C  
HETATM    9  C   UNL     1     -12.395   3.936  64.828  1.00  0.00     5.409 C  
HETATM   10  C   UNL     1     -13.195   5.834  66.300  1.00  0.00    11.098 C  
HETATM   11  C   UNL     1     -13.271   7.383  66.527  1.00  0.00    15.570 C  
HETATM   12  C   UNL     1     -11.268   3.145  65.524  1.00  0.00     3.323 C  
HETATM   13  C   UNL     1     -11.806   7.930  66.689  1.00  0.00     4.567 C  
HETATM   14  C   UNL     1     -11.635   7.047  68.048  1.00  0.00     0.667 C  
HETATM   15  C   UNL     1     -11.263   7.769  65.091  1.00  0.00     8.769 C  
HETATM   16  C   UNL     1     -10.108   8.736  64.527  1.00  0.00     2.891 C  
HETATM   17  C   UNL     1     -10.135  10.186  65.019  1.00  0.00    -0.305 C  
HETATM   18  O   UNL     1      -8.786   8.276  64.746  1.00  0.00    -0.386 OA 
HETATM   19  C   UNL     1     -10.168  10.309  66.529  1.00  0.00    -0.289 C  
HETATM   20  H   UNL     1      -8.104   8.847  64.413  1.00  0.00     0.000 HD 
HETATM   21  C   UNL     1      -8.805   9.814  67.294  1.00  0.00    -0.139 C  
HETATM   22  C   UNL     1      -9.325   8.511  67.800  1.00  0.00    -0.137 C  
HETATM   23  C   UNL     1      -8.025  10.530  68.170  1.00  0.00    -0.111 C  
HETATM   24  C   UNL     1     -10.597   9.267  68.511  1.00  0.00    -0.222 C  
HETATM   25  C   UNL     1      -7.863  10.011  69.624  1.00  0.00    -0.167 C  
HETATM   26  C   UNL     1      -6.720  11.177  67.771  1.00  0.00    -0.065 C  
HETATM   27  O   UNL     1      -6.659  10.357  70.133  1.00  0.00    -0.116 OA 
HETATM   28  C   UNL     1     -12.684  10.297  67.399  1.00  0.00     6.842 C  
HETATM   29  C   UNL     1     -11.427   9.469  67.208  1.00  0.00     1.194 C  
HETATM   30  O   UNL     1      -8.601   9.330  70.296  1.00  0.00    -0.168 OA 
ENDROOT
BRANCH  22  31
HETATM   31  O   UNL     1      -8.326   7.557  68.256  1.00  0.00    -0.124 OA 
BRANCH  31  32
HETATM   32  C   UNL     1      -8.724   6.563  69.132  1.00  0.00    -0.129 C  
HETATM   33  O   UNL     1      -9.825   6.537  69.680  1.00  0.00    -0.158 OA 
HETATM   34  C   UNL     1      -7.708   5.533  69.586  1.00  0.00    -0.078 C  
ENDBRANCH  31  32
ENDBRANCH  22  31
BRANCH  26  35
HETATM   35  C   UNL     1      -6.538  11.523  66.311  1.00  0.00     0.127 C  
BRANCH  35  36
HETATM   36  C   UNL     1      -7.876  11.393  65.642  1.00  0.00     0.382 C  
HETATM   37  C   UNL     1      -8.325  10.314  64.971  1.00  0.00    -0.169 C  
HETATM   38  C   UNL     1      -9.687  10.338  64.348  1.00  0.00    -0.381 C  
HETATM   39  C   UNL     1      -7.543   9.044  64.753  1.00  0.00    -0.105 C  
ENDBRANCH  35  36
ENDBRANCH  26  35
TORSDOF 4
ENDMDL
