MODEL        1
REMARK 921   NORMALIZED FREE ENERGY PREDICTED BY IDOCK:   -5.05 KCAL/MOL
REMARK 922        TOTAL FREE ENERGY PREDICTED BY IDOCK:   -5.82 KCAL/MOL
REMARK 923 INTER-LIGAND FREE ENERGY PREDICTED BY IDOCK:   -5.64 KCAL/MOL
REMARK 924 INTRA-LIGAND FREE ENERGY PREDICTED BY IDOCK:   -0.18 KCAL/MOL
REMARK 927      BINDING AFFINITY PREDICTED BY RF-SCORE:    0.00 PKD
ROOT
HETATM    1  N   UNL     1     -12.289  13.915  63.368  1.00  0.00    -1.139 NA 
HETATM    2  C   UNL     1     -12.402  13.876  64.820  1.00  0.00    -0.400 C  
HETATM    3  H1  UNL     1     -13.178  13.913  62.866  1.00  0.00     0.000 HD 
HETATM    4  H2  UNL     1     -11.699  13.150  63.040  1.00  0.00     0.000 HD 
ENDROOT
BRANCH   2   5
HETATM    5  C   UNL     1     -11.043  13.878  65.588  1.00  0.00    -0.298 C  
HETATM    6  C   UNL     1     -10.294  12.549  65.255  1.00  0.00    -0.310 C  
HETATM    7  C   UNL     1     -11.244  13.964  67.124  1.00  0.00    -0.328 C  
HETATM    8  C   UNL     1     -11.876  12.711  67.734  1.00  0.00    -0.381 C  
HETATM    9  C   UNL     1     -10.904  11.300  65.889  1.00  0.00    -0.264 C  
HETATM   10  C   UNL     1     -11.075  11.461  67.394  1.00  0.00    -0.349 C  
BRANCH   5  11
HETATM   11  C   UNL     1     -10.115  15.028  65.106  1.00  0.00    -0.350 C  
HETATM   12  O   UNL     1     -11.287  16.887  64.119  1.00  0.00    -1.208 OA 
HETATM   13  C   UNL     1     -10.702  16.418  65.086  1.00  0.00    -0.291 C  
HETATM   14  O   UNL     1     -10.523  17.113  66.229  1.00  0.00    -0.319 OA 
ENDBRANCH   5  11
ENDBRANCH   2   5
TORSDOF 2
ENDMDL
MODEL        2
REMARK 921   NORMALIZED FREE ENERGY PREDICTED BY IDOCK:   -5.02 KCAL/MOL
REMARK 922        TOTAL FREE ENERGY PREDICTED BY IDOCK:   -5.79 KCAL/MOL
REMARK 923 INTER-LIGAND FREE ENERGY PREDICTED BY IDOCK:   -5.80 KCAL/MOL
REMARK 924 INTRA-LIGAND FREE ENERGY PREDICTED BY IDOCK:    0.02 KCAL/MOL
REMARK 927      BINDING AFFINITY PREDICTED BY RF-SCORE:    0.00 PKD
ROOT
HETATM    1  N   UNL     1     -13.112  12.670  64.622  1.00  0.00    -0.848 NA 
HETATM    2  C   UNL     1     -12.899  13.758  65.568  1.00  0.00    -0.419 C  
HETATM    3  H1  UNL     1     -14.076  12.557  64.305  1.00  0.00     0.000 HD 
HETATM    4  H2  UNL     1     -12.764  11.793  65.010  1.00  0.00     0.000 HD 
ENDROOT
BRANCH   2   5
HETATM    5  C   UNL     1     -11.426  13.931  66.053  1.00  0.00    -0.345 C  
HETATM    6  C   UNL     1     -10.783  12.514  66.176  1.00  0.00    -0.290 C  
HETATM    7  C   UNL     1     -11.349  14.633  67.435  1.00  0.00    -0.368 C  
HETATM    8  C   UNL     1     -11.895  13.788  68.588  1.00  0.00    -0.409 C  
HETATM    9  C   UNL     1     -11.304  11.679  67.345  1.00  0.00    -0.367 C  
HETATM   10  C   UNL     1     -11.200  12.434  68.663  1.00  0.00    -0.314 C  
BRANCH   5  11
HETATM   11  C   UNL     1     -10.568  14.706  65.014  1.00  0.00    -0.461 C  
HETATM   12  O   UNL     1     -11.773  16.426  63.833  1.00  0.00    -1.085 OA 
HETATM   13  C   UNL     1     -10.976  16.127  64.712  1.00  0.00    -0.313 C  
HETATM   14  O   UNL     1     -10.381  17.052  65.494  1.00  0.00    -0.585 OA 
ENDBRANCH   5  11
ENDBRANCH   2   5
TORSDOF 2
ENDMDL
MODEL        3
REMARK 921   NORMALIZED FREE ENERGY PREDICTED BY IDOCK:   -4.98 KCAL/MOL
REMARK 922        TOTAL FREE ENERGY PREDICTED BY IDOCK:   -5.74 KCAL/MOL
REMARK 923 INTER-LIGAND FREE ENERGY PREDICTED BY IDOCK:   -5.70 KCAL/MOL
REMARK 924 INTRA-LIGAND FREE ENERGY PREDICTED BY IDOCK:   -0.05 KCAL/MOL
REMARK 927      BINDING AFFINITY PREDICTED BY RF-SCORE:    0.00 PKD
ROOT
HETATM    1  N   UNL     1     -11.208  16.432  64.156  1.00  0.00    -1.371 NA 
HETATM    2  C   UNL     1     -10.312  15.981  65.213  1.00  0.00    -0.290 C  
HETATM    3  H1  UNL     1     -11.033  17.379  63.818  1.00  0.00     0.000 HD 
HETATM    4  H2  UNL     1     -12.179  16.338  64.454  1.00  0.00     0.000 HD 
ENDROOT
BRANCH   2   5
HETATM    5  C   UNL     1     -10.579  14.532  65.730  1.00  0.00    -0.326 C  
HETATM    6  C   UNL     1     -11.896  14.549  66.569  1.00  0.00    -0.367 C  
HETATM    7  C   UNL     1      -9.424  14.015  66.630  1.00  0.00    -0.300 C  
HETATM    8  C   UNL     1      -9.313  14.744  67.970  1.00  0.00    -0.196 C  
HETATM    9  C   UNL     1     -11.779  15.249  67.922  1.00  0.00    -0.233 C  
HETATM   10  C   UNL     1     -10.624  14.692  68.743  1.00  0.00    -0.248 C  
BRANCH   5  11
HETATM   11  C   UNL     1     -10.825  13.542  64.558  1.00  0.00    -0.422 C  
HETATM   12  O   UNL     1     -12.913  12.348  64.704  1.00  0.00    -0.793 OA 
HETATM   13  C   UNL     1     -12.262  13.252  64.198  1.00  0.00    -0.401 C  
HETATM   14  O   UNL     1     -12.774  14.073  63.257  1.00  0.00    -0.750 OA 
ENDBRANCH   5  11
ENDBRANCH   2   5
TORSDOF 2
ENDMDL
MODEL        4
REMARK 921   NORMALIZED FREE ENERGY PREDICTED BY IDOCK:   -4.95 KCAL/MOL
REMARK 922        TOTAL FREE ENERGY PREDICTED BY IDOCK:   -5.71 KCAL/MOL
REMARK 923 INTER-LIGAND FREE ENERGY PREDICTED BY IDOCK:   -5.81 KCAL/MOL
REMARK 924 INTRA-LIGAND FREE ENERGY PREDICTED BY IDOCK:    0.10 KCAL/MOL
REMARK 927      BINDING AFFINITY PREDICTED BY RF-SCORE:    0.00 PKD
ROOT
HETATM    1  N   UNL     1     -11.583  16.513  63.860  1.00  0.00    -1.578 NA 
HETATM    2  C   UNL     1     -11.073  15.855  65.056  1.00  0.00    -0.360 C  
HETATM    3  H1  UNL     1     -11.410  17.517  63.813  1.00  0.00     0.000 HD 
HETATM    4  H2  UNL     1     -12.580  16.322  63.751  1.00  0.00     0.000 HD 
ENDROOT
BRANCH   2   5
HETATM    5  C   UNL     1     -11.338  14.318  65.128  1.00  0.00    -0.345 C  
HETATM    6  C   UNL     1     -12.431  14.063  66.213  1.00  0.00    -0.439 C  
HETATM    7  C   UNL     1     -10.061  13.527  65.515  1.00  0.00    -0.283 C  
HETATM    8  C   UNL     1      -9.596  13.769  66.952  1.00  0.00    -0.263 C  
HETATM    9  C   UNL     1     -11.961  14.274  67.652  1.00  0.00    -0.400 C  
HETATM   10  C   UNL     1     -10.704  13.470  67.954  1.00  0.00    -0.258 C  
BRANCH   5  11
HETATM   11  C   UNL     1     -11.919  13.774  63.793  1.00  0.00    -0.365 C  
HETATM   12  O   UNL     1     -11.304  11.495  63.311  1.00  0.00    -0.317 OA 
HETATM   13  C   UNL     1     -12.151  12.286  63.704  1.00  0.00    -0.554 C  
HETATM   14  O   UNL     1     -13.384  11.893  64.089  1.00  0.00    -0.652 OA 
ENDBRANCH   5  11
ENDBRANCH   2   5
TORSDOF 2
ENDMDL
MODEL        5
REMARK 921   NORMALIZED FREE ENERGY PREDICTED BY IDOCK:   -4.88 KCAL/MOL
REMARK 922        TOTAL FREE ENERGY PREDICTED BY IDOCK:   -5.64 KCAL/MOL
REMARK 923 INTER-LIGAND FREE ENERGY PREDICTED BY IDOCK:   -5.57 KCAL/MOL
REMARK 924 INTRA-LIGAND FREE ENERGY PREDICTED BY IDOCK:   -0.06 KCAL/MOL
REMARK 927      BINDING AFFINITY PREDICTED BY RF-SCORE:    0.00 PKD
ROOT
HETATM    1  N   UNL     1     -11.763  16.127  63.910  1.00  0.00    -1.452 NA 
HETATM    2  C   UNL     1     -10.828  16.300  65.014  1.00  0.00    -0.320 C  
HETATM    3  H1  UNL     1     -11.973  16.977  63.385  1.00  0.00     0.000 HD 
HETATM    4  H2  UNL     1     -12.626  15.697  64.243  1.00  0.00     0.000 HD 
ENDROOT
BRANCH   2   5
HETATM    5  C   UNL     1     -10.507  15.000  65.816  1.00  0.00    -0.353 C  
HETATM    6  C   UNL     1     -11.515  14.898  67.003  1.00  0.00    -0.333 C  
HETATM    7  C   UNL     1      -9.065  15.013  66.389  1.00  0.00    -0.312 C  
HETATM    8  C   UNL     1      -8.850  16.049  67.494  1.00  0.00    -0.198 C  
HETATM    9  C   UNL     1     -11.284  15.912  68.123  1.00  0.00    -0.339 C  
HETATM   10  C   UNL     1      -9.848  15.868  68.630  1.00  0.00    -0.212 C  
BRANCH   5  11
HETATM   11  C   UNL     1     -10.726  13.726  64.953  1.00  0.00    -0.410 C  
HETATM   12  O   UNL     1     -11.906  11.959  66.091  1.00  0.00    -0.528 OA 
HETATM   13  C   UNL     1     -11.929  12.876  65.280  1.00  0.00    -0.419 C  
HETATM   14  O   UNL     1     -13.044  13.206  64.594  1.00  0.00    -0.699 OA 
ENDBRANCH   5  11
ENDBRANCH   2   5
TORSDOF 2
ENDMDL
MODEL        6
REMARK 921   NORMALIZED FREE ENERGY PREDICTED BY IDOCK:   -4.67 KCAL/MOL
REMARK 922        TOTAL FREE ENERGY PREDICTED BY IDOCK:   -5.40 KCAL/MOL
REMARK 923 INTER-LIGAND FREE ENERGY PREDICTED BY IDOCK:   -5.32 KCAL/MOL
REMARK 924 INTRA-LIGAND FREE ENERGY PREDICTED BY IDOCK:   -0.08 KCAL/MOL
REMARK 927      BINDING AFFINITY PREDICTED BY RF-SCORE:    0.00 PKD
ROOT
HETATM    1  N   UNL     1     -11.477  16.508  64.054  1.00  0.00    -1.581 NA 
HETATM    2  C   UNL     1     -10.658  16.255  65.232  1.00  0.00    -0.336 C  
HETATM    3  H1  UNL     1     -11.184  17.305  63.488  1.00  0.00     0.000 HD 
HETATM    4  H2  UNL     1     -12.457  16.608  64.321  1.00  0.00     0.000 HD 
ENDROOT
BRANCH   2   5
HETATM    5  C   UNL     1     -11.107  15.036  66.098  1.00  0.00    -0.329 C  
HETATM    6  C   UNL     1     -11.337  15.535  67.560  1.00  0.00    -0.232 C  
HETATM    7  C   UNL     1     -10.035  13.914  66.120  1.00  0.00    -0.322 C  
HETATM    8  C   UNL     1      -8.756  14.296  66.867  1.00  0.00    -0.202 C  
HETATM    9  C   UNL     1     -10.059  15.888  68.320  1.00  0.00    -0.224 C  
HETATM   10  C   UNL     1      -9.056  14.742  68.293  1.00  0.00    -0.183 C  
BRANCH   5  11
HETATM   11  C   UNL     1     -12.469  14.463  65.618  1.00  0.00    -0.345 C  
HETATM   12  O   UNL     1     -12.419  13.549  63.389  1.00  0.00    -0.750 OA 
HETATM   13  C   UNL     1     -12.423  13.353  64.598  1.00  0.00    -0.331 C  
HETATM   14  O   UNL     1     -12.394  12.113  65.129  1.00  0.00    -0.488 OA 
ENDBRANCH   5  11
ENDBRANCH   2   5
TORSDOF 2
ENDMDL
MODEL        7
REMARK 921   NORMALIZED FREE ENERGY PREDICTED BY IDOCK:   -4.57 KCAL/MOL
REMARK 922        TOTAL FREE ENERGY PREDICTED BY IDOCK:   -5.29 KCAL/MOL
REMARK 923 INTER-LIGAND FREE ENERGY PREDICTED BY IDOCK:   -5.19 KCAL/MOL
REMARK 924 INTRA-LIGAND FREE ENERGY PREDICTED BY IDOCK:   -0.10 KCAL/MOL
REMARK 927      BINDING AFFINITY PREDICTED BY RF-SCORE:    0.00 PKD
ROOT
HETATM    1  N   UNL     1     -12.432  13.909  63.266  1.00  0.00    -1.112 NA 
HETATM    2  C   UNL     1     -12.695  13.401  64.606  1.00  0.00    -0.186 C  
HETATM    3  H1  UNL     1     -13.141  13.676  62.570  1.00  0.00     0.000 HD 
HETATM    4  H2  UNL     1     -11.512  13.603  62.948  1.00  0.00     0.000 HD 
ENDROOT
BRANCH   2   5
HETATM    5  C   UNL     1     -11.610  13.758  65.671  1.00  0.00    -0.339 C  
HETATM    6  C   UNL     1     -10.205  13.511  65.037  1.00  0.00    -0.345 C  
HETATM    7  C   UNL     1     -11.740  12.883  66.946  1.00  0.00    -0.445 C  
HETATM    8  C   UNL     1     -11.396  11.409  66.721  1.00  0.00    -0.252 C  
HETATM    9  C   UNL     1      -9.846  12.039  64.839  1.00  0.00    -0.198 C  
HETATM   10  C   UNL     1     -10.001  11.246  66.130  1.00  0.00    -0.268 C  
BRANCH   5  11
HETATM   11  C   UNL     1     -11.654  15.264  66.051  1.00  0.00     0.006 C  
HETATM   12  O   UNL     1      -9.622  16.461  65.560  1.00  0.00    -0.491 OA 
HETATM   13  C   UNL     1     -10.777  16.197  65.254  1.00  0.00    -0.368 C  
HETATM   14  O   UNL     1     -11.377  16.729  64.168  1.00  0.00    -1.194 OA 
ENDBRANCH   5  11
ENDBRANCH   2   5
TORSDOF 2
ENDMDL
MODEL        8
REMARK 921   NORMALIZED FREE ENERGY PREDICTED BY IDOCK:   -4.57 KCAL/MOL
REMARK 922        TOTAL FREE ENERGY PREDICTED BY IDOCK:   -5.28 KCAL/MOL
REMARK 923 INTER-LIGAND FREE ENERGY PREDICTED BY IDOCK:   -5.39 KCAL/MOL
REMARK 924 INTRA-LIGAND FREE ENERGY PREDICTED BY IDOCK:    0.11 KCAL/MOL
REMARK 927      BINDING AFFINITY PREDICTED BY RF-SCORE:    0.00 PKD
ROOT
HETATM    1  N   UNL     1     -11.710  16.105  63.933  1.00  0.00    -1.452 NA 
HETATM    2  C   UNL     1     -10.790  15.338  64.763  1.00  0.00    -0.358 C  
HETATM    3  H1  UNL     1     -11.290  16.893  63.439  1.00  0.00     0.000 HD 
HETATM    4  H2  UNL     1     -12.505  16.422  64.489  1.00  0.00     0.000 HD 
ENDROOT
BRANCH   2   5
HETATM    5  C   UNL     1     -11.432  14.133  65.519  1.00  0.00    -0.324 C  
HETATM    6  C   UNL     1     -10.343  13.028  65.689  1.00  0.00    -0.294 C  
HETATM    7  C   UNL     1     -12.632  13.531  64.740  1.00  0.00    -0.351 C  
HETATM    8  C   UNL     1     -12.234  12.829  63.440  1.00  0.00    -0.594 C  
HETATM    9  C   UNL     1      -9.965  12.303  64.398  1.00  0.00    -0.231 C  
HETATM   10  C   UNL     1     -11.192  11.746  63.689  1.00  0.00    -0.519 C  
BRANCH   5  11
HETATM   11  C   UNL     1     -11.874  14.528  66.955  1.00  0.00    -0.408 C  
HETATM   12  O   UNL     1     -10.075  14.579  68.558  1.00  0.00    -0.228 OA 
HETATM   13  C   UNL     1     -10.842  15.196  67.830  1.00  0.00    -0.292 C  
HETATM   14  O   UNL     1     -10.836  16.543  67.750  1.00  0.00    -0.341 OA 
ENDBRANCH   5  11
ENDBRANCH   2   5
TORSDOF 2
ENDMDL
MODEL        9
REMARK 921   NORMALIZED FREE ENERGY PREDICTED BY IDOCK:   -4.52 KCAL/MOL
REMARK 922        TOTAL FREE ENERGY PREDICTED BY IDOCK:   -5.23 KCAL/MOL
REMARK 923 INTER-LIGAND FREE ENERGY PREDICTED BY IDOCK:   -5.24 KCAL/MOL
REMARK 924 INTRA-LIGAND FREE ENERGY PREDICTED BY IDOCK:    0.01 KCAL/MOL
REMARK 927      BINDING AFFINITY PREDICTED BY RF-SCORE:    0.00 PKD
ROOT
HETATM    1  N   UNL     1     -12.394  13.867  68.453  1.00  0.00    -0.455 NA 
HETATM    2  C   UNL     1     -11.679  13.126  67.423  1.00  0.00    -0.370 C  
HETATM    3  H1  UNL     1     -12.564  13.351  69.317  1.00  0.00     0.000 HD 
HETATM    4  H2  UNL     1     -13.273  14.230  68.081  1.00  0.00     0.000 HD 
ENDROOT
BRANCH   2   5
HETATM    5  C   UNL     1     -11.420  13.916  66.102  1.00  0.00    -0.351 C  
HETATM    6  C   UNL     1     -12.609  13.641  65.129  1.00  0.00    -0.474 C  
HETATM    7  C   UNL     1     -10.101  13.475  65.412  1.00  0.00    -0.279 C  
HETATM    8  C   UNL     1     -10.145  12.053  64.850  1.00  0.00    -0.289 C  
HETATM    9  C   UNL     1     -12.638  12.231  64.541  1.00  0.00    -0.416 C  
HETATM   10  C   UNL     1     -11.311  11.870  63.887  1.00  0.00    -0.509 C  
BRANCH   5  11
HETATM   11  C   UNL     1     -11.406  15.450  66.345  1.00  0.00    -0.087 C  
HETATM   12  O   UNL     1      -9.383  16.542  65.624  1.00  0.00    -0.490 OA 
HETATM   13  C   UNL     1     -10.561  16.284  65.414  1.00  0.00    -0.352 C  
HETATM   14  O   UNL     1     -11.216  16.734  64.324  1.00  0.00    -1.163 OA 
ENDBRANCH   5  11
ENDBRANCH   2   5
TORSDOF 2
ENDMDL
MODEL       10
REMARK 921   NORMALIZED FREE ENERGY PREDICTED BY IDOCK:   -4.50 KCAL/MOL
REMARK 922        TOTAL FREE ENERGY PREDICTED BY IDOCK:   -5.21 KCAL/MOL
REMARK 923 INTER-LIGAND FREE ENERGY PREDICTED BY IDOCK:   -5.32 KCAL/MOL
REMARK 924 INTRA-LIGAND FREE ENERGY PREDICTED BY IDOCK:    0.10 KCAL/MOL
REMARK 927      BINDING AFFINITY PREDICTED BY RF-SCORE:    0.00 PKD
ROOT
HETATM    1  N   UNL     1      -8.836  12.699  66.202  1.00  0.00    -0.417 NA 
HETATM    2  C   UNL     1      -9.164  13.898  66.962  1.00  0.00    -0.250 C  
HETATM    3  H1  UNL     1      -8.017  12.188  66.534  1.00  0.00     0.000 HD 
HETATM    4  H2  UNL     1      -8.732  12.927  65.213  1.00  0.00     0.000 HD 
ENDROOT
BRANCH   2   5
HETATM    5  C   UNL     1     -10.417  14.678  66.455  1.00  0.00    -0.290 C  
HETATM    6  C   UNL     1     -10.325  16.144  66.985  1.00  0.00    -0.290 C  
HETATM    7  C   UNL     1     -11.740  14.048  66.966  1.00  0.00    -0.425 C  
HETATM    8  C   UNL     1     -11.949  14.191  68.474  1.00  0.00    -0.367 C  
HETATM    9  C   UNL     1     -10.565  16.294  68.486  1.00  0.00    -0.294 C  
HETATM   10  C   UNL     1     -11.877  15.648  68.911  1.00  0.00    -0.368 C  
BRANCH   5  11
HETATM   11  C   UNL     1     -10.439  14.780  64.904  1.00  0.00    -0.398 C  
HETATM   12  O   UNL     1     -12.646  15.015  63.966  1.00  0.00    -0.817 OA 
HETATM   13  C   UNL     1     -11.586  15.539  64.284  1.00  0.00    -0.194 C  
HETATM   14  O   UNL     1     -11.345  16.854  64.099  1.00  0.00    -1.208 OA 
ENDBRANCH   5  11
ENDBRANCH   2   5
TORSDOF 2
ENDMDL
MODEL       11
REMARK 921   NORMALIZED FREE ENERGY PREDICTED BY IDOCK:   -4.49 KCAL/MOL
REMARK 922        TOTAL FREE ENERGY PREDICTED BY IDOCK:   -5.20 KCAL/MOL
REMARK 923 INTER-LIGAND FREE ENERGY PREDICTED BY IDOCK:   -4.99 KCAL/MOL
REMARK 924 INTRA-LIGAND FREE ENERGY PREDICTED BY IDOCK:   -0.20 KCAL/MOL
REMARK 927      BINDING AFFINITY PREDICTED BY RF-SCORE:    0.00 PKD
ROOT
HETATM    1  N   UNL     1      -9.090  12.090  65.841  1.00  0.00    -0.414 NA 
HETATM    2  C   UNL     1      -9.953  13.248  66.033  1.00  0.00    -0.292 C  
HETATM    3  H1  UNL     1      -8.120  12.309  65.610  1.00  0.00     0.000 HD 
HETATM    4  H2  UNL     1      -9.487  11.467  65.137  1.00  0.00     0.000 HD 
ENDROOT
BRANCH   2   5
HETATM    5  C   UNL     1     -11.437  12.913  66.385  1.00  0.00    -0.389 C  
HETATM    6  C   UNL     1     -12.178  14.252  66.696  1.00  0.00    -0.411 C  
HETATM    7  C   UNL     1     -11.544  11.987  67.625  1.00  0.00    -0.392 C  
HETATM    8  C   UNL     1     -11.120  12.656  68.934  1.00  0.00    -0.307 C  
HETATM    9  C   UNL     1     -11.779  14.907  68.018  1.00  0.00    -0.344 C  
HETATM   10  C   UNL     1     -11.905  13.936  69.185  1.00  0.00    -0.401 C  
BRANCH   5  11
HETATM   11  C   UNL     1     -12.182  12.277  65.179  1.00  0.00    -0.345 C  
HETATM   12  O   UNL     1     -12.497  13.776  63.318  1.00  0.00    -0.819 OA 
HETATM   13  C   UNL     1     -11.880  12.841  63.813  1.00  0.00    -0.499 C  
HETATM   14  O   UNL     1     -10.868  12.222  63.169  1.00  0.00    -0.377 OA 
ENDBRANCH   5  11
ENDBRANCH   2   5
TORSDOF 2
ENDMDL
MODEL       12
REMARK 921   NORMALIZED FREE ENERGY PREDICTED BY IDOCK:   -4.48 KCAL/MOL
REMARK 922        TOTAL FREE ENERGY PREDICTED BY IDOCK:   -5.19 KCAL/MOL
REMARK 923 INTER-LIGAND FREE ENERGY PREDICTED BY IDOCK:   -5.09 KCAL/MOL
REMARK 924 INTRA-LIGAND FREE ENERGY PREDICTED BY IDOCK:   -0.10 KCAL/MOL
REMARK 927      BINDING AFFINITY PREDICTED BY RF-SCORE:    0.00 PKD
ROOT
HETATM    1  N   UNL     1     -11.668  16.287  63.881  1.00  0.00    -1.518 NA 
HETATM    2  C   UNL     1     -11.961  15.208  64.815  1.00  0.00    -0.250 C  
HETATM    3  H1  UNL     1     -12.427  16.520  63.240  1.00  0.00     0.000 HD 
HETATM    4  H2  UNL     1     -10.817  16.080  63.358  1.00  0.00     0.000 HD 
ENDROOT
BRANCH   2   5
HETATM    5  C   UNL     1     -10.800  14.852  65.796  1.00  0.00    -0.343 C  
HETATM    6  C   UNL     1     -10.082  13.574  65.258  1.00  0.00    -0.277 C  
HETATM    7  C   UNL     1     -11.320  14.563  67.230  1.00  0.00    -0.363 C  
HETATM    8  C   UNL     1     -12.145  13.279  67.340  1.00  0.00    -0.327 C  
HETATM    9  C   UNL     1     -10.891  12.285  65.395  1.00  0.00    -0.324 C  
HETATM   10  C   UNL     1     -11.369  12.073  66.826  1.00  0.00    -0.398 C  
BRANCH   5  11
HETATM   11  C   UNL     1      -9.721  15.969  65.836  1.00  0.00    -0.378 C  
HETATM   12  O   UNL     1     -10.602  18.172  66.253  1.00  0.00    -0.365 OA 
HETATM   13  C   UNL     1     -10.022  17.183  66.680  1.00  0.00    -0.295 C  
HETATM   14  O   UNL     1      -9.590  17.092  67.956  1.00  0.00    -0.249 OA 
ENDBRANCH   5  11
ENDBRANCH   2   5
TORSDOF 2
ENDMDL
MODEL       13
REMARK 921   NORMALIZED FREE ENERGY PREDICTED BY IDOCK:   -4.43 KCAL/MOL
REMARK 922        TOTAL FREE ENERGY PREDICTED BY IDOCK:   -5.13 KCAL/MOL
REMARK 923 INTER-LIGAND FREE ENERGY PREDICTED BY IDOCK:   -5.19 KCAL/MOL
REMARK 924 INTRA-LIGAND FREE ENERGY PREDICTED BY IDOCK:    0.06 KCAL/MOL
REMARK 927      BINDING AFFINITY PREDICTED BY RF-SCORE:    0.00 PKD
ROOT
HETATM    1  N   UNL     1     -12.504  14.751  63.805  1.00  0.00    -1.063 NA 
HETATM    2  C   UNL     1     -12.726  14.212  65.140  1.00  0.00    -0.364 C  
HETATM    3  H1  UNL     1     -13.319  15.193  63.377  1.00  0.00     0.000 HD 
HETATM    4  H2  UNL     1     -12.132  14.027  63.190  1.00  0.00     0.000 HD 
ENDROOT
BRANCH   2   5
HETATM    5  C   UNL     1     -11.479  13.537  65.795  1.00  0.00    -0.331 C  
HETATM    6  C   UNL     1     -11.749  13.397  67.326  1.00  0.00    -0.424 C  
HETATM    7  C   UNL     1     -10.191  14.377  65.592  1.00  0.00    -0.371 C  
HETATM    8  C   UNL     1     -10.191  15.701  66.358  1.00  0.00    -0.300 C  
HETATM    9  C   UNL     1     -11.718  14.715  68.100  1.00  0.00    -0.360 C  
HETATM   10  C   UNL     1     -10.428  15.483  67.847  1.00  0.00    -0.266 C  
BRANCH   5  11
HETATM   11  C   UNL     1     -11.264  12.093  65.261  1.00  0.00    -0.381 C  
HETATM   12  O   UNL     1     -12.440  11.618  63.212  1.00  0.00    -0.471 OA 
HETATM   13  C   UNL     1     -11.385  11.890  63.771  1.00  0.00    -0.448 C  
HETATM   14  O   UNL     1     -10.224  12.025  63.096  1.00  0.00    -0.410 OA 
ENDBRANCH   5  11
ENDBRANCH   2   5
TORSDOF 2
ENDMDL
MODEL       14
REMARK 921   NORMALIZED FREE ENERGY PREDICTED BY IDOCK:   -4.42 KCAL/MOL
REMARK 922        TOTAL FREE ENERGY PREDICTED BY IDOCK:   -5.12 KCAL/MOL
REMARK 923 INTER-LIGAND FREE ENERGY PREDICTED BY IDOCK:   -4.99 KCAL/MOL
REMARK 924 INTRA-LIGAND FREE ENERGY PREDICTED BY IDOCK:   -0.13 KCAL/MOL
REMARK 927      BINDING AFFINITY PREDICTED BY RF-SCORE:    0.00 PKD
ROOT
HETATM    1  N   UNL     1     -11.158  16.414  68.605  1.00  0.00    -0.353 NA 
HETATM    2  C   UNL     1      -9.766  16.771  68.367  1.00  0.00    -0.247 C  
HETATM    3  H1  UNL     1     -11.340  15.957  69.500  1.00  0.00     0.000 HD 
HETATM    4  H2  UNL     1     -11.511  15.839  67.839  1.00  0.00     0.000 HD 
ENDROOT
BRANCH   2   5
HETATM    5  C   UNL     1      -9.489  17.469  66.999  1.00  0.00    -0.268 C  
HETATM    6  C   UNL     1      -8.067  18.111  67.058  1.00  0.00    -0.239 C  
HETATM    7  C   UNL     1     -10.525  18.584  66.697  1.00  0.00    -0.436 C  
HETATM    8  C   UNL     1     -10.415  19.796  67.624  1.00  0.00    -0.564 C  
HETATM    9  C   UNL     1      -7.962  19.340  67.960  1.00  0.00    -0.339 C  
HETATM   10  C   UNL     1      -9.011  20.386  67.606  1.00  0.00    -0.364 C  
BRANCH   5  11
HETATM   11  C   UNL     1      -9.452  16.445  65.830  1.00  0.00    -0.289 C  
HETATM   12  O   UNL     1     -11.429  15.079  65.659  1.00  0.00    -0.331 OA 
HETATM   13  C   UNL     1     -10.778  16.029  65.243  1.00  0.00    -0.399 C  
HETATM   14  O   UNL     1     -11.190  16.790  64.208  1.00  0.00    -1.163 OA 
ENDBRANCH   5  11
ENDBRANCH   2   5
TORSDOF 2
ENDMDL
MODEL       15
REMARK 921   NORMALIZED FREE ENERGY PREDICTED BY IDOCK:   -4.41 KCAL/MOL
REMARK 922        TOTAL FREE ENERGY PREDICTED BY IDOCK:   -5.11 KCAL/MOL
REMARK 923 INTER-LIGAND FREE ENERGY PREDICTED BY IDOCK:   -5.00 KCAL/MOL
REMARK 924 INTRA-LIGAND FREE ENERGY PREDICTED BY IDOCK:   -0.11 KCAL/MOL
REMARK 927      BINDING AFFINITY PREDICTED BY RF-SCORE:    0.00 PKD
ROOT
HETATM    1  N   UNL     1      -9.232  12.044  65.719  1.00  0.00    -0.418 NA 
HETATM    2  C   UNL     1      -9.975  12.783  66.732  1.00  0.00    -0.237 C  
HETATM    3  H1  UNL     1      -8.463  11.476  66.076  1.00  0.00     0.000 HD 
HETATM    4  H2  UNL     1      -8.895  12.680  64.996  1.00  0.00     0.000 HD 
ENDROOT
BRANCH   2   5
HETATM    5  C   UNL     1     -11.151  13.651  66.185  1.00  0.00    -0.299 C  
HETATM    6  C   UNL     1     -10.563  14.695  65.185  1.00  0.00    -0.441 C  
HETATM    7  C   UNL     1     -11.887  14.411  67.321  1.00  0.00    -0.434 C  
HETATM    8  C   UNL     1     -11.047  15.509  67.974  1.00  0.00    -0.322 C  
HETATM    9  C   UNL     1      -9.749  15.812  65.838  1.00  0.00    -0.389 C  
HETATM   10  C   UNL     1     -10.534  16.506  66.942  1.00  0.00    -0.282 C  
BRANCH   5  11
HETATM   11  C   UNL     1     -12.164  12.797  65.372  1.00  0.00    -0.532 C  
HETATM   12  O   UNL     1     -12.720  13.720  63.217  1.00  0.00    -0.783 OA 
HETATM   13  C   UNL     1     -12.091  12.896  63.869  1.00  0.00    -0.480 C  
HETATM   14  O   UNL     1     -11.273  11.990  63.292  1.00  0.00    -0.386 OA 
ENDBRANCH   5  11
ENDBRANCH   2   5
TORSDOF 2
ENDMDL
MODEL       16
REMARK 921   NORMALIZED FREE ENERGY PREDICTED BY IDOCK:   -4.41 KCAL/MOL
REMARK 922        TOTAL FREE ENERGY PREDICTED BY IDOCK:   -5.11 KCAL/MOL
REMARK 923 INTER-LIGAND FREE ENERGY PREDICTED BY IDOCK:   -4.91 KCAL/MOL
REMARK 924 INTRA-LIGAND FREE ENERGY PREDICTED BY IDOCK:   -0.20 KCAL/MOL
REMARK 927      BINDING AFFINITY PREDICTED BY RF-SCORE:    0.00 PKD
ROOT
HETATM    1  N   UNL     1     -13.863   8.857  73.018  1.00  0.00    -1.107 NA 
HETATM    2  C   UNL     1     -13.334   8.386  71.745  1.00  0.00    -0.357 C  
HETATM    3  H1  UNL     1     -14.876   8.781  73.119  1.00  0.00     0.000 HD 
HETATM    4  H2  UNL     1     -13.563   9.817  73.192  1.00  0.00     0.000 HD 
ENDROOT
BRANCH   2   5
HETATM    5  C   UNL     1     -11.785   8.502  71.591  1.00  0.00    -0.369 C  
HETATM    6  C   UNL     1     -11.356   7.666  70.344  1.00  0.00    -0.235 C  
HETATM    7  C   UNL     1     -11.036   7.957  72.836  1.00  0.00    -0.442 C  
HETATM    8  C   UNL     1     -11.158   6.443  73.016  1.00  0.00    -0.231 C  
HETATM    9  C   UNL     1     -11.447   6.152  70.532  1.00  0.00    -0.330 C  
HETATM   10  C   UNL     1     -10.693   5.695  71.773  1.00  0.00    -0.305 C  
BRANCH   5  11
HETATM   11  C   UNL     1     -11.346   9.965  71.302  1.00  0.00    -0.404 C  
HETATM   12  O   UNL     1     -12.583  11.029  69.529  1.00  0.00    -0.289 OA 
HETATM   13  C   UNL     1     -12.390  10.892  70.730  1.00  0.00    -0.390 C  
HETATM   14  O   UNL     1     -13.096  11.571  71.657  1.00  0.00    -0.452 OA 
ENDBRANCH   5  11
ENDBRANCH   2   5
TORSDOF 2
ENDMDL
MODEL       17
REMARK 921   NORMALIZED FREE ENERGY PREDICTED BY IDOCK:   -4.40 KCAL/MOL
REMARK 922        TOTAL FREE ENERGY PREDICTED BY IDOCK:   -5.10 KCAL/MOL
REMARK 923 INTER-LIGAND FREE ENERGY PREDICTED BY IDOCK:   -5.05 KCAL/MOL
REMARK 924 INTRA-LIGAND FREE ENERGY PREDICTED BY IDOCK:   -0.05 KCAL/MOL
REMARK 927      BINDING AFFINITY PREDICTED BY RF-SCORE:    0.00 PKD
ROOT
HETATM    1  N   UNL     1     -10.051  15.320  65.311  1.00  0.00    -0.347 NA 
HETATM    2  C   UNL     1      -9.847  14.146  66.149  1.00  0.00    -0.308 C  
HETATM    3  H1  UNL     1      -9.644  16.184  65.672  1.00  0.00     0.000 HD 
HETATM    4  H2  UNL     1     -11.045  15.451  65.124  1.00  0.00     0.000 HD 
ENDROOT
BRANCH   2   5
HETATM    5  C   UNL     1     -10.470  12.825  65.597  1.00  0.00    -0.297 C  
HETATM    6  C   UNL     1     -11.871  12.634  66.257  1.00  0.00    -0.471 C  
HETATM    7  C   UNL     1      -9.593  11.588  65.927  1.00  0.00    -0.254 C  
HETATM    8  C   UNL     1      -9.550  11.242  67.417  1.00  0.00    -0.182 C  
HETATM    9  C   UNL     1     -11.832  12.258  67.737  1.00  0.00    -0.341 C  
HETATM   10  C   UNL     1     -10.950  11.041  67.982  1.00  0.00    -0.312 C  
BRANCH   5  11
HETATM   11  C   UNL     1     -10.720  12.907  64.065  1.00  0.00    -0.429 C  
HETATM   12  O   UNL     1     -12.866  12.056  63.375  1.00  0.00    -0.760 OA 
HETATM   13  C   UNL     1     -12.155  13.023  63.612  1.00  0.00    -0.531 C  
HETATM   14  O   UNL     1     -12.593  14.293  63.480  1.00  0.00    -0.814 OA 
ENDBRANCH   5  11
ENDBRANCH   2   5
TORSDOF 2
ENDMDL
MODEL       18
REMARK 921   NORMALIZED FREE ENERGY PREDICTED BY IDOCK:   -4.36 KCAL/MOL
REMARK 922        TOTAL FREE ENERGY PREDICTED BY IDOCK:   -5.05 KCAL/MOL
REMARK 923 INTER-LIGAND FREE ENERGY PREDICTED BY IDOCK:   -4.87 KCAL/MOL
REMARK 924 INTRA-LIGAND FREE ENERGY PREDICTED BY IDOCK:   -0.19 KCAL/MOL
REMARK 927      BINDING AFFINITY PREDICTED BY RF-SCORE:    0.00 PKD
ROOT
HETATM    1  N   UNL     1     -12.172  14.334  67.094  1.00  0.00    -0.589 NA 
HETATM    2  C   UNL     1     -12.007  12.971  66.607  1.00  0.00    -0.387 C  
HETATM    3  H1  UNL     1     -13.059  14.519  67.564  1.00  0.00     0.000 HD 
HETATM    4  H2  UNL     1     -12.031  14.999  66.334  1.00  0.00     0.000 HD 
ENDROOT
BRANCH   2   5
HETATM    5  C   UNL     1     -10.651  12.687  65.888  1.00  0.00    -0.297 C  
HETATM    6  C   UNL     1     -10.406  11.145  65.899  1.00  0.00    -0.314 C  
HETATM    7  C   UNL     1      -9.461  13.384  66.599  1.00  0.00    -0.264 C  
HETATM    8  C   UNL     1      -9.140  12.803  67.978  1.00  0.00    -0.207 C  
HETATM    9  C   UNL     1     -10.056  10.567  67.269  1.00  0.00    -0.242 C  
HETATM   10  C   UNL     1      -8.884  11.303  67.905  1.00  0.00    -0.142 C  
BRANCH   5  11
HETATM   11  C   UNL     1     -10.697  13.106  64.392  1.00  0.00    -0.426 C  
HETATM   12  O   UNL     1     -12.665  12.356  63.222  1.00  0.00    -0.688 OA 
HETATM   13  C   UNL     1     -12.061  13.269  63.769  1.00  0.00    -0.482 C  
HETATM   14  O   UNL     1     -12.565  14.518  63.856  1.00  0.00    -0.827 OA 
ENDBRANCH   5  11
ENDBRANCH   2   5
TORSDOF 2
ENDMDL
MODEL       19
REMARK 921   NORMALIZED FREE ENERGY PREDICTED BY IDOCK:   -4.35 KCAL/MOL
REMARK 922        TOTAL FREE ENERGY PREDICTED BY IDOCK:   -5.05 KCAL/MOL
REMARK 923 INTER-LIGAND FREE ENERGY PREDICTED BY IDOCK:   -4.85 KCAL/MOL
REMARK 924 INTRA-LIGAND FREE ENERGY PREDICTED BY IDOCK:   -0.20 KCAL/MOL
REMARK 927      BINDING AFFINITY PREDICTED BY RF-SCORE:    0.00 PKD
ROOT
HETATM    1  N   UNL     1     -13.000  13.115  65.215  1.00  0.00    -0.700 NA 
HETATM    2  C   UNL     1     -12.387  13.911  66.270  1.00  0.00    -0.449 C  
HETATM    3  H1  UNL     1     -13.996  12.929  65.338  1.00  0.00     0.000 HD 
HETATM    4  H2  UNL     1     -12.491  12.239  65.093  1.00  0.00     0.000 HD 
ENDROOT
BRANCH   2   5
HETATM    5  C   UNL     1     -10.864  14.196  66.082  1.00  0.00    -0.296 C  
HETATM    6  C   UNL     1     -10.119  12.826  66.003  1.00  0.00    -0.277 C  
HETATM    7  C   UNL     1     -10.276  15.014  67.262  1.00  0.00    -0.242 C  
HETATM    8  C   UNL     1     -10.226  14.244  68.582  1.00  0.00    -0.246 C  
HETATM    9  C   UNL     1     -10.039  12.069  67.328  1.00  0.00    -0.208 C  
HETATM   10  C   UNL     1      -9.458  12.937  68.436  1.00  0.00    -0.162 C  
BRANCH   5  11
HETATM   11  C   UNL     1     -10.579  14.920  64.737  1.00  0.00    -0.336 C  
HETATM   12  O   UNL     1     -12.522  15.938  63.739  1.00  0.00    -0.735 OA 
HETATM   13  C   UNL     1     -11.484  16.072  64.374  1.00  0.00    -0.242 C  
HETATM   14  O   UNL     1     -11.050  17.275  64.805  1.00  0.00    -0.954 OA 
ENDBRANCH   5  11
ENDBRANCH   2   5
TORSDOF 2
ENDMDL
MODEL       20
REMARK 921   NORMALIZED FREE ENERGY PREDICTED BY IDOCK:   -4.34 KCAL/MOL
REMARK 922        TOTAL FREE ENERGY PREDICTED BY IDOCK:   -5.03 KCAL/MOL
REMARK 923 INTER-LIGAND FREE ENERGY PREDICTED BY IDOCK:   -4.84 KCAL/MOL
REMARK 924 INTRA-LIGAND FREE ENERGY PREDICTED BY IDOCK:   -0.18 KCAL/MOL
REMARK 927      BINDING AFFINITY PREDICTED BY RF-SCORE:    0.00 PKD
ROOT
HETATM    1  N   UNL     1     -11.680  13.256  67.773  1.00  0.00    -0.340 NA 
HETATM    2  C   UNL     1     -11.704  14.566  67.136  1.00  0.00    -0.399 C  
HETATM    3  H1  UNL     1     -12.355  13.130  68.528  1.00  0.00     0.000 HD 
HETATM    4  H2  UNL     1     -10.738  13.042  68.104  1.00  0.00     0.000 HD 
ENDROOT
BRANCH   2   5
HETATM    5  C   UNL     1     -10.672  14.758  65.982  1.00  0.00    -0.314 C  
HETATM    6  C   UNL     1      -9.238  14.690  66.595  1.00  0.00    -0.291 C  
HETATM    7  C   UNL     1     -10.843  16.128  65.272  1.00  0.00    -0.349 C  
HETATM    8  C   UNL     1     -10.469  17.327  66.146  1.00  0.00    -0.279 C  
HETATM    9  C   UNL     1      -8.849  15.900  67.443  1.00  0.00    -0.201 C  
HETATM   10  C   UNL     1      -9.049  17.204  66.682  1.00  0.00    -0.280 C  
BRANCH   5  11
HETATM   11  C   UNL     1     -10.753  13.606  64.943  1.00  0.00    -0.400 C  
HETATM   12  O   UNL     1     -12.883  12.480  64.890  1.00  0.00    -0.758 OA 
HETATM   13  C   UNL     1     -12.116  13.286  64.380  1.00  0.00    -0.415 C  
HETATM   14  O   UNL     1     -12.424  13.963  63.254  1.00  0.00    -0.817 OA 
ENDBRANCH   5  11
ENDBRANCH   2   5
TORSDOF 2
ENDMDL
MODEL       21
REMARK 921   NORMALIZED FREE ENERGY PREDICTED BY IDOCK:   -4.32 KCAL/MOL
REMARK 922        TOTAL FREE ENERGY PREDICTED BY IDOCK:   -5.01 KCAL/MOL
REMARK 923 INTER-LIGAND FREE ENERGY PREDICTED BY IDOCK:   -4.86 KCAL/MOL
REMARK 924 INTRA-LIGAND FREE ENERGY PREDICTED BY IDOCK:   -0.15 KCAL/MOL
REMARK 927      BINDING AFFINITY PREDICTED BY RF-SCORE:    0.00 PKD
ROOT
HETATM    1  N   UNL     1      -9.086  13.318  66.145  1.00  0.00    -0.463 NA 
HETATM    2  C   UNL     1      -9.900  14.024  67.126  1.00  0.00    -0.240 C  
HETATM    3  H1  UNL     1      -8.096  13.565  66.148  1.00  0.00     0.000 HD 
HETATM    4  H2  UNL     1      -9.476  13.439  65.210  1.00  0.00     0.000 HD 
ENDROOT
BRANCH   2   5
HETATM    5  C   UNL     1     -11.414  13.645  67.121  1.00  0.00    -0.367 C  
HETATM    6  C   UNL     1     -12.090  14.324  68.354  1.00  0.00    -0.297 C  
HETATM    7  C   UNL     1     -11.629  12.111  67.220  1.00  0.00    -0.404 C  
HETATM    8  C   UNL     1     -11.226  11.517  68.571  1.00  0.00    -0.315 C  
HETATM    9  C   UNL     1     -11.714  13.713  69.703  1.00  0.00    -0.383 C  
HETATM   10  C   UNL     1     -11.948  12.208  69.721  1.00  0.00    -0.372 C  
BRANCH   5  11
HETATM   11  C   UNL     1     -12.141  14.205  65.867  1.00  0.00    -0.441 C  
HETATM   12  O   UNL     1     -11.361  13.278  63.784  1.00  0.00    -0.366 OA 
HETATM   13  C   UNL     1     -12.216  13.303  64.659  1.00  0.00    -0.407 C  
HETATM   14  O   UNL     1     -13.317  12.524  64.618  1.00  0.00    -0.804 OA 
ENDBRANCH   5  11
ENDBRANCH   2   5
TORSDOF 2
ENDMDL
MODEL       22
REMARK 921   NORMALIZED FREE ENERGY PREDICTED BY IDOCK:   -4.31 KCAL/MOL
REMARK 922        TOTAL FREE ENERGY PREDICTED BY IDOCK:   -5.00 KCAL/MOL
REMARK 923 INTER-LIGAND FREE ENERGY PREDICTED BY IDOCK:   -4.99 KCAL/MOL
REMARK 924 INTRA-LIGAND FREE ENERGY PREDICTED BY IDOCK:   -0.01 KCAL/MOL
REMARK 927      BINDING AFFINITY PREDICTED BY RF-SCORE:    0.00 PKD
ROOT
HETATM    1  N   UNL     1      -8.756  12.252  66.094  1.00  0.00    -0.413 NA 
HETATM    2  C   UNL     1      -9.520  13.142  66.958  1.00  0.00    -0.242 C  
HETATM    3  H1  UNL     1      -8.142  11.599  66.582  1.00  0.00     0.000 HD 
HETATM    4  H2  UNL     1      -8.223  12.793  65.412  1.00  0.00     0.000 HD 
ENDROOT
BRANCH   2   5
HETATM    5  C   UNL     1     -10.459  14.141  66.211  1.00  0.00    -0.286 C  
HETATM    6  C   UNL     1      -9.697  15.493  66.042  1.00  0.00    -0.378 C  
HETATM    7  C   UNL     1     -11.769  14.404  66.998  1.00  0.00    -0.420 C  
HETATM    8  C   UNL     1     -11.562  15.181  68.300  1.00  0.00    -0.357 C  
HETATM    9  C   UNL     1      -9.515  16.286  67.336  1.00  0.00    -0.227 C  
HETATM   10  C   UNL     1     -10.841  16.500  68.053  1.00  0.00    -0.337 C  
BRANCH   5  11
HETATM   11  C   UNL     1     -10.790  13.650  64.774  1.00  0.00    -0.402 C  
HETATM   12  O   UNL     1     -13.037  12.820  64.513  1.00  0.00    -0.743 OA 
HETATM   13  C   UNL     1     -12.233  13.726  64.340  1.00  0.00    -0.399 C  
HETATM   14  O   UNL     1     -12.568  14.884  63.732  1.00  0.00    -0.791 OA 
ENDBRANCH   5  11
ENDBRANCH   2   5
TORSDOF 2
ENDMDL
MODEL       23
REMARK 921   NORMALIZED FREE ENERGY PREDICTED BY IDOCK:   -4.26 KCAL/MOL
REMARK 922        TOTAL FREE ENERGY PREDICTED BY IDOCK:   -4.95 KCAL/MOL
REMARK 923 INTER-LIGAND FREE ENERGY PREDICTED BY IDOCK:   -4.82 KCAL/MOL
REMARK 924 INTRA-LIGAND FREE ENERGY PREDICTED BY IDOCK:   -0.12 KCAL/MOL
REMARK 927      BINDING AFFINITY PREDICTED BY RF-SCORE:    0.00 PKD
ROOT
HETATM    1  N   UNL     1      -9.532  14.107  65.799  1.00  0.00    -0.526 NA 
HETATM    2  C   UNL     1      -9.505  12.788  66.417  1.00  0.00    -0.229 C  
HETATM    3  H1  UNL     1      -8.752  14.716  66.048  1.00  0.00     0.000 HD 
HETATM    4  H2  UNL     1     -10.419  14.571  65.998  1.00  0.00     0.000 HD 
ENDROOT
BRANCH   2   5
HETATM    5  C   UNL     1     -10.698  11.856  66.035  1.00  0.00    -0.326 C  
HETATM    6  C   UNL     1     -10.862  10.789  67.162  1.00  0.00    -0.335 C  
HETATM    7  C   UNL     1     -10.455  11.124  64.689  1.00  0.00    -0.400 C  
HETATM    8  C   UNL     1      -9.334  10.085  64.745  1.00  0.00    -0.330 C  
HETATM    9  C   UNL     1      -9.760   9.731  67.201  1.00  0.00    -0.223 C  
HETATM   10  C   UNL     1      -9.578   9.061  65.846  1.00  0.00    -0.317 C  
BRANCH   5  11
HETATM   11  C   UNL     1     -12.040  12.638  65.982  1.00  0.00    -0.429 C  
HETATM   12  O   UNL     1     -12.311  13.993  64.008  1.00  0.00    -0.646 OA 
HETATM   13  C   UNL     1     -12.588  12.967  64.615  1.00  0.00    -0.391 C  
HETATM   14  O   UNL     1     -13.422  12.032  64.113  1.00  0.00    -0.672 OA 
ENDBRANCH   5  11
ENDBRANCH   2   5
TORSDOF 2
ENDMDL
MODEL       24
REMARK 921   NORMALIZED FREE ENERGY PREDICTED BY IDOCK:   -4.23 KCAL/MOL
REMARK 922        TOTAL FREE ENERGY PREDICTED BY IDOCK:   -4.91 KCAL/MOL
REMARK 923 INTER-LIGAND FREE ENERGY PREDICTED BY IDOCK:   -5.18 KCAL/MOL
REMARK 924 INTRA-LIGAND FREE ENERGY PREDICTED BY IDOCK:    0.27 KCAL/MOL
REMARK 927      BINDING AFFINITY PREDICTED BY RF-SCORE:    0.00 PKD
ROOT
HETATM    1  N   UNL     1     -12.440  15.214  63.856  1.00  0.00    -1.018 NA 
HETATM    2  C   UNL     1     -11.379  14.824  64.775  1.00  0.00    -0.397 C  
HETATM    3  H1  UNL     1     -12.296  16.108  63.384  1.00  0.00     0.000 HD 
HETATM    4  H2  UNL     1     -13.340  15.210  64.335  1.00  0.00     0.000 HD 
ENDROOT
BRANCH   2   5
HETATM    5  C   UNL     1     -11.599  13.458  65.496  1.00  0.00    -0.346 C  
HETATM    6  C   UNL     1     -10.219  12.737  65.608  1.00  0.00    -0.292 C  
HETATM    7  C   UNL     1     -12.576  12.540  64.714  1.00  0.00    -0.493 C  
HETATM    8  C   UNL     1     -12.015  12.034  63.384  1.00  0.00    -0.571 C  
HETATM    9  C   UNL     1      -9.671  12.204  64.286  1.00  0.00    -0.076 C  
HETATM   10  C   UNL     1     -10.685  11.317  63.576  1.00  0.00    -0.408 C  
BRANCH   5  11
HETATM   11  C   UNL     1     -12.103  13.654  66.953  1.00  0.00    -0.431 C  
HETATM   12  O   UNL     1     -12.083  11.642  68.279  1.00  0.00    -0.552 OA 
HETATM   13  C   UNL     1     -11.559  12.712  67.999  1.00  0.00    -0.343 C  
HETATM   14  O   UNL     1     -10.440  13.152  68.612  1.00  0.00    -0.253 OA 
ENDBRANCH   5  11
ENDBRANCH   2   5
TORSDOF 2
ENDMDL
MODEL       25
REMARK 921   NORMALIZED FREE ENERGY PREDICTED BY IDOCK:   -4.22 KCAL/MOL
REMARK 922        TOTAL FREE ENERGY PREDICTED BY IDOCK:   -4.90 KCAL/MOL
REMARK 923 INTER-LIGAND FREE ENERGY PREDICTED BY IDOCK:   -4.81 KCAL/MOL
REMARK 924 INTRA-LIGAND FREE ENERGY PREDICTED BY IDOCK:   -0.09 KCAL/MOL
REMARK 927      BINDING AFFINITY PREDICTED BY RF-SCORE:    0.00 PKD
ROOT
HETATM    1  N   UNL     1      -8.854  13.491  66.387  1.00  0.00    -0.449 NA 
HETATM    2  C   UNL     1     -10.045  14.135  65.848  1.00  0.00    -0.321 C  
HETATM    3  H1  UNL     1      -7.988  14.018  66.271  1.00  0.00     0.000 HD 
HETATM    4  H2  UNL     1      -8.752  12.555  65.994  1.00  0.00     0.000 HD 
ENDROOT
BRANCH   2   5
HETATM    5  C   UNL     1     -11.370  13.329  66.026  1.00  0.00    -0.329 C  
HETATM    6  C   UNL     1     -11.082  11.836  65.673  1.00  0.00    -0.340 C  
HETATM    7  C   UNL     1     -12.496  13.852  65.095  1.00  0.00    -0.479 C  
HETATM    8  C   UNL     1     -12.240  13.590  63.610  1.00  0.00    -0.438 C  
HETATM    9  C   UNL     1     -10.857  11.566  64.186  1.00  0.00    -0.435 C  
HETATM   10  C   UNL     1     -11.999  12.110  63.338  1.00  0.00    -0.578 C  
BRANCH   5  11
HETATM   11  C   UNL     1     -11.852  13.339  67.503  1.00  0.00    -0.403 C  
HETATM   12  O   UNL     1     -12.260  11.147  68.418  1.00  0.00    -0.610 OA 
HETATM   13  C   UNL     1     -11.527  12.124  68.337  1.00  0.00    -0.304 C  
HETATM   14  O   UNL     1     -10.354  12.204  69.000  1.00  0.00    -0.124 OA 
ENDBRANCH   5  11
ENDBRANCH   2   5
TORSDOF 2
ENDMDL
MODEL       26
REMARK 921   NORMALIZED FREE ENERGY PREDICTED BY IDOCK:   -4.17 KCAL/MOL
REMARK 922        TOTAL FREE ENERGY PREDICTED BY IDOCK:   -4.84 KCAL/MOL
REMARK 923 INTER-LIGAND FREE ENERGY PREDICTED BY IDOCK:   -4.66 KCAL/MOL
REMARK 924 INTRA-LIGAND FREE ENERGY PREDICTED BY IDOCK:   -0.18 KCAL/MOL
REMARK 927      BINDING AFFINITY PREDICTED BY RF-SCORE:    0.00 PKD
ROOT
HETATM    1  N   UNL     1     -12.153  14.326  67.882  1.00  0.00    -0.567 NA 
HETATM    2  C   UNL     1     -12.213  14.075  66.448  1.00  0.00    -0.460 C  
HETATM    3  H1  UNL     1     -13.058  14.454  68.336  1.00  0.00     0.000 HD 
HETATM    4  H2  UNL     1     -11.546  15.123  68.075  1.00  0.00     0.000 HD 
ENDROOT
BRANCH   2   5
HETATM    5  C   UNL     1     -10.829  13.879  65.753  1.00  0.00    -0.289 C  
HETATM    6  C   UNL     1     -11.080  13.582  64.242  1.00  0.00    -0.371 C  
HETATM    7  C   UNL     1     -10.034  12.696  66.367  1.00  0.00    -0.262 C  
HETATM    8  C   UNL     1     -10.653  11.325  66.085  1.00  0.00    -0.312 C  
HETATM    9  C   UNL     1     -11.669  12.201  63.954  1.00  0.00    -0.546 C  
HETATM   10  C   UNL     1     -10.839  11.095  64.591  1.00  0.00    -0.295 C  
BRANCH   5  11
HETATM   11  C   UNL     1      -9.975  15.177  65.803  1.00  0.00    -0.375 C  
HETATM   12  O   UNL     1     -10.945  17.036  64.616  1.00  0.00    -0.968 OA 
HETATM   13  C   UNL     1     -10.714  16.487  65.685  1.00  0.00    -0.248 C  
HETATM   14  O   UNL     1     -11.098  17.015  66.867  1.00  0.00     0.033 OA 
ENDBRANCH   5  11
ENDBRANCH   2   5
TORSDOF 2
ENDMDL
MODEL       27
REMARK 921   NORMALIZED FREE ENERGY PREDICTED BY IDOCK:   -4.15 KCAL/MOL
REMARK 922        TOTAL FREE ENERGY PREDICTED BY IDOCK:   -4.82 KCAL/MOL
REMARK 923 INTER-LIGAND FREE ENERGY PREDICTED BY IDOCK:   -4.62 KCAL/MOL
REMARK 924 INTRA-LIGAND FREE ENERGY PREDICTED BY IDOCK:   -0.20 KCAL/MOL
REMARK 927      BINDING AFFINITY PREDICTED BY RF-SCORE:    0.00 PKD
ROOT
HETATM    1  N   UNL     1     -11.810  11.687  67.292  1.00  0.00    -0.626 NA 
HETATM    2  C   UNL     1     -11.925  13.136  67.190  1.00  0.00    -0.341 C  
HETATM    3  H1  UNL     1     -12.537  11.234  67.847  1.00  0.00     0.000 HD 
HETATM    4  H2  UNL     1     -10.888  11.431  67.645  1.00  0.00     0.000 HD 
ENDROOT
BRANCH   2   5
HETATM    5  C   UNL     1     -10.813  13.828  66.342  1.00  0.00    -0.287 C  
HETATM    6  C   UNL     1      -9.426  13.414  66.927  1.00  0.00    -0.253 C  
HETATM    7  C   UNL     1     -10.928  15.375  66.386  1.00  0.00    -0.277 C  
HETATM    8  C   UNL     1     -10.612  15.979  67.755  1.00  0.00    -0.309 C  
HETATM    9  C   UNL     1      -9.093  14.040  68.280  1.00  0.00    -0.191 C  
HETATM   10  C   UNL     1      -9.233  15.556  68.245  1.00  0.00    -0.188 C  
BRANCH   5  11
HETATM   11  C   UNL     1     -10.825  13.334  64.869  1.00  0.00    -0.358 C  
HETATM   12  O   UNL     1     -12.803  12.096  64.265  1.00  0.00    -0.578 OA 
HETATM   13  C   UNL     1     -12.175  13.146  64.221  1.00  0.00    -0.396 C  
HETATM   14  O   UNL     1     -12.638  14.238  63.577  1.00  0.00    -0.814 OA 
ENDBRANCH   5  11
ENDBRANCH   2   5
TORSDOF 2
ENDMDL
MODEL       28
REMARK 921   NORMALIZED FREE ENERGY PREDICTED BY IDOCK:   -4.14 KCAL/MOL
REMARK 922        TOTAL FREE ENERGY PREDICTED BY IDOCK:   -4.81 KCAL/MOL
REMARK 923 INTER-LIGAND FREE ENERGY PREDICTED BY IDOCK:   -4.69 KCAL/MOL
REMARK 924 INTRA-LIGAND FREE ENERGY PREDICTED BY IDOCK:   -0.11 KCAL/MOL
REMARK 927      BINDING AFFINITY PREDICTED BY RF-SCORE:    0.00 PKD
ROOT
HETATM    1  N   UNL     1      -8.938  15.106  66.197  1.00  0.00    -0.468 NA 
HETATM    2  C   UNL     1      -9.428  13.843  66.733  1.00  0.00    -0.279 C  
HETATM    3  H1  UNL     1      -8.104  15.475  66.655  1.00  0.00     0.000 HD 
HETATM    4  H2  UNL     1      -9.682  15.805  66.206  1.00  0.00     0.000 HD 
ENDROOT
BRANCH   2   5
HETATM    5  C   UNL     1     -10.704  13.279  66.032  1.00  0.00    -0.286 C  
HETATM    6  C   UNL     1     -11.289  12.142  66.927  1.00  0.00    -0.402 C  
HETATM    7  C   UNL     1     -10.386  12.695  64.630  1.00  0.00    -0.354 C  
HETATM    8  C   UNL     1      -9.540  11.421  64.671  1.00  0.00    -0.228 C  
HETATM    9  C   UNL     1     -10.462  10.857  66.945  1.00  0.00    -0.299 C  
HETATM   10  C   UNL     1     -10.188  10.348  65.536  1.00  0.00    -0.316 C  
BRANCH   5  11
HETATM   11  C   UNL     1     -11.819  14.357  65.920  1.00  0.00    -0.371 C  
HETATM   12  O   UNL     1     -11.282  16.174  64.431  1.00  0.00    -0.605 OA 
HETATM   13  C   UNL     1     -11.894  15.132  64.628  1.00  0.00    -0.332 C  
HETATM   14  O   UNL     1     -12.704  14.583  63.698  1.00  0.00    -0.754 OA 
ENDBRANCH   5  11
ENDBRANCH   2   5
TORSDOF 2
ENDMDL
MODEL       29
REMARK 921   NORMALIZED FREE ENERGY PREDICTED BY IDOCK:   -4.14 KCAL/MOL
REMARK 922        TOTAL FREE ENERGY PREDICTED BY IDOCK:   -4.80 KCAL/MOL
REMARK 923 INTER-LIGAND FREE ENERGY PREDICTED BY IDOCK:   -4.93 KCAL/MOL
REMARK 924 INTRA-LIGAND FREE ENERGY PREDICTED BY IDOCK:    0.13 KCAL/MOL
REMARK 927      BINDING AFFINITY PREDICTED BY RF-SCORE:    0.00 PKD
ROOT
HETATM    1  N   UNL     1      -8.350  14.254  66.675  1.00  0.00    -0.388 NA 
HETATM    2  C   UNL     1      -9.191  13.100  66.967  1.00  0.00    -0.233 C  
HETATM    3  H1  UNL     1      -7.364  14.139  66.910  1.00  0.00     0.000 HD 
HETATM    4  H2  UNL     1      -8.726  15.087  67.128  1.00  0.00     0.000 HD 
ENDROOT
BRANCH   2   5
HETATM    5  C   UNL     1     -10.700  13.276  66.606  1.00  0.00    -0.284 C  
HETATM    6  C   UNL     1     -11.128  14.726  66.994  1.00  0.00    -0.333 C  
HETATM    7  C   UNL     1     -11.600  12.271  67.373  1.00  0.00    -0.425 C  
HETATM    8  C   UNL     1     -11.670  12.530  68.879  1.00  0.00    -0.367 C  
HETATM    9  C   UNL     1     -11.229  14.979  68.497  1.00  0.00    -0.298 C  
HETATM   10  C   UNL     1     -12.124  13.953  69.179  1.00  0.00    -0.377 C  
BRANCH   5  11
HETATM   11  C   UNL     1     -10.942  13.149  65.076  1.00  0.00    -0.322 C  
HETATM   12  O   UNL     1     -13.170  12.444  64.489  1.00  0.00    -0.834 OA 
HETATM   13  C   UNL     1     -12.355  13.352  64.587  1.00  0.00    -0.382 C  
HETATM   14  O   UNL     1     -12.649  14.627  64.256  1.00  0.00    -0.688 OA 
ENDBRANCH   5  11
ENDBRANCH   2   5
TORSDOF 2
ENDMDL
MODEL       30
REMARK 921   NORMALIZED FREE ENERGY PREDICTED BY IDOCK:   -4.10 KCAL/MOL
REMARK 922        TOTAL FREE ENERGY PREDICTED BY IDOCK:   -4.77 KCAL/MOL
REMARK 923 INTER-LIGAND FREE ENERGY PREDICTED BY IDOCK:   -4.78 KCAL/MOL
REMARK 924 INTRA-LIGAND FREE ENERGY PREDICTED BY IDOCK:    0.01 KCAL/MOL
REMARK 927      BINDING AFFINITY PREDICTED BY RF-SCORE:    0.00 PKD
ROOT
HETATM    1  N   UNL     1     -11.608  16.223  63.885  1.00  0.00    -1.573 NA 
HETATM    2  C   UNL     1     -11.271  15.488  65.098  1.00  0.00    -0.318 C  
HETATM    3  H1  UNL     1     -12.174  15.706  63.212  1.00  0.00     0.000 HD 
HETATM    4  H2  UNL     1     -10.760  16.572  63.438  1.00  0.00     0.000 HD 
ENDROOT
BRANCH   2   5
HETATM    5  C   UNL     1     -10.404  16.278  66.128  1.00  0.00    -0.352 C  
HETATM    6  C   UNL     1      -8.957  15.693  66.098  1.00  0.00    -0.362 C  
HETATM    7  C   UNL     1     -10.960  16.152  67.571  1.00  0.00    -0.238 C  
HETATM    8  C   UNL     1     -10.832  14.746  68.161  1.00  0.00    -0.256 C  
HETATM    9  C   UNL     1      -8.820  14.302  66.714  1.00  0.00    -0.207 C  
HETATM   10  C   UNL     1      -9.390  14.256  68.126  1.00  0.00    -0.206 C  
BRANCH   5  11
HETATM   11  C   UNL     1     -10.272  17.776  65.736  1.00  0.00    -0.144 C  
HETATM   12  O   UNL     1     -10.990  19.307  67.453  1.00  0.00    -0.484 OA 
HETATM   13  C   UNL     1     -10.068  18.762  66.860  1.00  0.00    -0.358 C  
HETATM   14  O   UNL     1      -8.774  19.004  67.157  1.00  0.00    -0.279 OA 
ENDBRANCH   5  11
ENDBRANCH   2   5
TORSDOF 2
ENDMDL
MODEL       31
REMARK 921   NORMALIZED FREE ENERGY PREDICTED BY IDOCK:   -4.09 KCAL/MOL
REMARK 922        TOTAL FREE ENERGY PREDICTED BY IDOCK:   -4.75 KCAL/MOL
REMARK 923 INTER-LIGAND FREE ENERGY PREDICTED BY IDOCK:   -4.74 KCAL/MOL
REMARK 924 INTRA-LIGAND FREE ENERGY PREDICTED BY IDOCK:   -0.01 KCAL/MOL
REMARK 927      BINDING AFFINITY PREDICTED BY RF-SCORE:    0.00 PKD
ROOT
HETATM    1  N   UNL     1     -12.742  11.983  62.915  1.00  0.00    -0.637 NA 
HETATM    2  C   UNL     1     -12.241  11.657  64.244  1.00  0.00    -0.003 C  
HETATM    3  H1  UNL     1     -13.690  11.659  62.720  1.00  0.00     0.000 HD 
HETATM    4  H2  UNL     1     -12.098  11.640  62.201  1.00  0.00     0.000 HD 
ENDROOT
BRANCH   2   5
HETATM    5  C   UNL     1     -10.791  12.154  64.542  1.00  0.00    -0.356 C  
HETATM    6  C   UNL     1      -9.932  11.953  63.254  1.00  0.00    -0.409 C  
HETATM    7  C   UNL     1     -10.135  11.362  65.704  1.00  0.00    -0.293 C  
HETATM    8  C   UNL     1      -9.835   9.901  65.364  1.00  0.00    -0.384 C  
HETATM    9  C   UNL     1      -9.605  10.496  62.928  1.00  0.00    -0.355 C  
HETATM   10  C   UNL     1      -8.969   9.786  64.116  1.00  0.00    -0.276 C  
BRANCH   5  11
HETATM   11  C   UNL     1     -10.759  13.677  64.849  1.00  0.00    -0.400 C  
HETATM   12  O   UNL     1     -12.559  14.920  63.838  1.00  0.00    -0.831 OA 
HETATM   13  C   UNL     1     -12.081  14.404  64.840  1.00  0.00    -0.436 C  
HETATM   14  O   UNL     1     -12.698  14.448  66.040  1.00  0.00    -0.360 OA 
ENDBRANCH   5  11
ENDBRANCH   2   5
TORSDOF 2
ENDMDL
MODEL       32
REMARK 921   NORMALIZED FREE ENERGY PREDICTED BY IDOCK:   -4.07 KCAL/MOL
REMARK 922        TOTAL FREE ENERGY PREDICTED BY IDOCK:   -4.73 KCAL/MOL
REMARK 923 INTER-LIGAND FREE ENERGY PREDICTED BY IDOCK:   -4.72 KCAL/MOL
REMARK 924 INTRA-LIGAND FREE ENERGY PREDICTED BY IDOCK:   -0.01 KCAL/MOL
REMARK 927      BINDING AFFINITY PREDICTED BY RF-SCORE:    0.00 PKD
ROOT
HETATM    1  N   UNL     1     -12.274  15.115  68.588  1.00  0.00    -0.597 NA 
HETATM    2  C   UNL     1     -11.179  14.891  67.653  1.00  0.00    -0.323 C  
HETATM    3  H1  UNL     1     -12.134  15.889  69.238  1.00  0.00     0.000 HD 
HETATM    4  H2  UNL     1     -12.482  14.257  69.100  1.00  0.00     0.000 HD 
ENDROOT
BRANCH   2   5
HETATM    5  C   UNL     1     -11.393  13.707  66.658  1.00  0.00    -0.343 C  
HETATM    6  C   UNL     1     -11.776  12.439  67.484  1.00  0.00    -0.425 C  
HETATM    7  C   UNL     1     -10.112  13.399  65.839  1.00  0.00    -0.300 C  
HETATM    8  C   UNL     1      -8.970  12.819  66.676  1.00  0.00    -0.152 C  
HETATM    9  C   UNL     1     -10.629  11.839  68.297  1.00  0.00    -0.236 C  
HETATM   10  C   UNL     1      -9.408  11.569  67.427  1.00  0.00    -0.168 C  
BRANCH   5  11
HETATM   11  C   UNL     1     -12.587  13.974  65.699  1.00  0.00    -0.542 C  
HETATM   12  O   UNL     1     -12.066  15.457  63.872  1.00  0.00    -0.547 OA 
HETATM   13  C   UNL     1     -12.252  14.313  64.267  1.00  0.00    -0.423 C  
HETATM   14  O   UNL     1     -12.181  13.244  63.447  1.00  0.00    -0.664 OA 
ENDBRANCH   5  11
ENDBRANCH   2   5
TORSDOF 2
ENDMDL
MODEL       33
REMARK 921   NORMALIZED FREE ENERGY PREDICTED BY IDOCK:   -4.06 KCAL/MOL
REMARK 922        TOTAL FREE ENERGY PREDICTED BY IDOCK:   -4.72 KCAL/MOL
REMARK 923 INTER-LIGAND FREE ENERGY PREDICTED BY IDOCK:   -4.61 KCAL/MOL
REMARK 924 INTRA-LIGAND FREE ENERGY PREDICTED BY IDOCK:   -0.11 KCAL/MOL
REMARK 927      BINDING AFFINITY PREDICTED BY RF-SCORE:    0.00 PKD
ROOT
HETATM    1  N   UNL     1      -8.829  13.405  66.732  1.00  0.00    -0.402 NA 
HETATM    2  C   UNL     1      -9.403  14.296  67.732  1.00  0.00    -0.198 C  
HETATM    3  H1  UNL     1      -7.903  13.040  66.960  1.00  0.00     0.000 HD 
HETATM    4  H2  UNL     1      -8.812  13.863  65.820  1.00  0.00     0.000 HD 
ENDROOT
BRANCH   2   5
HETATM    5  C   UNL     1     -10.819  14.854  67.382  1.00  0.00    -0.304 C  
HETATM    6  C   UNL     1     -10.725  15.599  66.014  1.00  0.00    -0.322 C  
HETATM    7  C   UNL     1     -11.331  15.850  68.457  1.00  0.00    -0.374 C  
HETATM    8  C   UNL     1     -10.548  17.163  68.503  1.00  0.00    -0.361 C  
HETATM    9  C   UNL     1      -9.970  16.927  66.064  1.00  0.00    -0.313 C  
HETATM   10  C   UNL     1     -10.526  17.847  67.142  1.00  0.00    -0.359 C  
BRANCH   5  11
HETATM   11  C   UNL     1     -11.851  13.710  67.181  1.00  0.00    -0.435 C  
HETATM   12  O   UNL     1     -13.188  13.932  65.189  1.00  0.00    -0.768 OA 
HETATM   13  C   UNL     1     -12.252  13.391  65.762  1.00  0.00    -0.458 C  
HETATM   14  O   UNL     1     -11.491  12.445  65.171  1.00  0.00    -0.313 OA 
ENDBRANCH   5  11
ENDBRANCH   2   5
TORSDOF 2
ENDMDL
MODEL       34
REMARK 921   NORMALIZED FREE ENERGY PREDICTED BY IDOCK:   -4.06 KCAL/MOL
REMARK 922        TOTAL FREE ENERGY PREDICTED BY IDOCK:   -4.72 KCAL/MOL
REMARK 923 INTER-LIGAND FREE ENERGY PREDICTED BY IDOCK:   -4.55 KCAL/MOL
REMARK 924 INTRA-LIGAND FREE ENERGY PREDICTED BY IDOCK:   -0.17 KCAL/MOL
REMARK 927      BINDING AFFINITY PREDICTED BY RF-SCORE:    0.00 PKD
ROOT
HETATM    1  N   UNL     1      -7.716  16.017  66.874  1.00  0.00    -0.232 NA 
HETATM    2  C   UNL     1      -8.403  17.047  66.106  1.00  0.00    -0.241 C  
HETATM    3  H1  UNL     1      -6.804  15.742  66.506  1.00  0.00     0.000 HD 
HETATM    4  H2  UNL     1      -8.315  15.198  66.980  1.00  0.00     0.000 HD 
ENDROOT
BRANCH   2   5
HETATM    5  C   UNL     1      -9.798  17.469  66.668  1.00  0.00    -0.308 C  
HETATM    6  C   UNL     1     -10.217  18.804  65.978  1.00  0.00    -0.413 C  
HETATM    7  C   UNL     1      -9.761  17.693  68.203  1.00  0.00    -0.310 C  
HETATM    8  C   UNL     1      -8.940  18.911  68.629  1.00  0.00    -0.386 C  
HETATM    9  C   UNL     1      -9.420  20.029  66.424  1.00  0.00    -0.512 C  
HETATM   10  C   UNL     1      -9.426  20.180  67.939  1.00  0.00    -0.438 C  
BRANCH   5  11
HETATM   11  C   UNL     1     -10.897  16.432  66.307  1.00  0.00    -0.066 C  
HETATM   12  O   UNL     1     -11.313  16.223  63.942  1.00  0.00    -0.834 OA 
HETATM   13  C   UNL     1     -10.796  15.769  64.955  1.00  0.00    -0.443 C  
HETATM   14  O   UNL     1     -10.089  14.619  64.953  1.00  0.00    -0.367 OA 
ENDBRANCH   5  11
ENDBRANCH   2   5
TORSDOF 2
ENDMDL
MODEL       35
REMARK 921   NORMALIZED FREE ENERGY PREDICTED BY IDOCK:   -4.01 KCAL/MOL
REMARK 922        TOTAL FREE ENERGY PREDICTED BY IDOCK:   -4.66 KCAL/MOL
REMARK 923 INTER-LIGAND FREE ENERGY PREDICTED BY IDOCK:   -4.45 KCAL/MOL
REMARK 924 INTRA-LIGAND FREE ENERGY PREDICTED BY IDOCK:   -0.21 KCAL/MOL
REMARK 927      BINDING AFFINITY PREDICTED BY RF-SCORE:    0.00 PKD
ROOT
HETATM    1  N   UNL     1     -11.890  11.562  67.652  1.00  0.00    -0.629 NA 
HETATM    2  C   UNL     1     -11.851  12.488  66.528  1.00  0.00    -0.367 C  
HETATM    3  H1  UNL     1     -12.822  11.375  68.024  1.00  0.00     0.000 HD 
HETATM    4  H2  UNL     1     -11.272  11.885  68.396  1.00  0.00     0.000 HD 
ENDROOT
BRANCH   2   5
HETATM    5  C   UNL     1     -10.425  12.774  65.958  1.00  0.00    -0.291 C  
HETATM    6  C   UNL     1     -10.585  13.422  64.547  1.00  0.00    -0.441 C  
HETATM    7  C   UNL     1      -9.586  11.476  65.817  1.00  0.00    -0.259 C  
HETATM    8  C   UNL     1     -10.102  10.523  64.737  1.00  0.00    -0.406 C  
HETATM    9  C   UNL     1     -11.070  12.465  63.459  1.00  0.00    -0.521 C  
HETATM   10  C   UNL     1     -10.202  11.216  63.384  1.00  0.00    -0.435 C  
BRANCH   5  11
HETATM   11  C   UNL     1      -9.660  13.812  66.826  1.00  0.00    -0.283 C  
HETATM   12  O   UNL     1     -10.921  15.806  67.314  1.00  0.00    -0.316 OA 
HETATM   13  C   UNL     1     -10.491  14.725  67.693  1.00  0.00    -0.254 C  
HETATM   14  O   UNL     1     -10.717  14.253  68.937  1.00  0.00    -0.248 OA 
ENDBRANCH   5  11
ENDBRANCH   2   5
TORSDOF 2
ENDMDL
MODEL       36
REMARK 921   NORMALIZED FREE ENERGY PREDICTED BY IDOCK:   -3.97 KCAL/MOL
REMARK 922        TOTAL FREE ENERGY PREDICTED BY IDOCK:   -4.62 KCAL/MOL
REMARK 923 INTER-LIGAND FREE ENERGY PREDICTED BY IDOCK:   -4.45 KCAL/MOL
REMARK 924 INTRA-LIGAND FREE ENERGY PREDICTED BY IDOCK:   -0.17 KCAL/MOL
REMARK 927      BINDING AFFINITY PREDICTED BY RF-SCORE:    0.00 PKD
ROOT
HETATM    1  N   UNL     1     -10.727  16.908  65.182  1.00  0.00    -0.666 NA 
HETATM    2  C   UNL     1      -9.728  16.733  66.229  1.00  0.00    -0.297 C  
HETATM    3  H1  UNL     1     -10.492  16.479  64.286  1.00  0.00     0.000 HD 
HETATM    4  H2  UNL     1     -10.933  17.899  65.054  1.00  0.00     0.000 HD 
ENDROOT
BRANCH   2   5
HETATM    5  C   UNL     1     -10.087  17.389  67.599  1.00  0.00    -0.327 C  
HETATM    6  C   UNL     1     -10.688  18.803  67.320  1.00  0.00    -0.490 C  
HETATM    7  C   UNL     1      -8.840  17.550  68.509  1.00  0.00    -0.282 C  
HETATM    8  C   UNL     1      -7.830  18.578  67.995  1.00  0.00    -0.291 C  
HETATM    9  C   UNL     1      -9.675  19.840  66.836  1.00  0.00    -0.504 C  
HETATM   10  C   UNL     1      -8.481  19.938  67.776  1.00  0.00    -0.356 C  
BRANCH   5  11
HETATM   11  C   UNL     1     -11.191  16.590  68.345  1.00  0.00    -0.280 C  
HETATM   12  O   UNL     1     -11.874  14.572  67.219  1.00  0.00    -0.394 OA 
HETATM   13  C   UNL     1     -11.230  15.099  68.117  1.00  0.00    -0.320 C  
HETATM   14  O   UNL     1     -10.496  14.385  68.996  1.00  0.00    -0.239 OA 
ENDBRANCH   5  11
ENDBRANCH   2   5
TORSDOF 2
ENDMDL
MODEL       37
REMARK 921   NORMALIZED FREE ENERGY PREDICTED BY IDOCK:   -3.95 KCAL/MOL
REMARK 922        TOTAL FREE ENERGY PREDICTED BY IDOCK:   -4.60 KCAL/MOL
REMARK 923 INTER-LIGAND FREE ENERGY PREDICTED BY IDOCK:   -4.63 KCAL/MOL
REMARK 924 INTRA-LIGAND FREE ENERGY PREDICTED BY IDOCK:    0.03 KCAL/MOL
REMARK 927      BINDING AFFINITY PREDICTED BY RF-SCORE:    0.00 PKD
ROOT
HETATM    1  N   UNL     1     -10.994   7.435  73.616  1.00  0.00    -0.555 NA 
HETATM    2  C   UNL     1     -10.742   8.333  72.496  1.00  0.00    -0.341 C  
HETATM    3  H1  UNL     1     -10.306   7.479  74.368  1.00  0.00     0.000 HD 
HETATM    4  H2  UNL     1     -11.092   6.476  73.283  1.00  0.00     0.000 HD 
ENDROOT
BRANCH   2   5
HETATM    5  C   UNL     1     -11.795   8.266  71.346  1.00  0.00    -0.330 C  
HETATM    6  C   UNL     1     -11.179   8.941  70.081  1.00  0.00    -0.175 C  
HETATM    7  C   UNL     1     -13.107   9.008  71.717  1.00  0.00    -0.437 C  
HETATM    8  C   UNL     1     -12.947  10.526  71.823  1.00  0.00    -0.582 C  
HETATM    9  C   UNL     1     -11.047  10.461  70.171  1.00  0.00    -0.383 C  
HETATM   10  C   UNL     1     -12.371  11.117  70.542  1.00  0.00    -0.454 C  
BRANCH   5  11
HETATM   11  C   UNL     1     -12.110   6.798  70.943  1.00  0.00    -0.421 C  
HETATM   12  O   UNL     1     -11.384   6.213  68.721  1.00  0.00    -0.344 OA 
HETATM   13  C   UNL     1     -11.195   6.156  69.930  1.00  0.00    -0.414 C  
HETATM   14  O   UNL     1     -10.145   5.500  70.467  1.00  0.00    -0.196 OA 
ENDBRANCH   5  11
ENDBRANCH   2   5
TORSDOF 2
ENDMDL
MODEL       38
REMARK 921   NORMALIZED FREE ENERGY PREDICTED BY IDOCK:   -3.91 KCAL/MOL
REMARK 922        TOTAL FREE ENERGY PREDICTED BY IDOCK:   -4.56 KCAL/MOL
REMARK 923 INTER-LIGAND FREE ENERGY PREDICTED BY IDOCK:   -4.54 KCAL/MOL
REMARK 924 INTRA-LIGAND FREE ENERGY PREDICTED BY IDOCK:   -0.01 KCAL/MOL
REMARK 927      BINDING AFFINITY PREDICTED BY RF-SCORE:    0.00 PKD
ROOT
HETATM    1  N   UNL     1      -9.310  13.753  68.634  1.00  0.00    -0.362 NA 
HETATM    2  C   UNL     1      -9.242  13.842  67.181  1.00  0.00    -0.239 C  
HETATM    3  H1  UNL     1      -8.641  13.110  69.058  1.00  0.00     0.000 HD 
HETATM    4  H2  UNL     1     -10.259  13.520  68.928  1.00  0.00     0.000 HD 
ENDROOT
BRANCH   2   5
HETATM    5  C   UNL     1     -10.266  14.826  66.531  1.00  0.00    -0.281 C  
HETATM    6  C   UNL     1     -11.697  14.425  67.009  1.00  0.00    -0.420 C  
HETATM    7  C   UNL     1     -10.225  14.765  64.981  1.00  0.00    -0.379 C  
HETATM    8  C   UNL     1     -10.741  13.446  64.401  1.00  0.00    -0.423 C  
HETATM    9  C   UNL     1     -12.228  13.125  66.408  1.00  0.00    -0.396 C  
HETATM   10  C   UNL     1     -12.152  13.139  64.887  1.00  0.00    -0.448 C  
BRANCH   5  11
HETATM   11  C   UNL     1     -10.042  16.286  67.013  1.00  0.00    -0.270 C  
HETATM   12  O   UNL     1      -8.429  17.514  65.711  1.00  0.00    -0.530 OA 
HETATM   13  C   UNL     1      -9.603  17.290  65.976  1.00  0.00    -0.140 C  
HETATM   14  O   UNL     1     -10.618  17.933  65.362  1.00  0.00    -0.656 OA 
ENDBRANCH   5  11
ENDBRANCH   2   5
TORSDOF 2
ENDMDL
MODEL       39
REMARK 921   NORMALIZED FREE ENERGY PREDICTED BY IDOCK:   -3.89 KCAL/MOL
REMARK 922        TOTAL FREE ENERGY PREDICTED BY IDOCK:   -4.53 KCAL/MOL
REMARK 923 INTER-LIGAND FREE ENERGY PREDICTED BY IDOCK:   -4.37 KCAL/MOL
REMARK 924 INTRA-LIGAND FREE ENERGY PREDICTED BY IDOCK:   -0.15 KCAL/MOL
REMARK 927      BINDING AFFINITY PREDICTED BY RF-SCORE:    0.00 PKD
ROOT
HETATM    1  N   UNL     1      -9.345  16.945  65.800  1.00  0.00    -0.528 NA 
HETATM    2  C   UNL     1     -10.580  16.174  65.742  1.00  0.00    -0.334 C  
HETATM    3  H1  UNL     1      -9.298  17.734  65.155  1.00  0.00     0.000 HD 
HETATM    4  H2  UNL     1      -8.540  16.332  65.665  1.00  0.00     0.000 HD 
ENDROOT
BRANCH   2   5
HETATM    5  C   UNL     1     -10.651  14.966  66.729  1.00  0.00    -0.305 C  
HETATM    6  C   UNL     1      -9.779  13.810  66.146  1.00  0.00    -0.280 C  
HETATM    7  C   UNL     1     -12.103  14.451  66.910  1.00  0.00    -0.386 C  
HETATM    8  C   UNL     1     -12.684  13.788  65.659  1.00  0.00    -0.523 C  
HETATM    9  C   UNL     1     -10.371  13.125  64.915  1.00  0.00    -0.352 C  
HETATM   10  C   UNL     1     -11.796  12.651  65.169  1.00  0.00    -0.437 C  
BRANCH   5  11
HETATM   11  C   UNL     1     -10.034  15.319  68.111  1.00  0.00    -0.221 C  
HETATM   12  O   UNL     1     -10.432  17.589  68.814  1.00  0.00    -0.355 OA 
HETATM   13  C   UNL     1     -10.717  16.402  68.909  1.00  0.00    -0.319 C  
HETATM   14  O   UNL     1     -11.671  15.953  69.750  1.00  0.00    -0.332 OA 
ENDBRANCH   5  11
ENDBRANCH   2   5
TORSDOF 2
ENDMDL
MODEL       40
REMARK 921   NORMALIZED FREE ENERGY PREDICTED BY IDOCK:   -3.87 KCAL/MOL
REMARK 922        TOTAL FREE ENERGY PREDICTED BY IDOCK:   -4.51 KCAL/MOL
REMARK 923 INTER-LIGAND FREE ENERGY PREDICTED BY IDOCK:   -4.70 KCAL/MOL
REMARK 924 INTRA-LIGAND FREE ENERGY PREDICTED BY IDOCK:    0.19 KCAL/MOL
REMARK 927      BINDING AFFINITY PREDICTED BY RF-SCORE:    0.00 PKD
ROOT
HETATM    1  N   UNL     1     -12.526  14.077  63.412  1.00  0.00    -1.123 NA 
HETATM    2  C   UNL     1     -12.726  13.588  64.770  1.00  0.00    -0.230 C  
HETATM    3  H1  UNL     1     -13.381  14.314  62.908  1.00  0.00     0.000 HD 
HETATM    4  H2  UNL     1     -11.974  13.408  62.874  1.00  0.00     0.000 HD 
ENDROOT
BRANCH   2   5
HETATM    5  C   UNL     1     -11.418  13.225  65.540  1.00  0.00    -0.335 C  
HETATM    6  C   UNL     1     -11.670  13.454  67.064  1.00  0.00    -0.426 C  
HETATM    7  C   UNL     1     -10.220  14.108  65.097  1.00  0.00    -0.411 C  
HETATM    8  C   UNL     1     -10.352  15.576  65.505  1.00  0.00    -0.419 C  
HETATM    9  C   UNL     1     -11.771  14.921  67.479  1.00  0.00    -0.328 C  
HETATM   10  C   UNL     1     -10.565  15.721  67.006  1.00  0.00    -0.316 C  
BRANCH   5  11
HETATM   11  C   UNL     1     -11.059  11.721  65.382  1.00  0.00    -0.336 C  
HETATM   12  O   UNL     1      -9.380  10.945  66.927  1.00  0.00    -0.165 OA 
HETATM   13  C   UNL     1     -10.562  11.003  66.613  1.00  0.00    -0.262 C  
HETATM   14  O   UNL     1     -11.534  10.418  67.344  1.00  0.00    -0.354 OA 
ENDBRANCH   5  11
ENDBRANCH   2   5
TORSDOF 2
ENDMDL
MODEL       41
REMARK 921   NORMALIZED FREE ENERGY PREDICTED BY IDOCK:   -3.84 KCAL/MOL
REMARK 922        TOTAL FREE ENERGY PREDICTED BY IDOCK:   -4.48 KCAL/MOL
REMARK 923 INTER-LIGAND FREE ENERGY PREDICTED BY IDOCK:   -4.39 KCAL/MOL
REMARK 924 INTRA-LIGAND FREE ENERGY PREDICTED BY IDOCK:   -0.09 KCAL/MOL
REMARK 927      BINDING AFFINITY PREDICTED BY RF-SCORE:    0.00 PKD
ROOT
HETATM    1  N   UNL     1     -11.968  11.272  68.550  1.00  0.00    -0.575 NA 
HETATM    2  C   UNL     1     -11.203  11.502  67.331  1.00  0.00    -0.304 C  
HETATM    3  H1  UNL     1     -12.130  10.291  68.779  1.00  0.00     0.000 HD 
HETATM    4  H2  UNL     1     -12.855  11.775  68.509  1.00  0.00     0.000 HD 
ENDROOT
BRANCH   2   5
HETATM    5  C   UNL     1     -10.955  13.003  66.981  1.00  0.00    -0.289 C  
HETATM    6  C   UNL     1     -12.301  13.615  66.481  1.00  0.00    -0.412 C  
HETATM    7  C   UNL     1      -9.889  13.169  65.865  1.00  0.00    -0.241 C  
HETATM    8  C   UNL     1     -10.346  12.664  64.496  1.00  0.00    -0.369 C  
HETATM    9  C   UNL     1     -12.744  13.136  65.099  1.00  0.00    -0.468 C  
HETATM   10  C   UNL     1     -11.646  13.328  64.062  1.00  0.00    -0.458 C  
BRANCH   5  11
HETATM   11  C   UNL     1     -10.547  13.823  68.236  1.00  0.00    -0.262 C  
HETATM   12  O   UNL     1     -11.817  15.847  68.543  1.00  0.00    -0.366 OA 
HETATM   13  C   UNL     1     -11.612  14.685  68.867  1.00  0.00    -0.310 C  
HETATM   14  O   UNL     1     -12.324  14.068  69.833  1.00  0.00    -0.330 OA 
ENDBRANCH   5  11
ENDBRANCH   2   5
TORSDOF 2
ENDMDL
MODEL       42
REMARK 921   NORMALIZED FREE ENERGY PREDICTED BY IDOCK:   -3.79 KCAL/MOL
REMARK 922        TOTAL FREE ENERGY PREDICTED BY IDOCK:   -4.42 KCAL/MOL
REMARK 923 INTER-LIGAND FREE ENERGY PREDICTED BY IDOCK:   -4.21 KCAL/MOL
REMARK 924 INTRA-LIGAND FREE ENERGY PREDICTED BY IDOCK:   -0.21 KCAL/MOL
REMARK 927      BINDING AFFINITY PREDICTED BY RF-SCORE:    0.00 PKD
ROOT
HETATM    1  N   UNL     1     -11.441   6.710  69.279  1.00  0.00    -0.628 NA 
HETATM    2  C   UNL     1     -12.234   6.968  70.474  1.00  0.00    -0.172 C  
HETATM    3  H1  UNL     1     -11.910   6.156  68.561  1.00  0.00     0.000 HD 
HETATM    4  H2  UNL     1     -10.552   6.278  69.532  1.00  0.00     0.000 HD 
ENDROOT
BRANCH   2   5
HETATM    5  C   UNL     1     -11.517   7.815  71.572  1.00  0.00    -0.298 C  
HETATM    6  C   UNL     1     -12.600   8.347  72.562  1.00  0.00    -0.311 C  
HETATM    7  C   UNL     1     -10.759   9.026  70.966  1.00  0.00    -0.339 C  
HETATM    8  C   UNL     1     -11.678  10.100  70.382  1.00  0.00    -0.390 C  
HETATM    9  C   UNL     1     -13.500   9.442  71.991  1.00  0.00    -0.522 C  
HETATM   10  C   UNL     1     -12.686  10.592  71.413  1.00  0.00    -0.547 C  
BRANCH   5  11
HETATM   11  C   UNL     1     -10.545   6.948  72.420  1.00  0.00    -0.240 C  
HETATM   12  O   UNL     1     -11.552   4.964  73.345  1.00  0.00    -0.313 OA 
HETATM   13  C   UNL     1     -10.833   5.469  72.492  1.00  0.00    -0.252 C  
HETATM   14  O   UNL     1     -10.223   4.738  71.536  1.00  0.00    -0.200 OA 
ENDBRANCH   5  11
ENDBRANCH   2   5
TORSDOF 2
ENDMDL
MODEL       43
REMARK 921   NORMALIZED FREE ENERGY PREDICTED BY IDOCK:   -3.79 KCAL/MOL
REMARK 922        TOTAL FREE ENERGY PREDICTED BY IDOCK:   -4.42 KCAL/MOL
REMARK 923 INTER-LIGAND FREE ENERGY PREDICTED BY IDOCK:   -4.23 KCAL/MOL
REMARK 924 INTRA-LIGAND FREE ENERGY PREDICTED BY IDOCK:   -0.19 KCAL/MOL
REMARK 927      BINDING AFFINITY PREDICTED BY RF-SCORE:    0.00 PKD
ROOT
HETATM    1  N   UNL     1      -9.104  13.812  68.743  1.00  0.00    -0.386 NA 
HETATM    2  C   UNL     1      -9.435  14.104  67.354  1.00  0.00    -0.220 C  
HETATM    3  H1  UNL     1      -8.147  13.494  68.900  1.00  0.00     0.000 HD 
HETATM    4  H2  UNL     1      -9.767  13.139  69.129  1.00  0.00     0.000 HD 
ENDROOT
BRANCH   2   5
HETATM    5  C   UNL     1     -10.899  14.590  67.113  1.00  0.00    -0.296 C  
HETATM    6  C   UNL     1     -11.868  13.430  67.502  1.00  0.00    -0.408 C  
HETATM    7  C   UNL     1     -11.148  14.968  65.629  1.00  0.00    -0.349 C  
HETATM    8  C   UNL     1     -11.120  13.773  64.675  1.00  0.00    -0.391 C  
HETATM    9  C   UNL     1     -11.865  12.248  66.534  1.00  0.00    -0.378 C  
HETATM   10  C   UNL     1     -12.111  12.697  65.100  1.00  0.00    -0.508 C  
BRANCH   5  11
HETATM   11  C   UNL     1     -11.264  15.786  68.036  1.00  0.00    -0.338 C  
HETATM   12  O   UNL     1      -9.360  17.023  68.841  1.00  0.00    -0.265 OA 
HETATM   13  C   UNL     1     -10.303  16.948  68.064  1.00  0.00    -0.334 C  
HETATM   14  O   UNL     1     -10.571  17.912  67.158  1.00  0.00    -0.360 OA 
ENDBRANCH   5  11
ENDBRANCH   2   5
TORSDOF 2
ENDMDL
MODEL       44
REMARK 921   NORMALIZED FREE ENERGY PREDICTED BY IDOCK:   -3.78 KCAL/MOL
REMARK 922        TOTAL FREE ENERGY PREDICTED BY IDOCK:   -4.41 KCAL/MOL
REMARK 923 INTER-LIGAND FREE ENERGY PREDICTED BY IDOCK:   -4.77 KCAL/MOL
REMARK 924 INTRA-LIGAND FREE ENERGY PREDICTED BY IDOCK:    0.36 KCAL/MOL
REMARK 927      BINDING AFFINITY PREDICTED BY RF-SCORE:    0.00 PKD
ROOT
HETATM    1  N   UNL     1     -12.172  10.758  68.620  1.00  0.00    -0.827 NA 
HETATM    2  C   UNL     1     -11.690  12.131  68.683  1.00  0.00    -0.330 C  
HETATM    3  H1  UNL     1     -12.513  10.380  69.505  1.00  0.00     0.000 HD 
HETATM    4  H2  UNL     1     -11.450  10.149  68.233  1.00  0.00     0.000 HD 
ENDROOT
BRANCH   2   5
HETATM    5  C   UNL     1     -11.168  12.709  67.330  1.00  0.00    -0.346 C  
HETATM    6  C   UNL     1     -10.900  11.515  66.361  1.00  0.00    -0.334 C  
HETATM    7  C   UNL     1      -9.849  13.507  67.511  1.00  0.00    -0.227 C  
HETATM    8  C   UNL     1      -8.649  12.638  67.892  1.00  0.00    -0.181 C  
HETATM    9  C   UNL     1      -9.684  10.663  66.722  1.00  0.00    -0.222 C  
HETATM   10  C   UNL     1      -8.432  11.515  66.886  1.00  0.00    -0.165 C  
BRANCH   5  11
HETATM   11  C   UNL     1     -12.237  13.598  66.636  1.00  0.00    -0.437 C  
HETATM   12  O   UNL     1     -11.680  14.222  64.376  1.00  0.00    -0.406 OA 
HETATM   13  C   UNL     1     -12.328  13.511  65.132  1.00  0.00    -0.449 C  
HETATM   14  O   UNL     1     -13.197  12.581  64.682  1.00  0.00    -0.848 OA 
ENDBRANCH   5  11
ENDBRANCH   2   5
TORSDOF 2
ENDMDL
MODEL       45
REMARK 921   NORMALIZED FREE ENERGY PREDICTED BY IDOCK:   -3.76 KCAL/MOL
REMARK 922        TOTAL FREE ENERGY PREDICTED BY IDOCK:   -4.38 KCAL/MOL
REMARK 923 INTER-LIGAND FREE ENERGY PREDICTED BY IDOCK:   -4.34 KCAL/MOL
REMARK 924 INTRA-LIGAND FREE ENERGY PREDICTED BY IDOCK:   -0.04 KCAL/MOL
REMARK 927      BINDING AFFINITY PREDICTED BY RF-SCORE:    0.00 PKD
ROOT
HETATM    1  N   UNL     1      -8.998  14.823  69.338  1.00  0.00    -0.416 NA 
HETATM    2  C   UNL     1      -9.245  14.999  67.913  1.00  0.00    -0.182 C  
HETATM    3  H1  UNL     1      -8.131  14.338  69.569  1.00  0.00     0.000 HD 
HETATM    4  H2  UNL     1      -9.792  14.356  69.778  1.00  0.00     0.000 HD 
ENDROOT
BRANCH   2   5
HETATM    5  C   UNL     1     -10.572  15.742  67.560  1.00  0.00    -0.309 C  
HETATM    6  C   UNL     1     -11.760  14.759  67.800  1.00  0.00    -0.368 C  
HETATM    7  C   UNL     1     -10.601  16.204  66.079  1.00  0.00    -0.303 C  
HETATM    8  C   UNL     1     -10.683  15.053  65.075  1.00  0.00    -0.448 C  
HETATM    9  C   UNL     1     -11.863  13.625  66.780  1.00  0.00    -0.452 C  
HETATM   10  C   UNL     1     -11.882  14.155  65.353  1.00  0.00    -0.362 C  
BRANCH   5  11
HETATM   11  C   UNL     1     -10.817  16.954  68.501  1.00  0.00    -0.335 C  
HETATM   12  O   UNL     1      -9.025  18.565  68.516  1.00  0.00    -0.316 OA 
HETATM   13  C   UNL     1     -10.145  18.254  68.133  1.00  0.00    -0.379 C  
HETATM   14  O   UNL     1     -10.888  19.058  67.345  1.00  0.00    -0.473 OA 
ENDBRANCH   5  11
ENDBRANCH   2   5
TORSDOF 2
ENDMDL
MODEL       46
REMARK 921   NORMALIZED FREE ENERGY PREDICTED BY IDOCK:   -3.75 KCAL/MOL
REMARK 922        TOTAL FREE ENERGY PREDICTED BY IDOCK:   -4.38 KCAL/MOL
REMARK 923 INTER-LIGAND FREE ENERGY PREDICTED BY IDOCK:   -4.27 KCAL/MOL
REMARK 924 INTRA-LIGAND FREE ENERGY PREDICTED BY IDOCK:   -0.11 KCAL/MOL
REMARK 927      BINDING AFFINITY PREDICTED BY RF-SCORE:    0.00 PKD
ROOT
HETATM    1  N   UNL     1     -11.716  10.708  67.903  1.00  0.00    -0.724 NA 
HETATM    2  C   UNL     1     -11.521  12.069  67.420  1.00  0.00    -0.336 C  
HETATM    3  H1  UNL     1     -12.292  10.627  68.742  1.00  0.00     0.000 HD 
HETATM    4  H2  UNL     1     -10.814  10.254  68.050  1.00  0.00     0.000 HD 
ENDROOT
BRANCH   2   5
HETATM    5  C   UNL     1     -10.641  12.193  66.137  1.00  0.00    -0.290 C  
HETATM    6  C   UNL     1     -10.034  13.631  66.099  1.00  0.00    -0.314 C  
HETATM    7  C   UNL     1     -11.467  11.969  64.842  1.00  0.00    -0.352 C  
HETATM    8  C   UNL     1     -12.482  13.077  64.558  1.00  0.00    -0.427 C  
HETATM    9  C   UNL     1     -11.040  14.738  65.785  1.00  0.00    -0.338 C  
HETATM   10  C   UNL     1     -11.813  14.445  64.506  1.00  0.00    -0.463 C  
BRANCH   5  11
HETATM   11  C   UNL     1      -9.433  11.216  66.174  1.00  0.00    -0.229 C  
HETATM   12  O   UNL     1     -10.041   8.894  65.957  1.00  0.00    -0.260 OA 
HETATM   13  C   UNL     1      -9.588   9.907  65.440  1.00  0.00    -0.285 C  
HETATM   14  O   UNL     1      -9.177   9.940  64.155  1.00  0.00    -0.250 OA 
ENDBRANCH   5  11
ENDBRANCH   2   5
TORSDOF 2
ENDMDL
MODEL       47
REMARK 921   NORMALIZED FREE ENERGY PREDICTED BY IDOCK:   -3.73 KCAL/MOL
REMARK 922        TOTAL FREE ENERGY PREDICTED BY IDOCK:   -4.35 KCAL/MOL
REMARK 923 INTER-LIGAND FREE ENERGY PREDICTED BY IDOCK:   -4.34 KCAL/MOL
REMARK 924 INTRA-LIGAND FREE ENERGY PREDICTED BY IDOCK:   -0.02 KCAL/MOL
REMARK 927      BINDING AFFINITY PREDICTED BY RF-SCORE:    0.00 PKD
ROOT
HETATM    1  N   UNL     1     -11.675   6.681  69.799  1.00  0.00    -0.650 NA 
HETATM    2  C   UNL     1     -12.427   7.229  70.920  1.00  0.00    -0.227 C  
HETATM    3  H1  UNL     1     -12.188   6.016  69.219  1.00  0.00     0.000 HD 
HETATM    4  H2  UNL     1     -10.805   6.262  70.129  1.00  0.00     0.000 HD 
ENDROOT
BRANCH   2   5
HETATM    5  C   UNL     1     -11.641   8.246  71.807  1.00  0.00    -0.356 C  
HETATM    6  C   UNL     1     -12.677   9.148  72.548  1.00  0.00    -0.352 C  
HETATM    7  C   UNL     1     -10.708   9.153  70.961  1.00  0.00    -0.363 C  
HETATM    8  C   UNL     1     -11.455  10.134  70.056  1.00  0.00    -0.344 C  
HETATM    9  C   UNL     1     -13.403  10.151  71.652  1.00  0.00    -0.463 C  
HETATM   10  C   UNL     1     -12.424  10.999  70.852  1.00  0.00    -0.509 C  
BRANCH   5  11
HETATM   11  C   UNL     1     -10.824   7.527  72.916  1.00  0.00    -0.425 C  
HETATM   12  O   UNL     1      -8.759   6.556  72.141  1.00  0.00    -0.131 OA 
HETATM   13  C   UNL     1      -9.327   7.465  72.732  1.00  0.00    -0.156 C  
HETATM   14  O   UNL     1      -8.658   8.498  73.284  1.00  0.00    -0.359 OA 
ENDBRANCH   5  11
ENDBRANCH   2   5
TORSDOF 2
ENDMDL
MODEL       48
REMARK 921   NORMALIZED FREE ENERGY PREDICTED BY IDOCK:   -3.73 KCAL/MOL
REMARK 922        TOTAL FREE ENERGY PREDICTED BY IDOCK:   -4.35 KCAL/MOL
REMARK 923 INTER-LIGAND FREE ENERGY PREDICTED BY IDOCK:   -4.29 KCAL/MOL
REMARK 924 INTRA-LIGAND FREE ENERGY PREDICTED BY IDOCK:   -0.05 KCAL/MOL
REMARK 927      BINDING AFFINITY PREDICTED BY RF-SCORE:    0.00 PKD
ROOT
HETATM    1  N   UNL     1     -14.326   8.291  71.109  1.00  0.00    -0.667 NA 
HETATM    2  C   UNL     1     -13.408   7.227  71.495  1.00  0.00    -0.369 C  
HETATM    3  H1  UNL     1     -15.306   8.015  71.050  1.00  0.00     0.000 HD 
HETATM    4  H2  UNL     1     -14.026   8.714  70.231  1.00  0.00     0.000 HD 
ENDROOT
BRANCH   2   5
HETATM    5  C   UNL     1     -11.908   7.650  71.585  1.00  0.00    -0.323 C  
HETATM    6  C   UNL     1     -11.236   7.360  70.206  1.00  0.00    -0.268 C  
HETATM    7  C   UNL     1     -11.148   6.861  72.684  1.00  0.00    -0.306 C  
HETATM    8  C   UNL     1     -10.971   5.376  72.366  1.00  0.00    -0.298 C  
HETATM    9  C   UNL     1     -11.029   5.877  69.899  1.00  0.00    -0.444 C  
HETATM   10  C   UNL     1     -10.282   5.172  71.023  1.00  0.00    -0.295 C  
BRANCH   5  11
HETATM   11  C   UNL     1     -11.758   9.178  71.825  1.00  0.00    -0.456 C  
HETATM   12  O   UNL     1     -10.324  10.287  70.237  1.00  0.00    -0.245 OA 
HETATM   13  C   UNL     1     -11.459  10.035  70.620  1.00  0.00    -0.345 C  
HETATM   14  O   UNL     1     -12.556  10.513  69.994  1.00  0.00    -0.277 OA 
ENDBRANCH   5  11
ENDBRANCH   2   5
TORSDOF 2
ENDMDL
MODEL       49
REMARK 921   NORMALIZED FREE ENERGY PREDICTED BY IDOCK:   -3.73 KCAL/MOL
REMARK 922        TOTAL FREE ENERGY PREDICTED BY IDOCK:   -4.35 KCAL/MOL
REMARK 923 INTER-LIGAND FREE ENERGY PREDICTED BY IDOCK:   -4.39 KCAL/MOL
REMARK 924 INTRA-LIGAND FREE ENERGY PREDICTED BY IDOCK:    0.04 KCAL/MOL
REMARK 927      BINDING AFFINITY PREDICTED BY RF-SCORE:    0.00 PKD
ROOT
HETATM    1  N   UNL     1     -11.422   6.428  69.145  1.00  0.00    -0.608 NA 
HETATM    2  C   UNL     1     -11.152   7.672  69.855  1.00  0.00    -0.150 C  
HETATM    3  H1  UNL     1     -11.350   6.487  68.129  1.00  0.00     0.000 HD 
HETATM    4  H2  UNL     1     -12.336   6.061  69.413  1.00  0.00     0.000 HD 
ENDROOT
BRANCH   2   5
HETATM    5  C   UNL     1     -11.262   7.581  71.409  1.00  0.00    -0.267 C  
HETATM    6  C   UNL     1     -12.513   6.717  71.760  1.00  0.00    -0.394 C  
HETATM    7  C   UNL     1     -11.425   8.980  72.061  1.00  0.00    -0.408 C  
HETATM    8  C   UNL     1     -12.765   9.651  71.754  1.00  0.00    -0.510 C  
HETATM    9  C   UNL     1     -13.854   7.397  71.483  1.00  0.00    -0.483 C  
HETATM   10  C   UNL     1     -13.937   8.763  72.151  1.00  0.00    -0.522 C  
BRANCH   5  11
HETATM   11  C   UNL     1     -10.041   6.844  72.027  1.00  0.00    -0.201 C  
HETATM   12  O   UNL     1      -9.002   8.025  73.853  1.00  0.00    -0.269 OA 
HETATM   13  C   UNL     1      -9.738   7.121  73.480  1.00  0.00    -0.251 C  
HETATM   14  O   UNL     1     -10.344   6.278  74.342  1.00  0.00    -0.323 OA 
ENDBRANCH   5  11
ENDBRANCH   2   5
TORSDOF 2
ENDMDL
MODEL       50
REMARK 921   NORMALIZED FREE ENERGY PREDICTED BY IDOCK:   -3.72 KCAL/MOL
REMARK 922        TOTAL FREE ENERGY PREDICTED BY IDOCK:   -4.34 KCAL/MOL
REMARK 923 INTER-LIGAND FREE ENERGY PREDICTED BY IDOCK:   -4.33 KCAL/MOL
REMARK 924 INTRA-LIGAND FREE ENERGY PREDICTED BY IDOCK:   -0.01 KCAL/MOL
REMARK 927      BINDING AFFINITY PREDICTED BY RF-SCORE:    0.00 PKD
ROOT
HETATM    1  N   UNL     1      -6.595  21.333  66.379  1.00  0.00    -0.584 NA 
HETATM    2  C   UNL     1      -7.410  20.965  67.530  1.00  0.00    -0.281 C  
HETATM    3  H1  UNL     1      -6.343  22.320  66.327  1.00  0.00     0.000 HD 
HETATM    4  H2  UNL     1      -7.053  21.041  65.516  1.00  0.00     0.000 HD 
ENDROOT
BRANCH   2   5
HETATM    5  C   UNL     1      -7.796  19.455  67.609  1.00  0.00    -0.309 C  
HETATM    6  C   UNL     1      -8.427  19.040  66.243  1.00  0.00    -0.289 C  
HETATM    7  C   UNL     1      -8.827  19.178  68.736  1.00  0.00    -0.372 C  
HETATM    8  C   UNL     1     -10.209  19.776  68.468  1.00  0.00    -0.547 C  
HETATM    9  C   UNL     1      -9.821  19.611  65.986  1.00  0.00    -0.462 C  
HETATM   10  C   UNL     1     -10.772  19.303  67.134  1.00  0.00    -0.584 C  
BRANCH   5  11
HETATM   11  C   UNL     1      -6.545  18.553  67.798  1.00  0.00    -0.214 C  
HETATM   12  O   UNL     1      -5.567  18.679  69.997  1.00  0.00    -0.218 OA 
HETATM   13  C   UNL     1      -6.259  18.063  69.197  1.00  0.00    -0.237 C  
HETATM   14  O   UNL     1      -6.827  16.876  69.495  1.00  0.00    -0.230 OA 
ENDBRANCH   5  11
ENDBRANCH   2   5
TORSDOF 2
ENDMDL
MODEL       51
REMARK 921   NORMALIZED FREE ENERGY PREDICTED BY IDOCK:   -3.71 KCAL/MOL
REMARK 922        TOTAL FREE ENERGY PREDICTED BY IDOCK:   -4.33 KCAL/MOL
REMARK 923 INTER-LIGAND FREE ENERGY PREDICTED BY IDOCK:   -4.22 KCAL/MOL
REMARK 924 INTRA-LIGAND FREE ENERGY PREDICTED BY IDOCK:   -0.11 KCAL/MOL
REMARK 927      BINDING AFFINITY PREDICTED BY RF-SCORE:    0.00 PKD
ROOT
HETATM    1  N   UNL     1      -9.188  12.787  67.027  1.00  0.00    -0.215 NA 
HETATM    2  C   UNL     1      -9.699  14.009  67.634  1.00  0.00    -0.228 C  
HETATM    3  H1  UNL     1      -8.174  12.677  67.068  1.00  0.00     0.000 HD 
HETATM    4  H2  UNL     1      -9.511  12.711  66.062  1.00  0.00     0.000 HD 
ENDROOT
BRANCH   2   5
HETATM    5  C   UNL     1     -11.250  14.177  67.571  1.00  0.00    -0.323 C  
HETATM    6  C   UNL     1     -11.645  15.393  68.467  1.00  0.00    -0.373 C  
HETATM    7  C   UNL     1     -11.992  12.917  68.090  1.00  0.00    -0.306 C  
HETATM    8  C   UNL     1     -11.827  12.678  69.592  1.00  0.00    -0.379 C  
HETATM    9  C   UNL     1     -11.510  15.147  69.969  1.00  0.00    -0.315 C  
HETATM   10  C   UNL     1     -12.259  13.894  70.401  1.00  0.00    -0.438 C  
BRANCH   5  11
HETATM   11  C   UNL     1     -11.730  14.525  66.135  1.00  0.00    -0.355 C  
HETATM   12  O   UNL     1     -10.344  16.136  64.999  1.00  0.00    -0.573 OA 
HETATM   13  C   UNL     1     -10.677  14.968  65.149  1.00  0.00    -0.415 C  
HETATM   14  O   UNL     1     -10.130  13.962  64.434  1.00  0.00    -0.299 OA 
ENDBRANCH   5  11
ENDBRANCH   2   5
TORSDOF 2
ENDMDL
MODEL       52
REMARK 921   NORMALIZED FREE ENERGY PREDICTED BY IDOCK:   -3.71 KCAL/MOL
REMARK 922        TOTAL FREE ENERGY PREDICTED BY IDOCK:   -4.33 KCAL/MOL
REMARK 923 INTER-LIGAND FREE ENERGY PREDICTED BY IDOCK:   -4.15 KCAL/MOL
REMARK 924 INTRA-LIGAND FREE ENERGY PREDICTED BY IDOCK:   -0.17 KCAL/MOL
REMARK 927      BINDING AFFINITY PREDICTED BY RF-SCORE:    0.00 PKD
ROOT
HETATM    1  N   UNL     1      -8.777  14.563  69.215  1.00  0.00    -0.387 NA 
HETATM    2  C   UNL     1      -9.868  13.844  68.569  1.00  0.00    -0.214 C  
HETATM    3  H1  UNL     1      -8.063  13.971  69.642  1.00  0.00     0.000 HD 
HETATM    4  H2  UNL     1      -9.147  15.220  69.903  1.00  0.00     0.000 HD 
ENDROOT
BRANCH   2   5
HETATM    5  C   UNL     1     -10.959  14.748  67.917  1.00  0.00    -0.282 C  
HETATM    6  C   UNL     1     -11.975  13.826  67.172  1.00  0.00    -0.442 C  
HETATM    7  C   UNL     1     -10.352  15.745  66.894  1.00  0.00    -0.295 C  
HETATM    8  C   UNL     1      -9.795  15.075  65.636  1.00  0.00    -0.380 C  
HETATM    9  C   UNL     1     -11.432  13.180  65.898  1.00  0.00    -0.366 C  
HETATM   10  C   UNL     1     -10.850  14.218  64.948  1.00  0.00    -0.429 C  
BRANCH   5  11
HETATM   11  C   UNL     1     -11.780  15.519  68.988  1.00  0.00    -0.392 C  
HETATM   12  O   UNL     1     -12.819  14.101  70.637  1.00  0.00    -0.336 OA 
HETATM   13  C   UNL     1     -11.913  14.871  70.344  1.00  0.00    -0.314 C  
HETATM   14  O   UNL     1     -10.948  15.219  71.222  1.00  0.00    -0.318 OA 
ENDBRANCH   5  11
ENDBRANCH   2   5
TORSDOF 2
ENDMDL
MODEL       53
REMARK 921   NORMALIZED FREE ENERGY PREDICTED BY IDOCK:   -3.70 KCAL/MOL
REMARK 922        TOTAL FREE ENERGY PREDICTED BY IDOCK:   -4.32 KCAL/MOL
REMARK 923 INTER-LIGAND FREE ENERGY PREDICTED BY IDOCK:   -4.28 KCAL/MOL
REMARK 924 INTRA-LIGAND FREE ENERGY PREDICTED BY IDOCK:   -0.05 KCAL/MOL
REMARK 927      BINDING AFFINITY PREDICTED BY RF-SCORE:    0.00 PKD
ROOT
HETATM    1  N   UNL     1     -13.451   9.808  70.693  1.00  0.00    -0.592 NA 
HETATM    2  C   UNL     1     -12.297   9.794  71.583  1.00  0.00    -0.408 C  
HETATM    3  H1  UNL     1     -14.282  10.263  71.071  1.00  0.00     0.000 HD 
HETATM    4  H2  UNL     1     -13.676   8.859  70.393  1.00  0.00     0.000 HD 
ENDROOT
BRANCH   2   5
HETATM    5  C   UNL     1     -11.026   9.097  71.004  1.00  0.00    -0.375 C  
HETATM    6  C   UNL     1     -11.478   7.803  70.256  1.00  0.00    -0.117 C  
HETATM    7  C   UNL     1     -10.023   8.701  72.120  1.00  0.00    -0.386 C  
HETATM    8  C   UNL     1     -10.528   7.583  73.035  1.00  0.00    -0.396 C  
HETATM    9  C   UNL     1     -11.953   6.674  71.169  1.00  0.00    -0.412 C  
HETATM   10  C   UNL     1     -10.920   6.345  72.239  1.00  0.00    -0.289 C  
BRANCH   5  11
HETATM   11  C   UNL     1     -10.319   9.985  69.943  1.00  0.00    -0.315 C  
HETATM   12  O   UNL     1     -10.483   9.143  67.691  1.00  0.00    -0.240 OA 
HETATM   13  C   UNL     1     -10.867   9.939  68.537  1.00  0.00    -0.217 C  
HETATM   14  O   UNL     1     -11.819  10.861  68.284  1.00  0.00    -0.530 OA 
ENDBRANCH   5  11
ENDBRANCH   2   5
TORSDOF 2
ENDMDL
MODEL       54
REMARK 921   NORMALIZED FREE ENERGY PREDICTED BY IDOCK:   -3.69 KCAL/MOL
REMARK 922        TOTAL FREE ENERGY PREDICTED BY IDOCK:   -4.30 KCAL/MOL
REMARK 923 INTER-LIGAND FREE ENERGY PREDICTED BY IDOCK:   -4.11 KCAL/MOL
REMARK 924 INTRA-LIGAND FREE ENERGY PREDICTED BY IDOCK:   -0.20 KCAL/MOL
REMARK 927      BINDING AFFINITY PREDICTED BY RF-SCORE:    0.00 PKD
ROOT
HETATM    1  N   UNL     1     -10.420  17.998  66.223  1.00  0.00    -0.366 NA 
HETATM    2  C   UNL     1     -10.759  16.758  66.910  1.00  0.00    -0.139 C  
HETATM    3  H1  UNL     1     -10.990  18.804  66.482  1.00  0.00     0.000 HD 
HETATM    4  H2  UNL     1     -10.446  17.859  65.212  1.00  0.00     0.000 HD 
ENDROOT
BRANCH   2   5
HETATM    5  C   UNL     1      -9.888  15.525  66.514  1.00  0.00    -0.281 C  
HETATM    6  C   UNL     1     -10.097  14.415  67.591  1.00  0.00    -0.222 C  
HETATM    7  C   UNL     1      -8.378  15.878  66.450  1.00  0.00    -0.310 C  
HETATM    8  C   UNL     1      -7.760  16.194  67.814  1.00  0.00    -0.155 C  
HETATM    9  C   UNL     1      -9.454  14.713  68.945  1.00  0.00    -0.173 C  
HETATM   10  C   UNL     1      -7.977  15.054  68.801  1.00  0.00    -0.162 C  
BRANCH   5  11
HETATM   11  C   UNL     1     -10.348  14.909  65.163  1.00  0.00    -0.431 C  
HETATM   12  O   UNL     1     -12.731  14.592  64.990  1.00  0.00    -0.525 OA 
HETATM   13  C   UNL     1     -11.742  15.250  64.695  1.00  0.00    -0.308 C  
HETATM   14  O   UNL     1     -11.810  16.346  63.911  1.00  0.00    -1.034 OA 
ENDBRANCH   5  11
ENDBRANCH   2   5
TORSDOF 2
ENDMDL
MODEL       55
REMARK 921   NORMALIZED FREE ENERGY PREDICTED BY IDOCK:   -3.63 KCAL/MOL
REMARK 922        TOTAL FREE ENERGY PREDICTED BY IDOCK:   -4.23 KCAL/MOL
REMARK 923 INTER-LIGAND FREE ENERGY PREDICTED BY IDOCK:   -4.05 KCAL/MOL
REMARK 924 INTRA-LIGAND FREE ENERGY PREDICTED BY IDOCK:   -0.18 KCAL/MOL
REMARK 927      BINDING AFFINITY PREDICTED BY RF-SCORE:    0.00 PKD
ROOT
HETATM    1  N   UNL     1      -8.861  14.287  69.295  1.00  0.00    -0.365 NA 
HETATM    2  C   UNL     1      -9.330  14.365  67.917  1.00  0.00    -0.203 C  
HETATM    3  H1  UNL     1      -7.907  13.943  69.407  1.00  0.00     0.000 HD 
HETATM    4  H2  UNL     1      -9.505  13.727  69.855  1.00  0.00     0.000 HD 
ENDROOT
BRANCH   2   5
HETATM    5  C   UNL     1     -10.790  14.890  67.746  1.00  0.00    -0.286 C  
HETATM    6  C   UNL     1     -11.143  14.860  66.226  1.00  0.00    -0.340 C  
HETATM    7  C   UNL     1     -10.948  16.345  68.264  1.00  0.00    -0.355 C  
HETATM    8  C   UNL     1     -10.206  17.384  67.420  1.00  0.00    -0.326 C  
HETATM    9  C   UNL     1     -10.428  15.917  65.385  1.00  0.00    -0.429 C  
HETATM   10  C   UNL     1     -10.625  17.315  65.957  1.00  0.00    -0.217 C  
BRANCH   5  11
HETATM   11  C   UNL     1     -11.819  13.960  68.447  1.00  0.00    -0.409 C  
HETATM   12  O   UNL     1     -12.127  11.835  67.354  1.00  0.00    -0.595 OA 
HETATM   13  C   UNL     1     -11.629  12.474  68.272  1.00  0.00    -0.328 C  
HETATM   14  O   UNL     1     -10.863  11.897  69.222  1.00  0.00    -0.200 OA 
ENDBRANCH   5  11
ENDBRANCH   2   5
TORSDOF 2
ENDMDL
MODEL       56
REMARK 921   NORMALIZED FREE ENERGY PREDICTED BY IDOCK:   -3.63 KCAL/MOL
REMARK 922        TOTAL FREE ENERGY PREDICTED BY IDOCK:   -4.23 KCAL/MOL
REMARK 923 INTER-LIGAND FREE ENERGY PREDICTED BY IDOCK:   -4.17 KCAL/MOL
REMARK 924 INTRA-LIGAND FREE ENERGY PREDICTED BY IDOCK:   -0.07 KCAL/MOL
REMARK 927      BINDING AFFINITY PREDICTED BY RF-SCORE:    0.00 PKD
ROOT
HETATM    1  N   UNL     1      -7.488  17.803  65.602  1.00  0.00    -0.502 NA 
HETATM    2  C   UNL     1      -7.985  17.685  66.967  1.00  0.00    -0.220 C  
HETATM    3  H1  UNL     1      -6.475  17.889  65.518  1.00  0.00     0.000 HD 
HETATM    4  H2  UNL     1      -7.948  18.579  65.126  1.00  0.00     0.000 HD 
ENDROOT
BRANCH   2   5
HETATM    5  C   UNL     1      -9.535  17.553  67.096  1.00  0.00    -0.259 C  
HETATM    6  C   UNL     1     -10.193  18.643  66.193  1.00  0.00    -0.450 C  
HETATM    7  C   UNL     1     -10.015  17.762  68.557  1.00  0.00    -0.370 C  
HETATM    8  C   UNL     1      -9.841  19.195  69.065  1.00  0.00    -0.437 C  
HETATM    9  C   UNL     1     -10.049  20.073  66.714  1.00  0.00    -0.607 C  
HETATM   10  C   UNL     1     -10.535  20.197  68.151  1.00  0.00    -0.375 C  
BRANCH   5  11
HETATM   11  C   UNL     1     -10.040  16.185  66.560  1.00  0.00    -0.301 C  
HETATM   12  O   UNL     1      -8.515  14.358  66.938  1.00  0.00    -0.202 OA 
HETATM   13  C   UNL     1      -9.538  14.947  67.262  1.00  0.00    -0.215 C  
HETATM   14  O   UNL     1     -10.319  14.532  68.281  1.00  0.00    -0.227 OA 
ENDBRANCH   5  11
ENDBRANCH   2   5
TORSDOF 2
ENDMDL
MODEL       57
REMARK 921   NORMALIZED FREE ENERGY PREDICTED BY IDOCK:   -3.61 KCAL/MOL
REMARK 922        TOTAL FREE ENERGY PREDICTED BY IDOCK:   -4.22 KCAL/MOL
REMARK 923 INTER-LIGAND FREE ENERGY PREDICTED BY IDOCK:   -4.00 KCAL/MOL
REMARK 924 INTRA-LIGAND FREE ENERGY PREDICTED BY IDOCK:   -0.22 KCAL/MOL
REMARK 927      BINDING AFFINITY PREDICTED BY RF-SCORE:    0.00 PKD
ROOT
HETATM    1  N   UNL     1     -11.766  10.964  67.433  1.00  0.00    -0.480 NA 
HETATM    2  C   UNL     1     -11.656  12.356  67.017  1.00  0.00    -0.365 C  
HETATM    3  H1  UNL     1     -12.464  10.784  68.155  1.00  0.00     0.000 HD 
HETATM    4  H2  UNL     1     -10.855  10.611  67.727  1.00  0.00     0.000 HD 
ENDROOT
BRANCH   2   5
HETATM    5  C   UNL     1     -10.588  12.631  65.912  1.00  0.00    -0.297 C  
HETATM    6  C   UNL     1     -10.776  14.097  65.407  1.00  0.00    -0.350 C  
HETATM    7  C   UNL     1     -10.740  11.668  64.705  1.00  0.00    -0.365 C  
HETATM    8  C   UNL     1     -12.013  11.898  63.888  1.00  0.00    -0.503 C  
HETATM    9  C   UNL     1     -12.030  14.324  64.564  1.00  0.00    -0.478 C  
HETATM   10  C   UNL     1     -12.111  13.340  63.405  1.00  0.00    -0.508 C  
BRANCH   5  11
HETATM   11  C   UNL     1      -9.143  12.551  66.479  1.00  0.00    -0.177 C  
HETATM   12  O   UNL     1      -8.739  14.019  68.346  1.00  0.00    -0.176 OA 
HETATM   13  C   UNL     1      -8.961  12.887  67.938  1.00  0.00    -0.193 C  
HETATM   14  O   UNL     1      -9.058  11.826  68.767  1.00  0.00    -0.110 OA 
ENDBRANCH   5  11
ENDBRANCH   2   5
TORSDOF 2
ENDMDL
MODEL       58
REMARK 921   NORMALIZED FREE ENERGY PREDICTED BY IDOCK:   -3.58 KCAL/MOL
REMARK 922        TOTAL FREE ENERGY PREDICTED BY IDOCK:   -4.19 KCAL/MOL
REMARK 923 INTER-LIGAND FREE ENERGY PREDICTED BY IDOCK:   -4.26 KCAL/MOL
REMARK 924 INTRA-LIGAND FREE ENERGY PREDICTED BY IDOCK:    0.07 KCAL/MOL
REMARK 927      BINDING AFFINITY PREDICTED BY RF-SCORE:    0.00 PKD
ROOT
HETATM    1  N   UNL     1      -8.680   9.040  71.912  1.00  0.00    -0.349 NA 
HETATM    2  C   UNL     1     -10.105   8.863  72.160  1.00  0.00    -0.217 C  
HETATM    3  H1  UNL     1      -8.080   8.899  72.726  1.00  0.00     0.000 HD 
HETATM    4  H2  UNL     1      -8.505   9.956  71.499  1.00  0.00     0.000 HD 
ENDROOT
BRANCH   2   5
HETATM    5  C   UNL     1     -11.022   9.077  70.915  1.00  0.00    -0.332 C  
HETATM    6  C   UNL     1     -12.331   9.783  71.391  1.00  0.00    -0.480 C  
HETATM    7  C   UNL     1     -11.401   7.735  70.235  1.00  0.00    -0.174 C  
HETATM    8  C   UNL     1     -12.325   6.855  71.080  1.00  0.00    -0.401 C  
HETATM    9  C   UNL     1     -13.270   8.897  72.208  1.00  0.00    -0.498 C  
HETATM   10  C   UNL     1     -13.592   7.600  71.479  1.00  0.00    -0.422 C  
BRANCH   5  11
HETATM   11  C   UNL     1     -10.368  10.033  69.879  1.00  0.00    -0.315 C  
HETATM   12  O   UNL     1     -10.707   9.377  67.586  1.00  0.00    -0.273 OA 
HETATM   13  C   UNL     1     -11.012  10.111  68.517  1.00  0.00    -0.232 C  
HETATM   14  O   UNL     1     -11.955  11.069  68.403  1.00  0.00    -0.565 OA 
ENDBRANCH   5  11
ENDBRANCH   2   5
TORSDOF 2
ENDMDL
MODEL       59
REMARK 921   NORMALIZED FREE ENERGY PREDICTED BY IDOCK:   -3.58 KCAL/MOL
REMARK 922        TOTAL FREE ENERGY PREDICTED BY IDOCK:   -4.18 KCAL/MOL
REMARK 923 INTER-LIGAND FREE ENERGY PREDICTED BY IDOCK:   -4.14 KCAL/MOL
REMARK 924 INTRA-LIGAND FREE ENERGY PREDICTED BY IDOCK:   -0.04 KCAL/MOL
REMARK 927      BINDING AFFINITY PREDICTED BY RF-SCORE:    0.00 PKD
ROOT
HETATM    1  N   UNL     1      -9.818  12.619  64.256  1.00  0.00    -0.597 NA 
HETATM    2  C   UNL     1     -10.739  13.138  65.259  1.00  0.00    -0.303 C  
HETATM    3  H1  UNL     1     -10.258  12.287  63.397  1.00  0.00     0.000 HD 
HETATM    4  H2  UNL     1      -9.234  11.886  64.659  1.00  0.00     0.000 HD 
ENDROOT
BRANCH   2   5
HETATM    5  C   UNL     1     -10.066  13.646  66.572  1.00  0.00    -0.286 C  
HETATM    6  C   UNL     1      -8.989  12.602  67.004  1.00  0.00    -0.216 C  
HETATM    7  C   UNL     1     -11.092  13.806  67.725  1.00  0.00    -0.288 C  
HETATM    8  C   UNL     1     -11.662  12.480  68.232  1.00  0.00    -0.390 C  
HETATM    9  C   UNL     1      -9.555  11.288  67.539  1.00  0.00    -0.181 C  
HETATM   10  C   UNL     1     -10.556  11.526  68.663  1.00  0.00    -0.236 C  
BRANCH   5  11
HETATM   11  C   UNL     1      -9.306  14.983  66.346  1.00  0.00    -0.334 C  
HETATM   12  O   UNL     1     -10.417  16.502  64.842  1.00  0.00    -0.653 OA 
HETATM   13  C   UNL     1     -10.137  16.191  65.993  1.00  0.00    -0.351 C  
HETATM   14  O   UNL     1     -10.545  16.914  67.057  1.00  0.00    -0.305 OA 
ENDBRANCH   5  11
ENDBRANCH   2   5
TORSDOF 2
ENDMDL
MODEL       60
REMARK 921   NORMALIZED FREE ENERGY PREDICTED BY IDOCK:   -3.55 KCAL/MOL
REMARK 922        TOTAL FREE ENERGY PREDICTED BY IDOCK:   -4.15 KCAL/MOL
REMARK 923 INTER-LIGAND FREE ENERGY PREDICTED BY IDOCK:   -4.03 KCAL/MOL
REMARK 924 INTRA-LIGAND FREE ENERGY PREDICTED BY IDOCK:   -0.12 KCAL/MOL
REMARK 927      BINDING AFFINITY PREDICTED BY RF-SCORE:    0.00 PKD
ROOT
HETATM    1  N   UNL     1      -7.620  18.201  68.809  1.00  0.00    -0.293 NA 
HETATM    2  C   UNL     1      -7.517  18.493  67.386  1.00  0.00    -0.218 C  
HETATM    3  H1  UNL     1      -7.473  17.222  69.061  1.00  0.00     0.000 HD 
HETATM    4  H2  UNL     1      -8.516  18.527  69.172  1.00  0.00     0.000 HD 
ENDROOT
BRANCH   2   5
HETATM    5  C   UNL     1      -7.742  19.990  67.002  1.00  0.00    -0.329 C  
HETATM    6  C   UNL     1      -7.532  20.134  65.462  1.00  0.00    -0.186 C  
HETATM    7  C   UNL     1      -6.746  20.931  67.729  1.00  0.00    -0.372 C  
HETATM    8  C   UNL     1      -5.296  20.769  67.269  1.00  0.00    -0.226 C  
HETATM    9  C   UNL     1      -6.080  20.004  65.002  1.00  0.00    -0.289 C  
HETATM   10  C   UNL     1      -5.165  20.954  65.763  1.00  0.00    -0.235 C  
BRANCH   5  11
HETATM   11  C   UNL     1      -9.203  20.440  67.283  1.00  0.00    -0.525 C  
HETATM   12  O   UNL     1     -10.788  19.729  65.613  1.00  0.00    -0.462 OA 
HETATM   13  C   UNL     1     -10.305  19.572  66.727  1.00  0.00    -0.462 C  
HETATM   14  O   UNL     1     -10.726  18.604  67.567  1.00  0.00    -0.432 OA 
ENDBRANCH   5  11
ENDBRANCH   2   5
TORSDOF 2
ENDMDL
MODEL       61
REMARK 921   NORMALIZED FREE ENERGY PREDICTED BY IDOCK:   -3.54 KCAL/MOL
REMARK 922        TOTAL FREE ENERGY PREDICTED BY IDOCK:   -4.13 KCAL/MOL
REMARK 923 INTER-LIGAND FREE ENERGY PREDICTED BY IDOCK:   -3.95 KCAL/MOL
REMARK 924 INTRA-LIGAND FREE ENERGY PREDICTED BY IDOCK:   -0.18 KCAL/MOL
REMARK 927      BINDING AFFINITY PREDICTED BY RF-SCORE:    0.00 PKD
ROOT
HETATM    1  N   UNL     1      -8.441  17.176  65.749  1.00  0.00    -0.479 NA 
HETATM    2  C   UNL     1      -7.688  18.140  66.541  1.00  0.00    -0.249 C  
HETATM    3  H1  UNL     1      -8.140  17.086  64.778  1.00  0.00     0.000 HD 
HETATM    4  H2  UNL     1      -9.438  17.389  65.790  1.00  0.00     0.000 HD 
ENDROOT
BRANCH   2   5
HETATM    5  C   UNL     1      -8.150  18.278  68.026  1.00  0.00    -0.279 C  
HETATM    6  C   UNL     1      -7.191  19.280  68.743  1.00  0.00    -0.380 C  
HETATM    7  C   UNL     1      -8.102  16.921  68.776  1.00  0.00    -0.251 C  
HETATM    8  C   UNL     1      -6.685  16.391  69.002  1.00  0.00    -0.192 C  
HETATM    9  C   UNL     1      -5.784  18.742  68.998  1.00  0.00    -0.219 C  
HETATM   10  C   UNL     1      -5.818  17.409  69.733  1.00  0.00    -0.244 C  
BRANCH   5  11
HETATM   11  C   UNL     1      -9.573  18.894  68.128  1.00  0.00    -0.386 C  
HETATM   12  O   UNL     1      -9.765  21.091  67.157  1.00  0.00    -0.374 OA 
HETATM   13  C   UNL     1      -9.967  19.887  67.063  1.00  0.00    -0.428 C  
HETATM   14  O   UNL     1     -10.574  19.338  65.990  1.00  0.00    -0.471 OA 
ENDBRANCH   5  11
ENDBRANCH   2   5
TORSDOF 2
ENDMDL
MODEL       62
REMARK 921   NORMALIZED FREE ENERGY PREDICTED BY IDOCK:   -3.53 KCAL/MOL
REMARK 922        TOTAL FREE ENERGY PREDICTED BY IDOCK:   -4.13 KCAL/MOL
REMARK 923 INTER-LIGAND FREE ENERGY PREDICTED BY IDOCK:   -4.20 KCAL/MOL
REMARK 924 INTRA-LIGAND FREE ENERGY PREDICTED BY IDOCK:    0.08 KCAL/MOL
REMARK 927      BINDING AFFINITY PREDICTED BY RF-SCORE:    0.00 PKD
ROOT
HETATM    1  N   UNL     1     -11.510  15.422  68.155  1.00  0.00    -0.346 NA 
HETATM    2  C   UNL     1     -12.391  15.456  69.315  1.00  0.00    -0.093 C  
HETATM    3  H1  UNL     1     -11.740  16.092  67.420  1.00  0.00     0.000 HD 
HETATM    4  H2  UNL     1     -11.470  14.477  67.770  1.00  0.00     0.000 HD 
ENDROOT
BRANCH   2   5
HETATM    5  C   UNL     1     -12.041  14.431  70.440  1.00  0.00    -0.399 C  
HETATM    6  C   UNL     1     -13.370  13.786  70.943  1.00  0.00    -0.080 C  
HETATM    7  C   UNL     1     -11.331  15.109  71.642  1.00  0.00    -0.394 C  
HETATM    8  C   UNL     1     -12.233  16.055  72.436  1.00  0.00    -0.603 C  
HETATM    9  C   UNL     1     -14.259  14.719  71.764  1.00  0.00    -0.629 C  
HETATM   10  C   UNL     1     -13.493  15.349  72.920  1.00  0.00    -0.629 C  
BRANCH   5  11
HETATM   11  C   UNL     1     -11.171  13.262  69.898  1.00  0.00     0.049 C  
HETATM   12  O   UNL     1     -11.869  11.085  70.658  1.00  0.00    -0.332 OA 
HETATM   13  C   UNL     1     -11.841  11.917  69.761  1.00  0.00    -0.340 C  
HETATM   14  O   UNL     1     -12.407  11.700  68.555  1.00  0.00    -0.406 OA 
ENDBRANCH   5  11
ENDBRANCH   2   5
TORSDOF 2
ENDMDL
MODEL       63
REMARK 921   NORMALIZED FREE ENERGY PREDICTED BY IDOCK:   -3.52 KCAL/MOL
REMARK 922        TOTAL FREE ENERGY PREDICTED BY IDOCK:   -4.12 KCAL/MOL
REMARK 923 INTER-LIGAND FREE ENERGY PREDICTED BY IDOCK:   -4.01 KCAL/MOL
REMARK 924 INTRA-LIGAND FREE ENERGY PREDICTED BY IDOCK:   -0.11 KCAL/MOL
REMARK 927      BINDING AFFINITY PREDICTED BY RF-SCORE:    0.00 PKD
ROOT
HETATM    1  N   UNL     1     -12.275   6.811  70.087  1.00  0.00    -0.605 NA 
HETATM    2  C   UNL     1     -10.987   7.487  70.171  1.00  0.00    -0.254 C  
HETATM    3  H1  UNL     1     -12.294   5.992  69.478  1.00  0.00     0.000 HD 
HETATM    4  H2  UNL     1     -13.002   7.472  69.812  1.00  0.00     0.000 HD 
ENDROOT
BRANCH   2   5
HETATM    5  C   UNL     1     -10.959   8.739  71.102  1.00  0.00    -0.334 C  
HETATM    6  C   UNL     1      -9.512   9.325  71.087  1.00  0.00    -0.287 C  
HETATM    7  C   UNL     1     -11.334   8.383  72.565  1.00  0.00    -0.416 C  
HETATM    8  C   UNL     1     -10.293   7.518  73.277  1.00  0.00    -0.412 C  
HETATM    9  C   UNL     1      -8.475   8.479  71.823  1.00  0.00    -0.236 C  
HETATM   10  C   UNL     1      -8.915   8.167  73.247  1.00  0.00    -0.332 C  
BRANCH   5  11
HETATM   11  C   UNL     1     -11.887   9.868  70.573  1.00  0.00    -0.350 C  
HETATM   12  O   UNL     1     -14.230   9.489  70.993  1.00  0.00    -0.027 OA 
HETATM   13  C   UNL     1     -13.196  10.072  71.295  1.00  0.00    -0.383 C  
HETATM   14  O   UNL     1     -13.138  10.963  72.308  1.00  0.00    -0.376 OA 
ENDBRANCH   5  11
ENDBRANCH   2   5
TORSDOF 2
ENDMDL
MODEL       64
REMARK 921   NORMALIZED FREE ENERGY PREDICTED BY IDOCK:   -3.52 KCAL/MOL
REMARK 922        TOTAL FREE ENERGY PREDICTED BY IDOCK:   -4.11 KCAL/MOL
REMARK 923 INTER-LIGAND FREE ENERGY PREDICTED BY IDOCK:   -4.14 KCAL/MOL
REMARK 924 INTRA-LIGAND FREE ENERGY PREDICTED BY IDOCK:    0.02 KCAL/MOL
REMARK 927      BINDING AFFINITY PREDICTED BY RF-SCORE:    0.00 PKD
ROOT
HETATM    1  N   UNL     1      -8.990  13.965  66.113  1.00  0.00    -0.455 NA 
HETATM    2  C   UNL     1      -8.809  14.805  67.290  1.00  0.00    -0.204 C  
HETATM    3  H1  UNL     1      -8.330  13.191  66.030  1.00  0.00     0.000 HD 
HETATM    4  H2  UNL     1      -8.971  14.536  65.267  1.00  0.00     0.000 HD 
ENDROOT
BRANCH   2   5
HETATM    5  C   UNL     1      -9.817  15.989  67.416  1.00  0.00    -0.236 C  
HETATM    6  C   UNL     1      -9.854  16.441  68.910  1.00  0.00    -0.260 C  
HETATM    7  C   UNL     1     -11.251  15.579  66.987  1.00  0.00    -0.177 C  
HETATM    8  C   UNL     1     -11.917  14.580  67.935  1.00  0.00    -0.322 C  
HETATM    9  C   UNL     1     -10.546  15.459  69.855  1.00  0.00    -0.315 C  
HETATM   10  C   UNL     1     -11.943  15.102  69.366  1.00  0.00    -0.337 C  
BRANCH   5  11
HETATM   11  C   UNL     1      -9.351  17.228  66.602  1.00  0.00    -0.276 C  
HETATM   12  O   UNL     1     -10.989  18.047  65.036  1.00  0.00    -0.748 OA 
HETATM   13  C   UNL     1     -10.424  18.171  66.115  1.00  0.00    -0.364 C  
HETATM   14  O   UNL     1     -10.709  19.175  66.969  1.00  0.00    -0.442 OA 
ENDBRANCH   5  11
ENDBRANCH   2   5
TORSDOF 2
ENDMDL
MODEL       65
REMARK 921   NORMALIZED FREE ENERGY PREDICTED BY IDOCK:   -3.51 KCAL/MOL
REMARK 922        TOTAL FREE ENERGY PREDICTED BY IDOCK:   -4.11 KCAL/MOL
REMARK 923 INTER-LIGAND FREE ENERGY PREDICTED BY IDOCK:   -4.25 KCAL/MOL
REMARK 924 INTRA-LIGAND FREE ENERGY PREDICTED BY IDOCK:    0.14 KCAL/MOL
REMARK 927      BINDING AFFINITY PREDICTED BY RF-SCORE:    0.00 PKD
ROOT
HETATM    1  N   UNL     1      -9.583  11.734  63.817  1.00  0.00    -0.505 NA 
HETATM    2  C   UNL     1     -10.353  10.984  64.800  1.00  0.00    -0.324 C  
HETATM    3  H1  UNL     1      -9.326  11.212  62.979  1.00  0.00     0.000 HD 
HETATM    4  H2  UNL     1      -8.750  12.133  64.252  1.00  0.00     0.000 HD 
ENDROOT
BRANCH   2   5
HETATM    5  C   UNL     1     -10.745  11.783  66.082  1.00  0.00    -0.320 C  
HETATM    6  C   UNL     1      -9.603  12.801  66.390  1.00  0.00    -0.254 C  
HETATM    7  C   UNL     1     -10.927  10.855  67.312  1.00  0.00    -0.355 C  
HETATM    8  C   UNL     1      -9.626  10.218  67.802  1.00  0.00    -0.171 C  
HETATM    9  C   UNL     1      -8.311  12.171  66.909  1.00  0.00    -0.151 C  
HETATM   10  C   UNL     1      -8.571  11.272  68.111  1.00  0.00    -0.150 C  
BRANCH   5  11
HETATM   11  C   UNL     1     -12.029  12.630  65.858  1.00  0.00    -0.497 C  
HETATM   12  O   UNL     1     -11.650  14.696  64.679  1.00  0.00    -0.394 OA 
HETATM   13  C   UNL     1     -12.049  13.539  64.654  1.00  0.00    -0.409 C  
HETATM   14  O   UNL     1     -12.552  12.971  63.538  1.00  0.00    -0.720 OA 
ENDBRANCH   5  11
ENDBRANCH   2   5
TORSDOF 2
ENDMDL
MODEL       66
REMARK 921   NORMALIZED FREE ENERGY PREDICTED BY IDOCK:   -3.51 KCAL/MOL
REMARK 922        TOTAL FREE ENERGY PREDICTED BY IDOCK:   -4.10 KCAL/MOL
REMARK 923 INTER-LIGAND FREE ENERGY PREDICTED BY IDOCK:   -3.94 KCAL/MOL
REMARK 924 INTRA-LIGAND FREE ENERGY PREDICTED BY IDOCK:   -0.16 KCAL/MOL
REMARK 927      BINDING AFFINITY PREDICTED BY RF-SCORE:    0.00 PKD
ROOT
HETATM    1  N   UNL     1     -10.154  16.827  65.490  1.00  0.00    -0.596 NA 
HETATM    2  C   UNL     1      -9.144  17.444  66.340  1.00  0.00    -0.248 C  
HETATM    3  H1  UNL     1      -9.877  16.698  64.516  1.00  0.00     0.000 HD 
HETATM    4  H2  UNL     1     -11.027  17.354  65.540  1.00  0.00     0.000 HD 
ENDROOT
BRANCH   2   5
HETATM    5  C   UNL     1      -9.568  17.643  67.830  1.00  0.00    -0.267 C  
HETATM    6  C   UNL     1      -8.273  17.772  68.692  1.00  0.00    -0.272 C  
HETATM    7  C   UNL     1     -10.401  16.445  68.360  1.00  0.00    -0.282 C  
HETATM    8  C   UNL     1      -9.600  15.150  68.498  1.00  0.00    -0.214 C  
HETATM    9  C   UNL     1      -7.487  16.472  68.857  1.00  0.00    -0.225 C  
HETATM   10  C   UNL     1      -8.370  15.345  69.376  1.00  0.00    -0.250 C  
BRANCH   5  11
HETATM   11  C   UNL     1     -10.354  18.968  68.029  1.00  0.00    -0.472 C  
HETATM   12  O   UNL     1      -9.210  20.922  67.204  1.00  0.00    -0.304 OA 
HETATM   13  C   UNL     1     -10.084  20.079  67.045  1.00  0.00    -0.457 C  
HETATM   14  O   UNL     1     -10.895  20.074  65.966  1.00  0.00    -0.358 OA 
ENDBRANCH   5  11
ENDBRANCH   2   5
TORSDOF 2
ENDMDL
MODEL       67
REMARK 921   NORMALIZED FREE ENERGY PREDICTED BY IDOCK:   -3.50 KCAL/MOL
REMARK 922        TOTAL FREE ENERGY PREDICTED BY IDOCK:   -4.10 KCAL/MOL
REMARK 923 INTER-LIGAND FREE ENERGY PREDICTED BY IDOCK:   -4.11 KCAL/MOL
REMARK 924 INTRA-LIGAND FREE ENERGY PREDICTED BY IDOCK:    0.01 KCAL/MOL
REMARK 927      BINDING AFFINITY PREDICTED BY RF-SCORE:    0.00 PKD
ROOT
HETATM    1  N   UNL     1      -9.363   8.027  73.289  1.00  0.00    -0.281 NA 
HETATM    2  C   UNL     1     -10.681   7.543  72.901  1.00  0.00    -0.358 C  
HETATM    3  H1  UNL     1      -9.075   7.782  74.237  1.00  0.00     0.000 HD 
HETATM    4  H2  UNL     1      -9.304   9.037  73.154  1.00  0.00     0.000 HD 
ENDROOT
BRANCH   2   5
HETATM    5  C   UNL     1     -11.121   7.918  71.451  1.00  0.00    -0.275 C  
HETATM    6  C   UNL     1     -11.694   9.370  71.476  1.00  0.00    -0.465 C  
HETATM    7  C   UNL     1     -12.216   6.961  70.911  1.00  0.00    -0.404 C  
HETATM    8  C   UNL     1     -13.562   7.099  71.625  1.00  0.00    -0.399 C  
HETATM    9  C   UNL     1     -13.053   9.506  72.161  1.00  0.00    -0.522 C  
HETATM   10  C   UNL     1     -14.072   8.533  71.581  1.00  0.00    -0.482 C  
BRANCH   5  11
HETATM   11  C   UNL     1      -9.911   7.948  70.476  1.00  0.00    -0.191 C  
HETATM   12  O   UNL     1      -9.590  10.067  69.374  1.00  0.00    -0.197 OA 
HETATM   13  C   UNL     1      -9.246   9.284  70.250  1.00  0.00    -0.237 C  
HETATM   14  O   UNL     1      -8.228   9.546  71.096  1.00  0.00    -0.295 OA 
ENDBRANCH   5  11
ENDBRANCH   2   5
TORSDOF 2
ENDMDL
MODEL       68
REMARK 921   NORMALIZED FREE ENERGY PREDICTED BY IDOCK:   -3.50 KCAL/MOL
REMARK 922        TOTAL FREE ENERGY PREDICTED BY IDOCK:   -4.09 KCAL/MOL
REMARK 923 INTER-LIGAND FREE ENERGY PREDICTED BY IDOCK:   -3.89 KCAL/MOL
REMARK 924 INTRA-LIGAND FREE ENERGY PREDICTED BY IDOCK:   -0.20 KCAL/MOL
REMARK 927      BINDING AFFINITY PREDICTED BY RF-SCORE:    0.00 PKD
ROOT
HETATM    1  N   UNL     1      -9.822  11.720  68.716  1.00  0.00    -0.374 NA 
HETATM    2  C   UNL     1      -9.779  12.922  67.892  1.00  0.00    -0.218 C  
HETATM    3  H1  UNL     1      -8.912  11.372  69.018  1.00  0.00     0.000 HD 
HETATM    4  H2  UNL     1     -10.340  10.983  68.237  1.00  0.00     0.000 HD 
ENDROOT
BRANCH   2   5
HETATM    5  C   UNL     1     -11.171  13.455  67.430  1.00  0.00    -0.311 C  
HETATM    6  C   UNL     1     -10.958  14.840  66.743  1.00  0.00    -0.327 C  
HETATM    7  C   UNL     1     -12.148  13.636  68.621  1.00  0.00    -0.325 C  
HETATM    8  C   UNL     1     -11.753  14.763  69.577  1.00  0.00    -0.358 C  
HETATM    9  C   UNL     1     -10.594  15.975  67.699  1.00  0.00    -0.309 C  
HETATM   10  C   UNL     1     -11.594  16.088  68.842  1.00  0.00    -0.354 C  
BRANCH   5  11
HETATM   11  C   UNL     1     -11.808  12.533  66.353  1.00  0.00    -0.445 C  
HETATM   12  O   UNL     1     -10.629  12.515  64.252  1.00  0.00    -0.320 OA 
HETATM   13  C   UNL     1     -10.882  11.955  65.311  1.00  0.00    -0.297 C  
HETATM   14  O   UNL     1     -10.356  10.757  65.640  1.00  0.00    -0.254 OA 
ENDBRANCH   5  11
ENDBRANCH   2   5
TORSDOF 2
ENDMDL
MODEL       69
REMARK 921   NORMALIZED FREE ENERGY PREDICTED BY IDOCK:   -3.48 KCAL/MOL
REMARK 922        TOTAL FREE ENERGY PREDICTED BY IDOCK:   -4.07 KCAL/MOL
REMARK 923 INTER-LIGAND FREE ENERGY PREDICTED BY IDOCK:   -3.98 KCAL/MOL
REMARK 924 INTRA-LIGAND FREE ENERGY PREDICTED BY IDOCK:   -0.09 KCAL/MOL
REMARK 927      BINDING AFFINITY PREDICTED BY RF-SCORE:    0.00 PKD
ROOT
HETATM    1  N   UNL     1      -9.316  16.533  65.673  1.00  0.00    -0.468 NA 
HETATM    2  C   UNL     1     -10.643  15.938  65.757  1.00  0.00    -0.355 C  
HETATM    3  H1  UNL     1      -9.277  17.438  65.203  1.00  0.00     0.000 HD 
HETATM    4  H2  UNL     1      -8.664  15.881  65.236  1.00  0.00     0.000 HD 
ENDROOT
BRANCH   2   5
HETATM    5  C   UNL     1     -10.702  14.554  66.476  1.00  0.00    -0.312 C  
HETATM    6  C   UNL     1     -10.081  13.483  65.524  1.00  0.00    -0.283 C  
HETATM    7  C   UNL     1     -12.158  14.136  66.811  1.00  0.00    -0.474 C  
HETATM    8  C   UNL     1     -13.007  13.815  65.580  1.00  0.00    -0.363 C  
HETATM    9  C   UNL     1     -10.941  13.138  64.309  1.00  0.00    -0.428 C  
HETATM   10  C   UNL     1     -12.354  12.742  64.717  1.00  0.00    -0.540 C  
BRANCH   5  11
HETATM   11  C   UNL     1      -9.834  14.541  67.765  1.00  0.00    -0.220 C  
HETATM   12  O   UNL     1      -8.434  12.593  67.987  1.00  0.00    -0.159 OA 
HETATM   13  C   UNL     1      -8.532  13.780  67.706  1.00  0.00    -0.181 C  
HETATM   14  O   UNL     1      -7.473  14.523  67.322  1.00  0.00    -0.191 OA 
ENDBRANCH   5  11
ENDBRANCH   2   5
TORSDOF 2
ENDMDL
MODEL       70
REMARK 921   NORMALIZED FREE ENERGY PREDICTED BY IDOCK:   -3.48 KCAL/MOL
REMARK 922        TOTAL FREE ENERGY PREDICTED BY IDOCK:   -4.07 KCAL/MOL
REMARK 923 INTER-LIGAND FREE ENERGY PREDICTED BY IDOCK:   -4.16 KCAL/MOL
REMARK 924 INTRA-LIGAND FREE ENERGY PREDICTED BY IDOCK:    0.09 KCAL/MOL
REMARK 927      BINDING AFFINITY PREDICTED BY RF-SCORE:    0.00 PKD
ROOT
HETATM    1  N   UNL     1     -13.087  13.211  64.772  1.00  0.00    -0.680 NA 
HETATM    2  C   UNL     1     -12.047  12.352  65.323  1.00  0.00    -0.391 C  
HETATM    3  H1  UNL     1     -13.502  12.881  63.900  1.00  0.00     0.000 HD 
HETATM    4  H2  UNL     1     -12.733  14.161  64.656  1.00  0.00     0.000 HD 
ENDROOT
BRANCH   2   5
HETATM    5  C   UNL     1     -11.412  12.857  66.657  1.00  0.00    -0.393 C  
HETATM    6  C   UNL     1      -9.871  12.988  66.444  1.00  0.00    -0.270 C  
HETATM    7  C   UNL     1     -11.669  11.875  67.831  1.00  0.00    -0.368 C  
HETATM    8  C   UNL     1     -10.933  10.541  67.692  1.00  0.00    -0.375 C  
HETATM    9  C   UNL     1      -9.129  11.656  66.336  1.00  0.00    -0.209 C  
HETATM   10  C   UNL     1      -9.434  10.747  67.518  1.00  0.00    -0.168 C  
BRANCH   5  11
HETATM   11  C   UNL     1     -11.919  14.278  67.030  1.00  0.00    -0.463 C  
HETATM   12  O   UNL     1     -12.145  14.649  69.400  1.00  0.00    -0.306 OA 
HETATM   13  C   UNL     1     -11.501  14.823  68.373  1.00  0.00    -0.314 C  
HETATM   14  O   UNL     1     -10.352  15.530  68.352  1.00  0.00    -0.224 OA 
ENDBRANCH   5  11
ENDBRANCH   2   5
TORSDOF 2
ENDMDL
MODEL       71
REMARK 921   NORMALIZED FREE ENERGY PREDICTED BY IDOCK:   -3.47 KCAL/MOL
REMARK 922        TOTAL FREE ENERGY PREDICTED BY IDOCK:   -4.05 KCAL/MOL
REMARK 923 INTER-LIGAND FREE ENERGY PREDICTED BY IDOCK:   -4.11 KCAL/MOL
REMARK 924 INTRA-LIGAND FREE ENERGY PREDICTED BY IDOCK:    0.06 KCAL/MOL
REMARK 927      BINDING AFFINITY PREDICTED BY RF-SCORE:    0.00 PKD
ROOT
HETATM    1  N   UNL     1     -11.695  11.235  67.807  1.00  0.00    -0.599 NA 
HETATM    2  C   UNL     1     -11.748  12.683  67.649  1.00  0.00    -0.361 C  
HETATM    3  H1  UNL     1     -12.114  10.880  68.667  1.00  0.00     0.000 HD 
HETATM    4  H2  UNL     1     -10.733  10.907  67.722  1.00  0.00     0.000 HD 
ENDROOT
BRANCH   2   5
HETATM    5  C   UNL     1     -11.108  13.227  66.333  1.00  0.00    -0.313 C  
HETATM    6  C   UNL     1      -9.569  12.972  66.399  1.00  0.00    -0.258 C  
HETATM    7  C   UNL     1     -11.352  14.749  66.155  1.00  0.00    -0.330 C  
HETATM    8  C   UNL     1     -10.609  15.616  67.173  1.00  0.00    -0.308 C  
HETATM    9  C   UNL     1      -8.819  13.858  67.393  1.00  0.00    -0.209 C  
HETATM   10  C   UNL     1      -9.112  15.334  67.158  1.00  0.00    -0.226 C  
BRANCH   5  11
HETATM   11  C   UNL     1     -11.620  12.455  65.086  1.00  0.00    -0.408 C  
HETATM   12  O   UNL     1     -10.068  12.426  63.243  1.00  0.00    -0.398 OA 
HETATM   13  C   UNL     1     -10.578  11.836  64.187  1.00  0.00    -0.353 C  
HETATM   14  O   UNL     1     -10.253  10.566  64.507  1.00  0.00    -0.348 OA 
ENDBRANCH   5  11
ENDBRANCH   2   5
TORSDOF 2
ENDMDL
MODEL       72
REMARK 921   NORMALIZED FREE ENERGY PREDICTED BY IDOCK:   -3.46 KCAL/MOL
REMARK 922        TOTAL FREE ENERGY PREDICTED BY IDOCK:   -4.05 KCAL/MOL
REMARK 923 INTER-LIGAND FREE ENERGY PREDICTED BY IDOCK:   -3.94 KCAL/MOL
REMARK 924 INTRA-LIGAND FREE ENERGY PREDICTED BY IDOCK:   -0.11 KCAL/MOL
REMARK 927      BINDING AFFINITY PREDICTED BY RF-SCORE:    0.00 PKD
ROOT
HETATM    1  N   UNL     1     -10.325  15.466  68.209  1.00  0.00    -0.234 NA 
HETATM    2  C   UNL     1     -10.042  16.771  68.791  1.00  0.00    -0.286 C  
HETATM    3  H1  UNL     1     -11.043  14.925  68.692  1.00  0.00     0.000 HD 
HETATM    4  H2  UNL     1      -9.465  14.920  68.133  1.00  0.00     0.000 HD 
ENDROOT
BRANCH   2   5
HETATM    5  C   UNL     1      -8.943  17.598  68.053  1.00  0.00    -0.264 C  
HETATM    6  C   UNL     1      -8.986  19.061  68.597  1.00  0.00    -0.402 C  
HETATM    7  C   UNL     1      -9.174  17.632  66.519  1.00  0.00    -0.286 C  
HETATM    8  C   UNL     1     -10.411  18.427  66.099  1.00  0.00    -0.431 C  
HETATM    9  C   UNL     1     -10.205  19.869  68.153  1.00  0.00    -0.564 C  
HETATM   10  C   UNL     1     -10.368  19.851  66.639  1.00  0.00    -0.608 C  
BRANCH   5  11
HETATM   11  C   UNL     1      -7.517  17.063  68.366  1.00  0.00    -0.213 C  
HETATM   12  O   UNL     1      -7.041  14.911  67.393  1.00  0.00    -0.194 OA 
HETATM   13  C   UNL     1      -6.901  16.127  67.357  1.00  0.00    -0.182 C  
HETATM   14  O   UNL     1      -6.169  16.742  66.404  1.00  0.00    -0.279 OA 
ENDBRANCH   5  11
ENDBRANCH   2   5
TORSDOF 2
ENDMDL
MODEL       73
REMARK 921   NORMALIZED FREE ENERGY PREDICTED BY IDOCK:   -3.46 KCAL/MOL
REMARK 922        TOTAL FREE ENERGY PREDICTED BY IDOCK:   -4.05 KCAL/MOL
REMARK 923 INTER-LIGAND FREE ENERGY PREDICTED BY IDOCK:   -3.93 KCAL/MOL
REMARK 924 INTRA-LIGAND FREE ENERGY PREDICTED BY IDOCK:   -0.12 KCAL/MOL
REMARK 927      BINDING AFFINITY PREDICTED BY RF-SCORE:    0.00 PKD
ROOT
HETATM    1  N   UNL     1     -10.504  16.766  65.075  1.00  0.00    -0.657 NA 
HETATM    2  C   UNL     1     -10.649  17.208  66.456  1.00  0.00    -0.172 C  
HETATM    3  H1  UNL     1     -11.042  17.302  64.393  1.00  0.00     0.000 HD 
HETATM    4  H2  UNL     1     -10.727  15.773  64.998  1.00  0.00     0.000 HD 
ENDROOT
BRANCH   2   5
HETATM    5  C   UNL     1      -9.827  16.389  67.501  1.00  0.00    -0.239 C  
HETATM    6  C   UNL     1      -9.841  14.891  67.064  1.00  0.00    -0.239 C  
HETATM    7  C   UNL     1     -10.429  16.497  68.927  1.00  0.00    -0.304 C  
HETATM    8  C   UNL     1     -11.786  15.806  69.077  1.00  0.00    -0.405 C  
HETATM    9  C   UNL     1     -11.186  14.189  67.243  1.00  0.00    -0.330 C  
HETATM   10  C   UNL     1     -11.714  14.342  68.663  1.00  0.00    -0.367 C  
BRANCH   5  11
HETATM   11  C   UNL     1      -8.334  16.820  67.519  1.00  0.00    -0.200 C  
HETATM   12  O   UNL     1      -7.692  18.219  65.665  1.00  0.00    -0.529 OA 
HETATM   13  C   UNL     1      -7.990  18.127  66.849  1.00  0.00    -0.232 C  
HETATM   14  O   UNL     1      -8.031  19.198  67.669  1.00  0.00    -0.254 OA 
ENDBRANCH   5  11
ENDBRANCH   2   5
TORSDOF 2
ENDMDL
MODEL       74
REMARK 921   NORMALIZED FREE ENERGY PREDICTED BY IDOCK:   -3.45 KCAL/MOL
REMARK 922        TOTAL FREE ENERGY PREDICTED BY IDOCK:   -4.03 KCAL/MOL
REMARK 923 INTER-LIGAND FREE ENERGY PREDICTED BY IDOCK:   -4.12 KCAL/MOL
REMARK 924 INTRA-LIGAND FREE ENERGY PREDICTED BY IDOCK:    0.09 KCAL/MOL
REMARK 927      BINDING AFFINITY PREDICTED BY RF-SCORE:    0.00 PKD
ROOT
HETATM    1  N   UNL     1      -9.381  10.431  66.041  1.00  0.00    -0.171 NA 
HETATM    2  C   UNL     1      -9.604  11.761  65.489  1.00  0.00    -0.201 C  
HETATM    3  H1  UNL     1      -8.806   9.816  65.464  1.00  0.00     0.000 HD 
HETATM    4  H2  UNL     1     -10.273   9.982  66.252  1.00  0.00     0.000 HD 
ENDROOT
BRANCH   2   5
HETATM    5  C   UNL     1     -10.484  12.701  66.371  1.00  0.00    -0.267 C  
HETATM    6  C   UNL     1     -11.983  12.422  66.036  1.00  0.00    -0.419 C  
HETATM    7  C   UNL     1     -10.186  14.199  66.098  1.00  0.00    -0.313 C  
HETATM    8  C   UNL     1     -10.624  14.673  64.711  1.00  0.00    -0.379 C  
HETATM    9  C   UNL     1     -12.432  12.921  64.664  1.00  0.00    -0.499 C  
HETATM   10  C   UNL     1     -12.102  14.395  64.469  1.00  0.00    -0.498 C  
BRANCH   5  11
HETATM   11  C   UNL     1     -10.315  12.391  67.884  1.00  0.00    -0.215 C  
HETATM   12  O   UNL     1     -12.015  13.370  69.284  1.00  0.00    -0.314 OA 
HETATM   13  C   UNL     1     -11.568  12.377  68.725  1.00  0.00    -0.326 C  
HETATM   14  O   UNL     1     -12.159  11.167  68.818  1.00  0.00    -0.522 OA 
ENDBRANCH   5  11
ENDBRANCH   2   5
TORSDOF 2
ENDMDL
MODEL       75
REMARK 921   NORMALIZED FREE ENERGY PREDICTED BY IDOCK:   -3.43 KCAL/MOL
REMARK 922        TOTAL FREE ENERGY PREDICTED BY IDOCK:   -4.01 KCAL/MOL
REMARK 923 INTER-LIGAND FREE ENERGY PREDICTED BY IDOCK:   -3.89 KCAL/MOL
REMARK 924 INTRA-LIGAND FREE ENERGY PREDICTED BY IDOCK:   -0.12 KCAL/MOL
REMARK 927      BINDING AFFINITY PREDICTED BY RF-SCORE:    0.00 PKD
ROOT
HETATM    1  N   UNL     1      -6.674  19.041  64.975  1.00  0.00    -0.486 NA 
HETATM    2  C   UNL     1      -7.306  19.747  66.082  1.00  0.00    -0.295 C  
HETATM    3  H1  UNL     1      -6.392  19.631  64.192  1.00  0.00     0.000 HD 
HETATM    4  H2  UNL     1      -7.278  18.287  64.648  1.00  0.00     0.000 HD 
ENDROOT
BRANCH   2   5
HETATM    5  C   UNL     1      -7.737  18.845  67.280  1.00  0.00    -0.247 C  
HETATM    6  C   UNL     1      -8.625  17.688  66.724  1.00  0.00    -0.276 C  
HETATM    7  C   UNL     1      -8.555  19.635  68.336  1.00  0.00    -0.357 C  
HETATM    8  C   UNL     1      -9.935  20.075  67.845  1.00  0.00    -0.558 C  
HETATM    9  C   UNL     1     -10.016  18.120  66.261  1.00  0.00    -0.342 C  
HETATM   10  C   UNL     1     -10.754  18.891  67.347  1.00  0.00    -0.519 C  
BRANCH   5  11
HETATM   11  C   UNL     1      -6.513  18.164  67.954  1.00  0.00    -0.187 C  
HETATM   12  O   UNL     1      -6.694  15.768  68.127  1.00  0.00    -0.110 OA 
HETATM   13  C   UNL     1      -6.217  16.739  67.555  1.00  0.00    -0.163 C  
HETATM   14  O   UNL     1      -5.370  16.620  66.512  1.00  0.00    -0.353 OA 
ENDBRANCH   5  11
ENDBRANCH   2   5
TORSDOF 2
ENDMDL
MODEL       76
REMARK 921   NORMALIZED FREE ENERGY PREDICTED BY IDOCK:   -3.42 KCAL/MOL
REMARK 922        TOTAL FREE ENERGY PREDICTED BY IDOCK:   -4.01 KCAL/MOL
REMARK 923 INTER-LIGAND FREE ENERGY PREDICTED BY IDOCK:   -3.95 KCAL/MOL
REMARK 924 INTRA-LIGAND FREE ENERGY PREDICTED BY IDOCK:   -0.06 KCAL/MOL
REMARK 927      BINDING AFFINITY PREDICTED BY RF-SCORE:    0.00 PKD
ROOT
HETATM    1  N   UNL     1     -11.239  15.176  69.320  1.00  0.00    -0.261 NA 
HETATM    2  C   UNL     1     -12.030  14.435  68.345  1.00  0.00    -0.293 C  
HETATM    3  H1  UNL     1     -11.779  15.762  69.957  1.00  0.00     0.000 HD 
HETATM    4  H2  UNL     1     -10.528  15.733  68.846  1.00  0.00     0.000 HD 
ENDROOT
BRANCH   2   5
HETATM    5  C   UNL     1     -11.204  13.538  67.371  1.00  0.00    -0.317 C  
HETATM    6  C   UNL     1     -10.081  14.416  66.734  1.00  0.00    -0.266 C  
HETATM    7  C   UNL     1     -12.083  12.955  66.233  1.00  0.00    -0.433 C  
HETATM    8  C   UNL     1     -12.586  14.006  65.242  1.00  0.00    -0.495 C  
HETATM    9  C   UNL     1     -10.577  15.446  65.720  1.00  0.00    -0.361 C  
HETATM   10  C   UNL     1     -11.434  14.800  64.640  1.00  0.00    -0.381 C  
BRANCH   5  11
HETATM   11  C   UNL     1     -10.478  12.389  68.126  1.00  0.00    -0.228 C  
HETATM   12  O   UNL     1     -11.820  11.329  69.824  1.00  0.00    -0.301 OA 
HETATM   13  C   UNL     1     -11.343  11.292  68.697  1.00  0.00    -0.273 C  
HETATM   14  O   UNL     1     -11.545  10.253  67.860  1.00  0.00    -0.338 OA 
ENDBRANCH   5  11
ENDBRANCH   2   5
TORSDOF 2
ENDMDL
MODEL       77
REMARK 921   NORMALIZED FREE ENERGY PREDICTED BY IDOCK:   -3.42 KCAL/MOL
REMARK 922        TOTAL FREE ENERGY PREDICTED BY IDOCK:   -4.00 KCAL/MOL
REMARK 923 INTER-LIGAND FREE ENERGY PREDICTED BY IDOCK:   -4.01 KCAL/MOL
REMARK 924 INTRA-LIGAND FREE ENERGY PREDICTED BY IDOCK:    0.00 KCAL/MOL
REMARK 927      BINDING AFFINITY PREDICTED BY RF-SCORE:    0.00 PKD
ROOT
HETATM    1  N   UNL     1      -6.096  19.552  68.485  1.00  0.00    -0.227 NA 
HETATM    2  C   UNL     1      -7.450  19.364  68.990  1.00  0.00    -0.349 C  
HETATM    3  H1  UNL     1      -5.545  20.254  68.979  1.00  0.00     0.000 HD 
HETATM    4  H2  UNL     1      -6.118  19.760  67.486  1.00  0.00     0.000 HD 
ENDROOT
BRANCH   2   5
HETATM    5  C   UNL     1      -8.293  18.290  68.234  1.00  0.00    -0.316 C  
HETATM    6  C   UNL     1      -8.044  18.463  66.703  1.00  0.00    -0.282 C  
HETATM    7  C   UNL     1      -9.812  18.444  68.511  1.00  0.00    -0.402 C  
HETATM    8  C   UNL     1     -10.423  19.711  67.909  1.00  0.00    -0.556 C  
HETATM    9  C   UNL     1      -8.679  19.712  66.093  1.00  0.00    -0.361 C  
HETATM   10  C   UNL     1     -10.166  19.796  66.410  1.00  0.00    -0.614 C  
BRANCH   5  11
HETATM   11  C   UNL     1      -7.831  16.848  68.586  1.00  0.00    -0.244 C  
HETATM   12  O   UNL     1      -9.540  15.491  69.608  1.00  0.00    -0.274 OA 
HETATM   13  C   UNL     1      -8.892  15.776  68.609  1.00  0.00    -0.199 C  
HETATM   14  O   UNL     1      -9.068  15.143  67.430  1.00  0.00    -0.182 OA 
ENDBRANCH   5  11
ENDBRANCH   2   5
TORSDOF 2
ENDMDL
MODEL       78
REMARK 921   NORMALIZED FREE ENERGY PREDICTED BY IDOCK:   -3.40 KCAL/MOL
REMARK 922        TOTAL FREE ENERGY PREDICTED BY IDOCK:   -3.98 KCAL/MOL
REMARK 923 INTER-LIGAND FREE ENERGY PREDICTED BY IDOCK:   -3.91 KCAL/MOL
REMARK 924 INTRA-LIGAND FREE ENERGY PREDICTED BY IDOCK:   -0.07 KCAL/MOL
REMARK 927      BINDING AFFINITY PREDICTED BY RF-SCORE:    0.00 PKD
ROOT
HETATM    1  N   UNL     1      -9.113  13.131  68.689  1.00  0.00    -0.387 NA 
HETATM    2  C   UNL     1      -9.428  12.343  67.504  1.00  0.00    -0.187 C  
HETATM    3  H1  UNL     1      -8.140  13.430  68.762  1.00  0.00     0.000 HD 
HETATM    4  H2  UNL     1      -9.390  12.626  69.531  1.00  0.00     0.000 HD 
ENDROOT
BRANCH   2   5
HETATM    5  C   UNL     1     -10.916  11.885  67.393  1.00  0.00    -0.315 C  
HETATM    6  C   UNL     1     -11.231  11.613  65.888  1.00  0.00    -0.296 C  
HETATM    7  C   UNL     1     -11.897  12.967  67.918  1.00  0.00    -0.389 C  
HETATM    8  C   UNL     1     -11.954  14.222  67.045  1.00  0.00    -0.463 C  
HETATM    9  C   UNL     1     -11.320  12.868  65.020  1.00  0.00    -0.338 C  
HETATM   10  C   UNL     1     -12.296  13.882  65.601  1.00  0.00    -0.511 C  
BRANCH   5  11
HETATM   11  C   UNL     1     -11.158  10.541  68.135  1.00  0.00    -0.346 C  
HETATM   12  O   UNL     1     -10.150  10.430  70.320  1.00  0.00    -0.078 OA 
HETATM   13  C   UNL     1     -11.158  10.582  69.643  1.00  0.00    -0.283 C  
HETATM   14  O   UNL     1     -12.373  10.795  70.192  1.00  0.00    -0.315 OA 
ENDBRANCH   5  11
ENDBRANCH   2   5
TORSDOF 2
ENDMDL
MODEL       79
REMARK 921   NORMALIZED FREE ENERGY PREDICTED BY IDOCK:   -3.39 KCAL/MOL
REMARK 922        TOTAL FREE ENERGY PREDICTED BY IDOCK:   -3.97 KCAL/MOL
REMARK 923 INTER-LIGAND FREE ENERGY PREDICTED BY IDOCK:   -4.06 KCAL/MOL
REMARK 924 INTRA-LIGAND FREE ENERGY PREDICTED BY IDOCK:    0.09 KCAL/MOL
REMARK 927      BINDING AFFINITY PREDICTED BY RF-SCORE:    0.00 PKD
ROOT
HETATM    1  N   UNL     1      -9.753  15.576  68.599  1.00  0.00    -0.201 NA 
HETATM    2  C   UNL     1      -8.956  16.733  68.988  1.00  0.00    -0.188 C  
HETATM    3  H1  UNL     1      -9.692  14.778  69.232  1.00  0.00     0.000 HD 
HETATM    4  H2  UNL     1      -9.518  15.291  67.648  1.00  0.00     0.000 HD 
ENDROOT
BRANCH   2   5
HETATM    5  C   UNL     1      -9.049  17.954  68.020  1.00  0.00    -0.267 C  
HETATM    6  C   UNL     1      -8.139  17.668  66.785  1.00  0.00    -0.264 C  
HETATM    7  C   UNL     1      -8.572  19.267  68.696  1.00  0.00    -0.401 C  
HETATM    8  C   UNL     1      -7.072  19.297  68.994  1.00  0.00    -0.391 C  
HETATM    9  C   UNL     1      -6.639  17.728  67.073  1.00  0.00    -0.192 C  
HETATM   10  C   UNL     1      -6.249  19.041  67.738  1.00  0.00    -0.217 C  
BRANCH   5  11
HETATM   11  C   UNL     1     -10.489  18.134  67.463  1.00  0.00    -0.425 C  
HETATM   12  O   UNL     1     -10.659  19.751  65.685  1.00  0.00    -0.507 OA 
HETATM   13  C   UNL     1     -10.616  18.576  66.026  1.00  0.00    -0.331 C  
HETATM   14  O   UNL     1     -10.688  17.562  65.139  1.00  0.00    -0.673 OA 
ENDBRANCH   5  11
ENDBRANCH   2   5
TORSDOF 2
ENDMDL
MODEL       80
REMARK 921   NORMALIZED FREE ENERGY PREDICTED BY IDOCK:   -3.36 KCAL/MOL
REMARK 922        TOTAL FREE ENERGY PREDICTED BY IDOCK:   -3.94 KCAL/MOL
REMARK 923 INTER-LIGAND FREE ENERGY PREDICTED BY IDOCK:   -3.82 KCAL/MOL
REMARK 924 INTRA-LIGAND FREE ENERGY PREDICTED BY IDOCK:   -0.12 KCAL/MOL
REMARK 927      BINDING AFFINITY PREDICTED BY RF-SCORE:    0.00 PKD
ROOT
HETATM    1  N   UNL     1      -9.904   6.548  73.104  1.00  0.00    -0.164 NA 
HETATM    2  C   UNL     1     -11.004   7.502  73.041  1.00  0.00    -0.390 C  
HETATM    3  H1  UNL     1      -9.644   6.250  74.045  1.00  0.00     0.000 HD 
HETATM    4  H2  UNL     1      -9.089   6.918  72.614  1.00  0.00     0.000 HD 
ENDROOT
BRANCH   2   5
HETATM    5  C   UNL     1     -11.401   7.958  71.602  1.00  0.00    -0.299 C  
HETATM    6  C   UNL     1     -12.072   9.364  71.704  1.00  0.00    -0.462 C  
HETATM    7  C   UNL     1     -12.403   6.976  70.939  1.00  0.00    -0.361 C  
HETATM    8  C   UNL     1     -13.787   6.972  71.592  1.00  0.00    -0.357 C  
HETATM    9  C   UNL     1     -13.468   9.359  72.328  1.00  0.00    -0.539 C  
HETATM   10  C   UNL     1     -14.390   8.370  71.627  1.00  0.00    -0.536 C  
BRANCH   5  11
HETATM   11  C   UNL     1     -10.153   8.140  70.695  1.00  0.00    -0.209 C  
HETATM   12  O   UNL     1      -9.179   6.070  69.938  1.00  0.00    -0.145 OA 
HETATM   13  C   UNL     1      -9.871   7.049  69.691  1.00  0.00    -0.164 C  
HETATM   14  O   UNL     1     -10.444   7.244  68.485  1.00  0.00    -0.189 OA 
ENDBRANCH   5  11
ENDBRANCH   2   5
TORSDOF 2
ENDMDL
MODEL       81
REMARK 921   NORMALIZED FREE ENERGY PREDICTED BY IDOCK:   -3.36 KCAL/MOL
REMARK 922        TOTAL FREE ENERGY PREDICTED BY IDOCK:   -3.93 KCAL/MOL
REMARK 923 INTER-LIGAND FREE ENERGY PREDICTED BY IDOCK:   -3.86 KCAL/MOL
REMARK 924 INTRA-LIGAND FREE ENERGY PREDICTED BY IDOCK:   -0.08 KCAL/MOL
REMARK 927      BINDING AFFINITY PREDICTED BY RF-SCORE:    0.00 PKD
ROOT
HETATM    1  N   UNL     1     -12.580  13.374  65.365  1.00  0.00    -0.522 NA 
HETATM    2  C   UNL     1     -11.477  14.247  65.745  1.00  0.00    -0.335 C  
HETATM    3  H1  UNL     1     -12.836  13.407  64.378  1.00  0.00     0.000 HD 
HETATM    4  H2  UNL     1     -13.396  13.563  65.947  1.00  0.00     0.000 HD 
ENDROOT
BRANCH   2   5
HETATM    5  C   UNL     1     -11.086  14.196  67.256  1.00  0.00    -0.315 C  
HETATM    6  C   UNL     1     -11.271  15.625  67.856  1.00  0.00    -0.328 C  
HETATM    7  C   UNL     1      -9.611  13.759  67.458  1.00  0.00    -0.219 C  
HETATM    8  C   UNL     1      -8.590  14.788  66.969  1.00  0.00    -0.260 C  
HETATM    9  C   UNL     1     -10.234  16.648  67.393  1.00  0.00    -0.286 C  
HETATM   10  C   UNL     1      -8.814  16.148  67.620  1.00  0.00    -0.191 C  
BRANCH   5  11
HETATM   11  C   UNL     1     -12.033  13.264  68.061  1.00  0.00    -0.351 C  
HETATM   12  O   UNL     1     -11.809  10.927  67.516  1.00  0.00    -0.524 OA 
HETATM   13  C   UNL     1     -11.568  11.846  68.288  1.00  0.00    -0.327 C  
HETATM   14  O   UNL     1     -10.865  11.668  69.426  1.00  0.00    -0.196 OA 
ENDBRANCH   5  11
ENDBRANCH   2   5
TORSDOF 2
ENDMDL
MODEL       82
REMARK 921   NORMALIZED FREE ENERGY PREDICTED BY IDOCK:   -3.35 KCAL/MOL
REMARK 922        TOTAL FREE ENERGY PREDICTED BY IDOCK:   -3.92 KCAL/MOL
REMARK 923 INTER-LIGAND FREE ENERGY PREDICTED BY IDOCK:   -3.90 KCAL/MOL
REMARK 924 INTRA-LIGAND FREE ENERGY PREDICTED BY IDOCK:   -0.02 KCAL/MOL
REMARK 927      BINDING AFFINITY PREDICTED BY RF-SCORE:    0.00 PKD
ROOT
HETATM    1  N   UNL     1     -12.293  12.635  65.805  1.00  0.00    -0.619 NA 
HETATM    2  C   UNL     1     -12.244  13.803  66.674  1.00  0.00    -0.409 C  
HETATM    3  H1  UNL     1     -13.130  12.563  65.226  1.00  0.00     0.000 HD 
HETATM    4  H2  UNL     1     -12.169  11.783  66.353  1.00  0.00     0.000 HD 
ENDROOT
BRANCH   2   5
HETATM    5  C   UNL     1     -10.963  13.913  67.560  1.00  0.00    -0.288 C  
HETATM    6  C   UNL     1     -10.971  12.729  68.577  1.00  0.00    -0.288 C  
HETATM    7  C   UNL     1     -10.918  15.247  68.351  1.00  0.00    -0.271 C  
HETATM    8  C   UNL     1     -11.986  15.355  69.441  1.00  0.00    -0.351 C  
HETATM    9  C   UNL     1     -12.017  12.849  69.685  1.00  0.00    -0.358 C  
HETATM   10  C   UNL     1     -11.913  14.184  70.411  1.00  0.00    -0.400 C  
BRANCH   5  11
HETATM   11  C   UNL     1      -9.668  13.749  66.717  1.00  0.00    -0.277 C  
HETATM   12  O   UNL     1      -8.448  15.800  66.382  1.00  0.00    -0.286 OA 
HETATM   13  C   UNL     1      -8.554  14.734  66.974  1.00  0.00    -0.234 C  
HETATM   14  O   UNL     1      -7.671  14.339  67.915  1.00  0.00    -0.123 OA 
ENDBRANCH   5  11
ENDBRANCH   2   5
TORSDOF 2
ENDMDL
MODEL       83
REMARK 921   NORMALIZED FREE ENERGY PREDICTED BY IDOCK:   -3.34 KCAL/MOL
REMARK 922        TOTAL FREE ENERGY PREDICTED BY IDOCK:   -3.92 KCAL/MOL
REMARK 923 INTER-LIGAND FREE ENERGY PREDICTED BY IDOCK:   -4.09 KCAL/MOL
REMARK 924 INTRA-LIGAND FREE ENERGY PREDICTED BY IDOCK:    0.17 KCAL/MOL
REMARK 927      BINDING AFFINITY PREDICTED BY RF-SCORE:    0.00 PKD
ROOT
HETATM    1  N   UNL     1      -6.837  21.353  66.226  1.00  0.00    -0.676 NA 
HETATM    2  C   UNL     1      -7.508  21.169  67.507  1.00  0.00    -0.056 C  
HETATM    3  H1  UNL     1      -6.386  22.260  66.102  1.00  0.00     0.000 HD 
HETATM    4  H2  UNL     1      -7.486  21.174  65.460  1.00  0.00     0.000 HD 
ENDROOT
BRANCH   2   5
HETATM    5  C   UNL     1      -8.197  19.781  67.698  1.00  0.00    -0.340 C  
HETATM    6  C   UNL     1      -7.952  19.314  69.167  1.00  0.00    -0.222 C  
HETATM    7  C   UNL     1      -7.621  18.710  66.733  1.00  0.00    -0.246 C  
HETATM    8  C   UNL     1      -6.175  18.317  67.041  1.00  0.00    -0.188 C  
HETATM    9  C   UNL     1      -6.515  18.890  69.469  1.00  0.00    -0.270 C  
HETATM   10  C   UNL     1      -6.020  17.843  68.480  1.00  0.00    -0.183 C  
BRANCH   5  11
HETATM   11  C   UNL     1      -9.738  19.879  67.526  1.00  0.00    -0.521 C  
HETATM   12  O   UNL     1     -10.599  18.638  65.649  1.00  0.00    -0.610 OA 
HETATM   13  C   UNL     1     -10.428  18.715  66.859  1.00  0.00    -0.402 C  
HETATM   14  O   UNL     1     -10.853  17.759  67.712  1.00  0.00    -0.371 OA 
ENDBRANCH   5  11
ENDBRANCH   2   5
TORSDOF 2
ENDMDL
MODEL       84
REMARK 921   NORMALIZED FREE ENERGY PREDICTED BY IDOCK:   -3.34 KCAL/MOL
REMARK 922        TOTAL FREE ENERGY PREDICTED BY IDOCK:   -3.91 KCAL/MOL
REMARK 923 INTER-LIGAND FREE ENERGY PREDICTED BY IDOCK:   -3.77 KCAL/MOL
REMARK 924 INTRA-LIGAND FREE ENERGY PREDICTED BY IDOCK:   -0.14 KCAL/MOL
REMARK 927      BINDING AFFINITY PREDICTED BY RF-SCORE:    0.00 PKD
ROOT
HETATM    1  N   UNL     1      -9.194  16.362  69.168  1.00  0.00    -0.246 NA 
HETATM    2  C   UNL     1      -8.030  16.916  68.490  1.00  0.00    -0.242 C  
HETATM    3  H1  UNL     1      -9.087  16.233  70.175  1.00  0.00     0.000 HD 
HETATM    4  H2  UNL     1      -9.473  15.484  68.729  1.00  0.00     0.000 HD 
ENDROOT
BRANCH   2   5
HETATM    5  C   UNL     1      -8.194  17.112  66.950  1.00  0.00    -0.251 C  
HETATM    6  C   UNL     1      -6.775  17.298  66.328  1.00  0.00    -0.269 C  
HETATM    7  C   UNL     1      -9.052  18.361  66.613  1.00  0.00    -0.301 C  
HETATM    8  C   UNL     1      -8.376  19.687  66.964  1.00  0.00    -0.328 C  
HETATM    9  C   UNL     1      -6.109  18.635  66.651  1.00  0.00    -0.177 C  
HETATM   10  C   UNL     1      -7.011  19.810  66.298  1.00  0.00    -0.247 C  
BRANCH   5  11
HETATM   11  C   UNL     1      -8.800  15.851  66.274  1.00  0.00    -0.386 C  
HETATM   12  O   UNL     1     -11.142  15.519  66.733  1.00  0.00    -0.299 OA 
HETATM   13  C   UNL     1     -10.274  15.887  65.953  1.00  0.00    -0.352 C  
HETATM   14  O   UNL     1     -10.561  16.356  64.720  1.00  0.00    -0.676 OA 
ENDBRANCH   5  11
ENDBRANCH   2   5
TORSDOF 2
ENDMDL
MODEL       85
REMARK 921   NORMALIZED FREE ENERGY PREDICTED BY IDOCK:   -3.30 KCAL/MOL
REMARK 922        TOTAL FREE ENERGY PREDICTED BY IDOCK:   -3.87 KCAL/MOL
REMARK 923 INTER-LIGAND FREE ENERGY PREDICTED BY IDOCK:   -3.99 KCAL/MOL
REMARK 924 INTRA-LIGAND FREE ENERGY PREDICTED BY IDOCK:    0.11 KCAL/MOL
REMARK 927      BINDING AFFINITY PREDICTED BY RF-SCORE:    0.00 PKD
ROOT
HETATM    1  N   UNL     1     -10.298  13.864  68.968  1.00  0.00    -0.409 NA 
HETATM    2  C   UNL     1     -11.389  13.396  68.123  1.00  0.00    -0.287 C  
HETATM    3  H1  UNL     1     -10.586  14.297  69.846  1.00  0.00     0.000 HD 
HETATM    4  H2  UNL     1      -9.694  14.498  68.444  1.00  0.00     0.000 HD 
ENDROOT
BRANCH   2   5
HETATM    5  C   UNL     1     -10.947  12.734  66.781  1.00  0.00    -0.301 C  
HETATM    6  C   UNL     1      -9.832  13.620  66.144  1.00  0.00    -0.304 C  
HETATM    7  C   UNL     1     -12.124  12.618  65.776  1.00  0.00    -0.484 C  
HETATM    8  C   UNL     1     -12.613  13.966  65.242  1.00  0.00    -0.508 C  
HETATM    9  C   UNL     1     -10.322  14.954  65.581  1.00  0.00    -0.370 C  
HETATM   10  C   UNL     1     -11.478  14.760  64.608  1.00  0.00    -0.381 C  
BRANCH   5  11
HETATM   11  C   UNL     1     -10.308  11.337  67.015  1.00  0.00    -0.263 C  
HETATM   12  O   UNL     1     -10.106  10.002  65.020  1.00  0.00    -0.323 OA 
HETATM   13  C   UNL     1      -9.569  10.719  65.854  1.00  0.00    -0.208 C  
HETATM   14  O   UNL     1      -8.253  11.016  65.812  1.00  0.00    -0.147 OA 
ENDBRANCH   5  11
ENDBRANCH   2   5
TORSDOF 2
ENDMDL
MODEL       86
REMARK 921   NORMALIZED FREE ENERGY PREDICTED BY IDOCK:   -3.28 KCAL/MOL
REMARK 922        TOTAL FREE ENERGY PREDICTED BY IDOCK:   -3.85 KCAL/MOL
REMARK 923 INTER-LIGAND FREE ENERGY PREDICTED BY IDOCK:   -3.67 KCAL/MOL
REMARK 924 INTRA-LIGAND FREE ENERGY PREDICTED BY IDOCK:   -0.19 KCAL/MOL
REMARK 927      BINDING AFFINITY PREDICTED BY RF-SCORE:    0.00 PKD
ROOT
HETATM    1  N   UNL     1      -9.117   7.828  68.597  1.00  0.00    -0.136 NA 
HETATM    2  C   UNL     1     -10.389   7.888  69.305  1.00  0.00    -0.220 C  
HETATM    3  H1  UNL     1      -9.015   7.039  67.958  1.00  0.00     0.000 HD 
HETATM    4  H2  UNL     1      -8.342   7.845  69.261  1.00  0.00     0.000 HD 
ENDROOT
BRANCH   2   5
HETATM    5  C   UNL     1     -10.543   9.096  70.282  1.00  0.00    -0.261 C  
HETATM    6  C   UNL     1      -9.449   8.971  71.388  1.00  0.00    -0.334 C  
HETATM    7  C   UNL     1     -11.938   9.116  70.963  1.00  0.00    -0.344 C  
HETATM    8  C   UNL     1     -12.160   7.967  71.948  1.00  0.00    -0.352 C  
HETATM    9  C   UNL     1      -9.685   7.843  72.392  1.00  0.00    -0.275 C  
HETATM   10  C   UNL     1     -11.073   7.928  73.013  1.00  0.00    -0.379 C  
BRANCH   5  11
HETATM   11  C   UNL     1     -10.281  10.450  69.565  1.00  0.00    -0.258 C  
HETATM   12  O   UNL     1     -10.639  10.386  67.184  1.00  0.00    -0.241 OA 
HETATM   13  C   UNL     1     -11.046  10.710  68.292  1.00  0.00    -0.279 C  
HETATM   14  O   UNL     1     -12.225  11.341  68.473  1.00  0.00    -0.588 OA 
ENDBRANCH   5  11
ENDBRANCH   2   5
TORSDOF 2
ENDMDL
MODEL       87
REMARK 921   NORMALIZED FREE ENERGY PREDICTED BY IDOCK:   -3.28 KCAL/MOL
REMARK 922        TOTAL FREE ENERGY PREDICTED BY IDOCK:   -3.85 KCAL/MOL
REMARK 923 INTER-LIGAND FREE ENERGY PREDICTED BY IDOCK:   -3.85 KCAL/MOL
REMARK 924 INTRA-LIGAND FREE ENERGY PREDICTED BY IDOCK:   -0.00 KCAL/MOL
REMARK 927      BINDING AFFINITY PREDICTED BY RF-SCORE:    0.00 PKD
ROOT
HETATM    1  N   UNL     1      -8.452   8.975  71.610  1.00  0.00    -0.355 NA 
HETATM    2  C   UNL     1      -9.090   7.674  71.451  1.00  0.00    -0.133 C  
HETATM    3  H1  UNL     1      -7.458   8.942  71.841  1.00  0.00     0.000 HD 
HETATM    4  H2  UNL     1      -8.956   9.532  72.300  1.00  0.00     0.000 HD 
ENDROOT
BRANCH   2   5
HETATM    5  C   UNL     1     -10.610   7.723  71.098  1.00  0.00    -0.235 C  
HETATM    6  C   UNL     1     -11.126   6.257  70.964  1.00  0.00    -0.357 C  
HETATM    7  C   UNL     1     -10.871   8.467  69.761  1.00  0.00    -0.184 C  
HETATM    8  C   UNL     1     -10.351   7.722  68.530  1.00  0.00    -0.226 C  
HETATM    9  C   UNL     1     -10.634   5.521  69.718  1.00  0.00    -0.388 C  
HETATM   10  C   UNL     1     -10.921   6.312  68.449  1.00  0.00    -0.409 C  
BRANCH   5  11
HETATM   11  C   UNL     1     -11.442   8.372  72.240  1.00  0.00    -0.454 C  
HETATM   12  O   UNL     1     -12.883  10.160  71.511  1.00  0.00    -0.370 OA 
HETATM   13  C   UNL     1     -12.763   8.992  71.857  1.00  0.00    -0.382 C  
HETATM   14  O   UNL     1     -13.814   8.149  71.933  1.00  0.00    -0.358 OA 
ENDBRANCH   5  11
ENDBRANCH   2   5
TORSDOF 2
ENDMDL
MODEL       88
REMARK 921   NORMALIZED FREE ENERGY PREDICTED BY IDOCK:   -3.27 KCAL/MOL
REMARK 922        TOTAL FREE ENERGY PREDICTED BY IDOCK:   -3.84 KCAL/MOL
REMARK 923 INTER-LIGAND FREE ENERGY PREDICTED BY IDOCK:   -3.70 KCAL/MOL
REMARK 924 INTRA-LIGAND FREE ENERGY PREDICTED BY IDOCK:   -0.14 KCAL/MOL
REMARK 927      BINDING AFFINITY PREDICTED BY RF-SCORE:    0.00 PKD
ROOT
HETATM    1  N   UNL     1      -8.497  16.968  65.777  1.00  0.00    -0.457 NA 
HETATM    2  C   UNL     1      -8.227  18.168  66.560  1.00  0.00    -0.267 C  
HETATM    3  H1  UNL     1      -8.279  17.044  64.783  1.00  0.00     0.000 HD 
HETATM    4  H2  UNL     1      -9.466  16.675  65.904  1.00  0.00     0.000 HD 
ENDROOT
BRANCH   2   5
HETATM    5  C   UNL     1      -8.559  18.051  68.080  1.00  0.00    -0.277 C  
HETATM    6  C   UNL     1      -8.283  19.436  68.746  1.00  0.00    -0.382 C  
HETATM    7  C   UNL     1      -7.686  16.979  68.784  1.00  0.00    -0.249 C  
HETATM    8  C   UNL     1      -6.206  17.353  68.879  1.00  0.00    -0.198 C  
HETATM    9  C   UNL     1      -6.804  19.798  68.870  1.00  0.00    -0.373 C  
HETATM   10  C   UNL     1      -6.014  18.698  69.566  1.00  0.00    -0.267 C  
BRANCH   5  11
HETATM   11  C   UNL     1     -10.066  17.752  68.316  1.00  0.00    -0.371 C  
HETATM   12  O   UNL     1     -10.709  15.488  67.797  1.00  0.00    -0.281 OA 
HETATM   13  C   UNL     1     -10.437  16.327  68.646  1.00  0.00    -0.282 C  
HETATM   14  O   UNL     1     -10.451  16.050  69.967  1.00  0.00    -0.296 OA 
ENDBRANCH   5  11
ENDBRANCH   2   5
TORSDOF 2
ENDMDL
MODEL       89
REMARK 921   NORMALIZED FREE ENERGY PREDICTED BY IDOCK:   -3.27 KCAL/MOL
REMARK 922        TOTAL FREE ENERGY PREDICTED BY IDOCK:   -3.84 KCAL/MOL
REMARK 923 INTER-LIGAND FREE ENERGY PREDICTED BY IDOCK:   -3.69 KCAL/MOL
REMARK 924 INTRA-LIGAND FREE ENERGY PREDICTED BY IDOCK:   -0.15 KCAL/MOL
REMARK 927      BINDING AFFINITY PREDICTED BY RF-SCORE:    0.00 PKD
ROOT
HETATM    1  N   UNL     1     -12.989   8.147  72.499  1.00  0.00    -0.571 NA 
HETATM    2  C   UNL     1     -12.189   7.245  71.681  1.00  0.00    -0.343 C  
HETATM    3  H1  UNL     1     -13.964   8.241  72.211  1.00  0.00     0.000 HD 
HETATM    4  H2  UNL     1     -12.546   9.065  72.547  1.00  0.00     0.000 HD 
ENDROOT
BRANCH   2   5
HETATM    5  C   UNL     1     -10.699   7.102  72.122  1.00  0.00    -0.245 C  
HETATM    6  C   UNL     1      -9.946   6.275  71.033  1.00  0.00    -0.213 C  
HETATM    7  C   UNL     1     -10.564   6.369  73.483  1.00  0.00    -0.297 C  
HETATM    8  C   UNL     1     -10.953   4.890  73.428  1.00  0.00    -0.394 C  
HETATM    9  C   UNL     1     -10.309   4.791  70.996  1.00  0.00    -0.188 C  
HETATM   10  C   UNL     1     -10.157   4.143  72.366  1.00  0.00    -0.243 C  
BRANCH   5  11
HETATM   11  C   UNL     1      -9.986   8.481  72.187  1.00  0.00    -0.387 C  
HETATM   12  O   UNL     1      -9.173   9.268  70.059  1.00  0.00    -0.176 OA 
HETATM   13  C   UNL     1     -10.021   9.330  70.940  1.00  0.00    -0.297 C  
HETATM   14  O   UNL     1     -11.070  10.176  70.875  1.00  0.00    -0.338 OA 
ENDBRANCH   5  11
ENDBRANCH   2   5
TORSDOF 2
ENDMDL
MODEL       90
REMARK 921   NORMALIZED FREE ENERGY PREDICTED BY IDOCK:   -3.27 KCAL/MOL
REMARK 922        TOTAL FREE ENERGY PREDICTED BY IDOCK:   -3.83 KCAL/MOL
REMARK 923 INTER-LIGAND FREE ENERGY PREDICTED BY IDOCK:   -3.73 KCAL/MOL
REMARK 924 INTRA-LIGAND FREE ENERGY PREDICTED BY IDOCK:   -0.10 KCAL/MOL
REMARK 927      BINDING AFFINITY PREDICTED BY RF-SCORE:    0.00 PKD
ROOT
HETATM    1  N   UNL     1      -9.067  14.464  66.195  1.00  0.00    -0.504 NA 
HETATM    2  C   UNL     1      -9.229  13.254  66.990  1.00  0.00    -0.237 C  
HETATM    3  H1  UNL     1      -8.116  14.832  66.158  1.00  0.00     0.000 HD 
HETATM    4  H2  UNL     1      -9.712  15.186  66.517  1.00  0.00     0.000 HD 
ENDROOT
BRANCH   2   5
HETATM    5  C   UNL     1     -10.685  12.692  67.046  1.00  0.00    -0.268 C  
HETATM    6  C   UNL     1     -10.803  11.770  68.300  1.00  0.00    -0.259 C  
HETATM    7  C   UNL     1     -11.033  11.859  65.783  1.00  0.00    -0.359 C  
HETATM    8  C   UNL     1     -10.260  10.544  65.679  1.00  0.00    -0.315 C  
HETATM    9  C   UNL     1     -10.057  10.441  68.186  1.00  0.00    -0.179 C  
HETATM   10  C   UNL     1     -10.448   9.686  66.923  1.00  0.00    -0.282 C  
BRANCH   5  11
HETATM   11  C   UNL     1     -11.729  13.825  67.243  1.00  0.00    -0.416 C  
HETATM   12  O   UNL     1     -12.383  14.172  69.536  1.00  0.00    -0.328 OA 
HETATM   13  C   UNL     1     -11.723  14.539  68.572  1.00  0.00    -0.318 C  
HETATM   14  O   UNL     1     -10.929  15.630  68.612  1.00  0.00    -0.262 OA 
ENDBRANCH   5  11
ENDBRANCH   2   5
TORSDOF 2
ENDMDL
MODEL       91
REMARK 921   NORMALIZED FREE ENERGY PREDICTED BY IDOCK:   -3.26 KCAL/MOL
REMARK 922        TOTAL FREE ENERGY PREDICTED BY IDOCK:   -3.82 KCAL/MOL
REMARK 923 INTER-LIGAND FREE ENERGY PREDICTED BY IDOCK:   -3.71 KCAL/MOL
REMARK 924 INTRA-LIGAND FREE ENERGY PREDICTED BY IDOCK:   -0.11 KCAL/MOL
REMARK 927      BINDING AFFINITY PREDICTED BY RF-SCORE:    0.00 PKD
ROOT
HETATM    1  N   UNL     1     -11.204   6.370  68.421  1.00  0.00    -0.532 NA 
HETATM    2  C   UNL     1     -10.776   7.515  69.215  1.00  0.00    -0.176 C  
HETATM    3  H1  UNL     1     -11.326   6.557  67.425  1.00  0.00     0.000 HD 
HETATM    4  H2  UNL     1     -12.058   5.971  68.811  1.00  0.00     0.000 HD 
ENDROOT
BRANCH   2   5
HETATM    5  C   UNL     1     -10.590   7.229  70.738  1.00  0.00    -0.237 C  
HETATM    6  C   UNL     1     -11.893   6.553  71.270  1.00  0.00    -0.385 C  
HETATM    7  C   UNL     1     -10.340   8.530  71.546  1.00  0.00    -0.321 C  
HETATM    8  C   UNL     1     -11.554   9.459  71.611  1.00  0.00    -0.466 C  
HETATM    9  C   UNL     1     -13.099   7.486  71.366  1.00  0.00    -0.373 C  
HETATM   10  C   UNL     1     -12.776   8.739  72.168  1.00  0.00    -0.461 C  
BRANCH   5  11
HETATM   11  C   UNL     1      -9.441   6.214  70.994  1.00  0.00    -0.187 C  
HETATM   12  O   UNL     1     -10.120   4.249  72.213  1.00  0.00    -0.172 OA 
HETATM   13  C   UNL     1      -9.829   4.764  71.140  1.00  0.00    -0.190 C  
HETATM   14  O   UNL     1      -9.824   4.069  69.983  1.00  0.00    -0.210 OA 
ENDBRANCH   5  11
ENDBRANCH   2   5
TORSDOF 2
ENDMDL
MODEL       92
REMARK 921   NORMALIZED FREE ENERGY PREDICTED BY IDOCK:   -3.25 KCAL/MOL
REMARK 922        TOTAL FREE ENERGY PREDICTED BY IDOCK:   -3.81 KCAL/MOL
REMARK 923 INTER-LIGAND FREE ENERGY PREDICTED BY IDOCK:   -3.65 KCAL/MOL
REMARK 924 INTRA-LIGAND FREE ENERGY PREDICTED BY IDOCK:   -0.16 KCAL/MOL
REMARK 927      BINDING AFFINITY PREDICTED BY RF-SCORE:    0.00 PKD
ROOT
HETATM    1  N   UNL     1     -11.821   6.635  69.723  1.00  0.00    -0.654 NA 
HETATM    2  C   UNL     1     -11.208   7.906  70.088  1.00  0.00    -0.152 C  
HETATM    3  H1  UNL     1     -12.147   6.575  68.758  1.00  0.00     0.000 HD 
HETATM    4  H2  UNL     1     -12.582   6.414  70.366  1.00  0.00     0.000 HD 
ENDROOT
BRANCH   2   5
HETATM    5  C   UNL     1     -10.710   7.998  71.565  1.00  0.00    -0.274 C  
HETATM    6  C   UNL     1      -9.687   9.174  71.661  1.00  0.00    -0.263 C  
HETATM    7  C   UNL     1     -10.009   6.692  72.023  1.00  0.00    -0.176 C  
HETATM    8  C   UNL     1      -8.674   6.429  71.323  1.00  0.00    -0.135 C  
HETATM    9  C   UNL     1      -8.341   8.903  70.990  1.00  0.00    -0.233 C  
HETATM   10  C   UNL     1      -7.719   7.605  71.487  1.00  0.00    -0.085 C  
BRANCH   5  11
HETATM   11  C   UNL     1     -11.868   8.352  72.539  1.00  0.00    -0.427 C  
HETATM   12  O   UNL     1     -12.969  10.436  72.040  1.00  0.00    -0.445 OA 
HETATM   13  C   UNL     1     -12.981   9.213  71.995  1.00  0.00    -0.424 C  
HETATM   14  O   UNL     1     -14.005   8.519  71.455  1.00  0.00    -0.382 OA 
ENDBRANCH   5  11
ENDBRANCH   2   5
TORSDOF 2
ENDMDL
MODEL       93
REMARK 921   NORMALIZED FREE ENERGY PREDICTED BY IDOCK:   -3.25 KCAL/MOL
REMARK 922        TOTAL FREE ENERGY PREDICTED BY IDOCK:   -3.81 KCAL/MOL
REMARK 923 INTER-LIGAND FREE ENERGY PREDICTED BY IDOCK:   -3.79 KCAL/MOL
REMARK 924 INTRA-LIGAND FREE ENERGY PREDICTED BY IDOCK:   -0.02 KCAL/MOL
REMARK 927      BINDING AFFINITY PREDICTED BY RF-SCORE:    0.00 PKD
ROOT
HETATM    1  N   UNL     1     -12.482  12.597  65.472  1.00  0.00    -0.648 NA 
HETATM    2  C   UNL     1     -12.218  13.837  66.189  1.00  0.00    -0.459 C  
HETATM    3  H1  UNL     1     -13.314  12.609  64.880  1.00  0.00     0.000 HD 
HETATM    4  H2  UNL     1     -12.527  11.815  66.126  1.00  0.00     0.000 HD 
ENDROOT
BRANCH   2   5
HETATM    5  C   UNL     1     -10.946  13.819  67.094  1.00  0.00    -0.299 C  
HETATM    6  C   UNL     1     -11.260  12.958  68.357  1.00  0.00    -0.305 C  
HETATM    7  C   UNL     1     -10.539  15.244  67.553  1.00  0.00    -0.273 C  
HETATM    8  C   UNL     1     -11.530  15.885  68.526  1.00  0.00    -0.377 C  
HETATM    9  C   UNL     1     -12.225  13.609  69.347  1.00  0.00    -0.307 C  
HETATM   10  C   UNL     1     -11.762  15.003  69.746  1.00  0.00    -0.341 C  
BRANCH   5  11
HETATM   11  C   UNL     1      -9.749  13.125  66.385  1.00  0.00    -0.269 C  
HETATM   12  O   UNL     1      -8.380  11.789  67.849  1.00  0.00    -0.134 OA 
HETATM   13  C   UNL     1      -9.249  11.836  66.989  1.00  0.00    -0.187 C  
HETATM   14  O   UNL     1      -9.838  10.727  66.495  1.00  0.00    -0.190 OA 
ENDBRANCH   5  11
ENDBRANCH   2   5
TORSDOF 2
ENDMDL
MODEL       94
REMARK 921   NORMALIZED FREE ENERGY PREDICTED BY IDOCK:   -3.22 KCAL/MOL
REMARK 922        TOTAL FREE ENERGY PREDICTED BY IDOCK:   -3.78 KCAL/MOL
REMARK 923 INTER-LIGAND FREE ENERGY PREDICTED BY IDOCK:   -3.67 KCAL/MOL
REMARK 924 INTRA-LIGAND FREE ENERGY PREDICTED BY IDOCK:   -0.12 KCAL/MOL
REMARK 927      BINDING AFFINITY PREDICTED BY RF-SCORE:    0.00 PKD
ROOT
HETATM    1  N   UNL     1     -11.184  16.577  70.078  1.00  0.00    -0.434 NA 
HETATM    2  C   UNL     1     -11.318  16.328  68.648  1.00  0.00    -0.333 C  
HETATM    3  H1  UNL     1     -11.989  16.300  70.641  1.00  0.00     0.000 HD 
HETATM    4  H2  UNL     1     -10.958  17.557  70.245  1.00  0.00     0.000 HD 
ENDROOT
BRANCH   2   5
HETATM    5  C   UNL     1     -10.086  16.751  67.787  1.00  0.00    -0.281 C  
HETATM    6  C   UNL     1     -10.195  16.042  66.400  1.00  0.00    -0.315 C  
HETATM    7  C   UNL     1      -8.745  16.340  68.451  1.00  0.00    -0.205 C  
HETATM    8  C   UNL     1      -8.515  14.828  68.492  1.00  0.00    -0.159 C  
HETATM    9  C   UNL     1      -9.935  14.537  66.433  1.00  0.00    -0.304 C  
HETATM   10  C   UNL     1      -8.606  14.212  67.102  1.00  0.00    -0.230 C  
BRANCH   5  11
HETATM   11  C   UNL     1     -10.090  18.277  67.494  1.00  0.00    -0.362 C  
HETATM   12  O   UNL     1     -10.024  19.657  69.468  1.00  0.00    -0.342 OA 
HETATM   13  C   UNL     1      -9.430  19.172  68.514  1.00  0.00    -0.389 C  
HETATM   14  O   UNL     1      -8.120  19.403  68.284  1.00  0.00    -0.313 OA 
ENDBRANCH   5  11
ENDBRANCH   2   5
TORSDOF 2
ENDMDL
MODEL       95
REMARK 921   NORMALIZED FREE ENERGY PREDICTED BY IDOCK:   -3.22 KCAL/MOL
REMARK 922        TOTAL FREE ENERGY PREDICTED BY IDOCK:   -3.78 KCAL/MOL
REMARK 923 INTER-LIGAND FREE ENERGY PREDICTED BY IDOCK:   -3.78 KCAL/MOL
REMARK 924 INTRA-LIGAND FREE ENERGY PREDICTED BY IDOCK:   -0.00 KCAL/MOL
REMARK 927      BINDING AFFINITY PREDICTED BY RF-SCORE:    0.00 PKD
ROOT
HETATM    1  N   UNL     1     -12.526  14.841  63.673  1.00  0.00    -1.051 NA 
HETATM    2  C   UNL     1     -11.196  14.678  64.245  1.00  0.00    -0.039 C  
HETATM    3  H1  UNL     1     -12.724  15.770  63.298  1.00  0.00     0.000 HD 
HETATM    4  H2  UNL     1     -13.238  14.578  64.355  1.00  0.00     0.000 HD 
ENDROOT
BRANCH   2   5
HETATM    5  C   UNL     1     -10.893  13.258  64.817  1.00  0.00    -0.374 C  
HETATM    6  C   UNL     1     -12.147  12.776  65.613  1.00  0.00    -0.514 C  
HETATM    7  C   UNL     1      -9.671  13.267  65.774  1.00  0.00    -0.149 C  
HETATM    8  C   UNL     1      -9.918  14.018  67.083  1.00  0.00    -0.252 C  
HETATM    9  C   UNL     1     -12.378  13.504  66.937  1.00  0.00    -0.289 C  
HETATM   10  C   UNL     1     -11.136  13.473  67.817  1.00  0.00    -0.291 C  
BRANCH   5  11
HETATM   11  C   UNL     1     -10.675  12.218  63.683  1.00  0.00    -0.513 C  
HETATM   12  O   UNL     1      -8.443  11.315  63.594  1.00  0.00     0.189 OA 
HETATM   13  C   UNL     1      -9.616  11.168  63.912  1.00  0.00    -0.254 C  
HETATM   14  O   UNL     1     -10.072  10.039  64.494  1.00  0.00    -0.243 OA 
ENDBRANCH   5  11
ENDBRANCH   2   5
TORSDOF 2
ENDMDL
MODEL       96
REMARK 921   NORMALIZED FREE ENERGY PREDICTED BY IDOCK:   -3.22 KCAL/MOL
REMARK 922        TOTAL FREE ENERGY PREDICTED BY IDOCK:   -3.78 KCAL/MOL
REMARK 923 INTER-LIGAND FREE ENERGY PREDICTED BY IDOCK:   -3.65 KCAL/MOL
REMARK 924 INTRA-LIGAND FREE ENERGY PREDICTED BY IDOCK:   -0.13 KCAL/MOL
REMARK 927      BINDING AFFINITY PREDICTED BY RF-SCORE:    0.00 PKD
ROOT
HETATM    1  N   UNL     1      -9.265   8.117  73.135  1.00  0.00    -0.273 NA 
HETATM    2  C   UNL     1     -10.473   7.360  73.436  1.00  0.00    -0.368 C  
HETATM    3  H1  UNL     1      -8.881   8.646  73.918  1.00  0.00     0.000 HD 
HETATM    4  H2  UNL     1      -9.425   8.733  72.338  1.00  0.00     0.000 HD 
ENDROOT
BRANCH   2   5
HETATM    5  C   UNL     1     -11.061   6.550  72.238  1.00  0.00    -0.297 C  
HETATM    6  C   UNL     1     -11.907   5.372  72.814  1.00  0.00    -0.162 C  
HETATM    7  C   UNL     1      -9.945   5.964  71.331  1.00  0.00    -0.228 C  
HETATM    8  C   UNL     1      -9.123   4.861  72.000  1.00  0.00    -0.156 C  
HETATM    9  C   UNL     1     -11.086   4.254  73.455  1.00  0.00    -0.377 C  
HETATM   10  C   UNL     1     -10.012   3.734  72.509  1.00  0.00    -0.228 C  
BRANCH   5  11
HETATM   11  C   UNL     1     -12.039   7.411  71.390  1.00  0.00    -0.357 C  
HETATM   12  O   UNL     1     -13.332   8.983  72.679  1.00  0.00    -0.458 OA 
HETATM   13  C   UNL     1     -12.389   8.777  71.926  1.00  0.00    -0.363 C  
HETATM   14  O   UNL     1     -11.575   9.765  71.500  1.00  0.00    -0.380 OA 
ENDBRANCH   5  11
ENDBRANCH   2   5
TORSDOF 2
ENDMDL
MODEL       97
REMARK 921   NORMALIZED FREE ENERGY PREDICTED BY IDOCK:   -3.21 KCAL/MOL
REMARK 922        TOTAL FREE ENERGY PREDICTED BY IDOCK:   -3.77 KCAL/MOL
REMARK 923 INTER-LIGAND FREE ENERGY PREDICTED BY IDOCK:   -3.60 KCAL/MOL
REMARK 924 INTRA-LIGAND FREE ENERGY PREDICTED BY IDOCK:   -0.18 KCAL/MOL
REMARK 927      BINDING AFFINITY PREDICTED BY RF-SCORE:    0.00 PKD
ROOT
HETATM    1  N   UNL     1     -13.003   7.058  70.979  1.00  0.00    -0.512 NA 
HETATM    2  C   UNL     1     -11.630   7.290  70.550  1.00  0.00    -0.258 C  
HETATM    3  H1  UNL     1     -13.520   6.377  70.422  1.00  0.00     0.000 HD 
HETATM    4  H2  UNL     1     -13.513   7.941  71.018  1.00  0.00     0.000 HD 
ENDROOT
BRANCH   2   5
HETATM    5  C   UNL     1     -10.839   8.331  71.403  1.00  0.00    -0.293 C  
HETATM    6  C   UNL     1     -11.590   9.698  71.322  1.00  0.00    -0.466 C  
HETATM    7  C   UNL     1      -9.391   8.529  70.880  1.00  0.00    -0.214 C  
HETATM    8  C   UNL     1      -9.316   9.214  69.514  1.00  0.00    -0.165 C  
HETATM    9  C   UNL     1     -11.491  10.399  69.968  1.00  0.00    -0.382 C  
HETATM   10  C   UNL     1     -10.043  10.552  69.521  1.00  0.00    -0.208 C  
BRANCH   5  11
HETATM   11  C   UNL     1     -10.814   7.940  72.906  1.00  0.00    -0.451 C  
HETATM   12  O   UNL     1     -11.119   5.585  73.313  1.00  0.00    -0.283 OA 
HETATM   13  C   UNL     1     -10.359   6.541  73.242  1.00  0.00    -0.241 C  
HETATM   14  O   UNL     1      -9.033   6.430  73.468  1.00  0.00    -0.124 OA 
ENDBRANCH   5  11
ENDBRANCH   2   5
TORSDOF 2
ENDMDL
MODEL       98
REMARK 921   NORMALIZED FREE ENERGY PREDICTED BY IDOCK:   -3.21 KCAL/MOL
REMARK 922        TOTAL FREE ENERGY PREDICTED BY IDOCK:   -3.77 KCAL/MOL
REMARK 923 INTER-LIGAND FREE ENERGY PREDICTED BY IDOCK:   -3.64 KCAL/MOL
REMARK 924 INTRA-LIGAND FREE ENERGY PREDICTED BY IDOCK:   -0.13 KCAL/MOL
REMARK 927      BINDING AFFINITY PREDICTED BY RF-SCORE:    0.00 PKD
ROOT
HETATM    1  N   UNL     1      -8.673   9.330  71.363  1.00  0.00    -0.302 NA 
HETATM    2  C   UNL     1      -9.115   9.661  70.015  1.00  0.00    -0.237 C  
HETATM    3  H1  UNL     1      -7.686   9.511  71.550  1.00  0.00     0.000 HD 
HETATM    4  H2  UNL     1      -8.901   8.360  71.581  1.00  0.00     0.000 HD 
ENDROOT
BRANCH   2   5
HETATM    5  C   UNL     1     -10.625   9.385  69.729  1.00  0.00    -0.247 C  
HETATM    6  C   UNL     1     -10.810   9.244  68.185  1.00  0.00    -0.145 C  
HETATM    7  C   UNL     1     -11.531  10.539  70.235  1.00  0.00    -0.416 C  
HETATM    8  C   UNL     1     -11.362  11.843  69.454  1.00  0.00    -0.327 C  
HETATM    9  C   UNL     1     -10.673  10.551  67.406  1.00  0.00    -0.334 C  
HETATM   10  C   UNL     1     -11.588  11.634  67.963  1.00  0.00    -0.383 C  
BRANCH   5  11
HETATM   11  C   UNL     1     -11.087   8.035  70.345  1.00  0.00    -0.238 C  
HETATM   12  O   UNL     1     -11.331   8.081  72.741  1.00  0.00    -0.394 OA 
HETATM   13  C   UNL     1     -11.861   8.102  71.638  1.00  0.00    -0.292 C  
HETATM   14  O   UNL     1     -13.199   8.180  71.480  1.00  0.00    -0.322 OA 
ENDBRANCH   5  11
ENDBRANCH   2   5
TORSDOF 2
ENDMDL
MODEL       99
REMARK 921   NORMALIZED FREE ENERGY PREDICTED BY IDOCK:   -3.18 KCAL/MOL
REMARK 922        TOTAL FREE ENERGY PREDICTED BY IDOCK:   -3.73 KCAL/MOL
REMARK 923 INTER-LIGAND FREE ENERGY PREDICTED BY IDOCK:   -3.64 KCAL/MOL
REMARK 924 INTRA-LIGAND FREE ENERGY PREDICTED BY IDOCK:   -0.09 KCAL/MOL
REMARK 927      BINDING AFFINITY PREDICTED BY RF-SCORE:    0.00 PKD
ROOT
HETATM    1  N   UNL     1      -8.278  10.597  69.622  1.00  0.00    -0.382 NA 
HETATM    2  C   UNL     1      -8.700   9.220  69.405  1.00  0.00    -0.148 C  
HETATM    3  H1  UNL     1      -7.281  10.720  69.802  1.00  0.00     0.000 HD 
HETATM    4  H2  UNL     1      -8.826  11.020  70.372  1.00  0.00     0.000 HD 
ENDROOT
BRANCH   2   5
HETATM    5  C   UNL     1     -10.225   9.033  69.129  1.00  0.00    -0.213 C  
HETATM    6  C   UNL     1     -11.017   9.877  70.177  1.00  0.00    -0.356 C  
HETATM    7  C   UNL     1     -10.660   7.549  69.256  1.00  0.00    -0.215 C  
HETATM    8  C   UNL     1     -10.595   7.007  70.685  1.00  0.00    -0.246 C  
HETATM    9  C   UNL     1     -10.980   9.321  71.600  1.00  0.00    -0.433 C  
HETATM   10  C   UNL     1     -11.415   7.862  71.642  1.00  0.00    -0.304 C  
BRANCH   5  11
HETATM   11  C   UNL     1     -10.626   9.589  67.734  1.00  0.00    -0.318 C  
HETATM   12  O   UNL     1     -12.193  11.418  67.820  1.00  0.00    -0.537 OA 
HETATM   13  C   UNL     1     -11.039  11.039  67.668  1.00  0.00    -0.300 C  
HETATM   14  O   UNL     1     -10.024  11.893  67.418  1.00  0.00    -0.188 OA 
ENDBRANCH   5  11
ENDBRANCH   2   5
TORSDOF 2
ENDMDL
MODEL      100
REMARK 921   NORMALIZED FREE ENERGY PREDICTED BY IDOCK:   -3.17 KCAL/MOL
REMARK 922        TOTAL FREE ENERGY PREDICTED BY IDOCK:   -3.72 KCAL/MOL
REMARK 923 INTER-LIGAND FREE ENERGY PREDICTED BY IDOCK:   -3.72 KCAL/MOL
REMARK 924 INTRA-LIGAND FREE ENERGY PREDICTED BY IDOCK:   -0.00 KCAL/MOL
REMARK 927      BINDING AFFINITY PREDICTED BY RF-SCORE:    0.00 PKD
ROOT
HETATM    1  N   UNL     1     -11.022   8.250  68.442  1.00  0.00    -0.425 NA 
HETATM    2  C   UNL     1     -11.134   7.849  69.838  1.00  0.00    -0.120 C  
HETATM    3  H1  UNL     1     -11.256   7.523  67.765  1.00  0.00     0.000 HD 
HETATM    4  H2  UNL     1     -10.089   8.618  68.255  1.00  0.00     0.000 HD 
ENDROOT
BRANCH   2   5
HETATM    5  C   UNL     1     -10.775   8.960  70.875  1.00  0.00    -0.292 C  
HETATM    6  C   UNL     1     -11.400   8.564  72.249  1.00  0.00    -0.441 C  
HETATM    7  C   UNL     1     -11.335  10.346  70.456  1.00  0.00    -0.424 C  
HETATM    8  C   UNL     1     -12.861  10.436  70.508  1.00  0.00    -0.326 C  
HETATM    9  C   UNL     1     -12.922   8.684  72.315  1.00  0.00    -0.430 C  
HETATM   10  C   UNL     1     -13.394  10.066  71.886  1.00  0.00    -0.516 C  
BRANCH   5  11
HETATM   11  C   UNL     1      -9.242   9.053  71.107  1.00  0.00    -0.326 C  
HETATM   12  O   UNL     1      -7.918   8.286  69.246  1.00  0.00    -0.110 OA 
HETATM   13  C   UNL     1      -8.373   9.225  69.886  1.00  0.00    -0.156 C  
HETATM   14  O   UNL     1      -8.130  10.510  69.555  1.00  0.00    -0.154 OA 
ENDBRANCH   5  11
ENDBRANCH   2   5
TORSDOF 2
ENDMDL
MODEL      101
REMARK 921   NORMALIZED FREE ENERGY PREDICTED BY IDOCK:   -3.14 KCAL/MOL
REMARK 922        TOTAL FREE ENERGY PREDICTED BY IDOCK:   -3.69 KCAL/MOL
REMARK 923 INTER-LIGAND FREE ENERGY PREDICTED BY IDOCK:   -3.72 KCAL/MOL
REMARK 924 INTRA-LIGAND FREE ENERGY PREDICTED BY IDOCK:    0.03 KCAL/MOL
REMARK 927      BINDING AFFINITY PREDICTED BY RF-SCORE:    0.00 PKD
ROOT
HETATM    1  N   UNL     1     -11.970  10.812  68.198  1.00  0.00    -0.801 NA 
HETATM    2  C   UNL     1     -11.543  12.169  67.887  1.00  0.00    -0.347 C  
HETATM    3  H1  UNL     1     -12.609  10.731  68.989  1.00  0.00     0.000 HD 
HETATM    4  H2  UNL     1     -11.157  10.211  68.339  1.00  0.00     0.000 HD 
ENDROOT
BRANCH   2   5
HETATM    5  C   UNL     1     -10.564  12.292  66.676  1.00  0.00    -0.257 C  
HETATM    6  C   UNL     1      -9.693  13.571  66.882  1.00  0.00    -0.261 C  
HETATM    7  C   UNL     1     -11.323  12.420  65.328  1.00  0.00    -0.374 C  
HETATM    8  C   UNL     1     -12.083  13.738  65.171  1.00  0.00    -0.416 C  
HETATM    9  C   UNL     1     -10.443  14.889  66.695  1.00  0.00    -0.292 C  
HETATM   10  C   UNL     1     -11.163  14.938  65.354  1.00  0.00    -0.359 C  
BRANCH   5  11
HETATM   11  C   UNL     1      -9.572  11.098  66.619  1.00  0.00    -0.215 C  
HETATM   12  O   UNL     1      -7.270  11.716  66.969  1.00  0.00    -0.135 OA 
HETATM   13  C   UNL     1      -8.298  11.227  67.417  1.00  0.00    -0.137 C  
HETATM   14  O   UNL     1      -8.383  10.748  68.677  1.00  0.00    -0.126 OA 
ENDBRANCH   5  11
ENDBRANCH   2   5
TORSDOF 2
ENDMDL
MODEL      102
REMARK 921   NORMALIZED FREE ENERGY PREDICTED BY IDOCK:   -3.14 KCAL/MOL
REMARK 922        TOTAL FREE ENERGY PREDICTED BY IDOCK:   -3.69 KCAL/MOL
REMARK 923 INTER-LIGAND FREE ENERGY PREDICTED BY IDOCK:   -3.59 KCAL/MOL
REMARK 924 INTRA-LIGAND FREE ENERGY PREDICTED BY IDOCK:   -0.10 KCAL/MOL
REMARK 927      BINDING AFFINITY PREDICTED BY RF-SCORE:    0.00 PKD
ROOT
HETATM    1  N   UNL     1      -8.676  11.772  68.638  1.00  0.00    -0.325 NA 
HETATM    2  C   UNL     1      -8.410  10.960  67.457  1.00  0.00    -0.117 C  
HETATM    3  H1  UNL     1      -7.865  11.948  69.231  1.00  0.00     0.000 HD 
HETATM    4  H2  UNL     1      -9.431  11.359  69.186  1.00  0.00     0.000 HD 
ENDROOT
BRANCH   2   5
HETATM    5  C   UNL     1      -9.651  10.690  66.549  1.00  0.00    -0.218 C  
HETATM    6  C   UNL     1     -10.854  10.311  67.468  1.00  0.00    -0.355 C  
HETATM    7  C   UNL     1      -9.399   9.527  65.554  1.00  0.00    -0.317 C  
HETATM    8  C   UNL     1      -9.276   8.157  66.224  1.00  0.00    -0.245 C  
HETATM    9  C   UNL     1     -10.749   8.930  68.114  1.00  0.00    -0.148 C  
HETATM   10  C   UNL     1     -10.498   7.843  67.078  1.00  0.00    -0.419 C  
BRANCH   5  11
HETATM   11  C   UNL     1     -10.083  11.968  65.776  1.00  0.00    -0.267 C  
HETATM   12  O   UNL     1     -12.388  12.585  66.112  1.00  0.00    -0.596 OA 
HETATM   13  C   UNL     1     -11.208  12.779  66.371  1.00  0.00    -0.299 C  
HETATM   14  O   UNL     1     -10.803  13.752  67.215  1.00  0.00    -0.280 OA 
ENDBRANCH   5  11
ENDBRANCH   2   5
TORSDOF 2
ENDMDL
MODEL      103
REMARK 921   NORMALIZED FREE ENERGY PREDICTED BY IDOCK:   -3.13 KCAL/MOL
REMARK 922        TOTAL FREE ENERGY PREDICTED BY IDOCK:   -3.69 KCAL/MOL
REMARK 923 INTER-LIGAND FREE ENERGY PREDICTED BY IDOCK:   -3.81 KCAL/MOL
REMARK 924 INTRA-LIGAND FREE ENERGY PREDICTED BY IDOCK:    0.12 KCAL/MOL
REMARK 927      BINDING AFFINITY PREDICTED BY RF-SCORE:    0.00 PKD
ROOT
HETATM    1  N   UNL     1      -7.806  17.404  68.694  1.00  0.00    -0.271 NA 
HETATM    2  C   UNL     1      -8.488  16.521  67.757  1.00  0.00    -0.175 C  
HETATM    3  H1  UNL     1      -6.850  17.131  68.926  1.00  0.00     0.000 HD 
HETATM    4  H2  UNL     1      -8.359  17.508  69.545  1.00  0.00     0.000 HD 
ENDROOT
BRANCH   2   5
HETATM    5  C   UNL     1      -9.950  16.938  67.402  1.00  0.00    -0.269 C  
HETATM    6  C   UNL     1     -10.629  17.483  68.697  1.00  0.00    -0.288 C  
HETATM    7  C   UNL     1     -10.782  15.740  66.872  1.00  0.00    -0.299 C  
HETATM    8  C   UNL     1     -11.074  14.675  67.931  1.00  0.00    -0.301 C  
HETATM    9  C   UNL     1     -10.950  16.418  69.744  1.00  0.00    -0.341 C  
HETATM   10  C   UNL     1     -11.763  15.276  69.149  1.00  0.00    -0.355 C  
BRANCH   5  11
HETATM   11  C   UNL     1      -9.980  18.103  66.375  1.00  0.00    -0.376 C  
HETATM   12  O   UNL     1      -8.881  20.109  67.133  1.00  0.00    -0.329 OA 
HETATM   13  C   UNL     1      -8.850  19.101  66.439  1.00  0.00    -0.338 C  
HETATM   14  O   UNL     1      -7.794  18.795  65.656  1.00  0.00    -0.465 OA 
ENDBRANCH   5  11
ENDBRANCH   2   5
TORSDOF 2
ENDMDL
MODEL      104
REMARK 921   NORMALIZED FREE ENERGY PREDICTED BY IDOCK:   -3.11 KCAL/MOL
REMARK 922        TOTAL FREE ENERGY PREDICTED BY IDOCK:   -3.66 KCAL/MOL
REMARK 923 INTER-LIGAND FREE ENERGY PREDICTED BY IDOCK:   -3.53 KCAL/MOL
REMARK 924 INTRA-LIGAND FREE ENERGY PREDICTED BY IDOCK:   -0.13 KCAL/MOL
REMARK 927      BINDING AFFINITY PREDICTED BY RF-SCORE:    0.00 PKD
ROOT
HETATM    1  N   UNL     1     -11.522   6.592  67.650  1.00  0.00    -0.685 NA 
HETATM    2  C   UNL     1     -10.817   6.060  68.809  1.00  0.00    -0.322 C  
HETATM    3  H1  UNL     1     -11.785   5.899  66.949  1.00  0.00     0.000 HD 
HETATM    4  H2  UNL     1     -10.977   7.340  67.219  1.00  0.00     0.000 HD 
ENDROOT
BRANCH   2   5
HETATM    5  C   UNL     1     -10.414   7.121  69.881  1.00  0.00    -0.237 C  
HETATM    6  C   UNL     1      -9.462   6.436  70.911  1.00  0.00    -0.185 C  
HETATM    7  C   UNL     1     -11.649   7.676  70.639  1.00  0.00    -0.251 C  
HETATM    8  C   UNL     1     -12.330   6.648  71.546  1.00  0.00    -0.365 C  
HETATM    9  C   UNL     1     -10.145   5.431  71.838  1.00  0.00    -0.246 C  
HETATM   10  C   UNL     1     -11.347   6.047  72.542  1.00  0.00    -0.344 C  
BRANCH   5  11
HETATM   11  C   UNL     1      -9.604   8.289  69.254  1.00  0.00    -0.164 C  
HETATM   12  O   UNL     1     -10.884   9.684  67.764  1.00  0.00    -0.270 OA 
HETATM   13  C   UNL     1     -10.375   9.527  68.866  1.00  0.00    -0.208 C  
HETATM   14  O   UNL     1     -10.455  10.459  69.839  1.00  0.00    -0.255 OA 
ENDBRANCH   5  11
ENDBRANCH   2   5
TORSDOF 2
ENDMDL
MODEL      105
REMARK 921   NORMALIZED FREE ENERGY PREDICTED BY IDOCK:   -3.11 KCAL/MOL
REMARK 922        TOTAL FREE ENERGY PREDICTED BY IDOCK:   -3.66 KCAL/MOL
REMARK 923 INTER-LIGAND FREE ENERGY PREDICTED BY IDOCK:   -3.46 KCAL/MOL
REMARK 924 INTRA-LIGAND FREE ENERGY PREDICTED BY IDOCK:   -0.19 KCAL/MOL
REMARK 927      BINDING AFFINITY PREDICTED BY RF-SCORE:    0.00 PKD
ROOT
HETATM    1  N   UNL     1     -12.528  10.617  69.145  1.00  0.00    -0.737 NA 
HETATM    2  C   UNL     1     -11.507  10.379  70.157  1.00  0.00    -0.319 C  
HETATM    3  H1  UNL     1     -12.917  11.560  69.137  1.00  0.00     0.000 HD 
HETATM    4  H2  UNL     1     -13.277   9.928  69.231  1.00  0.00     0.000 HD 
ENDROOT
BRANCH   2   5
HETATM    5  C   UNL     1     -10.913   8.936  70.169  1.00  0.00    -0.245 C  
HETATM    6  C   UNL     1      -9.568   8.969  70.961  1.00  0.00    -0.348 C  
HETATM    7  C   UNL     1     -10.632   8.413  68.735  1.00  0.00    -0.154 C  
HETATM    8  C   UNL     1      -9.495   9.147  68.022  1.00  0.00    -0.157 C  
HETATM    9  C   UNL     1      -8.421   9.675  70.238  1.00  0.00    -0.221 C  
HETATM   10  C   UNL     1      -8.210   9.111  68.839  1.00  0.00    -0.112 C  
BRANCH   5  11
HETATM   11  C   UNL     1     -11.836   7.943  70.927  1.00  0.00    -0.242 C  
HETATM   12  O   UNL     1     -12.686   8.791  73.016  1.00  0.00    -0.249 OA 
HETATM   13  C   UNL     1     -12.884   8.539  71.835  1.00  0.00    -0.363 C  
HETATM   14  O   UNL     1     -14.072   8.767  71.236  1.00  0.00    -0.317 OA 
ENDBRANCH   5  11
ENDBRANCH   2   5
TORSDOF 2
ENDMDL
MODEL      106
REMARK 921   NORMALIZED FREE ENERGY PREDICTED BY IDOCK:   -3.06 KCAL/MOL
REMARK 922        TOTAL FREE ENERGY PREDICTED BY IDOCK:   -3.60 KCAL/MOL
REMARK 923 INTER-LIGAND FREE ENERGY PREDICTED BY IDOCK:   -3.71 KCAL/MOL
REMARK 924 INTRA-LIGAND FREE ENERGY PREDICTED BY IDOCK:    0.11 KCAL/MOL
REMARK 927      BINDING AFFINITY PREDICTED BY RF-SCORE:    0.00 PKD
ROOT
HETATM    1  N   UNL     1      -5.946  17.893  67.413  1.00  0.00    -0.145 NA 
HETATM    2  C   UNL     1      -7.234  17.823  68.091  1.00  0.00    -0.225 C  
HETATM    3  H1  UNL     1      -5.135  17.941  68.031  1.00  0.00     0.000 HD 
HETATM    4  H2  UNL     1      -5.935  18.675  66.757  1.00  0.00     0.000 HD 
ENDROOT
BRANCH   2   5
HETATM    5  C   UNL     1      -8.474  17.750  67.145  1.00  0.00    -0.239 C  
HETATM    6  C   UNL     1      -9.761  17.743  68.029  1.00  0.00    -0.304 C  
HETATM    7  C   UNL     1      -8.463  16.467  66.273  1.00  0.00    -0.372 C  
HETATM    8  C   UNL     1      -8.679  15.178  67.068  1.00  0.00    -0.264 C  
HETATM    9  C   UNL     1      -9.995  16.445  68.801  1.00  0.00    -0.246 C  
HETATM   10  C   UNL     1      -9.966  15.233  67.880  1.00  0.00    -0.228 C  
BRANCH   5  11
HETATM   11  C   UNL     1      -8.578  19.009  66.240  1.00  0.00    -0.281 C  
HETATM   12  O   UNL     1     -10.838  19.648  65.702  1.00  0.00    -0.473 OA 
HETATM   13  C   UNL     1      -9.830  19.842  66.368  1.00  0.00    -0.459 C  
HETATM   14  O   UNL     1      -9.745  20.834  67.279  1.00  0.00    -0.479 OA 
ENDBRANCH   5  11
ENDBRANCH   2   5
TORSDOF 2
ENDMDL
MODEL      107
REMARK 921   NORMALIZED FREE ENERGY PREDICTED BY IDOCK:   -3.05 KCAL/MOL
REMARK 922        TOTAL FREE ENERGY PREDICTED BY IDOCK:   -3.59 KCAL/MOL
REMARK 923 INTER-LIGAND FREE ENERGY PREDICTED BY IDOCK:   -3.46 KCAL/MOL
REMARK 924 INTRA-LIGAND FREE ENERGY PREDICTED BY IDOCK:   -0.13 KCAL/MOL
REMARK 927      BINDING AFFINITY PREDICTED BY RF-SCORE:    0.00 PKD
ROOT
HETATM    1  N   UNL     1      -9.258  11.926  63.175  1.00  0.00    -0.661 NA 
HETATM    2  C   UNL     1     -10.505  12.010  63.925  1.00  0.00    -0.402 C  
HETATM    3  H1  UNL     1      -9.332  12.167  62.186  1.00  0.00     0.000 HD 
HETATM    4  H2  UNL     1      -8.844  11.000  63.282  1.00  0.00     0.000 HD 
ENDROOT
BRANCH   2   5
HETATM    5  C   UNL     1     -10.391  11.643  65.438  1.00  0.00    -0.313 C  
HETATM    6  C   UNL     1     -11.757  11.965  66.121  1.00  0.00    -0.217 C  
HETATM    7  C   UNL     1      -9.276  12.453  66.149  1.00  0.00    -0.103 C  
HETATM    8  C   UNL     1      -9.583  13.947  66.276  1.00  0.00    -0.274 C  
HETATM    9  C   UNL     1     -12.053  13.456  66.277  1.00  0.00    -0.475 C  
HETATM   10  C   UNL     1     -10.914  14.183  66.979  1.00  0.00    -0.303 C  
BRANCH   5  11
HETATM   11  C   UNL     1     -10.156  10.120  65.641  1.00  0.00    -0.324 C  
HETATM   12  O   UNL     1      -8.178   9.278  64.552  1.00  0.00    -0.133 OA 
HETATM   13  C   UNL     1      -8.728   9.635  65.586  1.00  0.00    -0.141 C  
HETATM   14  O   UNL     1      -8.102   9.618  66.781  1.00  0.00    -0.112 OA 
ENDBRANCH   5  11
ENDBRANCH   2   5
TORSDOF 2
ENDMDL
MODEL      108
REMARK 921   NORMALIZED FREE ENERGY PREDICTED BY IDOCK:   -3.04 KCAL/MOL
REMARK 922        TOTAL FREE ENERGY PREDICTED BY IDOCK:   -3.58 KCAL/MOL
REMARK 923 INTER-LIGAND FREE ENERGY PREDICTED BY IDOCK:   -3.48 KCAL/MOL
REMARK 924 INTRA-LIGAND FREE ENERGY PREDICTED BY IDOCK:   -0.10 KCAL/MOL
REMARK 927      BINDING AFFINITY PREDICTED BY RF-SCORE:    0.00 PKD
ROOT
HETATM    1  N   UNL     1     -12.364  10.506  69.196  1.00  0.00    -0.749 NA 
HETATM    2  C   UNL     1     -11.156  10.620  68.390  1.00  0.00    -0.272 C  
HETATM    3  H1  UNL     1     -13.115  11.149  68.942  1.00  0.00     0.000 HD 
HETATM    4  H2  UNL     1     -12.138  10.604  70.187  1.00  0.00     0.000 HD 
ENDROOT
BRANCH   2   5
HETATM    5  C   UNL     1     -10.008   9.637  68.779  1.00  0.00    -0.184 C  
HETATM    6  C   UNL     1      -8.746  10.005  67.937  1.00  0.00    -0.125 C  
HETATM    7  C   UNL     1     -10.385   8.160  68.489  1.00  0.00    -0.230 C  
HETATM    8  C   UNL     1     -10.501   7.834  66.999  1.00  0.00    -0.419 C  
HETATM    9  C   UNL     1      -8.846   9.651  66.454  1.00  0.00    -0.168 C  
HETATM   10  C   UNL     1      -9.223   8.190  66.250  1.00  0.00    -0.245 C  
BRANCH   5  11
HETATM   11  C   UNL     1      -9.596   9.800  70.269  1.00  0.00    -0.264 C  
HETATM   12  O   UNL     1     -11.347   9.268  71.836  1.00  0.00    -0.374 OA 
HETATM   13  C   UNL     1     -10.311   8.933  71.275  1.00  0.00    -0.285 C  
HETATM   14  O   UNL     1      -9.708   7.750  71.517  1.00  0.00    -0.160 OA 
ENDBRANCH   5  11
ENDBRANCH   2   5
TORSDOF 2
ENDMDL
MODEL      109
REMARK 921   NORMALIZED FREE ENERGY PREDICTED BY IDOCK:   -3.04 KCAL/MOL
REMARK 922        TOTAL FREE ENERGY PREDICTED BY IDOCK:   -3.57 KCAL/MOL
REMARK 923 INTER-LIGAND FREE ENERGY PREDICTED BY IDOCK:   -3.50 KCAL/MOL
REMARK 924 INTRA-LIGAND FREE ENERGY PREDICTED BY IDOCK:   -0.07 KCAL/MOL
REMARK 927      BINDING AFFINITY PREDICTED BY RF-SCORE:    0.00 PKD
ROOT
HETATM    1  N   UNL     1     -10.225  14.060  64.801  1.00  0.00    -0.565 NA 
HETATM    2  C   UNL     1     -10.116  14.778  66.065  1.00  0.00    -0.308 C  
HETATM    3  H1  UNL     1      -9.917  14.583  63.981  1.00  0.00     0.000 HD 
HETATM    4  H2  UNL     1     -11.179  13.725  64.668  1.00  0.00     0.000 HD 
ENDROOT
BRANCH   2   5
HETATM    5  C   UNL     1     -10.587  13.979  67.320  1.00  0.00    -0.273 C  
HETATM    6  C   UNL     1     -11.723  14.791  68.017  1.00  0.00    -0.360 C  
HETATM    7  C   UNL     1      -9.434  13.764  68.337  1.00  0.00    -0.198 C  
HETATM    8  C   UNL     1      -8.966  15.051  69.020  1.00  0.00    -0.205 C  
HETATM    9  C   UNL     1     -11.254  16.061  68.727  1.00  0.00    -0.360 C  
HETATM   10  C   UNL     1     -10.121  15.771  69.703  1.00  0.00    -0.289 C  
BRANCH   5  11
HETATM   11  C   UNL     1     -11.213  12.612  66.927  1.00  0.00    -0.348 C  
HETATM   12  O   UNL     1      -9.690  11.122  65.800  1.00  0.00    -0.206 OA 
HETATM   13  C   UNL     1     -10.276  11.433  66.829  1.00  0.00    -0.223 C  
HETATM   14  O   UNL     1     -10.139  10.736  67.977  1.00  0.00    -0.169 OA 
ENDBRANCH   5  11
ENDBRANCH   2   5
TORSDOF 2
ENDMDL
MODEL      110
REMARK 921   NORMALIZED FREE ENERGY PREDICTED BY IDOCK:   -2.99 KCAL/MOL
REMARK 922        TOTAL FREE ENERGY PREDICTED BY IDOCK:   -3.52 KCAL/MOL
REMARK 923 INTER-LIGAND FREE ENERGY PREDICTED BY IDOCK:   -3.54 KCAL/MOL
REMARK 924 INTRA-LIGAND FREE ENERGY PREDICTED BY IDOCK:    0.02 KCAL/MOL
REMARK 927      BINDING AFFINITY PREDICTED BY RF-SCORE:    0.00 PKD
ROOT
HETATM    1  N   UNL     1      -7.273  17.153  68.893  1.00  0.00    -0.236 NA 
HETATM    2  C   UNL     1      -7.812  18.500  68.764  1.00  0.00    -0.275 C  
HETATM    3  H1  UNL     1      -7.361  16.740  69.823  1.00  0.00     0.000 HD 
HETATM    4  H2  UNL     1      -6.299  17.133  68.590  1.00  0.00     0.000 HD 
ENDROOT
BRANCH   2   5
HETATM    5  C   UNL     1      -7.678  19.132  67.343  1.00  0.00    -0.261 C  
HETATM    6  C   UNL     1      -8.641  20.357  67.261  1.00  0.00    -0.414 C  
HETATM    7  C   UNL     1      -8.056  18.126  66.223  1.00  0.00    -0.254 C  
HETATM    8  C   UNL     1      -9.542  17.763  66.197  1.00  0.00    -0.202 C  
HETATM    9  C   UNL     1     -10.125  19.996  67.203  1.00  0.00    -0.587 C  
HETATM   10  C   UNL     1     -10.417  19.004  66.085  1.00  0.00    -0.541 C  
BRANCH   5  11
HETATM   11  C   UNL     1      -6.248  19.689  67.098  1.00  0.00    -0.196 C  
HETATM   12  O   UNL     1      -5.256  18.971  65.023  1.00  0.00    -0.152 OA 
HETATM   13  C   UNL     1      -5.814  19.853  65.662  1.00  0.00    -0.173 C  
HETATM   14  O   UNL     1      -6.087  21.065  65.135  1.00  0.00    -0.251 OA 
ENDBRANCH   5  11
ENDBRANCH   2   5
TORSDOF 2
ENDMDL
MODEL      111
REMARK 921   NORMALIZED FREE ENERGY PREDICTED BY IDOCK:   -2.98 KCAL/MOL
REMARK 922        TOTAL FREE ENERGY PREDICTED BY IDOCK:   -3.51 KCAL/MOL
REMARK 923 INTER-LIGAND FREE ENERGY PREDICTED BY IDOCK:   -3.47 KCAL/MOL
REMARK 924 INTRA-LIGAND FREE ENERGY PREDICTED BY IDOCK:   -0.04 KCAL/MOL
REMARK 927      BINDING AFFINITY PREDICTED BY RF-SCORE:    0.00 PKD
ROOT
HETATM    1  N   UNL     1      -8.162   9.860  70.428  1.00  0.00    -0.369 NA 
HETATM    2  C   UNL     1      -8.707   9.602  69.102  1.00  0.00    -0.151 C  
HETATM    3  H1  UNL     1      -7.146   9.950  70.467  1.00  0.00     0.000 HD 
HETATM    4  H2  UNL     1      -8.477   9.143  71.083  1.00  0.00     0.000 HD 
ENDROOT
BRANCH   2   5
HETATM    5  C   UNL     1     -10.261   9.463  69.043  1.00  0.00    -0.216 C  
HETATM    6  C   UNL     1     -10.693   8.376  70.076  1.00  0.00    -0.236 C  
HETATM    7  C   UNL     1     -10.752   9.033  67.635  1.00  0.00    -0.232 C  
HETATM    8  C   UNL     1     -10.357   7.605  67.254  1.00  0.00    -0.367 C  
HETATM    9  C   UNL     1     -10.328   6.945  69.683  1.00  0.00    -0.224 C  
HETATM   10  C   UNL     1     -10.838   6.599  68.291  1.00  0.00    -0.322 C  
BRANCH   5  11
HETATM   11  C   UNL     1     -10.970  10.777  69.476  1.00  0.00    -0.317 C  
HETATM   12  O   UNL     1     -10.147  12.750  68.365  1.00  0.00    -0.232 OA 
HETATM   13  C   UNL     1     -11.018  11.895  68.464  1.00  0.00    -0.235 C  
HETATM   14  O   UNL     1     -12.111  11.882  67.674  1.00  0.00    -0.568 OA 
ENDBRANCH   5  11
ENDBRANCH   2   5
TORSDOF 2
ENDMDL
MODEL      112
REMARK 921   NORMALIZED FREE ENERGY PREDICTED BY IDOCK:   -2.97 KCAL/MOL
REMARK 922        TOTAL FREE ENERGY PREDICTED BY IDOCK:   -3.50 KCAL/MOL
REMARK 923 INTER-LIGAND FREE ENERGY PREDICTED BY IDOCK:   -3.45 KCAL/MOL
REMARK 924 INTRA-LIGAND FREE ENERGY PREDICTED BY IDOCK:   -0.06 KCAL/MOL
REMARK 927      BINDING AFFINITY PREDICTED BY RF-SCORE:    0.00 PKD
ROOT
HETATM    1  N   UNL     1      -9.338  15.117  69.866  1.00  0.00    -0.457 NA 
HETATM    2  C   UNL     1      -8.477  15.736  68.867  1.00  0.00    -0.218 C  
HETATM    3  H1  UNL     1      -8.852  14.736  70.679  1.00  0.00     0.000 HD 
HETATM    4  H2  UNL     1      -9.919  14.398  69.434  1.00  0.00     0.000 HD 
ENDROOT
BRANCH   2   5
HETATM    5  C   UNL     1      -9.221  16.319  67.624  1.00  0.00    -0.206 C  
HETATM    6  C   UNL     1      -8.329  17.440  67.004  1.00  0.00    -0.239 C  
HETATM    7  C   UNL     1     -10.595  16.931  68.006  1.00  0.00    -0.367 C  
HETATM    8  C   UNL     1     -10.492  18.199  68.854  1.00  0.00    -0.080 C  
HETATM    9  C   UNL     1      -8.249  18.721  67.835  1.00  0.00    -0.293 C  
HETATM   10  C   UNL     1      -9.634  19.257  68.172  1.00  0.00    -0.423 C  
BRANCH   5  11
HETATM   11  C   UNL     1      -9.404  15.248  66.513  1.00  0.00    -0.309 C  
HETATM   12  O   UNL     1     -10.055  13.079  67.336  1.00  0.00    -0.227 OA 
HETATM   13  C   UNL     1     -10.376  14.129  66.794  1.00  0.00    -0.274 C  
HETATM   14  O   UNL     1     -11.639  14.377  66.389  1.00  0.00    -0.354 OA 
ENDBRANCH   5  11
ENDBRANCH   2   5
TORSDOF 2
ENDMDL
MODEL      113
REMARK 921   NORMALIZED FREE ENERGY PREDICTED BY IDOCK:   -2.96 KCAL/MOL
REMARK 922        TOTAL FREE ENERGY PREDICTED BY IDOCK:   -3.49 KCAL/MOL
REMARK 923 INTER-LIGAND FREE ENERGY PREDICTED BY IDOCK:   -3.30 KCAL/MOL
REMARK 924 INTRA-LIGAND FREE ENERGY PREDICTED BY IDOCK:   -0.18 KCAL/MOL
REMARK 927      BINDING AFFINITY PREDICTED BY RF-SCORE:    0.00 PKD
ROOT
HETATM    1  N   UNL     1     -10.087  10.411  69.964  1.00  0.00    -0.436 NA 
HETATM    2  C   UNL     1      -9.538  11.121  68.816  1.00  0.00    -0.172 C  
HETATM    3  H1  UNL     1      -9.456  10.327  70.762  1.00  0.00     0.000 HD 
HETATM    4  H2  UNL     1     -10.422   9.490  69.682  1.00  0.00     0.000 HD 
ENDROOT
BRANCH   2   5
HETATM    5  C   UNL     1     -10.504  11.249  67.596  1.00  0.00    -0.225 C  
HETATM    6  C   UNL     1     -10.910   9.812  67.143  1.00  0.00    -0.207 C  
HETATM    7  C   UNL     1      -9.834  11.976  66.400  1.00  0.00    -0.238 C  
HETATM    8  C   UNL     1      -8.707  11.175  65.745  1.00  0.00    -0.153 C  
HETATM    9  C   UNL     1      -9.795   9.021  66.460  1.00  0.00    -0.338 C  
HETATM   10  C   UNL     1      -9.185   9.799  65.302  1.00  0.00    -0.294 C  
BRANCH   5  11
HETATM   11  C   UNL     1     -11.825  11.969  67.985  1.00  0.00    -0.338 C  
HETATM   12  O   UNL     1     -11.643  13.366  69.940  1.00  0.00    -0.267 OA 
HETATM   13  C   UNL     1     -11.699  13.281  68.720  1.00  0.00    -0.329 C  
HETATM   14  O   UNL     1     -11.659  14.365  67.917  1.00  0.00    -0.309 OA 
ENDBRANCH   5  11
ENDBRANCH   2   5
TORSDOF 2
ENDMDL
MODEL      114
REMARK 921   NORMALIZED FREE ENERGY PREDICTED BY IDOCK:   -2.95 KCAL/MOL
REMARK 922        TOTAL FREE ENERGY PREDICTED BY IDOCK:   -3.48 KCAL/MOL
REMARK 923 INTER-LIGAND FREE ENERGY PREDICTED BY IDOCK:   -3.44 KCAL/MOL
REMARK 924 INTRA-LIGAND FREE ENERGY PREDICTED BY IDOCK:   -0.04 KCAL/MOL
REMARK 927      BINDING AFFINITY PREDICTED BY RF-SCORE:    0.00 PKD
ROOT
HETATM    1  N   UNL     1     -10.708  17.848  67.930  1.00  0.00    -0.372 NA 
HETATM    2  C   UNL     1     -10.229  17.275  66.679  1.00  0.00    -0.319 C  
HETATM    3  H1  UNL     1     -11.209  18.733  67.836  1.00  0.00     0.000 HD 
HETATM    4  H2  UNL     1      -9.936  17.949  68.590  1.00  0.00     0.000 HD 
ENDROOT
BRANCH   2   5
HETATM    5  C   UNL     1      -9.464  15.922  66.824  1.00  0.00    -0.254 C  
HETATM    6  C   UNL     1      -9.549  15.166  65.461  1.00  0.00    -0.223 C  
HETATM    7  C   UNL     1     -10.079  15.023  67.930  1.00  0.00    -0.226 C  
HETATM    8  C   UNL     1     -11.471  14.489  67.588  1.00  0.00    -0.374 C  
HETATM    9  C   UNL     1     -10.931  14.604  65.131  1.00  0.00    -0.395 C  
HETATM   10  C   UNL     1     -11.469  13.738  66.263  1.00  0.00    -0.349 C  
BRANCH   5  11
HETATM   11  C   UNL     1      -7.951  16.147  67.100  1.00  0.00    -0.232 C  
HETATM   12  O   UNL     1      -7.478  18.070  68.472  1.00  0.00    -0.261 OA 
HETATM   13  C   UNL     1      -7.586  16.854  68.382  1.00  0.00    -0.209 C  
HETATM   14  O   UNL     1      -7.380  16.030  69.430  1.00  0.00    -0.223 OA 
ENDBRANCH   5  11
ENDBRANCH   2   5
TORSDOF 2
ENDMDL
MODEL      115
REMARK 921   NORMALIZED FREE ENERGY PREDICTED BY IDOCK:   -2.95 KCAL/MOL
REMARK 922        TOTAL FREE ENERGY PREDICTED BY IDOCK:   -3.48 KCAL/MOL
REMARK 923 INTER-LIGAND FREE ENERGY PREDICTED BY IDOCK:   -3.56 KCAL/MOL
REMARK 924 INTRA-LIGAND FREE ENERGY PREDICTED BY IDOCK:    0.08 KCAL/MOL
REMARK 927      BINDING AFFINITY PREDICTED BY RF-SCORE:    0.00 PKD
ROOT
HETATM    1  N   UNL     1     -13.843   7.487  70.907  1.00  0.00    -0.585 NA 
HETATM    2  C   UNL     1     -12.798   7.950  71.810  1.00  0.00    -0.328 C  
HETATM    3  H1  UNL     1     -14.794   7.737  71.183  1.00  0.00     0.000 HD 
HETATM    4  H2  UNL     1     -13.770   6.479  70.770  1.00  0.00     0.000 HD 
ENDROOT
BRANCH   2   5
HETATM    5  C   UNL     1     -11.344   7.568  71.387  1.00  0.00    -0.284 C  
HETATM    6  C   UNL     1     -11.281   6.019  71.204  1.00  0.00    -0.328 C  
HETATM    7  C   UNL     1     -10.301   7.984  72.458  1.00  0.00    -0.374 C  
HETATM    8  C   UNL     1     -10.401   7.187  73.760  1.00  0.00    -0.390 C  
HETATM    9  C   UNL     1     -11.350   5.221  72.505  1.00  0.00    -0.245 C  
HETATM   10  C   UNL     1     -10.301   5.689  73.505  1.00  0.00    -0.254 C  
BRANCH   5  11
HETATM   11  C   UNL     1     -10.969   8.182  70.010  1.00  0.00    -0.199 C  
HETATM   12  O   UNL     1      -8.925   7.316  69.072  1.00  0.00    -0.135 OA 
HETATM   13  C   UNL     1     -10.149   7.324  69.078  1.00  0.00    -0.186 C  
HETATM   14  O   UNL     1     -10.881   6.562  68.238  1.00  0.00    -0.249 OA 
ENDBRANCH   5  11
ENDBRANCH   2   5
TORSDOF 2
ENDMDL
MODEL      116
REMARK 921   NORMALIZED FREE ENERGY PREDICTED BY IDOCK:   -2.94 KCAL/MOL
REMARK 922        TOTAL FREE ENERGY PREDICTED BY IDOCK:   -3.47 KCAL/MOL
REMARK 923 INTER-LIGAND FREE ENERGY PREDICTED BY IDOCK:   -3.27 KCAL/MOL
REMARK 924 INTRA-LIGAND FREE ENERGY PREDICTED BY IDOCK:   -0.20 KCAL/MOL
REMARK 927      BINDING AFFINITY PREDICTED BY RF-SCORE:    0.00 PKD
ROOT
HETATM    1  N   UNL     1     -11.221   7.452  68.998  1.00  0.00    -0.431 NA 
HETATM    2  C   UNL     1     -10.052   7.441  69.868  1.00  0.00    -0.195 C  
HETATM    3  H1  UNL     1     -11.305   6.645  68.379  1.00  0.00     0.000 HD 
HETATM    4  H2  UNL     1     -11.249   8.316  68.457  1.00  0.00     0.000 HD 
ENDROOT
BRANCH   2   5
HETATM    5  C   UNL     1      -9.923   8.675  70.816  1.00  0.00    -0.241 C  
HETATM    6  C   UNL     1     -10.067   9.968  69.954  1.00  0.00    -0.289 C  
HETATM    7  C   UNL     1      -8.550   8.710  71.538  1.00  0.00    -0.256 C  
HETATM    8  C   UNL     1      -7.369   8.986  70.605  1.00  0.00    -0.099 C  
HETATM    9  C   UNL     1      -8.875  10.263  69.044  1.00  0.00    -0.170 C  
HETATM   10  C   UNL     1      -7.567  10.277  69.822  1.00  0.00    -0.168 C  
BRANCH   5  11
HETATM   11  C   UNL     1     -11.075   8.719  71.858  1.00  0.00    -0.434 C  
HETATM   12  O   UNL     1     -12.318   6.662  72.035  1.00  0.00    -0.330 OA 
HETATM   13  C   UNL     1     -11.468   7.411  72.499  1.00  0.00    -0.301 C  
HETATM   14  O   UNL     1     -10.806   7.132  73.642  1.00  0.00    -0.352 OA 
ENDBRANCH   5  11
ENDBRANCH   2   5
TORSDOF 2
ENDMDL
MODEL      117
REMARK 921   NORMALIZED FREE ENERGY PREDICTED BY IDOCK:   -2.93 KCAL/MOL
REMARK 922        TOTAL FREE ENERGY PREDICTED BY IDOCK:   -3.46 KCAL/MOL
REMARK 923 INTER-LIGAND FREE ENERGY PREDICTED BY IDOCK:   -3.46 KCAL/MOL
REMARK 924 INTRA-LIGAND FREE ENERGY PREDICTED BY IDOCK:   -0.00 KCAL/MOL
REMARK 927      BINDING AFFINITY PREDICTED BY RF-SCORE:    0.00 PKD
ROOT
HETATM    1  N   UNL     1      -8.792  12.256  68.707  1.00  0.00    -0.380 NA 
HETATM    2  C   UNL     1      -9.558  13.420  68.279  1.00  0.00    -0.220 C  
HETATM    3  H1  UNL     1      -7.779  12.355  68.632  1.00  0.00     0.000 HD 
HETATM    4  H2  UNL     1      -9.103  11.425  68.202  1.00  0.00     0.000 HD 
ENDROOT
BRANCH   2   5
HETATM    5  C   UNL     1     -11.107  13.268  68.393  1.00  0.00    -0.299 C  
HETATM    6  C   UNL     1     -11.771  14.408  67.558  1.00  0.00    -0.416 C  
HETATM    7  C   UNL     1     -11.595  13.381  69.862  1.00  0.00    -0.270 C  
HETATM    8  C   UNL     1     -11.435  14.780  70.460  1.00  0.00    -0.300 C  
HETATM    9  C   UNL     1     -11.640  15.803  68.169  1.00  0.00    -0.259 C  
HETATM   10  C   UNL     1     -12.133  15.832  69.609  1.00  0.00    -0.282 C  
BRANCH   5  11
HETATM   11  C   UNL     1     -11.599  11.933  67.769  1.00  0.00    -0.393 C  
HETATM   12  O   UNL     1     -10.642   9.965  68.778  1.00  0.00    -0.206 OA 
HETATM   13  C   UNL     1     -11.601  10.718  68.664  1.00  0.00    -0.272 C  
HETATM   14  O   UNL     1     -12.758  10.522  69.330  1.00  0.00    -0.160 OA 
ENDBRANCH   5  11
ENDBRANCH   2   5
TORSDOF 2
ENDMDL
MODEL      118
REMARK 921   NORMALIZED FREE ENERGY PREDICTED BY IDOCK:   -2.90 KCAL/MOL
REMARK 922        TOTAL FREE ENERGY PREDICTED BY IDOCK:   -3.43 KCAL/MOL
REMARK 923 INTER-LIGAND FREE ENERGY PREDICTED BY IDOCK:   -3.24 KCAL/MOL
REMARK 924 INTRA-LIGAND FREE ENERGY PREDICTED BY IDOCK:   -0.19 KCAL/MOL
REMARK 927      BINDING AFFINITY PREDICTED BY RF-SCORE:    0.00 PKD
ROOT
HETATM    1  N   UNL     1      -8.319   5.806  70.257  1.00  0.00    -0.115 NA 
HETATM    2  C   UNL     1      -9.053   7.046  70.042  1.00  0.00    -0.145 C  
HETATM    3  H1  UNL     1      -7.304   5.889  70.199  1.00  0.00     0.000 HD 
HETATM    4  H2  UNL     1      -8.651   5.084  69.616  1.00  0.00     0.000 HD 
ENDROOT
BRANCH   2   5
HETATM    5  C   UNL     1     -10.606   6.917  70.132  1.00  0.00    -0.249 C  
HETATM    6  C   UNL     1     -11.210   8.354  70.224  1.00  0.00    -0.175 C  
HETATM    7  C   UNL     1     -11.051   6.111  71.381  1.00  0.00    -0.346 C  
HETATM    8  C   UNL     1     -10.781   6.828  72.706  1.00  0.00    -0.277 C  
HETATM    9  C   UNL     1     -10.969   9.061  71.558  1.00  0.00    -0.418 C  
HETATM   10  C   UNL     1     -11.425   8.208  72.734  1.00  0.00    -0.397 C  
BRANCH   5  11
HETATM   11  C   UNL     1     -11.203   6.280  68.846  1.00  0.00    -0.387 C  
HETATM   12  O   UNL     1     -10.869   7.592  66.853  1.00  0.00    -0.328 OA 
HETATM   13  C   UNL     1     -10.541   6.631  67.537  1.00  0.00    -0.281 C  
HETATM   14  O   UNL     1      -9.551   5.789  67.173  1.00  0.00    -0.119 OA 
ENDBRANCH   5  11
ENDBRANCH   2   5
TORSDOF 2
ENDMDL
MODEL      119
REMARK 921   NORMALIZED FREE ENERGY PREDICTED BY IDOCK:   -2.90 KCAL/MOL
REMARK 922        TOTAL FREE ENERGY PREDICTED BY IDOCK:   -3.42 KCAL/MOL
REMARK 923 INTER-LIGAND FREE ENERGY PREDICTED BY IDOCK:   -3.41 KCAL/MOL
REMARK 924 INTRA-LIGAND FREE ENERGY PREDICTED BY IDOCK:   -0.01 KCAL/MOL
REMARK 927      BINDING AFFINITY PREDICTED BY RF-SCORE:    0.00 PKD
ROOT
HETATM    1  N   UNL     1      -9.751   4.063  70.767  1.00  0.00    -0.192 NA 
HETATM    2  C   UNL     1      -9.338   5.414  70.410  1.00  0.00    -0.159 C  
HETATM    3  H1  UNL     1      -9.006   3.366  70.753  1.00  0.00     0.000 HD 
HETATM    4  H2  UNL     1     -10.525   3.763  70.174  1.00  0.00     0.000 HD 
ENDROOT
BRANCH   2   5
HETATM    5  C   UNL     1     -10.478   6.480  70.432  1.00  0.00    -0.256 C  
HETATM    6  C   UNL     1     -11.410   6.222  69.206  1.00  0.00    -0.411 C  
HETATM    7  C   UNL     1      -9.922   7.926  70.338  1.00  0.00    -0.192 C  
HETATM    8  C   UNL     1      -9.293   8.258  68.983  1.00  0.00    -0.147 C  
HETATM    9  C   UNL     1     -10.796   6.582  67.854  1.00  0.00    -0.383 C  
HETATM   10  C   UNL     1     -10.270   8.011  67.840  1.00  0.00    -0.267 C  
BRANCH   5  11
HETATM   11  C   UNL     1     -11.374   6.335  71.694  1.00  0.00    -0.347 C  
HETATM   12  O   UNL     1     -10.517   7.464  73.642  1.00  0.00    -0.360 OA 
HETATM   13  C   UNL     1     -11.311   7.448  72.710  1.00  0.00    -0.308 C  
HETATM   14  O   UNL     1     -12.213   8.431  72.512  1.00  0.00    -0.386 OA 
ENDBRANCH   5  11
ENDBRANCH   2   5
TORSDOF 2
ENDMDL
MODEL      120
REMARK 921   NORMALIZED FREE ENERGY PREDICTED BY IDOCK:   -2.89 KCAL/MOL
REMARK 922        TOTAL FREE ENERGY PREDICTED BY IDOCK:   -3.41 KCAL/MOL
REMARK 923 INTER-LIGAND FREE ENERGY PREDICTED BY IDOCK:   -3.20 KCAL/MOL
REMARK 924 INTRA-LIGAND FREE ENERGY PREDICTED BY IDOCK:   -0.21 KCAL/MOL
REMARK 927      BINDING AFFINITY PREDICTED BY RF-SCORE:    0.00 PKD
ROOT
HETATM    1  N   UNL     1      -8.416   5.734  71.524  1.00  0.00    -0.127 NA 
HETATM    2  C   UNL     1      -9.868   5.662  71.424  1.00  0.00    -0.173 C  
HETATM    3  H1  UNL     1      -7.910   5.386  70.709  1.00  0.00     0.000 HD 
HETATM    4  H2  UNL     1      -8.097   5.256  72.367  1.00  0.00     0.000 HD 
ENDROOT
BRANCH   2   5
HETATM    5  C   UNL     1     -10.643   6.193  72.670  1.00  0.00    -0.246 C  
HETATM    6  C   UNL     1     -12.157   6.284  72.301  1.00  0.00    -0.255 C  
HETATM    7  C   UNL     1     -10.152   7.601  73.102  1.00  0.00    -0.382 C  
HETATM    8  C   UNL     1     -10.495   8.707  72.102  1.00  0.00    -0.411 C  
HETATM    9  C   UNL     1     -12.507   7.408  71.327  1.00  0.00    -0.381 C  
HETATM   10  C   UNL     1     -11.990   8.754  71.815  1.00  0.00    -0.418 C  
BRANCH   5  11
HETATM   11  C   UNL     1     -10.548   5.206  73.867  1.00  0.00    -0.340 C  
HETATM   12  O   UNL     1     -11.574   3.065  73.457  1.00  0.00    -0.185 OA 
HETATM   13  C   UNL     1     -10.552   3.733  73.541  1.00  0.00    -0.196 C  
HETATM   14  O   UNL     1      -9.325   3.204  73.355  1.00  0.00    -0.088 OA 
ENDBRANCH   5  11
ENDBRANCH   2   5
TORSDOF 2
ENDMDL
MODEL      121
REMARK 921   NORMALIZED FREE ENERGY PREDICTED BY IDOCK:   -2.89 KCAL/MOL
REMARK 922        TOTAL FREE ENERGY PREDICTED BY IDOCK:   -3.41 KCAL/MOL
REMARK 923 INTER-LIGAND FREE ENERGY PREDICTED BY IDOCK:   -3.37 KCAL/MOL
REMARK 924 INTRA-LIGAND FREE ENERGY PREDICTED BY IDOCK:   -0.03 KCAL/MOL
REMARK 927      BINDING AFFINITY PREDICTED BY RF-SCORE:    0.00 PKD
ROOT
HETATM    1  N   UNL     1     -10.852   3.721  73.796  1.00  0.00    -0.225 NA 
HETATM    2  C   UNL     1     -11.569   4.893  73.310  1.00  0.00    -0.189 C  
HETATM    3  H1  UNL     1     -11.444   2.948  74.099  1.00  0.00     0.000 HD 
HETATM    4  H2  UNL     1     -10.209   3.987  74.542  1.00  0.00     0.000 HD 
ENDROOT
BRANCH   2   5
HETATM    5  C   UNL     1     -10.662   6.076  72.845  1.00  0.00    -0.277 C  
HETATM    6  C   UNL     1     -11.575   7.167  72.203  1.00  0.00    -0.317 C  
HETATM    7  C   UNL     1      -9.613   5.625  71.794  1.00  0.00    -0.184 C  
HETATM    8  C   UNL     1     -10.220   5.230  70.447  1.00  0.00    -0.338 C  
HETATM    9  C   UNL     1     -12.158   6.788  70.842  1.00  0.00    -0.421 C  
HETATM   10  C   UNL     1     -11.071   6.353  69.868  1.00  0.00    -0.444 C  
BRANCH   5  11
HETATM   11  C   UNL     1      -9.952   6.759  74.047  1.00  0.00    -0.367 C  
HETATM   12  O   UNL     1      -7.546   6.660  73.953  1.00  0.00    -0.084 OA 
HETATM   13  C   UNL     1      -8.570   7.313  73.801  1.00  0.00    -0.167 C  
HETATM   14  O   UNL     1      -8.553   8.603  73.403  1.00  0.00    -0.361 OA 
ENDBRANCH   5  11
ENDBRANCH   2   5
TORSDOF 2
ENDMDL
MODEL      122
REMARK 921   NORMALIZED FREE ENERGY PREDICTED BY IDOCK:   -2.88 KCAL/MOL
REMARK 922        TOTAL FREE ENERGY PREDICTED BY IDOCK:   -3.41 KCAL/MOL
REMARK 923 INTER-LIGAND FREE ENERGY PREDICTED BY IDOCK:   -3.40 KCAL/MOL
REMARK 924 INTRA-LIGAND FREE ENERGY PREDICTED BY IDOCK:   -0.00 KCAL/MOL
REMARK 927      BINDING AFFINITY PREDICTED BY RF-SCORE:    0.00 PKD
ROOT
HETATM    1  N   UNL     1     -12.359  10.241  69.378  1.00  0.00    -0.568 NA 
HETATM    2  C   UNL     1     -11.546  10.034  70.570  1.00  0.00    -0.323 C  
HETATM    3  H1  UNL     1     -13.028  11.008  69.440  1.00  0.00     0.000 HD 
HETATM    4  H2  UNL     1     -12.837   9.376  69.123  1.00  0.00     0.000 HD 
ENDROOT
BRANCH   2   5
HETATM    5  C   UNL     1     -10.522   8.860  70.475  1.00  0.00    -0.257 C  
HETATM    6  C   UNL     1     -11.261   7.613  69.896  1.00  0.00    -0.097 C  
HETATM    7  C   UNL     1      -9.934   8.489  71.862  1.00  0.00    -0.365 C  
HETATM    8  C   UNL     1     -10.952   7.858  72.814  1.00  0.00    -0.456 C  
HETATM    9  C   UNL     1     -12.256   6.961  70.856  1.00  0.00    -0.404 C  
HETATM   10  C   UNL     1     -11.609   6.631  72.194  1.00  0.00    -0.335 C  
BRANCH   5  11
HETATM   11  C   UNL     1      -9.373   9.182  69.479  1.00  0.00    -0.165 C  
HETATM   12  O   UNL     1      -7.476  10.273  70.486  1.00  0.00    -0.250 OA 
HETATM   13  C   UNL     1      -7.975   9.247  70.043  1.00  0.00    -0.121 C  
HETATM   14  O   UNL     1      -7.310   8.073  70.014  1.00  0.00    -0.060 OA 
ENDBRANCH   5  11
ENDBRANCH   2   5
TORSDOF 2
ENDMDL
MODEL      123
REMARK 921   NORMALIZED FREE ENERGY PREDICTED BY IDOCK:   -2.88 KCAL/MOL
REMARK 922        TOTAL FREE ENERGY PREDICTED BY IDOCK:   -3.40 KCAL/MOL
REMARK 923 INTER-LIGAND FREE ENERGY PREDICTED BY IDOCK:   -3.29 KCAL/MOL
REMARK 924 INTRA-LIGAND FREE ENERGY PREDICTED BY IDOCK:   -0.11 KCAL/MOL
REMARK 927      BINDING AFFINITY PREDICTED BY RF-SCORE:    0.00 PKD
ROOT
HETATM    1  N   UNL     1      -9.699   8.616  69.620  1.00  0.00    -0.177 NA 
HETATM    2  C   UNL     1      -9.352   7.201  69.672  1.00  0.00    -0.149 C  
HETATM    3  H1  UNL     1      -8.910   9.257  69.715  1.00  0.00     0.000 HD 
HETATM    4  H2  UNL     1     -10.412   8.830  70.318  1.00  0.00     0.000 HD 
ENDROOT
BRANCH   2   5
HETATM    5  C   UNL     1     -10.558   6.221  69.527  1.00  0.00    -0.331 C  
HETATM    6  C   UNL     1     -10.104   4.813  70.026  1.00  0.00    -0.308 C  
HETATM    7  C   UNL     1     -11.032   6.098  68.054  1.00  0.00    -0.399 C  
HETATM    8  C   UNL     1     -10.026   5.395  67.140  1.00  0.00    -0.199 C  
HETATM    9  C   UNL     1      -9.124   4.096  69.099  1.00  0.00    -0.191 C  
HETATM   10  C   UNL     1      -9.655   4.018  67.674  1.00  0.00    -0.210 C  
BRANCH   5  11
HETATM   11  C   UNL     1     -11.748   6.638  70.436  1.00  0.00    -0.446 C  
HETATM   12  O   UNL     1     -11.742   5.589  72.605  1.00  0.00    -0.293 OA 
HETATM   13  C   UNL     1     -11.522   6.584  71.927  1.00  0.00    -0.301 C  
HETATM   14  O   UNL     1     -11.060   7.735  72.460  1.00  0.00    -0.289 OA 
ENDBRANCH   5  11
ENDBRANCH   2   5
TORSDOF 2
ENDMDL
MODEL      124
REMARK 921   NORMALIZED FREE ENERGY PREDICTED BY IDOCK:   -2.88 KCAL/MOL
REMARK 922        TOTAL FREE ENERGY PREDICTED BY IDOCK:   -3.40 KCAL/MOL
REMARK 923 INTER-LIGAND FREE ENERGY PREDICTED BY IDOCK:   -3.55 KCAL/MOL
REMARK 924 INTRA-LIGAND FREE ENERGY PREDICTED BY IDOCK:    0.15 KCAL/MOL
REMARK 927      BINDING AFFINITY PREDICTED BY RF-SCORE:    0.00 PKD
ROOT
HETATM    1  N   UNL     1      -9.062  13.621  68.428  1.00  0.00    -0.255 NA 
HETATM    2  C   UNL     1      -8.967  13.131  67.059  1.00  0.00    -0.228 C  
HETATM    3  H1  UNL     1      -8.431  14.390  68.656  1.00  0.00     0.000 HD 
HETATM    4  H2  UNL     1      -8.933  12.852  69.087  1.00  0.00     0.000 HD 
ENDROOT
BRANCH   2   5
HETATM    5  C   UNL     1      -9.933  11.955  66.711  1.00  0.00    -0.215 C  
HETATM    6  C   UNL     1     -10.173  11.962  65.169  1.00  0.00    -0.314 C  
HETATM    7  C   UNL     1     -11.302  12.097  67.428  1.00  0.00    -0.393 C  
HETATM    8  C   UNL     1     -12.143  13.271  66.923  1.00  0.00    -0.389 C  
HETATM    9  C   UNL     1     -11.039  13.116  64.665  1.00  0.00    -0.366 C  
HETATM   10  C   UNL     1     -12.361  13.193  65.417  1.00  0.00    -0.532 C  
BRANCH   5  11
HETATM   11  C   UNL     1      -9.298  10.576  67.043  1.00  0.00    -0.176 C  
HETATM   12  O   UNL     1     -10.778   8.705  66.699  1.00  0.00    -0.180 OA 
HETATM   13  C   UNL     1      -9.836   9.378  66.300  1.00  0.00    -0.281 C  
HETATM   14  O   UNL     1      -9.185   9.100  65.151  1.00  0.00    -0.219 OA 
ENDBRANCH   5  11
ENDBRANCH   2   5
TORSDOF 2
ENDMDL
MODEL      125
REMARK 921   NORMALIZED FREE ENERGY PREDICTED BY IDOCK:   -2.87 KCAL/MOL
REMARK 922        TOTAL FREE ENERGY PREDICTED BY IDOCK:   -3.39 KCAL/MOL
REMARK 923 INTER-LIGAND FREE ENERGY PREDICTED BY IDOCK:   -3.53 KCAL/MOL
REMARK 924 INTRA-LIGAND FREE ENERGY PREDICTED BY IDOCK:    0.13 KCAL/MOL
REMARK 927      BINDING AFFINITY PREDICTED BY RF-SCORE:    0.00 PKD
ROOT
HETATM    1  N   UNL     1      -6.596  19.154  69.561  1.00  0.00    -0.294 NA 
HETATM    2  C   UNL     1      -7.192  19.965  68.508  1.00  0.00    -0.296 C  
HETATM    3  H1  UNL     1      -6.029  19.670  70.235  1.00  0.00     0.000 HD 
HETATM    4  H2  UNL     1      -6.052  18.393  69.154  1.00  0.00     0.000 HD 
ENDROOT
BRANCH   2   5
HETATM    5  C   UNL     1      -8.058  19.175  67.477  1.00  0.00    -0.301 C  
HETATM    6  C   UNL     1      -7.367  17.801  67.211  1.00  0.00    -0.206 C  
HETATM    7  C   UNL     1      -8.190  19.933  66.129  1.00  0.00    -0.346 C  
HETATM    8  C   UNL     1      -6.882  20.023  65.341  1.00  0.00    -0.337 C  
HETATM    9  C   UNL     1      -6.076  17.885  66.398  1.00  0.00    -0.226 C  
HETATM   10  C   UNL     1      -6.284  18.644  65.094  1.00  0.00    -0.285 C  
BRANCH   5  11
HETATM   11  C   UNL     1      -9.467  18.848  68.045  1.00  0.00    -0.361 C  
HETATM   12  O   UNL     1     -10.512  16.928  67.032  1.00  0.00    -0.314 OA 
HETATM   13  C   UNL     1      -9.911  17.407  67.984  1.00  0.00    -0.302 C  
HETATM   14  O   UNL     1      -9.597  16.683  69.079  1.00  0.00    -0.258 OA 
ENDBRANCH   5  11
ENDBRANCH   2   5
TORSDOF 2
ENDMDL
MODEL      126
REMARK 921   NORMALIZED FREE ENERGY PREDICTED BY IDOCK:   -2.86 KCAL/MOL
REMARK 922        TOTAL FREE ENERGY PREDICTED BY IDOCK:   -3.37 KCAL/MOL
REMARK 923 INTER-LIGAND FREE ENERGY PREDICTED BY IDOCK:   -3.32 KCAL/MOL
REMARK 924 INTRA-LIGAND FREE ENERGY PREDICTED BY IDOCK:   -0.05 KCAL/MOL
REMARK 927      BINDING AFFINITY PREDICTED BY RF-SCORE:    0.00 PKD
ROOT
HETATM    1  N   UNL     1     -12.216   6.810  70.183  1.00  0.00    -0.605 NA 
HETATM    2  C   UNL     1     -11.226   6.374  69.208  1.00  0.00    -0.375 C  
HETATM    3  H1  UNL     1     -13.092   6.287  70.172  1.00  0.00     0.000 HD 
HETATM    4  H2  UNL     1     -12.401   7.808  70.076  1.00  0.00     0.000 HD 
ENDROOT
BRANCH   2   5
HETATM    5  C   UNL     1      -9.886   7.175  69.225  1.00  0.00    -0.161 C  
HETATM    6  C   UNL     1     -10.188   8.641  68.783  1.00  0.00    -0.224 C  
HETATM    7  C   UNL     1      -8.836   6.570  68.255  1.00  0.00    -0.119 C  
HETATM    8  C   UNL     1      -9.201   6.724  66.777  1.00  0.00    -0.172 C  
HETATM    9  C   UNL     1     -10.523   8.802  67.300  1.00  0.00    -0.353 C  
HETATM   10  C   UNL     1      -9.452   8.182  66.414  1.00  0.00    -0.285 C  
BRANCH   5  11
HETATM   11  C   UNL     1      -9.294   7.270  70.659  1.00  0.00    -0.157 C  
HETATM   12  O   UNL     1      -8.330   9.415  71.184  1.00  0.00    -0.310 OA 
HETATM   13  C   UNL     1      -9.267   8.636  71.299  1.00  0.00    -0.220 C  
HETATM   14  O   UNL     1     -10.367   8.930  72.024  1.00  0.00    -0.339 OA 
ENDBRANCH   5  11
ENDBRANCH   2   5
TORSDOF 2
ENDMDL
MODEL      127
REMARK 921   NORMALIZED FREE ENERGY PREDICTED BY IDOCK:   -2.85 KCAL/MOL
REMARK 922        TOTAL FREE ENERGY PREDICTED BY IDOCK:   -3.37 KCAL/MOL
REMARK 923 INTER-LIGAND FREE ENERGY PREDICTED BY IDOCK:   -3.35 KCAL/MOL
REMARK 924 INTRA-LIGAND FREE ENERGY PREDICTED BY IDOCK:   -0.02 KCAL/MOL
REMARK 927      BINDING AFFINITY PREDICTED BY RF-SCORE:    0.00 PKD
ROOT
HETATM    1  N   UNL     1     -10.098   7.223  66.451  1.00  0.00    -0.465 NA 
HETATM    2  C   UNL     1     -10.640   7.878  67.634  1.00  0.00    -0.206 C  
HETATM    3  H1  UNL     1     -10.466   6.288  66.269  1.00  0.00     0.000 HD 
HETATM    4  H2  UNL     1      -9.079   7.197  66.499  1.00  0.00     0.000 HD 
ENDROOT
BRANCH   2   5
HETATM    5  C   UNL     1     -10.078   9.308  67.913  1.00  0.00    -0.246 C  
HETATM    6  C   UNL     1      -8.530   9.197  68.086  1.00  0.00    -0.125 C  
HETATM    7  C   UNL     1     -10.679   9.927  69.202  1.00  0.00    -0.247 C  
HETATM    8  C   UNL     1     -10.234   9.227  70.488  1.00  0.00    -0.309 C  
HETATM    9  C   UNL     1      -8.082   8.526  69.384  1.00  0.00    -0.112 C  
HETATM   10  C   UNL     1      -8.716   9.184  70.603  1.00  0.00    -0.272 C  
BRANCH   5  11
HETATM   11  C   UNL     1     -10.310  10.259  66.706  1.00  0.00    -0.288 C  
HETATM   12  O   UNL     1     -12.143  11.794  67.005  1.00  0.00    -0.575 OA 
HETATM   13  C   UNL     1     -10.935  11.601  67.003  1.00  0.00    -0.288 C  
HETATM   14  O   UNL     1     -10.045  12.582  67.261  1.00  0.00    -0.211 OA 
ENDBRANCH   5  11
ENDBRANCH   2   5
TORSDOF 2
ENDMDL
MODEL      128
REMARK 921   NORMALIZED FREE ENERGY PREDICTED BY IDOCK:   -2.84 KCAL/MOL
REMARK 922        TOTAL FREE ENERGY PREDICTED BY IDOCK:   -3.35 KCAL/MOL
REMARK 923 INTER-LIGAND FREE ENERGY PREDICTED BY IDOCK:   -3.41 KCAL/MOL
REMARK 924 INTRA-LIGAND FREE ENERGY PREDICTED BY IDOCK:    0.06 KCAL/MOL
REMARK 927      BINDING AFFINITY PREDICTED BY RF-SCORE:    0.00 PKD
ROOT
HETATM    1  N   UNL     1      -8.528  14.336  66.568  1.00  0.00    -0.387 NA 
HETATM    2  C   UNL     1      -8.784  15.770  66.537  1.00  0.00    -0.319 C  
HETATM    3  H1  UNL     1      -7.930  13.989  65.817  1.00  0.00     0.000 HD 
HETATM    4  H2  UNL     1      -9.408  13.821  66.584  1.00  0.00     0.000 HD 
ENDROOT
BRANCH   2   5
HETATM    5  C   UNL     1      -9.698  16.302  67.685  1.00  0.00    -0.234 C  
HETATM    6  C   UNL     1     -10.758  17.261  67.059  1.00  0.00    -0.152 C  
HETATM    7  C   UNL     1      -8.890  17.085  68.755  1.00  0.00    -0.244 C  
HETATM    8  C   UNL     1      -8.324  18.413  68.250  1.00  0.00    -0.321 C  
HETATM    9  C   UNL     1     -10.201  18.601  66.582  1.00  0.00    -0.441 C  
HETATM   10  C   UNL     1      -9.419  19.306  67.683  1.00  0.00    -0.385 C  
BRANCH   5  11
HETATM   11  C   UNL     1     -10.499  15.152  68.358  1.00  0.00    -0.233 C  
HETATM   12  O   UNL     1     -10.588  15.293  70.762  1.00  0.00    -0.236 OA 
HETATM   13  C   UNL     1     -11.148  15.456  69.686  1.00  0.00    -0.276 C  
HETATM   14  O   UNL     1     -12.412  15.920  69.592  1.00  0.00    -0.184 OA 
ENDBRANCH   5  11
ENDBRANCH   2   5
TORSDOF 2
ENDMDL
MODEL      129
REMARK 921   NORMALIZED FREE ENERGY PREDICTED BY IDOCK:   -2.83 KCAL/MOL
REMARK 922        TOTAL FREE ENERGY PREDICTED BY IDOCK:   -3.34 KCAL/MOL
REMARK 923 INTER-LIGAND FREE ENERGY PREDICTED BY IDOCK:   -3.46 KCAL/MOL
REMARK 924 INTRA-LIGAND FREE ENERGY PREDICTED BY IDOCK:    0.12 KCAL/MOL
REMARK 927      BINDING AFFINITY PREDICTED BY RF-SCORE:    0.00 PKD
ROOT
HETATM    1  N   UNL     1     -12.256  15.206  68.091  1.00  0.00    -0.484 NA 
HETATM    2  C   UNL     1     -11.128  14.299  67.927  1.00  0.00    -0.278 C  
HETATM    3  H1  UNL     1     -12.661  15.226  69.028  1.00  0.00     0.000 HD 
HETATM    4  H2  UNL     1     -12.978  15.000  67.400  1.00  0.00     0.000 HD 
ENDROOT
BRANCH   2   5
HETATM    5  C   UNL     1     -10.509  14.268  66.494  1.00  0.00    -0.287 C  
HETATM    6  C   UNL     1      -9.056  13.707  66.603  1.00  0.00    -0.189 C  
HETATM    7  C   UNL     1     -10.449  15.682  65.858  1.00  0.00    -0.358 C  
HETATM    8  C   UNL     1      -9.455  16.624  66.541  1.00  0.00    -0.288 C  
HETATM    9  C   UNL     1      -8.054  14.658  67.257  1.00  0.00    -0.230 C  
HETATM   10  C   UNL     1      -8.056  16.023  66.582  1.00  0.00    -0.311 C  
BRANCH   5  11
HETATM   11  C   UNL     1     -11.279  13.295  65.559  1.00  0.00    -0.307 C  
HETATM   12  O   UNL     1      -9.866  11.730  64.392  1.00  0.00    -0.246 OA 
HETATM   13  C   UNL     1     -10.650  11.947  65.307  1.00  0.00    -0.275 C  
HETATM   14  O   UNL     1     -11.031  10.986  66.175  1.00  0.00    -0.205 OA 
ENDBRANCH   5  11
ENDBRANCH   2   5
TORSDOF 2
ENDMDL
MODEL      130
REMARK 921   NORMALIZED FREE ENERGY PREDICTED BY IDOCK:   -2.80 KCAL/MOL
REMARK 922        TOTAL FREE ENERGY PREDICTED BY IDOCK:   -3.31 KCAL/MOL
REMARK 923 INTER-LIGAND FREE ENERGY PREDICTED BY IDOCK:   -3.12 KCAL/MOL
REMARK 924 INTRA-LIGAND FREE ENERGY PREDICTED BY IDOCK:   -0.19 KCAL/MOL
REMARK 927      BINDING AFFINITY PREDICTED BY RF-SCORE:    0.00 PKD
ROOT
HETATM    1  N   UNL     1     -10.913   7.746  67.674  1.00  0.00    -0.517 NA 
HETATM    2  C   UNL     1     -10.724   8.721  68.741  1.00  0.00    -0.077 C  
HETATM    3  H1  UNL     1     -11.296   8.124  66.807  1.00  0.00     0.000 HD 
HETATM    4  H2  UNL     1     -11.488   6.970  68.004  1.00  0.00     0.000 HD 
ENDROOT
BRANCH   2   5
HETATM    5  C   UNL     1     -10.140   8.142  70.067  1.00  0.00    -0.196 C  
HETATM    6  C   UNL     1     -10.923   6.838  70.417  1.00  0.00    -0.330 C  
HETATM    7  C   UNL     1     -10.283   9.139  71.248  1.00  0.00    -0.400 C  
HETATM    8  C   UNL     1     -11.730   9.368  71.690  1.00  0.00    -0.468 C  
HETATM    9  C   UNL     1     -12.358   7.065  70.889  1.00  0.00    -0.361 C  
HETATM   10  C   UNL     1     -12.418   8.056  72.044  1.00  0.00    -0.357 C  
BRANCH   5  11
HETATM   11  C   UNL     1      -8.653   7.722  69.902  1.00  0.00    -0.137 C  
HETATM   12  O   UNL     1      -7.711   8.266  67.752  1.00  0.00    -0.100 OA 
HETATM   13  C   UNL     1      -7.815   8.531  68.942  1.00  0.00    -0.109 C  
HETATM   14  O   UNL     1      -7.177   9.577  69.509  1.00  0.00    -0.065 OA 
ENDBRANCH   5  11
ENDBRANCH   2   5
TORSDOF 2
ENDMDL
MODEL      131
REMARK 921   NORMALIZED FREE ENERGY PREDICTED BY IDOCK:   -2.80 KCAL/MOL
REMARK 922        TOTAL FREE ENERGY PREDICTED BY IDOCK:   -3.31 KCAL/MOL
REMARK 923 INTER-LIGAND FREE ENERGY PREDICTED BY IDOCK:   -3.60 KCAL/MOL
REMARK 924 INTRA-LIGAND FREE ENERGY PREDICTED BY IDOCK:    0.30 KCAL/MOL
REMARK 927      BINDING AFFINITY PREDICTED BY RF-SCORE:    0.00 PKD
ROOT
HETATM    1  N   UNL     1     -11.223  14.727  71.053  1.00  0.00    -0.532 NA 
HETATM    2  C   UNL     1     -10.303  15.141  70.002  1.00  0.00    -0.158 C  
HETATM    3  H1  UNL     1     -10.909  14.923  72.004  1.00  0.00     0.000 HD 
HETATM    4  H2  UNL     1     -11.449  13.737  70.953  1.00  0.00     0.000 HD 
ENDROOT
BRANCH   2   5
HETATM    5  C   UNL     1     -10.783  14.841  68.548  1.00  0.00    -0.247 C  
HETATM    6  C   UNL     1     -12.012  13.882  68.628  1.00  0.00    -0.401 C  
HETATM    7  C   UNL     1      -9.676  14.160  67.700  1.00  0.00    -0.228 C  
HETATM    8  C   UNL     1      -9.341  12.738  68.152  1.00  0.00    -0.214 C  
HETATM    9  C   UNL     1     -11.676  12.452  69.049  1.00  0.00    -0.372 C  
HETATM   10  C   UNL     1     -10.581  11.854  68.176  1.00  0.00    -0.233 C  
BRANCH   5  11
HETATM   11  C   UNL     1     -11.285  16.128  67.834  1.00  0.00    -0.245 C  
HETATM   12  O   UNL     1     -10.109  18.130  68.476  1.00  0.00    -0.366 OA 
HETATM   13  C   UNL     1     -10.286  17.243  67.651  1.00  0.00    -0.350 C  
HETATM   14  O   UNL     1      -9.601  17.189  66.489  1.00  0.00    -0.257 OA 
ENDBRANCH   5  11
ENDBRANCH   2   5
TORSDOF 2
ENDMDL
MODEL      132
REMARK 921   NORMALIZED FREE ENERGY PREDICTED BY IDOCK:   -2.79 KCAL/MOL
REMARK 922        TOTAL FREE ENERGY PREDICTED BY IDOCK:   -3.31 KCAL/MOL
REMARK 923 INTER-LIGAND FREE ENERGY PREDICTED BY IDOCK:   -3.23 KCAL/MOL
REMARK 924 INTRA-LIGAND FREE ENERGY PREDICTED BY IDOCK:   -0.07 KCAL/MOL
REMARK 927      BINDING AFFINITY PREDICTED BY RF-SCORE:    0.00 PKD
ROOT
HETATM    1  N   UNL     1      -8.228  10.166  70.393  1.00  0.00    -0.397 NA 
HETATM    2  C   UNL     1      -8.596   9.724  69.055  1.00  0.00    -0.146 C  
HETATM    3  H1  UNL     1      -7.266  10.491  70.492  1.00  0.00     0.000 HD 
HETATM    4  H2  UNL     1      -8.423   9.430  71.073  1.00  0.00     0.000 HD 
ENDROOT
BRANCH   2   5
HETATM    5  C   UNL     1     -10.068   9.227  68.905  1.00  0.00    -0.207 C  
HETATM    6  C   UNL     1     -10.086   7.682  69.125  1.00  0.00    -0.194 C  
HETATM    7  C   UNL     1     -10.643   9.535  67.497  1.00  0.00    -0.338 C  
HETATM    8  C   UNL     1      -9.990   8.727  66.373  1.00  0.00    -0.346 C  
HETATM    9  C   UNL     1      -9.462   6.871  67.990  1.00  0.00    -0.124 C  
HETATM   10  C   UNL     1     -10.073   7.230  66.643  1.00  0.00    -0.238 C  
BRANCH   5  11
HETATM   11  C   UNL     1     -10.990   9.830  70.001  1.00  0.00    -0.319 C  
HETATM   12  O   UNL     1     -12.398   8.213  71.099  1.00  0.00    -0.294 OA 
HETATM   13  C   UNL     1     -11.398   8.918  71.131  1.00  0.00    -0.291 C  
HETATM   14  O   UNL     1     -10.566   8.946  72.194  1.00  0.00    -0.340 OA 
ENDBRANCH   5  11
ENDBRANCH   2   5
TORSDOF 2
ENDMDL
MODEL      133
REMARK 921   NORMALIZED FREE ENERGY PREDICTED BY IDOCK:   -2.75 KCAL/MOL
REMARK 922        TOTAL FREE ENERGY PREDICTED BY IDOCK:   -3.26 KCAL/MOL
REMARK 923 INTER-LIGAND FREE ENERGY PREDICTED BY IDOCK:   -3.34 KCAL/MOL
REMARK 924 INTRA-LIGAND FREE ENERGY PREDICTED BY IDOCK:    0.09 KCAL/MOL
REMARK 927      BINDING AFFINITY PREDICTED BY RF-SCORE:    0.00 PKD
ROOT
HETATM    1  N   UNL     1      -9.512  11.664  63.862  1.00  0.00    -0.469 NA 
HETATM    2  C   UNL     1     -10.196  10.726  64.744  1.00  0.00    -0.334 C  
HETATM    3  H1  UNL     1      -9.341  11.320  62.917  1.00  0.00     0.000 HD 
HETATM    4  H2  UNL     1      -8.638  11.974  64.287  1.00  0.00     0.000 HD 
ENDROOT
BRANCH   2   5
HETATM    5  C   UNL     1     -10.457  11.252  66.191  1.00  0.00    -0.305 C  
HETATM    6  C   UNL     1      -9.121  11.840  66.744  1.00  0.00    -0.194 C  
HETATM    7  C   UNL     1     -10.933  10.122  67.141  1.00  0.00    -0.204 C  
HETATM    8  C   UNL     1      -9.858   9.077  67.445  1.00  0.00    -0.244 C  
HETATM    9  C   UNL     1      -8.056  10.796  67.077  1.00  0.00    -0.124 C  
HETATM   10  C   UNL     1      -8.599   9.721  68.009  1.00  0.00    -0.122 C  
BRANCH   5  11
HETATM   11  C   UNL     1     -11.480  12.422  66.198  1.00  0.00    -0.430 C  
HETATM   12  O   UNL     1     -11.803  13.430  68.363  1.00  0.00    -0.337 OA 
HETATM   13  C   UNL     1     -11.294  13.487  67.251  1.00  0.00    -0.315 C  
HETATM   14  O   UNL     1     -10.520  14.522  66.862  1.00  0.00    -0.266 OA 
ENDBRANCH   5  11
ENDBRANCH   2   5
TORSDOF 2
ENDMDL
MODEL      134
REMARK 921   NORMALIZED FREE ENERGY PREDICTED BY IDOCK:   -2.75 KCAL/MOL
REMARK 922        TOTAL FREE ENERGY PREDICTED BY IDOCK:   -3.25 KCAL/MOL
REMARK 923 INTER-LIGAND FREE ENERGY PREDICTED BY IDOCK:   -3.07 KCAL/MOL
REMARK 924 INTRA-LIGAND FREE ENERGY PREDICTED BY IDOCK:   -0.18 KCAL/MOL
REMARK 927      BINDING AFFINITY PREDICTED BY RF-SCORE:    0.00 PKD
ROOT
HETATM    1  N   UNL     1      -9.495  11.827  63.861  1.00  0.00    -0.495 NA 
HETATM    2  C   UNL     1     -10.292  11.691  65.073  1.00  0.00    -0.281 C  
HETATM    3  H1  UNL     1      -9.825  11.281  63.064  1.00  0.00     0.000 HD 
HETATM    4  H2  UNL     1      -8.517  11.609  64.057  1.00  0.00     0.000 HD 
ENDROOT
BRANCH   2   5
HETATM    5  C   UNL     1      -9.787  12.525  66.292  1.00  0.00    -0.260 C  
HETATM    6  C   UNL     1     -10.705  12.208  67.514  1.00  0.00    -0.265 C  
HETATM    7  C   UNL     1      -9.842  14.051  66.013  1.00  0.00    -0.316 C  
HETATM    8  C   UNL     1     -11.263  14.607  65.900  1.00  0.00    -0.336 C  
HETATM    9  C   UNL     1     -12.116  12.788  67.418  1.00  0.00    -0.222 C  
HETATM   10  C   UNL     1     -12.088  14.285  67.139  1.00  0.00    -0.412 C  
BRANCH   5  11
HETATM   11  C   UNL     1      -8.350  12.112  66.713  1.00  0.00    -0.111 C  
HETATM   12  O   UNL     1      -8.219   9.949  67.769  1.00  0.00    -0.113 OA 
HETATM   13  C   UNL     1      -8.051  10.634  66.768  1.00  0.00    -0.131 C  
HETATM   14  O   UNL     1      -7.571  10.122  65.614  1.00  0.00    -0.130 OA 
ENDBRANCH   5  11
ENDBRANCH   2   5
TORSDOF 2
ENDMDL
MODEL      135
REMARK 921   NORMALIZED FREE ENERGY PREDICTED BY IDOCK:   -2.74 KCAL/MOL
REMARK 922        TOTAL FREE ENERGY PREDICTED BY IDOCK:   -3.24 KCAL/MOL
REMARK 923 INTER-LIGAND FREE ENERGY PREDICTED BY IDOCK:   -3.38 KCAL/MOL
REMARK 924 INTRA-LIGAND FREE ENERGY PREDICTED BY IDOCK:    0.14 KCAL/MOL
REMARK 927      BINDING AFFINITY PREDICTED BY RF-SCORE:    0.00 PKD
ROOT
HETATM    1  N   UNL     1     -10.574  17.432  66.361  1.00  0.00    -0.252 NA 
HETATM    2  C   UNL     1     -10.484  16.719  67.628  1.00  0.00    -0.328 C  
HETATM    3  H1  UNL     1     -11.247  18.199  66.344  1.00  0.00     0.000 HD 
HETATM    4  H2  UNL     1     -10.766  16.778  65.601  1.00  0.00     0.000 HD 
ENDROOT
BRANCH   2   5
HETATM    5  C   UNL     1      -9.454  15.545  67.653  1.00  0.00    -0.208 C  
HETATM    6  C   UNL     1      -8.633  15.646  68.976  1.00  0.00    -0.232 C  
HETATM    7  C   UNL     1      -8.473  15.609  66.453  1.00  0.00    -0.271 C  
HETATM    8  C   UNL     1      -7.505  16.793  66.510  1.00  0.00    -0.322 C  
HETATM    9  C   UNL     1      -7.643  16.809  69.024  1.00  0.00    -0.218 C  
HETATM   10  C   UNL     1      -6.718  16.807  67.814  1.00  0.00    -0.153 C  
BRANCH   5  11
HETATM   11  C   UNL     1     -10.163  14.163  67.688  1.00  0.00    -0.241 C  
HETATM   12  O   UNL     1     -12.245  14.157  68.902  1.00  0.00    -0.328 OA 
HETATM   13  C   UNL     1     -11.666  14.167  67.823  1.00  0.00    -0.373 C  
HETATM   14  O   UNL     1     -12.329  14.176  66.648  1.00  0.00    -0.455 OA 
ENDBRANCH   5  11
ENDBRANCH   2   5
TORSDOF 2
ENDMDL
MODEL      136
REMARK 921   NORMALIZED FREE ENERGY PREDICTED BY IDOCK:   -2.71 KCAL/MOL
REMARK 922        TOTAL FREE ENERGY PREDICTED BY IDOCK:   -3.21 KCAL/MOL
REMARK 923 INTER-LIGAND FREE ENERGY PREDICTED BY IDOCK:   -3.15 KCAL/MOL
REMARK 924 INTRA-LIGAND FREE ENERGY PREDICTED BY IDOCK:   -0.06 KCAL/MOL
REMARK 927      BINDING AFFINITY PREDICTED BY RF-SCORE:    0.00 PKD
ROOT
HETATM    1  N   UNL     1     -11.301   9.090  69.936  1.00  0.00    -0.434 NA 
HETATM    2  C   UNL     1     -10.006   8.623  69.459  1.00  0.00    -0.196 C  
HETATM    3  H1  UNL     1     -11.269   9.924  70.524  1.00  0.00     0.000 HD 
HETATM    4  H2  UNL     1     -11.791   8.337  70.420  1.00  0.00     0.000 HD 
ENDROOT
BRANCH   2   5
HETATM    5  C   UNL     1     -10.055   7.347  68.560  1.00  0.00    -0.187 C  
HETATM    6  C   UNL     1     -11.120   6.373  69.155  1.00  0.00    -0.428 C  
HETATM    7  C   UNL     1      -8.686   6.618  68.512  1.00  0.00    -0.123 C  
HETATM    8  C   UNL     1      -8.284   5.974  69.840  1.00  0.00    -0.118 C  
HETATM    9  C   UNL     1     -10.707   5.703  70.465  1.00  0.00    -0.344 C  
HETATM   10  C   UNL     1      -9.355   5.014  70.341  1.00  0.00    -0.216 C  
BRANCH   5  11
HETATM   11  C   UNL     1     -10.532   7.681  67.119  1.00  0.00    -0.412 C  
HETATM   12  O   UNL     1     -10.333  10.010  66.533  1.00  0.00    -0.232 OA 
HETATM   13  C   UNL     1      -9.894   8.870  66.445  1.00  0.00    -0.283 C  
HETATM   14  O   UNL     1      -8.793   8.573  65.724  1.00  0.00    -0.175 OA 
ENDBRANCH   5  11
ENDBRANCH   2   5
TORSDOF 2
ENDMDL
MODEL      137
REMARK 921   NORMALIZED FREE ENERGY PREDICTED BY IDOCK:   -2.71 KCAL/MOL
REMARK 922        TOTAL FREE ENERGY PREDICTED BY IDOCK:   -3.21 KCAL/MOL
REMARK 923 INTER-LIGAND FREE ENERGY PREDICTED BY IDOCK:   -4.03 KCAL/MOL
REMARK 924 INTRA-LIGAND FREE ENERGY PREDICTED BY IDOCK:    0.82 KCAL/MOL
REMARK 927      BINDING AFFINITY PREDICTED BY RF-SCORE:    0.00 PKD
ROOT
HETATM    1  N   UNL     1     -11.926  15.388  73.236  1.00  0.00    -0.461 NA 
HETATM    2  C   UNL     1     -11.305  15.246  71.926  1.00  0.00    -0.366 C  
HETATM    3  H1  UNL     1     -11.297  15.687  73.982  1.00  0.00     0.000 HD 
HETATM    4  H2  UNL     1     -12.396  14.521  73.499  1.00  0.00     0.000 HD 
ENDROOT
BRANCH   2   5
HETATM    5  C   UNL     1     -12.267  14.789  70.785  1.00  0.00    -0.380 C  
HETATM    6  C   UNL     1     -13.704  15.295  71.128  1.00  0.00    -0.519 C  
HETATM    7  C   UNL     1     -12.306  13.244  70.643  1.00  0.00    -0.416 C  
HETATM    8  C   UNL     1     -12.962  12.532  71.826  1.00  0.00    -0.419 C  
HETATM    9  C   UNL     1     -14.375  14.564  72.290  1.00  0.00    -0.506 C  
HETATM   10  C   UNL     1     -14.370  13.055  72.081  1.00  0.00     0.126 C  
BRANCH   5  11
HETATM   11  C   UNL     1     -11.893  15.441  69.425  1.00  0.00    -0.372 C  
HETATM   12  O   UNL     1      -9.576  16.075  69.244  1.00  0.00    -0.238 OA 
HETATM   13  C   UNL     1     -10.466  15.284  68.960  1.00  0.00    -0.248 C  
HETATM   14  O   UNL     1     -10.249  14.195  68.193  1.00  0.00    -0.229 OA 
ENDBRANCH   5  11
ENDBRANCH   2   5
TORSDOF 2
ENDMDL
MODEL      138
REMARK 921   NORMALIZED FREE ENERGY PREDICTED BY IDOCK:   -2.70 KCAL/MOL
REMARK 922        TOTAL FREE ENERGY PREDICTED BY IDOCK:   -3.20 KCAL/MOL
REMARK 923 INTER-LIGAND FREE ENERGY PREDICTED BY IDOCK:   -3.02 KCAL/MOL
REMARK 924 INTRA-LIGAND FREE ENERGY PREDICTED BY IDOCK:   -0.19 KCAL/MOL
REMARK 927      BINDING AFFINITY PREDICTED BY RF-SCORE:    0.00 PKD
ROOT
HETATM    1  N   UNL     1     -10.415   5.761  66.423  1.00  0.00    -0.438 NA 
HETATM    2  C   UNL     1     -10.970   6.845  67.223  1.00  0.00    -0.336 C  
HETATM    3  H1  UNL     1     -11.101   5.219  65.896  1.00  0.00     0.000 HD 
HETATM    4  H2  UNL     1      -9.853   5.143  67.008  1.00  0.00     0.000 HD 
ENDROOT
BRANCH   2   5
HETATM    5  C   UNL     1      -9.920   7.674  68.029  1.00  0.00    -0.208 C  
HETATM    6  C   UNL     1     -10.563   9.048  68.396  1.00  0.00    -0.200 C  
HETATM    7  C   UNL     1      -8.630   7.933  67.206  1.00  0.00    -0.128 C  
HETATM    8  C   UNL     1      -8.835   8.874  66.018  1.00  0.00    -0.206 C  
HETATM    9  C   UNL     1     -10.740  10.003  67.216  1.00  0.00    -0.309 C  
HETATM   10  C   UNL     1      -9.435  10.204  66.457  1.00  0.00    -0.214 C  
BRANCH   5  11
HETATM   11  C   UNL     1      -9.563   6.989  69.377  1.00  0.00    -0.155 C  
HETATM   12  O   UNL     1     -11.479   6.300  70.666  1.00  0.00    -0.347 OA 
HETATM   13  C   UNL     1     -10.556   5.993  69.923  1.00  0.00    -0.279 C  
HETATM   14  O   UNL     1     -10.339   4.720  69.528  1.00  0.00    -0.196 OA 
ENDBRANCH   5  11
ENDBRANCH   2   5
TORSDOF 2
ENDMDL
MODEL      139
REMARK 921   NORMALIZED FREE ENERGY PREDICTED BY IDOCK:   -2.70 KCAL/MOL
REMARK 922        TOTAL FREE ENERGY PREDICTED BY IDOCK:   -3.20 KCAL/MOL
REMARK 923 INTER-LIGAND FREE ENERGY PREDICTED BY IDOCK:   -3.12 KCAL/MOL
REMARK 924 INTRA-LIGAND FREE ENERGY PREDICTED BY IDOCK:   -0.08 KCAL/MOL
REMARK 927      BINDING AFFINITY PREDICTED BY RF-SCORE:    0.00 PKD
ROOT
HETATM    1  N   UNL     1      -8.254   6.202  68.847  1.00  0.00    -0.111 NA 
HETATM    2  C   UNL     1      -8.817   7.513  69.143  1.00  0.00    -0.136 C  
HETATM    3  H1  UNL     1      -7.281   6.077  69.131  1.00  0.00     0.000 HD 
HETATM    4  H2  UNL     1      -8.362   5.988  67.856  1.00  0.00     0.000 HD 
ENDROOT
BRANCH   2   5
HETATM    5  C   UNL     1     -10.305   7.705  68.710  1.00  0.00    -0.218 C  
HETATM    6  C   UNL     1     -10.361   7.707  67.150  1.00  0.00    -0.385 C  
HETATM    7  C   UNL     1     -10.892   9.043  69.231  1.00  0.00    -0.131 C  
HETATM    8  C   UNL     1     -10.278  10.282  68.576  1.00  0.00    -0.192 C  
HETATM    9  C   UNL     1      -9.777   8.958  66.494  1.00  0.00    -0.322 C  
HETATM   10  C   UNL     1     -10.398  10.228  67.059  1.00  0.00    -0.299 C  
BRANCH   5  11
HETATM   11  C   UNL     1     -11.193   6.517  69.173  1.00  0.00    -0.367 C  
HETATM   12  O   UNL     1     -10.660   5.689  71.372  1.00  0.00    -0.239 OA 
HETATM   13  C   UNL     1     -11.400   6.354  70.658  1.00  0.00    -0.357 C  
HETATM   14  O   UNL     1     -12.481   7.002  71.142  1.00  0.00    -0.368 OA 
ENDBRANCH   5  11
ENDBRANCH   2   5
TORSDOF 2
ENDMDL
MODEL      140
REMARK 921   NORMALIZED FREE ENERGY PREDICTED BY IDOCK:   -2.68 KCAL/MOL
REMARK 922        TOTAL FREE ENERGY PREDICTED BY IDOCK:   -3.18 KCAL/MOL
REMARK 923 INTER-LIGAND FREE ENERGY PREDICTED BY IDOCK:   -3.34 KCAL/MOL
REMARK 924 INTRA-LIGAND FREE ENERGY PREDICTED BY IDOCK:    0.16 KCAL/MOL
REMARK 927      BINDING AFFINITY PREDICTED BY RF-SCORE:    0.00 PKD
ROOT
HETATM    1  N   UNL     1     -11.360   9.790  69.044  1.00  0.00    -0.464 NA 
HETATM    2  C   UNL     1     -10.140   9.396  69.735  1.00  0.00    -0.211 C  
HETATM    3  H1  UNL     1     -11.428  10.783  68.821  1.00  0.00     0.000 HD 
HETATM    4  H2  UNL     1     -12.178   9.491  69.576  1.00  0.00     0.000 HD 
ENDROOT
BRANCH   2   5
HETATM    5  C   UNL     1     -10.036   7.876  70.077  1.00  0.00    -0.191 C  
HETATM    6  C   UNL     1     -11.459   7.365  70.462  1.00  0.00    -0.281 C  
HETATM    7  C   UNL     1      -9.075   7.613  71.266  1.00  0.00    -0.146 C  
HETATM    8  C   UNL     1      -9.595   8.136  72.607  1.00  0.00    -0.352 C  
HETATM    9  C   UNL     1     -11.969   7.860  71.814  1.00  0.00    -0.337 C  
HETATM   10  C   UNL     1     -10.972   7.571  72.929  1.00  0.00    -0.434 C  
BRANCH   5  11
HETATM   11  C   UNL     1      -9.596   7.041  68.842  1.00  0.00    -0.140 C  
HETATM   12  O   UNL     1     -11.360   6.633  67.253  1.00  0.00    -0.324 OA 
HETATM   13  C   UNL     1     -10.357   7.264  67.558  1.00  0.00    -0.242 C  
HETATM   14  O   UNL     1      -9.833   8.220  66.762  1.00  0.00    -0.216 OA 
ENDBRANCH   5  11
ENDBRANCH   2   5
TORSDOF 2
ENDMDL
MODEL      141
REMARK 921   NORMALIZED FREE ENERGY PREDICTED BY IDOCK:   -2.68 KCAL/MOL
REMARK 922        TOTAL FREE ENERGY PREDICTED BY IDOCK:   -3.18 KCAL/MOL
REMARK 923 INTER-LIGAND FREE ENERGY PREDICTED BY IDOCK:   -3.09 KCAL/MOL
REMARK 924 INTRA-LIGAND FREE ENERGY PREDICTED BY IDOCK:   -0.09 KCAL/MOL
REMARK 927      BINDING AFFINITY PREDICTED BY RF-SCORE:    0.00 PKD
ROOT
HETATM    1  N   UNL     1     -10.912   7.957  67.956  1.00  0.00    -0.460 NA 
HETATM    2  C   UNL     1     -10.820   8.283  69.373  1.00  0.00    -0.084 C  
HETATM    3  H1  UNL     1     -11.017   8.760  67.335  1.00  0.00     0.000 HD 
HETATM    4  H2  UNL     1     -11.665   7.287  67.797  1.00  0.00     0.000 HD 
ENDROOT
BRANCH   2   5
HETATM    5  C   UNL     1     -10.659   7.056  70.324  1.00  0.00    -0.247 C  
HETATM    6  C   UNL     1     -11.677   7.212  71.498  1.00  0.00    -0.324 C  
HETATM    7  C   UNL     1      -9.228   6.964  70.917  1.00  0.00    -0.157 C  
HETATM    8  C   UNL     1      -8.894   8.088  71.899  1.00  0.00    -0.191 C  
HETATM    9  C   UNL     1     -11.329   8.314  72.499  1.00  0.00    -0.455 C  
HETATM   10  C   UNL     1      -9.911   8.159  73.031  1.00  0.00    -0.319 C  
BRANCH   5  11
HETATM   11  C   UNL     1     -11.026   5.726  69.609  1.00  0.00    -0.385 C  
HETATM   12  O   UNL     1      -9.381   4.983  68.013  1.00  0.00    -0.115 OA 
HETATM   13  C   UNL     1      -9.882   4.871  69.124  1.00  0.00    -0.193 C  
HETATM   14  O   UNL     1      -9.453   3.958  70.021  1.00  0.00    -0.160 OA 
ENDBRANCH   5  11
ENDBRANCH   2   5
TORSDOF 2
ENDMDL
MODEL      142
REMARK 921   NORMALIZED FREE ENERGY PREDICTED BY IDOCK:   -2.65 KCAL/MOL
REMARK 922        TOTAL FREE ENERGY PREDICTED BY IDOCK:   -3.14 KCAL/MOL
REMARK 923 INTER-LIGAND FREE ENERGY PREDICTED BY IDOCK:   -2.99 KCAL/MOL
REMARK 924 INTRA-LIGAND FREE ENERGY PREDICTED BY IDOCK:   -0.16 KCAL/MOL
REMARK 927      BINDING AFFINITY PREDICTED BY RF-SCORE:    0.00 PKD
ROOT
HETATM    1  N   UNL     1     -11.520   9.780  68.987  1.00  0.00    -0.467 NA 
HETATM    2  C   UNL     1     -10.508   9.108  69.792  1.00  0.00    -0.223 C  
HETATM    3  H1  UNL     1     -11.349  10.773  68.820  1.00  0.00     0.000 HD 
HETATM    4  H2  UNL     1     -12.444   9.647  69.399  1.00  0.00     0.000 HD 
ENDROOT
BRANCH   2   5
HETATM    5  C   UNL     1     -10.770   7.591  70.048  1.00  0.00    -0.248 C  
HETATM    6  C   UNL     1      -9.625   7.045  70.958  1.00  0.00    -0.170 C  
HETATM    7  C   UNL     1     -10.787   6.775  68.728  1.00  0.00    -0.280 C  
HETATM    8  C   UNL     1      -9.423   6.682  68.042  1.00  0.00    -0.118 C  
HETATM    9  C   UNL     1      -8.267   6.922  70.267  1.00  0.00    -0.129 C  
HETATM   10  C   UNL     1      -8.365   6.114  68.980  1.00  0.00    -0.112 C  
BRANCH   5  11
HETATM   11  C   UNL     1     -12.091   7.362  70.833  1.00  0.00    -0.290 C  
HETATM   12  O   UNL     1     -12.076   8.266  73.067  1.00  0.00    -0.249 OA 
HETATM   13  C   UNL     1     -12.436   8.370  71.901  1.00  0.00    -0.347 C  
HETATM   14  O   UNL     1     -13.188   9.403  71.467  1.00  0.00    -0.355 OA 
ENDBRANCH   5  11
ENDBRANCH   2   5
TORSDOF 2
ENDMDL
MODEL      143
REMARK 921   NORMALIZED FREE ENERGY PREDICTED BY IDOCK:   -2.65 KCAL/MOL
REMARK 922        TOTAL FREE ENERGY PREDICTED BY IDOCK:   -3.14 KCAL/MOL
REMARK 923 INTER-LIGAND FREE ENERGY PREDICTED BY IDOCK:   -2.99 KCAL/MOL
REMARK 924 INTRA-LIGAND FREE ENERGY PREDICTED BY IDOCK:   -0.15 KCAL/MOL
REMARK 927      BINDING AFFINITY PREDICTED BY RF-SCORE:    0.00 PKD
ROOT
HETATM    1  N   UNL     1     -10.927   8.241  67.964  1.00  0.00    -0.460 NA 
HETATM    2  C   UNL     1     -10.147   8.879  66.912  1.00  0.00    -0.273 C  
HETATM    3  H1  UNL     1     -11.150   7.259  67.801  1.00  0.00     0.000 HD 
HETATM    4  H2  UNL     1     -11.780   8.772  68.140  1.00  0.00     0.000 HD 
ENDROOT
BRANCH   2   5
HETATM    5  C   UNL     1      -9.805  10.382  67.161  1.00  0.00    -0.221 C  
HETATM    6  C   UNL     1      -8.972  10.900  65.947  1.00  0.00    -0.206 C  
HETATM    7  C   UNL     1      -8.973  10.580  68.456  1.00  0.00    -0.147 C  
HETATM    8  C   UNL     1      -7.556  10.011  68.372  1.00  0.00    -0.083 C  
HETATM    9  C   UNL     1      -7.545  10.358  65.878  1.00  0.00    -0.146 C  
HETATM   10  C   UNL     1      -6.795  10.585  67.183  1.00  0.00    -0.084 C  
BRANCH   5  11
HETATM   11  C   UNL     1     -11.087  11.259  67.211  1.00  0.00    -0.367 C  
HETATM   12  O   UNL     1     -12.406  10.957  69.205  1.00  0.00    -0.435 OA 
HETATM   13  C   UNL     1     -11.605  11.637  68.577  1.00  0.00    -0.317 C  
HETATM   14  O   UNL     1     -11.114  12.800  69.054  1.00  0.00    -0.251 OA 
ENDBRANCH   5  11
ENDBRANCH   2   5
TORSDOF 2
ENDMDL
MODEL      144
REMARK 921   NORMALIZED FREE ENERGY PREDICTED BY IDOCK:   -2.64 KCAL/MOL
REMARK 922        TOTAL FREE ENERGY PREDICTED BY IDOCK:   -3.13 KCAL/MOL
REMARK 923 INTER-LIGAND FREE ENERGY PREDICTED BY IDOCK:   -3.04 KCAL/MOL
REMARK 924 INTRA-LIGAND FREE ENERGY PREDICTED BY IDOCK:   -0.09 KCAL/MOL
REMARK 927      BINDING AFFINITY PREDICTED BY RF-SCORE:    0.00 PKD
ROOT
HETATM    1  N   UNL     1     -10.187  12.210  67.767  1.00  0.00    -0.197 NA 
HETATM    2  C   UNL     1      -9.621  11.275  68.729  1.00  0.00    -0.151 C  
HETATM    3  H1  UNL     1      -9.565  12.969  67.485  1.00  0.00     0.000 HD 
HETATM    4  H2  UNL     1     -11.066  12.589  68.119  1.00  0.00     0.000 HD 
ENDROOT
BRANCH   2   5
HETATM    5  C   UNL     1     -10.572  10.115  69.160  1.00  0.00    -0.247 C  
HETATM    6  C   UNL     1     -10.116   9.606  70.564  1.00  0.00    -0.338 C  
HETATM    7  C   UNL     1     -10.528   8.927  68.163  1.00  0.00    -0.254 C  
HETATM    8  C   UNL     1      -9.197   8.172  68.161  1.00  0.00    -0.136 C  
HETATM    9  C   UNL     1      -8.802   8.824  70.560  1.00  0.00    -0.200 C  
HETATM   10  C   UNL     1      -8.834   7.680  69.555  1.00  0.00    -0.139 C  
BRANCH   5  11
HETATM   11  C   UNL     1     -12.035  10.610  69.336  1.00  0.00    -0.298 C  
HETATM   12  O   UNL     1     -12.669  11.009  71.626  1.00  0.00    -0.402 OA 
HETATM   13  C   UNL     1     -12.328  11.466  70.543  1.00  0.00    -0.349 C  
HETATM   14  O   UNL     1     -12.189  12.792  70.329  1.00  0.00    -0.334 OA 
ENDBRANCH   5  11
ENDBRANCH   2   5
TORSDOF 2
ENDMDL
MODEL      145
REMARK 921   NORMALIZED FREE ENERGY PREDICTED BY IDOCK:   -2.63 KCAL/MOL
REMARK 922        TOTAL FREE ENERGY PREDICTED BY IDOCK:   -3.12 KCAL/MOL
REMARK 923 INTER-LIGAND FREE ENERGY PREDICTED BY IDOCK:   -3.25 KCAL/MOL
REMARK 924 INTRA-LIGAND FREE ENERGY PREDICTED BY IDOCK:    0.13 KCAL/MOL
REMARK 927      BINDING AFFINITY PREDICTED BY RF-SCORE:    0.00 PKD
ROOT
HETATM    1  N   UNL     1      -8.805  11.262  65.309  1.00  0.00    -0.376 NA 
HETATM    2  C   UNL     1      -9.187  11.964  66.527  1.00  0.00    -0.214 C  
HETATM    3  H1  UNL     1      -8.491  10.300  65.445  1.00  0.00     0.000 HD 
HETATM    4  H2  UNL     1      -8.098  11.795  64.802  1.00  0.00     0.000 HD 
ENDROOT
BRANCH   2   5
HETATM    5  C   UNL     1      -9.668  13.435  66.317  1.00  0.00    -0.280 C  
HETATM    6  C   UNL     1     -10.835  13.713  67.316  1.00  0.00    -0.292 C  
HETATM    7  C   UNL     1     -10.181  13.677  64.873  1.00  0.00    -0.363 C  
HETATM    8  C   UNL     1     -11.482  12.940  64.549  1.00  0.00    -0.389 C  
HETATM    9  C   UNL     1     -12.145  13.002  66.978  1.00  0.00    -0.330 C  
HETATM   10  C   UNL     1     -12.581  13.284  65.546  1.00  0.00    -0.505 C  
BRANCH   5  11
HETATM   11  C   UNL     1      -8.550  14.457  66.664  1.00  0.00    -0.053 C  
HETATM   12  O   UNL     1      -8.011  14.565  69.010  1.00  0.00    -0.137 OA 
HETATM   13  C   UNL     1      -7.717  14.171  67.889  1.00  0.00    -0.158 C  
HETATM   14  O   UNL     1      -6.606  13.444  67.647  1.00  0.00    -0.151 OA 
ENDBRANCH   5  11
ENDBRANCH   2   5
TORSDOF 2
ENDMDL
MODEL      146
REMARK 921   NORMALIZED FREE ENERGY PREDICTED BY IDOCK:   -2.59 KCAL/MOL
REMARK 922        TOTAL FREE ENERGY PREDICTED BY IDOCK:   -3.08 KCAL/MOL
REMARK 923 INTER-LIGAND FREE ENERGY PREDICTED BY IDOCK:   -3.13 KCAL/MOL
REMARK 924 INTRA-LIGAND FREE ENERGY PREDICTED BY IDOCK:    0.06 KCAL/MOL
REMARK 927      BINDING AFFINITY PREDICTED BY RF-SCORE:    0.00 PKD
ROOT
HETATM    1  N   UNL     1     -11.530  12.108  65.057  1.00  0.00    -0.331 NA 
HETATM    2  C   UNL     1     -11.691  12.860  66.295  1.00  0.00    -0.399 C  
HETATM    3  H1  UNL     1     -12.013  12.500  64.248  1.00  0.00     0.000 HD 
HETATM    4  H2  UNL     1     -11.808  11.136  65.196  1.00  0.00     0.000 HD 
ENDROOT
BRANCH   2   5
HETATM    5  C   UNL     1     -10.952  12.260  67.532  1.00  0.00    -0.298 C  
HETATM    6  C   UNL     1     -11.127  13.245  68.730  1.00  0.00    -0.303 C  
HETATM    7  C   UNL     1      -9.435  12.068  67.265  1.00  0.00    -0.181 C  
HETATM    8  C   UNL     1      -8.663  13.380  67.124  1.00  0.00    -0.220 C  
HETATM    9  C   UNL     1     -10.332  14.544  68.606  1.00  0.00    -0.242 C  
HETATM   10  C   UNL     1      -8.857  14.275  68.341  1.00  0.00    -0.187 C  
BRANCH   5  11
HETATM   11  C   UNL     1     -11.588  10.915  67.982  1.00  0.00    -0.295 C  
HETATM   12  O   UNL     1      -9.991   9.275  68.734  1.00  0.00    -0.170 OA 
HETATM   13  C   UNL     1     -10.836  10.114  69.016  1.00  0.00    -0.224 C  
HETATM   14  O   UNL     1     -11.179  10.394  70.291  1.00  0.00    -0.283 OA 
ENDBRANCH   5  11
ENDBRANCH   2   5
TORSDOF 2
ENDMDL
MODEL      147
REMARK 921   NORMALIZED FREE ENERGY PREDICTED BY IDOCK:   -2.58 KCAL/MOL
REMARK 922        TOTAL FREE ENERGY PREDICTED BY IDOCK:   -3.06 KCAL/MOL
REMARK 923 INTER-LIGAND FREE ENERGY PREDICTED BY IDOCK:   -3.14 KCAL/MOL
REMARK 924 INTRA-LIGAND FREE ENERGY PREDICTED BY IDOCK:    0.07 KCAL/MOL
REMARK 927      BINDING AFFINITY PREDICTED BY RF-SCORE:    0.00 PKD
ROOT
HETATM    1  N   UNL     1      -8.731   9.436  71.339  1.00  0.00    -0.292 NA 
HETATM    2  C   UNL     1      -9.472   8.187  71.212  1.00  0.00    -0.159 C  
HETATM    3  H1  UNL     1      -7.970   9.418  72.018  1.00  0.00     0.000 HD 
HETATM    4  H2  UNL     1      -9.370  10.205  71.545  1.00  0.00     0.000 HD 
ENDROOT
BRANCH   2   5
HETATM    5  C   UNL     1     -10.636   8.214  70.172  1.00  0.00    -0.237 C  
HETATM    6  C   UNL     1     -11.238   9.654  70.152  1.00  0.00    -0.302 C  
HETATM    7  C   UNL     1     -11.762   7.211  70.538  1.00  0.00    -0.314 C  
HETATM    8  C   UNL     1     -12.542   7.590  71.798  1.00  0.00    -0.363 C  
HETATM    9  C   UNL     1     -12.043  10.025  71.396  1.00  0.00    -0.498 C  
HETATM   10  C   UNL     1     -13.124   8.994  71.692  1.00  0.00    -0.420 C  
BRANCH   5  11
HETATM   11  C   UNL     1     -10.124   7.939  68.731  1.00  0.00    -0.203 C  
HETATM   12  O   UNL     1      -8.070   9.074  68.186  1.00  0.00    -0.104 OA 
HETATM   13  C   UNL     1      -8.636   8.036  68.504  1.00  0.00    -0.128 C  
HETATM   14  O   UNL     1      -7.972   6.873  68.673  1.00  0.00    -0.116 OA 
ENDBRANCH   5  11
ENDBRANCH   2   5
TORSDOF 2
ENDMDL
MODEL      148
REMARK 921   NORMALIZED FREE ENERGY PREDICTED BY IDOCK:   -2.57 KCAL/MOL
REMARK 922        TOTAL FREE ENERGY PREDICTED BY IDOCK:   -3.05 KCAL/MOL
REMARK 923 INTER-LIGAND FREE ENERGY PREDICTED BY IDOCK:   -3.03 KCAL/MOL
REMARK 924 INTRA-LIGAND FREE ENERGY PREDICTED BY IDOCK:   -0.02 KCAL/MOL
REMARK 927      BINDING AFFINITY PREDICTED BY RF-SCORE:    0.00 PKD
ROOT
HETATM    1  N   UNL     1      -9.496  18.379  65.793  1.00  0.00    -0.383 NA 
HETATM    2  C   UNL     1      -9.611  17.070  66.422  1.00  0.00    -0.282 C  
HETATM    3  H1  UNL     1     -10.224  18.595  65.111  1.00  0.00     0.000 HD 
HETATM    4  H2  UNL     1      -8.574  18.486  65.369  1.00  0.00     0.000 HD 
ENDROOT
BRANCH   2   5
HETATM    5  C   UNL     1      -8.497  16.739  67.465  1.00  0.00    -0.203 C  
HETATM    6  C   UNL     1      -7.835  15.385  67.057  1.00  0.00    -0.244 C  
HETATM    7  C   UNL     1      -9.069  16.599  68.900  1.00  0.00    -0.238 C  
HETATM    8  C   UNL     1      -9.964  15.372  69.091  1.00  0.00    -0.241 C  
HETATM    9  C   UNL     1      -8.714  14.155  67.275  1.00  0.00    -0.229 C  
HETATM   10  C   UNL     1      -9.240  14.089  68.703  1.00  0.00    -0.119 C  
BRANCH   5  11
HETATM   11  C   UNL     1      -7.361  17.799  67.445  1.00  0.00    -0.202 C  
HETATM   12  O   UNL     1      -7.588  19.514  69.122  1.00  0.00    -0.361 OA 
HETATM   13  C   UNL     1      -7.041  18.484  68.750  1.00  0.00    -0.291 C  
HETATM   14  O   UNL     1      -6.087  17.868  69.480  1.00  0.00    -0.234 OA 
ENDBRANCH   5  11
ENDBRANCH   2   5
TORSDOF 2
ENDMDL
MODEL      149
REMARK 921   NORMALIZED FREE ENERGY PREDICTED BY IDOCK:   -2.56 KCAL/MOL
REMARK 922        TOTAL FREE ENERGY PREDICTED BY IDOCK:   -3.04 KCAL/MOL
REMARK 923 INTER-LIGAND FREE ENERGY PREDICTED BY IDOCK:   -3.02 KCAL/MOL
REMARK 924 INTRA-LIGAND FREE ENERGY PREDICTED BY IDOCK:   -0.02 KCAL/MOL
REMARK 927      BINDING AFFINITY PREDICTED BY RF-SCORE:    0.00 PKD
ROOT
HETATM    1  N   UNL     1      -8.990   9.412  71.693  1.00  0.00    -0.236 NA 
HETATM    2  C   UNL     1      -9.279   9.039  70.314  1.00  0.00    -0.202 C  
HETATM    3  H1  UNL     1      -8.000   9.537  71.908  1.00  0.00     0.000 HD 
HETATM    4  H2  UNL     1      -9.408   8.738  72.335  1.00  0.00     0.000 HD 
ENDROOT
BRANCH   2   5
HETATM    5  C   UNL     1     -10.793   8.848  69.986  1.00  0.00    -0.239 C  
HETATM    6  C   UNL     1     -10.951   8.795  68.434  1.00  0.00     0.101 C  
HETATM    7  C   UNL     1     -11.657  10.014  70.534  1.00  0.00    -0.403 C  
HETATM    8  C   UNL     1     -11.413  11.348  69.826  1.00  0.00    -0.376 C  
HETATM    9  C   UNL     1     -10.739  10.133  67.726  1.00  0.00    -0.328 C  
HETATM   10  C   UNL     1     -11.616  11.226  68.321  1.00  0.00    -0.370 C  
BRANCH   5  11
HETATM   11  C   UNL     1     -11.328   7.491  70.521  1.00  0.00    -0.279 C  
HETATM   12  O   UNL     1     -10.763   5.598  69.140  1.00  0.00    -0.276 OA 
HETATM   13  C   UNL     1     -10.547   6.253  70.152  1.00  0.00    -0.248 C  
HETATM   14  O   UNL     1      -9.587   5.918  71.039  1.00  0.00    -0.163 OA 
ENDBRANCH   5  11
ENDBRANCH   2   5
TORSDOF 2
ENDMDL
MODEL      150
REMARK 921   NORMALIZED FREE ENERGY PREDICTED BY IDOCK:   -2.54 KCAL/MOL
REMARK 922        TOTAL FREE ENERGY PREDICTED BY IDOCK:   -3.02 KCAL/MOL
REMARK 923 INTER-LIGAND FREE ENERGY PREDICTED BY IDOCK:   -2.92 KCAL/MOL
REMARK 924 INTRA-LIGAND FREE ENERGY PREDICTED BY IDOCK:   -0.10 KCAL/MOL
REMARK 927      BINDING AFFINITY PREDICTED BY RF-SCORE:    0.00 PKD
ROOT
HETATM    1  N   UNL     1      -8.072  17.393  66.950  1.00  0.00    -0.214 NA 
HETATM    2  C   UNL     1      -9.192  16.898  67.740  1.00  0.00    -0.230 C  
HETATM    3  H1  UNL     1      -8.155  18.363  66.644  1.00  0.00     0.000 HD 
HETATM    4  H2  UNL     1      -7.911  16.784  66.147  1.00  0.00     0.000 HD 
ENDROOT
BRANCH   2   5
HETATM    5  C   UNL     1      -9.065  15.414  68.207  1.00  0.00    -0.187 C  
HETATM    6  C   UNL     1      -9.109  14.500  66.943  1.00  0.00    -0.274 C  
HETATM    7  C   UNL     1     -10.222  15.005  69.157  1.00  0.00    -0.241 C  
HETATM    8  C   UNL     1     -11.588  14.936  68.472  1.00  0.00    -0.347 C  
HETATM    9  C   UNL     1     -10.480  14.404  66.274  1.00  0.00    -0.292 C  
HETATM   10  C   UNL     1     -11.561  14.003  67.268  1.00  0.00    -0.396 C  
BRANCH   5  11
HETATM   11  C   UNL     1      -7.695  15.144  68.888  1.00  0.00    -0.159 C  
HETATM   12  O   UNL     1      -6.532  13.218  68.026  1.00  0.00    -0.098 OA 
HETATM   13  C   UNL     1      -6.648  14.436  68.064  1.00  0.00    -0.150 C  
HETATM   14  O   UNL     1      -5.837  15.262  67.370  1.00  0.00    -0.329 OA 
ENDBRANCH   5  11
ENDBRANCH   2   5
TORSDOF 2
ENDMDL
MODEL      151
REMARK 921   NORMALIZED FREE ENERGY PREDICTED BY IDOCK:   -2.54 KCAL/MOL
REMARK 922        TOTAL FREE ENERGY PREDICTED BY IDOCK:   -3.02 KCAL/MOL
REMARK 923 INTER-LIGAND FREE ENERGY PREDICTED BY IDOCK:   -3.00 KCAL/MOL
REMARK 924 INTRA-LIGAND FREE ENERGY PREDICTED BY IDOCK:   -0.02 KCAL/MOL
REMARK 927      BINDING AFFINITY PREDICTED BY RF-SCORE:    0.00 PKD
ROOT
HETATM    1  N   UNL     1      -8.090   9.180  70.780  1.00  0.00    -0.165 NA 
HETATM    2  C   UNL     1      -8.667  10.075  69.785  1.00  0.00    -0.179 C  
HETATM    3  H1  UNL     1      -7.092   9.311  70.951  1.00  0.00     0.000 HD 
HETATM    4  H2  UNL     1      -8.281   8.209  70.533  1.00  0.00     0.000 HD 
ENDROOT
BRANCH   2   5
HETATM    5  C   UNL     1     -10.193   9.875  69.524  1.00  0.00    -0.243 C  
HETATM    6  C   UNL     1     -10.443   8.362  69.233  1.00  0.00    -0.223 C  
HETATM    7  C   UNL     1     -10.687  10.703  68.308  1.00  0.00    -0.260 C  
HETATM    8  C   UNL     1     -10.136  10.216  66.966  1.00  0.00    -0.277 C  
HETATM    9  C   UNL     1      -9.923   7.880  67.880  1.00  0.00    -0.220 C  
HETATM   10  C   UNL     1     -10.446   8.742  66.739  1.00  0.00    -0.283 C  
BRANCH   5  11
HETATM   11  C   UNL     1     -11.039  10.219  70.782  1.00  0.00    -0.303 C  
HETATM   12  O   UNL     1     -12.152  12.353  70.663  1.00  0.00    -0.358 OA 
HETATM   13  C   UNL     1     -12.222  11.133  70.582  1.00  0.00    -0.397 C  
HETATM   14  O   UNL     1     -13.378  10.492  70.310  1.00  0.00    -0.090 OA 
ENDBRANCH   5  11
ENDBRANCH   2   5
TORSDOF 2
ENDMDL
MODEL      152
REMARK 921   NORMALIZED FREE ENERGY PREDICTED BY IDOCK:   -2.53 KCAL/MOL
REMARK 922        TOTAL FREE ENERGY PREDICTED BY IDOCK:   -3.01 KCAL/MOL
REMARK 923 INTER-LIGAND FREE ENERGY PREDICTED BY IDOCK:   -3.00 KCAL/MOL
REMARK 924 INTRA-LIGAND FREE ENERGY PREDICTED BY IDOCK:   -0.01 KCAL/MOL
REMARK 927      BINDING AFFINITY PREDICTED BY RF-SCORE:    0.00 PKD
ROOT
HETATM    1  N   UNL     1     -10.334   8.257  66.266  1.00  0.00    -0.362 NA 
HETATM    2  C   UNL     1      -9.327   9.160  66.808  1.00  0.00    -0.165 C  
HETATM    3  H1  UNL     1     -10.426   7.368  66.759  1.00  0.00     0.000 HD 
HETATM    4  H2  UNL     1     -10.163   8.094  65.274  1.00  0.00     0.000 HD 
ENDROOT
BRANCH   2   5
HETATM    5  C   UNL     1      -9.186  10.520  66.054  1.00  0.00    -0.205 C  
HETATM    6  C   UNL     1      -7.969  10.415  65.082  1.00  0.00    -0.134 C  
HETATM    7  C   UNL     1      -8.941  11.702  67.030  1.00  0.00    -0.182 C  
HETATM    8  C   UNL     1      -7.578  11.657  67.723  1.00  0.00    -0.121 C  
HETATM    9  C   UNL     1      -6.605  10.401  65.770  1.00  0.00    -0.126 C  
HETATM   10  C   UNL     1      -6.441  11.586  66.712  1.00  0.00    -0.128 C  
BRANCH   5  11
HETATM   11  C   UNL     1     -10.426  10.812  65.164  1.00  0.00    -0.299 C  
HETATM   12  O   UNL     1     -12.037  12.290  66.179  1.00  0.00    -0.625 OA 
HETATM   13  C   UNL     1     -11.125  12.132  65.377  1.00  0.00    -0.317 C  
HETATM   14  O   UNL     1     -10.666  13.135  64.599  1.00  0.00    -0.335 OA 
ENDBRANCH   5  11
ENDBRANCH   2   5
TORSDOF 2
ENDMDL
MODEL      153
REMARK 921   NORMALIZED FREE ENERGY PREDICTED BY IDOCK:   -2.45 KCAL/MOL
REMARK 922        TOTAL FREE ENERGY PREDICTED BY IDOCK:   -2.92 KCAL/MOL
REMARK 923 INTER-LIGAND FREE ENERGY PREDICTED BY IDOCK:   -2.87 KCAL/MOL
REMARK 924 INTRA-LIGAND FREE ENERGY PREDICTED BY IDOCK:   -0.05 KCAL/MOL
REMARK 927      BINDING AFFINITY PREDICTED BY RF-SCORE:    0.00 PKD
ROOT
HETATM    1  N   UNL     1     -11.816   5.657  72.755  1.00  0.00    -0.513 NA 
HETATM    2  C   UNL     1     -11.090   6.862  73.132  1.00  0.00    -0.205 C  
HETATM    3  H1  UNL     1     -12.600   5.418  73.362  1.00  0.00     0.000 HD 
HETATM    4  H2  UNL     1     -11.174   4.867  72.682  1.00  0.00     0.000 HD 
ENDROOT
BRANCH   2   5
HETATM    5  C   UNL     1      -9.890   7.228  72.202  1.00  0.00    -0.185 C  
HETATM    6  C   UNL     1      -9.037   5.940  71.979  1.00  0.00    -0.147 C  
HETATM    7  C   UNL     1      -8.983   8.321  72.828  1.00  0.00    -0.323 C  
HETATM    8  C   UNL     1      -8.211   7.850  74.062  1.00  0.00    -0.294 C  
HETATM    9  C   UNL     1      -8.240   5.484  73.200  1.00  0.00    -0.118 C  
HETATM   10  C   UNL     1      -7.380   6.610  73.759  1.00  0.00    -0.083 C  
BRANCH   5  11
HETATM   11  C   UNL     1     -10.372   7.677  70.795  1.00  0.00    -0.203 C  
HETATM   12  O   UNL     1     -12.306   9.113  70.831  1.00  0.00    -0.254 OA 
HETATM   13  C   UNL     1     -11.093   8.999  70.708  1.00  0.00    -0.272 C  
HETATM   14  O   UNL     1     -10.288  10.056  70.474  1.00  0.00    -0.272 OA 
ENDBRANCH   5  11
ENDBRANCH   2   5
TORSDOF 2
ENDMDL
MODEL      154
REMARK 921   NORMALIZED FREE ENERGY PREDICTED BY IDOCK:   -2.43 KCAL/MOL
REMARK 922        TOTAL FREE ENERGY PREDICTED BY IDOCK:   -2.90 KCAL/MOL
REMARK 923 INTER-LIGAND FREE ENERGY PREDICTED BY IDOCK:   -2.82 KCAL/MOL
REMARK 924 INTRA-LIGAND FREE ENERGY PREDICTED BY IDOCK:   -0.09 KCAL/MOL
REMARK 927      BINDING AFFINITY PREDICTED BY RF-SCORE:    0.00 PKD
ROOT
HETATM    1  N   UNL     1     -11.204   9.376  69.444  1.00  0.00    -0.436 NA 
HETATM    2  C   UNL     1     -10.025   8.538  69.614  1.00  0.00    -0.192 C  
HETATM    3  H1  UNL     1     -11.078  10.178  68.825  1.00  0.00     0.000 HD 
HETATM    4  H2  UNL     1     -11.552   9.683  70.352  1.00  0.00     0.000 HD 
ENDROOT
BRANCH   2   5
HETATM    5  C   UNL     1     -10.218   7.311  70.559  1.00  0.00    -0.203 C  
HETATM    6  C   UNL     1     -10.231   7.828  72.032  1.00  0.00    -0.253 C  
HETATM    7  C   UNL     1      -9.072   6.275  70.407  1.00  0.00    -0.157 C  
HETATM    8  C   UNL     1      -7.718   6.774  70.916  1.00  0.00    -0.093 C  
HETATM    9  C   UNL     1      -8.874   8.298  72.554  1.00  0.00    -0.297 C  
HETATM   10  C   UNL     1      -7.803   7.232  72.367  1.00  0.00    -0.102 C  
BRANCH   5  11
HETATM   11  C   UNL     1     -11.592   6.622  70.330  1.00  0.00    -0.457 C  
HETATM   12  O   UNL     1     -12.750   6.041  72.362  1.00  0.00    -0.069 OA 
HETATM   13  C   UNL     1     -12.634   6.799  71.407  1.00  0.00    -0.297 C  
HETATM   14  O   UNL     1     -13.441   7.865  71.229  1.00  0.00    -0.260 OA 
ENDBRANCH   5  11
ENDBRANCH   2   5
TORSDOF 2
ENDMDL
MODEL      155
REMARK 921   NORMALIZED FREE ENERGY PREDICTED BY IDOCK:   -2.43 KCAL/MOL
REMARK 922        TOTAL FREE ENERGY PREDICTED BY IDOCK:   -2.90 KCAL/MOL
REMARK 923 INTER-LIGAND FREE ENERGY PREDICTED BY IDOCK:   -2.95 KCAL/MOL
REMARK 924 INTRA-LIGAND FREE ENERGY PREDICTED BY IDOCK:    0.06 KCAL/MOL
REMARK 927      BINDING AFFINITY PREDICTED BY RF-SCORE:    0.00 PKD
ROOT
HETATM    1  N   UNL     1     -11.706  10.100  68.281  1.00  0.00    -0.681 NA 
HETATM    2  C   UNL     1     -10.876  10.316  69.458  1.00  0.00    -0.256 C  
HETATM    3  H1  UNL     1     -12.180  10.932  67.928  1.00  0.00     0.000 HD 
HETATM    4  H2  UNL     1     -12.384   9.358  68.460  1.00  0.00     0.000 HD 
ENDROOT
BRANCH   2   5
HETATM    5  C   UNL     1     -10.152   9.043  69.998  1.00  0.00    -0.215 C  
HETATM    6  C   UNL     1      -8.832   9.493  70.699  1.00  0.00    -0.208 C  
HETATM    7  C   UNL     1      -9.796   8.051  68.859  1.00  0.00    -0.176 C  
HETATM    8  C   UNL     1      -8.717   8.568  67.905  1.00  0.00    -0.138 C  
HETATM    9  C   UNL     1      -7.741   9.981  69.747  1.00  0.00    -0.173 C  
HETATM   10  C   UNL     1      -7.450   8.959  68.656  1.00  0.00    -0.088 C  
BRANCH   5  11
HETATM   11  C   UNL     1     -10.995   8.323  71.087  1.00  0.00    -0.286 C  
HETATM   12  O   UNL     1     -11.960   6.238  70.363  1.00  0.00    -0.273 OA 
HETATM   13  C   UNL     1     -11.090   6.820  70.997  1.00  0.00    -0.273 C  
HETATM   14  O   UNL     1     -10.133   6.162  71.685  1.00  0.00    -0.183 OA 
ENDBRANCH   5  11
ENDBRANCH   2   5
TORSDOF 2
ENDMDL
MODEL      156
REMARK 921   NORMALIZED FREE ENERGY PREDICTED BY IDOCK:   -2.42 KCAL/MOL
REMARK 922        TOTAL FREE ENERGY PREDICTED BY IDOCK:   -2.89 KCAL/MOL
REMARK 923 INTER-LIGAND FREE ENERGY PREDICTED BY IDOCK:   -3.14 KCAL/MOL
REMARK 924 INTRA-LIGAND FREE ENERGY PREDICTED BY IDOCK:    0.25 KCAL/MOL
REMARK 927      BINDING AFFINITY PREDICTED BY RF-SCORE:    0.00 PKD
ROOT
HETATM    1  N   UNL     1     -10.140   9.578  69.089  1.00  0.00    -0.187 NA 
HETATM    2  C   UNL     1      -9.245   8.894  70.014  1.00  0.00    -0.174 C  
HETATM    3  H1  UNL     1      -9.689  10.260  68.478  1.00  0.00     0.000 HD 
HETATM    4  H2  UNL     1     -10.907  10.015  69.600  1.00  0.00     0.000 HD 
ENDROOT
BRANCH   2   5
HETATM    5  C   UNL     1      -9.934   7.850  70.948  1.00  0.00    -0.196 C  
HETATM    6  C   UNL     1      -8.959   6.646  71.135  1.00  0.00    -0.145 C  
HETATM    7  C   UNL     1     -11.264   7.324  70.348  1.00  0.00    -0.302 C  
HETATM    8  C   UNL     1     -11.078   6.459  69.100  1.00  0.00    -0.428 C  
HETATM    9  C   UNL     1      -8.795   5.762  69.900  1.00  0.00    -0.130 C  
HETATM   10  C   UNL     1     -10.141   5.289  69.367  1.00  0.00    -0.311 C  
BRANCH   5  11
HETATM   11  C   UNL     1     -10.182   8.430  72.368  1.00  0.00    -0.399 C  
HETATM   12  O   UNL     1      -9.384   7.025  74.156  1.00  0.00    -0.210 OA 
HETATM   13  C   UNL     1      -9.221   8.015  73.455  1.00  0.00    -0.263 C  
HETATM   14  O   UNL     1      -8.159   8.835  73.599  1.00  0.00    -0.390 OA 
ENDBRANCH   5  11
ENDBRANCH   2   5
TORSDOF 2
ENDMDL
MODEL      157
REMARK 921   NORMALIZED FREE ENERGY PREDICTED BY IDOCK:   -2.42 KCAL/MOL
REMARK 922        TOTAL FREE ENERGY PREDICTED BY IDOCK:   -2.88 KCAL/MOL
REMARK 923 INTER-LIGAND FREE ENERGY PREDICTED BY IDOCK:   -2.77 KCAL/MOL
REMARK 924 INTRA-LIGAND FREE ENERGY PREDICTED BY IDOCK:   -0.11 KCAL/MOL
REMARK 927      BINDING AFFINITY PREDICTED BY RF-SCORE:    0.00 PKD
ROOT
HETATM    1  N   UNL     1      -8.554   8.412  70.186  1.00  0.00    -0.128 NA 
HETATM    2  C   UNL     1      -8.943   7.100  70.687  1.00  0.00    -0.154 C  
HETATM    3  H1  UNL     1      -7.632   8.451  69.749  1.00  0.00     0.000 HD 
HETATM    4  H2  UNL     1      -8.621   9.107  70.930  1.00  0.00     0.000 HD 
ENDROOT
BRANCH   2   5
HETATM    5  C   UNL     1     -10.352   7.040  71.356  1.00  0.00    -0.211 C  
HETATM    6  C   UNL     1     -10.366   8.040  72.554  1.00  0.00    -0.374 C  
HETATM    7  C   UNL     1     -10.682   5.621  71.889  1.00  0.00    -0.299 C  
HETATM    8  C   UNL     1      -9.821   5.194  73.080  1.00  0.00    -0.177 C  
HETATM    9  C   UNL     1      -9.532   7.602  73.758  1.00  0.00    -0.300 C  
HETATM   10  C   UNL     1      -9.909   6.201  74.220  1.00  0.00    -0.267 C  
BRANCH   5  11
HETATM   11  C   UNL     1     -11.467   7.516  70.383  1.00  0.00    -0.219 C  
HETATM   12  O   UNL     1     -12.974   9.138  71.335  1.00  0.00    -0.323 OA 
HETATM   13  C   UNL     1     -12.021   8.902  70.603  1.00  0.00    -0.073 C  
HETATM   14  O   UNL     1     -11.381   9.871  69.916  1.00  0.00    -0.244 OA 
ENDBRANCH   5  11
ENDBRANCH   2   5
TORSDOF 2
ENDMDL
MODEL      158
REMARK 921   NORMALIZED FREE ENERGY PREDICTED BY IDOCK:   -2.41 KCAL/MOL
REMARK 922        TOTAL FREE ENERGY PREDICTED BY IDOCK:   -2.88 KCAL/MOL
REMARK 923 INTER-LIGAND FREE ENERGY PREDICTED BY IDOCK:   -2.83 KCAL/MOL
REMARK 924 INTRA-LIGAND FREE ENERGY PREDICTED BY IDOCK:   -0.05 KCAL/MOL
REMARK 927      BINDING AFFINITY PREDICTED BY RF-SCORE:    0.00 PKD
ROOT
HETATM    1  N   UNL     1      -9.165   7.524  73.268  1.00  0.00    -0.181 NA 
HETATM    2  C   UNL     1      -9.172   7.602  71.813  1.00  0.00    -0.137 C  
HETATM    3  H1  UNL     1      -8.270   7.742  73.707  1.00  0.00     0.000 HD 
HETATM    4  H2  UNL     1      -9.493   6.607  73.573  1.00  0.00     0.000 HD 
ENDROOT
BRANCH   2   5
HETATM    5  C   UNL     1     -10.541   7.268  71.141  1.00  0.00    -0.236 C  
HETATM    6  C   UNL     1     -10.536   7.870  69.700  1.00  0.00    -0.234 C  
HETATM    7  C   UNL     1     -11.735   7.872  71.927  1.00  0.00    -0.342 C  
HETATM    8  C   UNL     1     -11.797   9.400  71.878  1.00  0.00    -0.402 C  
HETATM    9  C   UNL     1     -10.630   9.394  69.647  1.00  0.00    -0.239 C  
HETATM   10  C   UNL     1     -11.821   9.911  70.443  1.00  0.00    -0.310 C  
BRANCH   5  11
HETATM   11  C   UNL     1     -10.736   5.736  70.968  1.00  0.00    -0.326 C  
HETATM   12  O   UNL     1      -8.687   4.470  71.048  1.00  0.00    -0.108 OA 
HETATM   13  C   UNL     1      -9.709   4.839  71.613  1.00  0.00    -0.169 C  
HETATM   14  O   UNL     1     -10.013   4.464  72.874  1.00  0.00    -0.143 OA 
ENDBRANCH   5  11
ENDBRANCH   2   5
TORSDOF 2
ENDMDL
MODEL      159
REMARK 921   NORMALIZED FREE ENERGY PREDICTED BY IDOCK:   -2.40 KCAL/MOL
REMARK 922        TOTAL FREE ENERGY PREDICTED BY IDOCK:   -2.87 KCAL/MOL
REMARK 923 INTER-LIGAND FREE ENERGY PREDICTED BY IDOCK:   -2.74 KCAL/MOL
REMARK 924 INTRA-LIGAND FREE ENERGY PREDICTED BY IDOCK:   -0.12 KCAL/MOL
REMARK 927      BINDING AFFINITY PREDICTED BY RF-SCORE:    0.00 PKD
ROOT
HETATM    1  N   UNL     1      -7.936   5.383  70.356  1.00  0.00    -0.098 NA 
HETATM    2  C   UNL     1      -9.153   6.156  70.146  1.00  0.00    -0.152 C  
HETATM    3  H1  UNL     1      -7.283   5.385  69.572  1.00  0.00     0.000 HD 
HETATM    4  H2  UNL     1      -8.169   4.424  70.618  1.00  0.00     0.000 HD 
ENDROOT
BRANCH   2   5
HETATM    5  C   UNL     1     -10.153   6.152  71.345  1.00  0.00    -0.230 C  
HETATM    6  C   UNL     1     -11.542   6.634  70.823  1.00  0.00    -0.432 C  
HETATM    7  C   UNL     1      -9.695   7.099  72.486  1.00  0.00    -0.180 C  
HETATM    8  C   UNL     1      -9.753   8.583  72.116  1.00  0.00    -0.387 C  
HETATM    9  C   UNL     1     -11.612   8.122  70.482  1.00  0.00    -0.130 C  
HETATM   10  C   UNL     1     -11.144   8.986  71.646  1.00  0.00    -0.433 C  
BRANCH   5  11
HETATM   11  C   UNL     1     -10.374   4.717  71.901  1.00  0.00    -0.242 C  
HETATM   12  O   UNL     1      -8.582   3.918  73.298  1.00  0.00    -0.091 OA 
HETATM   13  C   UNL     1      -9.711   4.382  73.214  1.00  0.00    -0.129 C  
HETATM   14  O   UNL     1     -10.474   4.630  74.300  1.00  0.00    -0.238 OA 
ENDBRANCH   5  11
ENDBRANCH   2   5
TORSDOF 2
ENDMDL
MODEL      160
REMARK 921   NORMALIZED FREE ENERGY PREDICTED BY IDOCK:   -2.39 KCAL/MOL
REMARK 922        TOTAL FREE ENERGY PREDICTED BY IDOCK:   -2.85 KCAL/MOL
REMARK 923 INTER-LIGAND FREE ENERGY PREDICTED BY IDOCK:   -2.84 KCAL/MOL
REMARK 924 INTRA-LIGAND FREE ENERGY PREDICTED BY IDOCK:   -0.01 KCAL/MOL
REMARK 927      BINDING AFFINITY PREDICTED BY RF-SCORE:    0.00 PKD
ROOT
HETATM    1  N   UNL     1      -9.037  11.165  64.441  1.00  0.00    -0.371 NA 
HETATM    2  C   UNL     1      -9.889  11.859  65.398  1.00  0.00    -0.233 C  
HETATM    3  H1  UNL     1      -9.409  11.111  63.492  1.00  0.00     0.000 HD 
HETATM    4  H2  UNL     1      -8.810  10.231  64.784  1.00  0.00     0.000 HD 
ENDROOT
BRANCH   2   5
HETATM    5  C   UNL     1      -9.319  11.942  66.850  1.00  0.00    -0.198 C  
HETATM    6  C   UNL     1      -9.659  10.606  67.583  1.00  0.00    -0.178 C  
HETATM    7  C   UNL     1      -9.938  13.119  67.649  1.00  0.00    -0.219 C  
HETATM    8  C   UNL     1     -11.421  12.933  67.972  1.00  0.00    -0.361 C  
HETATM    9  C   UNL     1     -11.136  10.432  67.935  1.00  0.00    -0.363 C  
HETATM   10  C   UNL     1     -11.671  11.626  68.713  1.00  0.00    -0.392 C  
BRANCH   5  11
HETATM   11  C   UNL     1      -7.769  12.052  66.851  1.00  0.00    -0.078 C  
HETATM   12  O   UNL     1      -6.944  14.280  67.252  1.00  0.00    -0.199 OA 
HETATM   13  C   UNL     1      -7.162  13.155  67.682  1.00  0.00    -0.159 C  
HETATM   14  O   UNL     1      -6.870  12.797  68.950  1.00  0.00    -0.093 OA 
ENDBRANCH   5  11
ENDBRANCH   2   5
TORSDOF 2
ENDMDL
MODEL      161
REMARK 921   NORMALIZED FREE ENERGY PREDICTED BY IDOCK:   -2.39 KCAL/MOL
REMARK 922        TOTAL FREE ENERGY PREDICTED BY IDOCK:   -2.85 KCAL/MOL
REMARK 923 INTER-LIGAND FREE ENERGY PREDICTED BY IDOCK:   -2.94 KCAL/MOL
REMARK 924 INTRA-LIGAND FREE ENERGY PREDICTED BY IDOCK:    0.09 KCAL/MOL
REMARK 927      BINDING AFFINITY PREDICTED BY RF-SCORE:    0.00 PKD
ROOT
HETATM    1  N   UNL     1      -7.540  14.116  67.548  1.00  0.00    -0.179 NA 
HETATM    2  C   UNL     1      -8.809  13.628  68.072  1.00  0.00    -0.187 C  
HETATM    3  H1  UNL     1      -7.050  14.777  68.152  1.00  0.00     0.000 HD 
HETATM    4  H2  UNL     1      -7.674  14.519  66.620  1.00  0.00     0.000 HD 
ENDROOT
BRANCH   2   5
HETATM    5  C   UNL     1      -9.559  12.617  67.149  1.00  0.00    -0.207 C  
HETATM    6  C   UNL     1     -10.753  12.016  67.954  1.00  0.00    -0.243 C  
HETATM    7  C   UNL     1      -8.636  11.458  66.688  1.00  0.00    -0.170 C  
HETATM    8  C   UNL     1      -8.226  10.510  67.817  1.00  0.00    -0.107 C  
HETATM    9  C   UNL     1     -10.349  11.044  69.062  1.00  0.00    -0.229 C  
HETATM   10  C   UNL     1      -9.442   9.940  68.535  1.00  0.00    -0.149 C  
BRANCH   5  11
HETATM   11  C   UNL     1     -10.183  13.324  65.914  1.00  0.00    -0.295 C  
HETATM   12  O   UNL     1     -10.706  11.838  64.091  1.00  0.00    -0.299 OA 
HETATM   13  C   UNL     1     -11.098  12.500  65.043  1.00  0.00    -0.299 C  
HETATM   14  O   UNL     1     -12.400  12.556  65.396  1.00  0.00    -0.579 OA 
ENDBRANCH   5  11
ENDBRANCH   2   5
TORSDOF 2
ENDMDL
MODEL      162
REMARK 921   NORMALIZED FREE ENERGY PREDICTED BY IDOCK:   -2.38 KCAL/MOL
REMARK 922        TOTAL FREE ENERGY PREDICTED BY IDOCK:   -2.84 KCAL/MOL
REMARK 923 INTER-LIGAND FREE ENERGY PREDICTED BY IDOCK:   -2.99 KCAL/MOL
REMARK 924 INTRA-LIGAND FREE ENERGY PREDICTED BY IDOCK:    0.15 KCAL/MOL
REMARK 927      BINDING AFFINITY PREDICTED BY RF-SCORE:    0.00 PKD
ROOT
HETATM    1  N   UNL     1      -7.647  11.491  69.378  1.00  0.00    -0.352 NA 
HETATM    2  C   UNL     1      -8.314  10.255  68.990  1.00  0.00    -0.148 C  
HETATM    3  H1  UNL     1      -6.627  11.455  69.360  1.00  0.00     0.000 HD 
HETATM    4  H2  UNL     1      -7.973  11.793  70.297  1.00  0.00     0.000 HD 
ENDROOT
BRANCH   2   5
HETATM    5  C   UNL     1      -9.874  10.311  69.017  1.00  0.00    -0.215 C  
HETATM    6  C   UNL     1     -10.416   9.302  67.956  1.00  0.00    -0.275 C  
HETATM    7  C   UNL     1     -10.410  11.726  68.676  1.00  0.00    -0.228 C  
HETATM    8  C   UNL     1     -10.170  12.144  67.224  1.00  0.00    -0.216 C  
HETATM    9  C   UNL     1     -10.205   9.732  66.504  1.00  0.00    -0.289 C  
HETATM   10  C   UNL     1     -10.752  11.130  66.249  1.00  0.00    -0.298 C  
BRANCH   5  11
HETATM   11  C   UNL     1     -10.439   9.842  70.387  1.00  0.00    -0.358 C  
HETATM   12  O   UNL     1     -11.378   7.623  70.354  1.00  0.00    -0.272 OA 
HETATM   13  C   UNL     1     -10.445   8.357  70.653  1.00  0.00    -0.200 C  
HETATM   14  O   UNL     1      -9.330   7.898  71.259  1.00  0.00    -0.143 OA 
ENDBRANCH   5  11
ENDBRANCH   2   5
TORSDOF 2
ENDMDL
MODEL      163
REMARK 921   NORMALIZED FREE ENERGY PREDICTED BY IDOCK:   -2.38 KCAL/MOL
REMARK 922        TOTAL FREE ENERGY PREDICTED BY IDOCK:   -2.84 KCAL/MOL
REMARK 923 INTER-LIGAND FREE ENERGY PREDICTED BY IDOCK:   -2.80 KCAL/MOL
REMARK 924 INTRA-LIGAND FREE ENERGY PREDICTED BY IDOCK:   -0.04 KCAL/MOL
REMARK 927      BINDING AFFINITY PREDICTED BY RF-SCORE:    0.00 PKD
ROOT
HETATM    1  N   UNL     1      -7.970   6.621  71.037  1.00  0.00    -0.106 NA 
HETATM    2  C   UNL     1      -8.170   5.193  71.247  1.00  0.00    -0.117 C  
HETATM    3  H1  UNL     1      -7.048   6.970  71.301  1.00  0.00     0.000 HD 
HETATM    4  H2  UNL     1      -8.698   7.153  71.515  1.00  0.00     0.000 HD 
ENDROOT
BRANCH   2   5
HETATM    5  C   UNL     1      -9.580   4.658  70.844  1.00  0.00    -0.249 C  
HETATM    6  C   UNL     1     -10.648   5.692  71.321  1.00  0.00    -0.321 C  
HETATM    7  C   UNL     1      -9.890   3.286  71.500  1.00  0.00    -0.206 C  
HETATM    8  C   UNL     1     -10.072   3.355  73.017  1.00  0.00    -0.221 C  
HETATM    9  C   UNL     1     -10.855   5.741  72.834  1.00  0.00    -0.298 C  
HETATM   10  C   UNL     1     -11.150   4.360  73.404  1.00  0.00    -0.394 C  
BRANCH   5  11
HETATM   11  C   UNL     1      -9.735   4.558  69.301  1.00  0.00    -0.260 C  
HETATM   12  O   UNL     1     -11.260   6.168  68.360  1.00  0.00    -0.330 OA 
HETATM   13  C   UNL     1     -10.104   5.823  68.566  1.00  0.00    -0.178 C  
HETATM   14  O   UNL     1      -9.047   6.549  68.144  1.00  0.00    -0.117 OA 
ENDBRANCH   5  11
ENDBRANCH   2   5
TORSDOF 2
ENDMDL
MODEL      164
REMARK 921   NORMALIZED FREE ENERGY PREDICTED BY IDOCK:   -2.37 KCAL/MOL
REMARK 922        TOTAL FREE ENERGY PREDICTED BY IDOCK:   -2.83 KCAL/MOL
REMARK 923 INTER-LIGAND FREE ENERGY PREDICTED BY IDOCK:   -2.86 KCAL/MOL
REMARK 924 INTRA-LIGAND FREE ENERGY PREDICTED BY IDOCK:    0.03 KCAL/MOL
REMARK 927      BINDING AFFINITY PREDICTED BY RF-SCORE:    0.00 PKD
ROOT
HETATM    1  N   UNL     1      -8.801   4.830  69.650  1.00  0.00    -0.085 NA 
HETATM    2  C   UNL     1      -9.958   4.789  70.535  1.00  0.00    -0.236 C  
HETATM    3  H1  UNL     1      -8.815   4.149  68.890  1.00  0.00     0.000 HD 
HETATM    4  H2  UNL     1      -7.940   4.737  70.191  1.00  0.00     0.000 HD 
ENDROOT
BRANCH   2   5
HETATM    5  C   UNL     1      -9.936   5.830  71.698  1.00  0.00    -0.218 C  
HETATM    6  C   UNL     1      -8.838   5.398  72.719  1.00  0.00    -0.122 C  
HETATM    7  C   UNL     1     -11.299   5.904  72.436  1.00  0.00    -0.358 C  
HETATM    8  C   UNL     1     -11.638   4.644  73.234  1.00  0.00    -0.274 C  
HETATM    9  C   UNL     1      -9.186   4.157  73.541  1.00  0.00    -0.107 C  
HETATM   10  C   UNL     1     -10.537   4.302  74.230  1.00  0.00    -0.307 C  
BRANCH   5  11
HETATM   11  C   UNL     1      -9.526   7.242  71.194  1.00  0.00    -0.156 C  
HETATM   12  O   UNL     1     -10.931   9.022  72.008  1.00  0.00    -0.358 OA 
HETATM   13  C   UNL     1      -9.872   8.413  72.081  1.00  0.00    -0.302 C  
HETATM   14  O   UNL     1      -8.907   8.742  72.966  1.00  0.00    -0.340 OA 
ENDBRANCH   5  11
ENDBRANCH   2   5
TORSDOF 2
ENDMDL
MODEL      165
REMARK 921   NORMALIZED FREE ENERGY PREDICTED BY IDOCK:   -2.37 KCAL/MOL
REMARK 922        TOTAL FREE ENERGY PREDICTED BY IDOCK:   -2.83 KCAL/MOL
REMARK 923 INTER-LIGAND FREE ENERGY PREDICTED BY IDOCK:   -2.72 KCAL/MOL
REMARK 924 INTRA-LIGAND FREE ENERGY PREDICTED BY IDOCK:   -0.11 KCAL/MOL
REMARK 927      BINDING AFFINITY PREDICTED BY RF-SCORE:    0.00 PKD
ROOT
HETATM    1  N   UNL     1      -9.725   7.663  66.008  1.00  0.00    -0.435 NA 
HETATM    2  C   UNL     1     -10.629   7.261  67.078  1.00  0.00    -0.344 C  
HETATM    3  H1  UNL     1      -9.935   7.262  65.093  1.00  0.00     0.000 HD 
HETATM    4  H2  UNL     1      -8.759   7.461  66.267  1.00  0.00     0.000 HD 
ENDROOT
BRANCH   2   5
HETATM    5  C   UNL     1     -10.308   7.875  68.477  1.00  0.00    -0.229 C  
HETATM    6  C   UNL     1      -8.781   7.695  68.749  1.00  0.00    -0.128 C  
HETATM    7  C   UNL     1     -11.100   7.175  69.613  1.00  0.00    -0.206 C  
HETATM    8  C   UNL     1     -10.667   5.730  69.867  1.00  0.00    -0.412 C  
HETATM    9  C   UNL     1      -8.350   6.257  69.035  1.00  0.00    -0.117 C  
HETATM   10  C   UNL     1      -9.174   5.638  70.155  1.00  0.00    -0.170 C  
BRANCH   5  11
HETATM   11  C   UNL     1     -10.575   9.405  68.506  1.00  0.00    -0.234 C  
HETATM   12  O   UNL     1      -8.651  10.727  69.104  1.00  0.00    -0.150 OA 
HETATM   13  C   UNL     1      -9.400  10.311  68.230  1.00  0.00    -0.138 C  
HETATM   14  O   UNL     1      -9.242  10.634  66.929  1.00  0.00    -0.154 OA 
ENDBRANCH   5  11
ENDBRANCH   2   5
TORSDOF 2
ENDMDL
MODEL      166
REMARK 921   NORMALIZED FREE ENERGY PREDICTED BY IDOCK:   -2.35 KCAL/MOL
REMARK 922        TOTAL FREE ENERGY PREDICTED BY IDOCK:   -2.81 KCAL/MOL
REMARK 923 INTER-LIGAND FREE ENERGY PREDICTED BY IDOCK:   -2.91 KCAL/MOL
REMARK 924 INTRA-LIGAND FREE ENERGY PREDICTED BY IDOCK:    0.10 KCAL/MOL
REMARK 927      BINDING AFFINITY PREDICTED BY RF-SCORE:    0.00 PKD
ROOT
HETATM    1  N   UNL     1      -7.366  17.885  67.583  1.00  0.00    -0.203 NA 
HETATM    2  C   UNL     1      -8.674  17.639  68.175  1.00  0.00    -0.265 C  
HETATM    3  H1  UNL     1      -6.895  18.729  67.912  1.00  0.00     0.000 HD 
HETATM    4  H2  UNL     1      -7.435  17.895  66.565  1.00  0.00     0.000 HD 
ENDROOT
BRANCH   2   5
HETATM    5  C   UNL     1      -9.394  16.349  67.672  1.00  0.00    -0.212 C  
HETATM    6  C   UNL     1     -10.925  16.515  67.924  1.00  0.00    -0.288 C  
HETATM    7  C   UNL     1      -8.902  15.081  68.420  1.00  0.00    -0.178 C  
HETATM    8  C   UNL     1      -9.311  15.037  69.893  1.00  0.00     0.171 C  
HETATM    9  C   UNL     1     -11.340  16.441  69.392  1.00  0.00    -0.213 C  
HETATM   10  C   UNL     1     -10.819  15.174  70.058  1.00  0.00    -0.275 C  
BRANCH   5  11
HETATM   11  C   UNL     1      -9.226  16.161  66.138  1.00  0.00    -0.382 C  
HETATM   12  O   UNL     1     -11.247  15.501  65.003  1.00  0.00    -0.379 OA 
HETATM   13  C   UNL     1     -10.449  16.386  65.283  1.00  0.00    -0.261 C  
HETATM   14  O   UNL     1     -10.591  17.654  64.842  1.00  0.00    -0.429 OA 
ENDBRANCH   5  11
ENDBRANCH   2   5
TORSDOF 2
ENDMDL
MODEL      167
REMARK 921   NORMALIZED FREE ENERGY PREDICTED BY IDOCK:   -2.34 KCAL/MOL
REMARK 922        TOTAL FREE ENERGY PREDICTED BY IDOCK:   -2.80 KCAL/MOL
REMARK 923 INTER-LIGAND FREE ENERGY PREDICTED BY IDOCK:   -2.83 KCAL/MOL
REMARK 924 INTRA-LIGAND FREE ENERGY PREDICTED BY IDOCK:    0.02 KCAL/MOL
REMARK 927      BINDING AFFINITY PREDICTED BY RF-SCORE:    0.00 PKD
ROOT
HETATM    1  N   UNL     1      -9.079   9.918  69.897  1.00  0.00    -0.291 NA 
HETATM    2  C   UNL     1      -8.767   9.854  68.475  1.00  0.00    -0.121 C  
HETATM    3  H1  UNL     1      -8.303  10.201  70.496  1.00  0.00     0.000 HD 
HETATM    4  H2  UNL     1      -9.462   9.027  70.214  1.00  0.00     0.000 HD 
ENDROOT
BRANCH   2   5
HETATM    5  C   UNL     1      -9.954   9.421  67.558  1.00  0.00    -0.250 C  
HETATM    6  C   UNL     1      -9.475   9.496  66.074  1.00  0.00    -0.294 C  
HETATM    7  C   UNL     1     -11.187  10.348  67.729  1.00  0.00    -0.309 C  
HETATM    8  C   UNL     1     -10.970  11.768  67.204  1.00  0.00    -0.326 C  
HETATM    9  C   UNL     1      -9.287  10.914  65.537  1.00  0.00    -0.237 C  
HETATM   10  C   UNL     1     -10.535  11.762  65.744  1.00  0.00    -0.302 C  
BRANCH   5  11
HETATM   11  C   UNL     1     -10.360   7.942  67.807  1.00  0.00    -0.289 C  
HETATM   12  O   UNL     1      -9.423   6.386  66.223  1.00  0.00    -0.160 OA 
HETATM   13  C   UNL     1      -9.394   6.880  67.343  1.00  0.00    -0.131 C  
HETATM   14  O   UNL     1      -8.490   6.508  68.273  1.00  0.00    -0.116 OA 
ENDBRANCH   5  11
ENDBRANCH   2   5
TORSDOF 2
ENDMDL
MODEL      168
REMARK 921   NORMALIZED FREE ENERGY PREDICTED BY IDOCK:   -2.34 KCAL/MOL
REMARK 922        TOTAL FREE ENERGY PREDICTED BY IDOCK:   -2.80 KCAL/MOL
REMARK 923 INTER-LIGAND FREE ENERGY PREDICTED BY IDOCK:   -2.85 KCAL/MOL
REMARK 924 INTRA-LIGAND FREE ENERGY PREDICTED BY IDOCK:    0.05 KCAL/MOL
REMARK 927      BINDING AFFINITY PREDICTED BY RF-SCORE:    0.00 PKD
ROOT
HETATM    1  N   UNL     1      -8.819  13.326  68.906  1.00  0.00    -0.363 NA 
HETATM    2  C   UNL     1     -10.223  13.130  68.568  1.00  0.00    -0.215 C  
HETATM    3  H1  UNL     1      -8.600  14.226  69.334  1.00  0.00     0.000 HD 
HETATM    4  H2  UNL     1      -8.235  13.177  68.083  1.00  0.00     0.000 HD 
ENDROOT
BRANCH   2   5
HETATM    5  C   UNL     1     -10.558  11.753  67.913  1.00  0.00    -0.231 C  
HETATM    6  C   UNL     1     -12.031  11.387  68.275  1.00  0.00    -0.234 C  
HETATM    7  C   UNL     1      -9.625  10.624  68.426  1.00  0.00    -0.170 C  
HETATM    8  C   UNL     1      -9.845  10.263  69.896  1.00  0.00    -0.153 C  
HETATM    9  C   UNL     1     -12.249  10.995  69.735  1.00  0.00    -0.388 C  
HETATM   10  C   UNL     1     -11.297   9.887  70.166  1.00  0.00    -0.335 C  
BRANCH   5  11
HETATM   11  C   UNL     1     -10.500  11.829  66.362  1.00  0.00    -0.271 C  
HETATM   12  O   UNL     1      -8.432  11.031  65.416  1.00  0.00    -0.138 OA 
HETATM   13  C   UNL     1      -9.615  10.828  65.660  1.00  0.00    -0.216 C  
HETATM   14  O   UNL     1     -10.239   9.683  65.313  1.00  0.00    -0.137 OA 
ENDBRANCH   5  11
ENDBRANCH   2   5
TORSDOF 2
ENDMDL
MODEL      169
REMARK 921   NORMALIZED FREE ENERGY PREDICTED BY IDOCK:   -2.32 KCAL/MOL
REMARK 922        TOTAL FREE ENERGY PREDICTED BY IDOCK:   -2.78 KCAL/MOL
REMARK 923 INTER-LIGAND FREE ENERGY PREDICTED BY IDOCK:   -2.90 KCAL/MOL
REMARK 924 INTRA-LIGAND FREE ENERGY PREDICTED BY IDOCK:    0.12 KCAL/MOL
REMARK 927      BINDING AFFINITY PREDICTED BY RF-SCORE:    0.00 PKD
ROOT
HETATM    1  N   UNL     1     -10.903   5.138  71.730  1.00  0.00    -0.138 NA 
HETATM    2  C   UNL     1     -11.271   6.425  71.155  1.00  0.00    -0.302 C  
HETATM    3  H1  UNL     1     -11.601   4.401  71.619  1.00  0.00     0.000 HD 
HETATM    4  H2  UNL     1     -10.660   5.248  72.715  1.00  0.00     0.000 HD 
ENDROOT
BRANCH   2   5
HETATM    5  C   UNL     1     -10.203   7.552  71.324  1.00  0.00    -0.198 C  
HETATM    6  C   UNL     1     -10.855   8.724  72.123  1.00  0.00    -0.400 C  
HETATM    7  C   UNL     1      -9.713   8.096  69.956  1.00  0.00    -0.172 C  
HETATM    8  C   UNL     1     -10.779   8.874  69.183  1.00  0.00    -0.162 C  
HETATM    9  C   UNL     1     -11.898   9.523  71.343  1.00  0.00    -0.464 C  
HETATM   10  C   UNL     1     -11.345  10.019  70.013  1.00  0.00    -0.334 C  
BRANCH   5  11
HETATM   11  C   UNL     1      -8.993   7.072  72.172  1.00  0.00    -0.140 C  
HETATM   12  O   UNL     1      -6.980   8.350  71.823  1.00  0.00    -0.075 OA 
HETATM   13  C   UNL     1      -7.952   8.105  72.526  1.00  0.00    -0.144 C  
HETATM   14  O   UNL     1      -8.176   8.740  73.696  1.00  0.00    -0.366 OA 
ENDBRANCH   5  11
ENDBRANCH   2   5
TORSDOF 2
ENDMDL
MODEL      170
REMARK 921   NORMALIZED FREE ENERGY PREDICTED BY IDOCK:   -2.31 KCAL/MOL
REMARK 922        TOTAL FREE ENERGY PREDICTED BY IDOCK:   -2.77 KCAL/MOL
REMARK 923 INTER-LIGAND FREE ENERGY PREDICTED BY IDOCK:   -2.74 KCAL/MOL
REMARK 924 INTRA-LIGAND FREE ENERGY PREDICTED BY IDOCK:   -0.03 KCAL/MOL
REMARK 927      BINDING AFFINITY PREDICTED BY RF-SCORE:    0.00 PKD
ROOT
HETATM    1  N   UNL     1     -10.374   8.268  66.459  1.00  0.00    -0.423 NA 
HETATM    2  C   UNL     1      -9.432   9.196  67.070  1.00  0.00    -0.154 C  
HETATM    3  H1  UNL     1     -10.615   7.458  67.032  1.00  0.00     0.000 HD 
HETATM    4  H2  UNL     1     -10.028   7.964  65.548  1.00  0.00     0.000 HD 
ENDROOT
BRANCH   2   5
HETATM    5  C   UNL     1      -9.064  10.435  66.194  1.00  0.00    -0.183 C  
HETATM    6  C   UNL     1      -8.410  11.509  67.119  1.00  0.00    -0.160 C  
HETATM    7  C   UNL     1     -10.313  11.057  65.515  1.00  0.00    -0.321 C  
HETATM    8  C   UNL     1     -11.280  11.722  66.495  1.00  0.00    -0.380 C  
HETATM    9  C   UNL     1      -9.381  12.198  68.078  1.00  0.00    -0.197 C  
HETATM   10  C   UNL     1     -10.580  12.778  67.340  1.00  0.00    -0.241 C  
BRANCH   5  11
HETATM   11  C   UNL     1      -7.995  10.080  65.123  1.00  0.00    -0.145 C  
HETATM   12  O   UNL     1      -8.171   7.834  64.267  1.00  0.00    -0.121 OA 
HETATM   13  C   UNL     1      -8.369   9.031  64.104  1.00  0.00    -0.173 C  
HETATM   14  O   UNL     1      -8.940   9.524  62.985  1.00  0.00    -0.241 OA 
ENDBRANCH   5  11
ENDBRANCH   2   5
TORSDOF 2
ENDMDL
MODEL      171
REMARK 921   NORMALIZED FREE ENERGY PREDICTED BY IDOCK:   -2.31 KCAL/MOL
REMARK 922        TOTAL FREE ENERGY PREDICTED BY IDOCK:   -2.76 KCAL/MOL
REMARK 923 INTER-LIGAND FREE ENERGY PREDICTED BY IDOCK:   -2.62 KCAL/MOL
REMARK 924 INTRA-LIGAND FREE ENERGY PREDICTED BY IDOCK:   -0.14 KCAL/MOL
REMARK 927      BINDING AFFINITY PREDICTED BY RF-SCORE:    0.00 PKD
ROOT
HETATM    1  N   UNL     1     -11.095  13.565  66.566  1.00  0.00    -0.297 NA 
HETATM    2  C   UNL     1      -9.777  12.951  66.469  1.00  0.00    -0.257 C  
HETATM    3  H1  UNL     1     -11.197  14.448  66.066  1.00  0.00     0.000 HD 
HETATM    4  H2  UNL     1     -11.357  13.683  67.546  1.00  0.00     0.000 HD 
ENDROOT
BRANCH   2   5
HETATM    5  C   UNL     1      -9.621  11.599  67.234  1.00  0.00    -0.182 C  
HETATM    6  C   UNL     1      -8.104  11.235  67.274  1.00  0.00    -0.140 C  
HETATM    7  C   UNL     1     -10.391  10.446  66.538  1.00  0.00    -0.287 C  
HETATM    8  C   UNL     1      -9.802  10.038  65.187  1.00  0.00    -0.388 C  
HETATM    9  C   UNL     1      -7.519  10.797  65.932  1.00  0.00    -0.099 C  
HETATM   10  C   UNL     1      -8.329   9.667  65.310  1.00  0.00    -0.139 C  
BRANCH   5  11
HETATM   11  C   UNL     1     -10.074  11.725  68.716  1.00  0.00    -0.153 C  
HETATM   12  O   UNL     1     -12.465  11.788  69.010  1.00  0.00    -0.175 OA 
HETATM   13  C   UNL     1     -11.422  11.149  69.070  1.00  0.00    -0.296 C  
HETATM   14  O   UNL     1     -11.387   9.860  69.471  1.00  0.00    -0.209 OA 
ENDBRANCH   5  11
ENDBRANCH   2   5
TORSDOF 2
ENDMDL
MODEL      172
REMARK 921   NORMALIZED FREE ENERGY PREDICTED BY IDOCK:   -2.31 KCAL/MOL
REMARK 922        TOTAL FREE ENERGY PREDICTED BY IDOCK:   -2.76 KCAL/MOL
REMARK 923 INTER-LIGAND FREE ENERGY PREDICTED BY IDOCK:   -2.86 KCAL/MOL
REMARK 924 INTRA-LIGAND FREE ENERGY PREDICTED BY IDOCK:    0.10 KCAL/MOL
REMARK 927      BINDING AFFINITY PREDICTED BY RF-SCORE:    0.00 PKD
ROOT
HETATM    1  N   UNL     1      -7.726  10.268  70.217  1.00  0.00    -0.430 NA 
HETATM    2  C   UNL     1      -8.082  11.245  69.196  1.00  0.00     0.026 C  
HETATM    3  H1  UNL     1      -7.028  10.583  70.891  1.00  0.00     0.000 HD 
HETATM    4  H2  UNL     1      -7.425   9.396  69.780  1.00  0.00     0.000 HD 
ENDROOT
BRANCH   2   5
HETATM    5  C   UNL     1      -9.149  10.762  68.164  1.00  0.00    -0.151 C  
HETATM    6  C   UNL     1      -9.924  12.013  67.643  1.00  0.00    -0.196 C  
HETATM    7  C   UNL     1     -10.167   9.778  68.800  1.00  0.00    -0.210 C  
HETATM    8  C   UNL     1     -11.090  10.426  69.833  1.00  0.00    -0.367 C  
HETATM    9  C   UNL     1     -10.871  12.645  68.662  1.00  0.00    -0.281 C  
HETATM   10  C   UNL     1     -11.834  11.619  69.244  1.00  0.00    -0.396 C  
BRANCH   5  11
HETATM   11  C   UNL     1      -8.488  10.113  66.917  1.00  0.00    -0.126 C  
HETATM   12  O   UNL     1      -9.464   8.007  66.272  1.00  0.00    -0.204 OA 
HETATM   13  C   UNL     1      -9.354   9.210  66.074  1.00  0.00    -0.238 C  
HETATM   14  O   UNL     1     -10.001   9.840  65.071  1.00  0.00    -0.286 OA 
ENDBRANCH   5  11
ENDBRANCH   2   5
TORSDOF 2
ENDMDL
MODEL      173
REMARK 921   NORMALIZED FREE ENERGY PREDICTED BY IDOCK:   -2.29 KCAL/MOL
REMARK 922        TOTAL FREE ENERGY PREDICTED BY IDOCK:   -2.75 KCAL/MOL
REMARK 923 INTER-LIGAND FREE ENERGY PREDICTED BY IDOCK:   -2.57 KCAL/MOL
REMARK 924 INTRA-LIGAND FREE ENERGY PREDICTED BY IDOCK:   -0.18 KCAL/MOL
REMARK 927      BINDING AFFINITY PREDICTED BY RF-SCORE:    0.00 PKD
ROOT
HETATM    1  N   UNL     1     -10.008  10.366  69.821  1.00  0.00    -0.405 NA 
HETATM    2  C   UNL     1     -10.504   9.710  68.618  1.00  0.00    -0.210 C  
HETATM    3  H1  UNL     1     -10.727  10.623  70.499  1.00  0.00     0.000 HD 
HETATM    4  H2  UNL     1      -9.451  11.184  69.572  1.00  0.00     0.000 HD 
ENDROOT
BRANCH   2   5
HETATM    5  C   UNL     1      -9.405   9.317  67.581  1.00  0.00    -0.146 C  
HETATM    6  C   UNL     1     -10.072   8.445  66.471  1.00  0.00    -0.317 C  
HETATM    7  C   UNL     1      -8.258   8.500  68.233  1.00  0.00    -0.123 C  
HETATM    8  C   UNL     1      -8.680   7.103  68.692  1.00  0.00    -0.127 C  
HETATM    9  C   UNL     1     -10.466   7.038  66.919  1.00  0.00    -0.356 C  
HETATM   10  C   UNL     1      -9.292   6.302  67.551  1.00  0.00    -0.113 C  
BRANCH   5  11
HETATM   11  C   UNL     1      -8.826  10.566  66.859  1.00  0.00    -0.143 C  
HETATM   12  O   UNL     1     -10.501  12.024  65.924  1.00  0.00    -0.240 OA 
HETATM   13  C   UNL     1      -9.697  11.797  66.818  1.00  0.00    -0.197 C  
HETATM   14  O   UNL     1      -9.511  12.642  67.854  1.00  0.00    -0.191 OA 
ENDBRANCH   5  11
ENDBRANCH   2   5
TORSDOF 2
ENDMDL
MODEL      174
REMARK 921   NORMALIZED FREE ENERGY PREDICTED BY IDOCK:   -2.29 KCAL/MOL
REMARK 922        TOTAL FREE ENERGY PREDICTED BY IDOCK:   -2.74 KCAL/MOL
REMARK 923 INTER-LIGAND FREE ENERGY PREDICTED BY IDOCK:   -2.60 KCAL/MOL
REMARK 924 INTRA-LIGAND FREE ENERGY PREDICTED BY IDOCK:   -0.14 KCAL/MOL
REMARK 927      BINDING AFFINITY PREDICTED BY RF-SCORE:    0.00 PKD
ROOT
HETATM    1  N   UNL     1      -9.842  10.055  70.286  1.00  0.00    -0.395 NA 
HETATM    2  C   UNL     1      -9.042  10.483  69.146  1.00  0.00    -0.166 C  
HETATM    3  H1  UNL     1      -9.756  10.639  71.118  1.00  0.00     0.000 HD 
HETATM    4  H2  UNL     1      -9.636   9.082  70.516  1.00  0.00     0.000 HD 
ENDROOT
BRANCH   2   5
HETATM    5  C   UNL     1      -9.174   9.588  67.873  1.00  0.00    -0.134 C  
HETATM    6  C   UNL     1      -9.145   8.094  68.323  1.00  0.00    -0.135 C  
HETATM    7  C   UNL     1      -8.013   9.829  66.872  1.00  0.00    -0.105 C  
HETATM    8  C   UNL     1      -6.653   9.345  67.378  1.00  0.00    -0.064 C  
HETATM    9  C   UNL     1      -7.780   7.599  68.799  1.00  0.00    -0.118 C  
HETATM   10  C   UNL     1      -6.694   7.873  67.768  1.00  0.00    -0.068 C  
BRANCH   5  11
HETATM   11  C   UNL     1     -10.541   9.800  67.165  1.00  0.00    -0.298 C  
HETATM   12  O   UNL     1     -12.090  11.167  68.407  1.00  0.00    -0.605 OA 
HETATM   13  C   UNL     1     -11.289  11.071  67.486  1.00  0.00    -0.257 C  
HETATM   14  O   UNL     1     -11.007  12.103  66.663  1.00  0.00    -0.256 OA 
ENDBRANCH   5  11
ENDBRANCH   2   5
TORSDOF 2
ENDMDL
MODEL      175
REMARK 921   NORMALIZED FREE ENERGY PREDICTED BY IDOCK:   -2.22 KCAL/MOL
REMARK 922        TOTAL FREE ENERGY PREDICTED BY IDOCK:   -2.67 KCAL/MOL
REMARK 923 INTER-LIGAND FREE ENERGY PREDICTED BY IDOCK:   -2.56 KCAL/MOL
REMARK 924 INTRA-LIGAND FREE ENERGY PREDICTED BY IDOCK:   -0.10 KCAL/MOL
REMARK 927      BINDING AFFINITY PREDICTED BY RF-SCORE:    0.00 PKD
ROOT
HETATM    1  N   UNL     1     -11.095  11.461  68.344  1.00  0.00    -0.221 NA 
HETATM    2  C   UNL     1     -10.803  10.668  69.531  1.00  0.00    -0.259 C  
HETATM    3  H1  UNL     1     -11.407  12.415  68.529  1.00  0.00     0.000 HD 
HETATM    4  H2  UNL     1     -11.772  10.976  67.754  1.00  0.00     0.000 HD 
ENDROOT
BRANCH   2   5
HETATM    5  C   UNL     1     -10.326   9.209  69.249  1.00  0.00    -0.223 C  
HETATM    6  C   UNL     1     -10.833   8.297  70.410  1.00  0.00    -0.241 C  
HETATM    7  C   UNL     1      -8.779   9.108  69.179  1.00  0.00    -0.138 C  
HETATM    8  C   UNL     1      -8.083   9.345  70.521  1.00  0.00    -0.212 C  
HETATM    9  C   UNL     1     -10.119   8.509  71.744  1.00  0.00    -0.351 C  
HETATM   10  C   UNL     1      -8.608   8.400  71.594  1.00  0.00    -0.223 C  
BRANCH   5  11
HETATM   11  C   UNL     1     -10.956   8.642  67.947  1.00  0.00     0.078 C  
HETATM   12  O   UNL     1      -9.929   9.453  65.924  1.00  0.00    -0.303 OA 
HETATM   13  C   UNL     1     -10.060   8.547  66.737  1.00  0.00    -0.299 C  
HETATM   14  O   UNL     1      -9.412   7.369  66.618  1.00  0.00    -0.173 OA 
ENDBRANCH   5  11
ENDBRANCH   2   5
TORSDOF 2
ENDMDL
MODEL      176
REMARK 921   NORMALIZED FREE ENERGY PREDICTED BY IDOCK:   -2.21 KCAL/MOL
REMARK 922        TOTAL FREE ENERGY PREDICTED BY IDOCK:   -2.65 KCAL/MOL
REMARK 923 INTER-LIGAND FREE ENERGY PREDICTED BY IDOCK:   -3.00 KCAL/MOL
REMARK 924 INTRA-LIGAND FREE ENERGY PREDICTED BY IDOCK:    0.35 KCAL/MOL
REMARK 927      BINDING AFFINITY PREDICTED BY RF-SCORE:    0.00 PKD
ROOT
HETATM    1  N   UNL     1     -11.485   9.571  69.188  1.00  0.00    -0.439 NA 
HETATM    2  C   UNL     1     -11.068   9.800  70.565  1.00  0.00    -0.321 C  
HETATM    3  H1  UNL     1     -11.809  10.402  68.692  1.00  0.00     0.000 HD 
HETATM    4  H2  UNL     1     -12.197   8.841  69.152  1.00  0.00     0.000 HD 
ENDROOT
BRANCH   2   5
HETATM    5  C   UNL     1     -10.573   8.529  71.324  1.00  0.00    -0.296 C  
HETATM    6  C   UNL     1     -10.876   7.282  70.435  1.00  0.00    -0.265 C  
HETATM    7  C   UNL     1     -11.291   8.352  72.689  1.00  0.00    -0.346 C  
HETATM    8  C   UNL     1     -12.776   8.008  72.565  1.00  0.00    -0.093 C  
HETATM    9  C   UNL     1     -12.356   6.917  70.335  1.00  0.00    -0.085 C  
HETATM   10  C   UNL     1     -12.991   6.765  71.711  1.00  0.00    -0.274 C  
BRANCH   5  11
HETATM   11  C   UNL     1      -9.033   8.548  71.531  1.00  0.00    -0.276 C  
HETATM   12  O   UNL     1      -8.353   8.769  73.832  1.00  0.00    -0.306 OA 
HETATM   13  C   UNL     1      -8.513   8.047  72.856  1.00  0.00    -0.186 C  
HETATM   14  O   UNL     1      -8.230   6.728  72.877  1.00  0.00    -0.109 OA 
ENDBRANCH   5  11
ENDBRANCH   2   5
TORSDOF 2
ENDMDL
MODEL      177
REMARK 921   NORMALIZED FREE ENERGY PREDICTED BY IDOCK:   -2.21 KCAL/MOL
REMARK 922        TOTAL FREE ENERGY PREDICTED BY IDOCK:   -2.65 KCAL/MOL
REMARK 923 INTER-LIGAND FREE ENERGY PREDICTED BY IDOCK:   -2.45 KCAL/MOL
REMARK 924 INTRA-LIGAND FREE ENERGY PREDICTED BY IDOCK:   -0.20 KCAL/MOL
REMARK 927      BINDING AFFINITY PREDICTED BY RF-SCORE:    0.00 PKD
ROOT
HETATM    1  N   UNL     1      -9.593   8.419  66.747  1.00  0.00    -0.200 NA 
HETATM    2  C   UNL     1      -9.113   7.440  67.713  1.00  0.00    -0.129 C  
HETATM    3  H1  UNL     1      -8.901   9.109  66.452  1.00  0.00     0.000 HD 
HETATM    4  H2  UNL     1     -10.427   8.887  67.103  1.00  0.00     0.000 HD 
ENDROOT
BRANCH   2   5
HETATM    5  C   UNL     1     -10.172   6.385  68.164  1.00  0.00    -0.196 C  
HETATM    6  C   UNL     1      -9.415   5.178  68.802  1.00  0.00    -0.181 C  
HETATM    7  C   UNL     1     -11.018   5.866  66.971  1.00  0.00    -0.301 C  
HETATM    8  C   UNL     1     -10.225   5.017  65.976  1.00  0.00    -0.253 C  
HETATM    9  C   UNL     1      -8.648   4.309  67.807  1.00  0.00    -0.107 C  
HETATM   10  C   UNL     1      -9.541   3.843  66.665  1.00  0.00    -0.215 C  
BRANCH   5  11
HETATM   11  C   UNL     1     -11.103   6.947  69.274  1.00  0.00    -0.229 C  
HETATM   12  O   UNL     1      -9.932   7.827  71.187  1.00  0.00    -0.176 OA 
HETATM   13  C   UNL     1     -10.544   8.041  70.148  1.00  0.00    -0.237 C  
HETATM   14  O   UNL     1     -10.779   9.290  69.693  1.00  0.00    -0.226 OA 
ENDBRANCH   5  11
ENDBRANCH   2   5
TORSDOF 2
ENDMDL
MODEL      178
REMARK 921   NORMALIZED FREE ENERGY PREDICTED BY IDOCK:   -2.18 KCAL/MOL
REMARK 922        TOTAL FREE ENERGY PREDICTED BY IDOCK:   -2.62 KCAL/MOL
REMARK 923 INTER-LIGAND FREE ENERGY PREDICTED BY IDOCK:   -2.82 KCAL/MOL
REMARK 924 INTRA-LIGAND FREE ENERGY PREDICTED BY IDOCK:    0.20 KCAL/MOL
REMARK 927      BINDING AFFINITY PREDICTED BY RF-SCORE:    0.00 PKD
ROOT
HETATM    1  N   UNL     1     -10.117   3.838  73.666  1.00  0.00    -0.123 NA 
HETATM    2  C   UNL     1     -10.881   4.713  72.787  1.00  0.00    -0.185 C  
HETATM    3  H1  UNL     1     -10.646   3.065  74.071  1.00  0.00     0.000 HD 
HETATM    4  H2  UNL     1      -9.668   4.382  74.403  1.00  0.00     0.000 HD 
ENDROOT
BRANCH   2   5
HETATM    5  C   UNL     1     -10.071   5.895  72.167  1.00  0.00    -0.210 C  
HETATM    6  C   UNL     1     -10.683   6.224  70.768  1.00  0.00    -0.312 C  
HETATM    7  C   UNL     1      -8.573   5.538  71.982  1.00  0.00    -0.131 C  
HETATM    8  C   UNL     1      -8.319   4.473  70.914  1.00  0.00    -0.095 C  
HETATM    9  C   UNL     1     -10.405   5.176  69.691  1.00  0.00    -0.316 C  
HETATM   10  C   UNL     1      -8.917   4.876  69.572  1.00  0.00    -0.130 C  
BRANCH   5  11
HETATM   11  C   UNL     1     -10.210   7.191  73.014  1.00  0.00    -0.290 C  
HETATM   12  O   UNL     1      -9.351   9.167  71.935  1.00  0.00    -0.349 OA 
HETATM   13  C   UNL     1     -10.320   8.493  72.260  1.00  0.00    -0.332 C  
HETATM   14  O   UNL     1     -11.587   8.864  71.976  1.00  0.00    -0.351 OA 
ENDBRANCH   5  11
ENDBRANCH   2   5
TORSDOF 2
ENDMDL
MODEL      179
REMARK 921   NORMALIZED FREE ENERGY PREDICTED BY IDOCK:   -2.13 KCAL/MOL
REMARK 922        TOTAL FREE ENERGY PREDICTED BY IDOCK:   -2.56 KCAL/MOL
REMARK 923 INTER-LIGAND FREE ENERGY PREDICTED BY IDOCK:   -2.66 KCAL/MOL
REMARK 924 INTRA-LIGAND FREE ENERGY PREDICTED BY IDOCK:    0.10 KCAL/MOL
REMARK 927      BINDING AFFINITY PREDICTED BY RF-SCORE:    0.00 PKD
ROOT
HETATM    1  N   UNL     1      -8.393   8.643  72.837  1.00  0.00    -0.415 NA 
HETATM    2  C   UNL     1      -9.073   7.359  72.935  1.00  0.00    -0.148 C  
HETATM    3  H1  UNL     1      -8.170   9.083  73.731  1.00  0.00     0.000 HD 
HETATM    4  H2  UNL     1      -8.933   9.284  72.254  1.00  0.00     0.000 HD 
ENDROOT
BRANCH   2   5
HETATM    5  C   UNL     1      -9.415   6.687  71.568  1.00  0.00    -0.159 C  
HETATM    6  C   UNL     1     -10.027   7.774  70.630  1.00  0.00    -0.186 C  
HETATM    7  C   UNL     1     -10.441   5.534  71.729  1.00  0.00    -0.287 C  
HETATM    8  C   UNL     1     -11.839   6.004  72.133  1.00  0.00    -0.304 C  
HETATM    9  C   UNL     1     -11.437   8.223  71.013  1.00  0.00    -0.303 C  
HETATM   10  C   UNL     1     -12.383   7.039  71.156  1.00  0.00    -0.423 C  
BRANCH   5  11
HETATM   11  C   UNL     1      -8.137   6.168  70.851  1.00  0.00    -0.121 C  
HETATM   12  O   UNL     1      -8.562   5.123  68.721  1.00  0.00    -0.088 OA 
HETATM   13  C   UNL     1      -8.176   6.104  69.344  1.00  0.00    -0.113 C  
HETATM   14  O   UNL     1      -7.740   7.224  68.730  1.00  0.00    -0.114 OA 
ENDBRANCH   5  11
ENDBRANCH   2   5
TORSDOF 2
ENDMDL
MODEL      180
REMARK 921   NORMALIZED FREE ENERGY PREDICTED BY IDOCK:   -2.12 KCAL/MOL
REMARK 922        TOTAL FREE ENERGY PREDICTED BY IDOCK:   -2.55 KCAL/MOL
REMARK 923 INTER-LIGAND FREE ENERGY PREDICTED BY IDOCK:   -2.44 KCAL/MOL
REMARK 924 INTRA-LIGAND FREE ENERGY PREDICTED BY IDOCK:   -0.11 KCAL/MOL
REMARK 927      BINDING AFFINITY PREDICTED BY RF-SCORE:    0.00 PKD
ROOT
HETATM    1  N   UNL     1     -10.301  10.910  68.877  1.00  0.00    -0.196 NA 
HETATM    2  C   UNL     1      -8.903  11.284  68.707  1.00  0.00    -0.102 C  
HETATM    3  H1  UNL     1     -10.566  10.651  69.828  1.00  0.00     0.000 HD 
HETATM    4  H2  UNL     1     -10.548  10.164  68.227  1.00  0.00     0.000 HD 
ENDROOT
BRANCH   2   5
HETATM    5  C   UNL     1      -8.497  11.681  67.253  1.00  0.00    -0.156 C  
HETATM    6  C   UNL     1      -7.127  12.425  67.315  1.00  0.00    -0.128 C  
HETATM    7  C   UNL     1      -9.544  12.619  66.595  1.00  0.00    -0.249 C  
HETATM    8  C   UNL     1      -9.607  14.011  67.227  1.00  0.00    -0.238 C  
HETATM    9  C   UNL     1      -7.192  13.828  67.917  1.00  0.00    -0.156 C  
HETATM   10  C   UNL     1      -8.242  14.687  67.224  1.00  0.00    -0.235 C  
BRANCH   5  11
HETATM   11  C   UNL     1      -8.269  10.429  66.361  1.00  0.00    -0.141 C  
HETATM   12  O   UNL     1     -10.048   8.808  66.469  1.00  0.00    -0.274 OA 
HETATM   13  C   UNL     1      -9.498   9.714  65.856  1.00  0.00    -0.236 C  
HETATM   14  O   UNL     1      -9.944  10.153  64.661  1.00  0.00    -0.328 OA 
ENDBRANCH   5  11
ENDBRANCH   2   5
TORSDOF 2
ENDMDL
MODEL      181
REMARK 921   NORMALIZED FREE ENERGY PREDICTED BY IDOCK:   -2.10 KCAL/MOL
REMARK 922        TOTAL FREE ENERGY PREDICTED BY IDOCK:   -2.53 KCAL/MOL
REMARK 923 INTER-LIGAND FREE ENERGY PREDICTED BY IDOCK:   -2.34 KCAL/MOL
REMARK 924 INTRA-LIGAND FREE ENERGY PREDICTED BY IDOCK:   -0.19 KCAL/MOL
REMARK 927      BINDING AFFINITY PREDICTED BY RF-SCORE:    0.00 PKD
ROOT
HETATM    1  N   UNL     1      -7.359   5.299  70.246  1.00  0.00    -0.065 NA 
HETATM    2  C   UNL     1      -8.211   6.388  70.706  1.00  0.00    -0.125 C  
HETATM    3  H1  UNL     1      -6.637   5.569  69.577  1.00  0.00     0.000 HD 
HETATM    4  H2  UNL     1      -7.929   4.544  69.862  1.00  0.00     0.000 HD 
ENDROOT
BRANCH   2   5
HETATM    5  C   UNL     1      -9.316   5.975  71.728  1.00  0.00    -0.158 C  
HETATM    6  C   UNL     1      -9.996   7.274  72.262  1.00  0.00    -0.199 C  
HETATM    7  C   UNL     1      -8.729   5.190  72.931  1.00  0.00    -0.118 C  
HETATM    8  C   UNL     1      -7.844   6.038  73.848  1.00  0.00    -0.098 C  
HETATM    9  C   UNL     1      -9.126   8.107  73.203  1.00  0.00    -0.335 C  
HETATM   10  C   UNL     1      -8.585   7.269  74.353  1.00  0.00    -0.242 C  
BRANCH   5  11
HETATM   11  C   UNL     1     -10.442   5.145  71.049  1.00  0.00    -0.241 C  
HETATM   12  O   UNL     1     -11.414   6.206  69.116  1.00  0.00    -0.379 OA 
HETATM   13  C   UNL     1     -10.654   5.360  69.571  1.00  0.00    -0.246 C  
HETATM   14  O   UNL     1      -9.938   4.533  68.782  1.00  0.00    -0.139 OA 
ENDBRANCH   5  11
ENDBRANCH   2   5
TORSDOF 2
ENDMDL
MODEL      182
REMARK 921   NORMALIZED FREE ENERGY PREDICTED BY IDOCK:   -2.10 KCAL/MOL
REMARK 922        TOTAL FREE ENERGY PREDICTED BY IDOCK:   -2.53 KCAL/MOL
REMARK 923 INTER-LIGAND FREE ENERGY PREDICTED BY IDOCK:   -2.47 KCAL/MOL
REMARK 924 INTRA-LIGAND FREE ENERGY PREDICTED BY IDOCK:   -0.06 KCAL/MOL
REMARK 927      BINDING AFFINITY PREDICTED BY RF-SCORE:    0.00 PKD
ROOT
HETATM    1  N   UNL     1     -10.011   9.922  68.723  1.00  0.00    -0.166 NA 
HETATM    2  C   UNL     1      -8.689  10.421  68.365  1.00  0.00    -0.129 C  
HETATM    3  H1  UNL     1     -10.034   9.308  69.538  1.00  0.00     0.000 HD 
HETATM    4  H2  UNL     1     -10.441   9.459  67.922  1.00  0.00     0.000 HD 
ENDROOT
BRANCH   2   5
HETATM    5  C   UNL     1      -8.653  11.359  67.118  1.00  0.00    -0.151 C  
HETATM    6  C   UNL     1      -9.062  10.521  65.866  1.00  0.00    -0.192 C  
HETATM    7  C   UNL     1      -7.239  11.951  66.879  1.00  0.00    -0.074 C  
HETATM    8  C   UNL     1      -6.201  10.914  66.443  1.00  0.00    -0.130 C  
HETATM    9  C   UNL     1      -8.015   9.506  65.410  1.00  0.00    -0.113 C  
HETATM   10  C   UNL     1      -6.656  10.160  65.200  1.00  0.00    -0.124 C  
BRANCH   5  11
HETATM   11  C   UNL     1      -9.698  12.503  67.232  1.00  0.00    -0.202 C  
HETATM   12  O   UNL     1     -11.259  12.595  65.399  1.00  0.00    -0.285 OA 
HETATM   13  C   UNL     1     -11.031  12.283  66.560  1.00  0.00    -0.279 C  
HETATM   14  O   UNL     1     -11.964  11.715  67.353  1.00  0.00    -0.621 OA 
ENDBRANCH   5  11
ENDBRANCH   2   5
TORSDOF 2
ENDMDL
MODEL      183
REMARK 921   NORMALIZED FREE ENERGY PREDICTED BY IDOCK:   -2.09 KCAL/MOL
REMARK 922        TOTAL FREE ENERGY PREDICTED BY IDOCK:   -2.51 KCAL/MOL
REMARK 923 INTER-LIGAND FREE ENERGY PREDICTED BY IDOCK:   -2.61 KCAL/MOL
REMARK 924 INTRA-LIGAND FREE ENERGY PREDICTED BY IDOCK:    0.09 KCAL/MOL
REMARK 927      BINDING AFFINITY PREDICTED BY RF-SCORE:    0.00 PKD
ROOT
HETATM    1  N   UNL     1     -11.719   7.689  69.849  1.00  0.00    -0.416 NA 
HETATM    2  C   UNL     1     -11.188   6.423  69.359  1.00  0.00    -0.394 C  
HETATM    3  H1  UNL     1     -12.568   7.613  70.410  1.00  0.00     0.000 HD 
HETATM    4  H2  UNL     1     -11.868   8.333  69.071  1.00  0.00     0.000 HD 
ENDROOT
BRANCH   2   5
HETATM    5  C   UNL     1      -9.890   6.540  68.500  1.00  0.00    -0.140 C  
HETATM    6  C   UNL     1     -10.295   6.473  66.994  1.00  0.00    -0.319 C  
HETATM    7  C   UNL     1      -8.892   5.390  68.798  1.00  0.00    -0.107 C  
HETATM    8  C   UNL     1      -9.378   4.016  68.333  1.00  0.00    -0.218 C  
HETATM    9  C   UNL     1     -10.751   5.094  66.519  1.00  0.00    -0.262 C  
HETATM   10  C   UNL     1      -9.724   4.020  66.850  1.00  0.00    -0.215 C  
BRANCH   5  11
HETATM   11  C   UNL     1      -9.193   7.915  68.700  1.00  0.00    -0.142 C  
HETATM   12  O   UNL     1      -7.772   8.571  66.868  1.00  0.00    -0.090 OA 
HETATM   13  C   UNL     1      -8.840   8.690  67.455  1.00  0.00    -0.134 C  
HETATM   14  O   UNL     1      -9.802   9.540  67.038  1.00  0.00    -0.168 OA 
ENDBRANCH   5  11
ENDBRANCH   2   5
TORSDOF 2
ENDMDL
MODEL      184
REMARK 921   NORMALIZED FREE ENERGY PREDICTED BY IDOCK:   -2.07 KCAL/MOL
REMARK 922        TOTAL FREE ENERGY PREDICTED BY IDOCK:   -2.50 KCAL/MOL
REMARK 923 INTER-LIGAND FREE ENERGY PREDICTED BY IDOCK:   -2.46 KCAL/MOL
REMARK 924 INTRA-LIGAND FREE ENERGY PREDICTED BY IDOCK:   -0.04 KCAL/MOL
REMARK 927      BINDING AFFINITY PREDICTED BY RF-SCORE:    0.00 PKD
ROOT
HETATM    1  N   UNL     1      -6.735   7.269  71.105  1.00  0.00    -0.044 NA 
HETATM    2  C   UNL     1      -7.708   7.568  70.062  1.00  0.00    -0.094 C  
HETATM    3  H1  UNL     1      -5.766   7.218  70.789  1.00  0.00     0.000 HD 
HETATM    4  H2  UNL     1      -6.993   6.410  71.592  1.00  0.00     0.000 HD 
ENDROOT
BRANCH   2   5
HETATM    5  C   UNL     1      -9.190   7.647  70.546  1.00  0.00    -0.159 C  
HETATM    6  C   UNL     1     -10.113   7.218  69.362  1.00  0.00    -0.183 C  
HETATM    7  C   UNL     1      -9.581   9.083  70.985  1.00  0.00    -0.348 C  
HETATM    8  C   UNL     1      -9.640  10.086  69.831  1.00  0.00    -0.233 C  
HETATM    9  C   UNL     1     -10.198   8.232  68.222  1.00  0.00    -0.246 C  
HETATM   10  C   UNL     1     -10.581   9.615  68.730  1.00  0.00    -0.242 C  
BRANCH   5  11
HETATM   11  C   UNL     1      -9.471   6.642  71.698  1.00  0.00    -0.160 C  
HETATM   12  O   UNL     1      -8.884   7.467  73.885  1.00  0.00    -0.201 OA 
HETATM   13  C   UNL     1      -9.756   7.225  73.060  1.00  0.00    -0.186 C  
HETATM   14  O   UNL     1     -11.063   7.455  73.303  1.00  0.00    -0.365 OA 
ENDBRANCH   5  11
ENDBRANCH   2   5
TORSDOF 2
ENDMDL
MODEL      185
REMARK 921   NORMALIZED FREE ENERGY PREDICTED BY IDOCK:   -2.06 KCAL/MOL
REMARK 922        TOTAL FREE ENERGY PREDICTED BY IDOCK:   -2.48 KCAL/MOL
REMARK 923 INTER-LIGAND FREE ENERGY PREDICTED BY IDOCK:   -2.40 KCAL/MOL
REMARK 924 INTRA-LIGAND FREE ENERGY PREDICTED BY IDOCK:   -0.08 KCAL/MOL
REMARK 927      BINDING AFFINITY PREDICTED BY RF-SCORE:    0.00 PKD
ROOT
HETATM    1  N   UNL     1      -7.766   6.602  68.897  1.00  0.00    -0.107 NA 
HETATM    2  C   UNL     1      -8.232   6.566  70.277  1.00  0.00    -0.126 C  
HETATM    3  H1  UNL     1      -6.841   7.013  68.764  1.00  0.00     0.000 HD 
HETATM    4  H2  UNL     1      -8.450   7.077  68.306  1.00  0.00     0.000 HD 
ENDROOT
BRANCH   2   5
HETATM    5  C   UNL     1      -9.647   5.938  70.480  1.00  0.00    -0.208 C  
HETATM    6  C   UNL     1      -9.721   5.362  71.928  1.00  0.00    -0.204 C  
HETATM    7  C   UNL     1      -9.921   4.789  69.473  1.00  0.00    -0.287 C  
HETATM    8  C   UNL     1      -9.059   3.547  69.706  1.00  0.00    -0.196 C  
HETATM    9  C   UNL     1      -8.885   4.103  72.156  1.00  0.00    -0.128 C  
HETATM   10  C   UNL     1      -9.207   3.025  71.129  1.00  0.00    -0.197 C  
BRANCH   5  11
HETATM   11  C   UNL     1     -10.768   7.010  70.383  1.00  0.00    -0.259 C  
HETATM   12  O   UNL     1     -10.421   8.925  71.803  1.00  0.00    -0.314 OA 
HETATM   13  C   UNL     1     -10.379   8.437  70.681  1.00  0.00    -0.197 C  
HETATM   14  O   UNL     1      -9.983   9.141  69.600  1.00  0.00    -0.178 OA 
ENDBRANCH   5  11
ENDBRANCH   2   5
TORSDOF 2
ENDMDL
MODEL      186
REMARK 921   NORMALIZED FREE ENERGY PREDICTED BY IDOCK:   -2.03 KCAL/MOL
REMARK 922        TOTAL FREE ENERGY PREDICTED BY IDOCK:   -2.45 KCAL/MOL
REMARK 923 INTER-LIGAND FREE ENERGY PREDICTED BY IDOCK:   -2.56 KCAL/MOL
REMARK 924 INTRA-LIGAND FREE ENERGY PREDICTED BY IDOCK:    0.11 KCAL/MOL
REMARK 927      BINDING AFFINITY PREDICTED BY RF-SCORE:    0.00 PKD
ROOT
HETATM    1  N   UNL     1     -11.462   7.712  69.684  1.00  0.00    -0.441 NA 
HETATM    2  C   UNL     1     -11.360   6.267  69.839  1.00  0.00    -0.434 C  
HETATM    3  H1  UNL     1     -12.347   8.118  69.993  1.00  0.00     0.000 HD 
HETATM    4  H2  UNL     1     -11.272   7.978  68.717  1.00  0.00     0.000 HD 
ENDROOT
BRANCH   2   5
HETATM    5  C   UNL     1     -10.007   5.647  69.367  1.00  0.00    -0.261 C  
HETATM    6  C   UNL     1      -9.879   4.223  69.993  1.00  0.00    -0.275 C  
HETATM    7  C   UNL     1      -8.791   6.499  69.816  1.00  0.00    -0.143 C  
HETATM    8  C   UNL     1      -8.556   6.491  71.328  1.00  0.00    -0.127 C  
HETATM    9  C   UNL     1      -9.614   4.212  71.498  1.00  0.00    -0.238 C  
HETATM   10  C   UNL     1      -8.410   5.071  71.861  1.00  0.00    -0.120 C  
BRANCH   5  11
HETATM   11  C   UNL     1      -9.977   5.446  67.826  1.00  0.00    -0.198 C  
HETATM   12  O   UNL     1      -7.911   4.524  66.997  1.00  0.00    -0.096 OA 
HETATM   13  C   UNL     1      -9.085   4.350  67.296  1.00  0.00    -0.132 C  
HETATM   14  O   UNL     1      -9.693   3.152  67.171  1.00  0.00    -0.095 OA 
ENDBRANCH   5  11
ENDBRANCH   2   5
TORSDOF 2
ENDMDL
MODEL      187
REMARK 921   NORMALIZED FREE ENERGY PREDICTED BY IDOCK:   -2.03 KCAL/MOL
REMARK 922        TOTAL FREE ENERGY PREDICTED BY IDOCK:   -2.45 KCAL/MOL
REMARK 923 INTER-LIGAND FREE ENERGY PREDICTED BY IDOCK:   -2.35 KCAL/MOL
REMARK 924 INTRA-LIGAND FREE ENERGY PREDICTED BY IDOCK:   -0.10 KCAL/MOL
REMARK 927      BINDING AFFINITY PREDICTED BY RF-SCORE:    0.00 PKD
ROOT
HETATM    1  N   UNL     1      -8.152  12.512  68.759  1.00  0.00    -0.335 NA 
HETATM    2  C   UNL     1      -7.952  11.494  67.736  1.00  0.00    -0.128 C  
HETATM    3  H1  UNL     1      -7.979  13.471  68.453  1.00  0.00     0.000 HD 
HETATM    4  H2  UNL     1      -7.590  12.299  69.583  1.00  0.00     0.000 HD 
ENDROOT
BRANCH   2   5
HETATM    5  C   UNL     1      -8.217  10.028  68.204  1.00  0.00    -0.109 C  
HETATM    6  C   UNL     1      -8.303   9.121  66.937  1.00  0.00    -0.119 C  
HETATM    7  C   UNL     1      -9.545   9.903  68.996  1.00  0.00    -0.188 C  
HETATM    8  C   UNL     1     -10.795  10.124  68.142  1.00  0.00    -0.310 C  
HETATM    9  C   UNL     1      -9.566   9.317  66.099  1.00  0.00    -0.327 C  
HETATM   10  C   UNL     1     -10.825   9.184  66.944  1.00  0.00    -0.014 C  
BRANCH   5  11
HETATM   11  C   UNL     1      -7.037   9.476  69.051  1.00  0.00    -0.066 C  
HETATM   12  O   UNL     1      -6.300  10.964  70.797  1.00  0.00    -0.346 OA 
HETATM   13  C   UNL     1      -6.929   9.964  70.475  1.00  0.00    -0.111 C  
HETATM   14  O   UNL     1      -7.582   9.199  71.374  1.00  0.00    -0.293 OA 
ENDBRANCH   5  11
ENDBRANCH   2   5
TORSDOF 2
ENDMDL
MODEL      188
REMARK 921   NORMALIZED FREE ENERGY PREDICTED BY IDOCK:   -2.01 KCAL/MOL
REMARK 922        TOTAL FREE ENERGY PREDICTED BY IDOCK:   -2.43 KCAL/MOL
REMARK 923 INTER-LIGAND FREE ENERGY PREDICTED BY IDOCK:   -2.34 KCAL/MOL
REMARK 924 INTRA-LIGAND FREE ENERGY PREDICTED BY IDOCK:   -0.09 KCAL/MOL
REMARK 927      BINDING AFFINITY PREDICTED BY RF-SCORE:    0.00 PKD
ROOT
HETATM    1  N   UNL     1      -8.000   6.581  71.029  1.00  0.00    -0.110 NA 
HETATM    2  C   UNL     1      -8.249   5.148  71.106  1.00  0.00    -0.116 C  
HETATM    3  H1  UNL     1      -7.088   6.880  71.375  1.00  0.00     0.000 HD 
HETATM    4  H2  UNL     1      -8.743   7.094  71.505  1.00  0.00     0.000 HD 
ENDROOT
BRANCH   2   5
HETATM    5  C   UNL     1      -9.644   4.690  70.576  1.00  0.00    -0.268 C  
HETATM    6  C   UNL     1     -10.023   3.355  71.291  1.00  0.00    -0.101 C  
HETATM    7  C   UNL     1      -9.631   4.446  69.044  1.00  0.00    -0.244 C  
HETATM    8  C   UNL     1      -8.793   3.240  68.618  1.00  0.00    -0.165 C  
HETATM    9  C   UNL     1      -9.208   2.141  70.845  1.00  0.00    -0.189 C  
HETATM   10  C   UNL     1      -9.240   1.971  69.332  1.00  0.00    -0.181 C  
BRANCH   5  11
HETATM   11  C   UNL     1     -10.758   5.709  70.945  1.00  0.00    -0.313 C  
HETATM   12  O   UNL     1     -12.083   5.068  72.853  1.00  0.00    -0.144 OA 
HETATM   13  C   UNL     1     -11.187   5.762  72.390  1.00  0.00    -0.290 C  
HETATM   14  O   UNL     1     -10.500   6.649  73.140  1.00  0.00    -0.215 OA 
ENDBRANCH   5  11
ENDBRANCH   2   5
TORSDOF 2
ENDMDL
MODEL      189
REMARK 921   NORMALIZED FREE ENERGY PREDICTED BY IDOCK:   -1.98 KCAL/MOL
REMARK 922        TOTAL FREE ENERGY PREDICTED BY IDOCK:   -2.40 KCAL/MOL
REMARK 923 INTER-LIGAND FREE ENERGY PREDICTED BY IDOCK:   -2.33 KCAL/MOL
REMARK 924 INTRA-LIGAND FREE ENERGY PREDICTED BY IDOCK:   -0.07 KCAL/MOL
REMARK 927      BINDING AFFINITY PREDICTED BY RF-SCORE:    0.00 PKD
ROOT
HETATM    1  N   UNL     1     -10.959  11.106  68.319  1.00  0.00    -0.207 NA 
HETATM    2  C   UNL     1      -9.909  11.097  67.309  1.00  0.00    -0.175 C  
HETATM    3  H1  UNL     1     -11.164  12.022  68.720  1.00  0.00     0.000 HD 
HETATM    4  H2  UNL     1     -10.741  10.439  69.060  1.00  0.00     0.000 HD 
ENDROOT
BRANCH   2   5
HETATM    5  C   UNL     1      -9.595   9.696  66.697  1.00  0.00    -0.241 C  
HETATM    6  C   UNL     1      -8.126   9.321  67.066  1.00  0.00    -0.112 C  
HETATM    7  C   UNL     1      -9.736   9.694  65.151  1.00  0.00    -0.287 C  
HETATM    8  C   UNL     1      -8.670  10.525  64.434  1.00  0.00    -0.187 C  
HETATM    9  C   UNL     1      -7.059  10.129  66.328  1.00  0.00    -0.110 C  
HETATM   10  C   UNL     1      -7.265  10.083  64.819  1.00  0.00    -0.136 C  
BRANCH   5  11
HETATM   11  C   UNL     1     -10.492   8.587  67.315  1.00  0.00    -0.366 C  
HETATM   12  O   UNL     1      -9.262   6.779  68.326  1.00  0.00    -0.125 OA 
HETATM   13  C   UNL     1      -9.915   7.804  68.469  1.00  0.00    -0.182 C  
HETATM   14  O   UNL     1     -10.187   8.326  69.683  1.00  0.00    -0.199 OA 
ENDBRANCH   5  11
ENDBRANCH   2   5
TORSDOF 2
ENDMDL
MODEL      190
REMARK 921   NORMALIZED FREE ENERGY PREDICTED BY IDOCK:   -1.97 KCAL/MOL
REMARK 922        TOTAL FREE ENERGY PREDICTED BY IDOCK:   -2.39 KCAL/MOL
REMARK 923 INTER-LIGAND FREE ENERGY PREDICTED BY IDOCK:   -2.29 KCAL/MOL
REMARK 924 INTRA-LIGAND FREE ENERGY PREDICTED BY IDOCK:   -0.10 KCAL/MOL
REMARK 927      BINDING AFFINITY PREDICTED BY RF-SCORE:    0.00 PKD
ROOT
HETATM    1  N   UNL     1      -6.828   6.976  69.767  1.00  0.00    -0.049 NA 
HETATM    2  C   UNL     1      -7.898   7.038  68.780  1.00  0.00    -0.118 C  
HETATM    3  H1  UNL     1      -6.120   6.262  69.592  1.00  0.00     0.000 HD 
HETATM    4  H2  UNL     1      -7.218   6.863  70.703  1.00  0.00     0.000 HD 
ENDROOT
BRANCH   2   5
HETATM    5  C   UNL     1      -8.981   8.129  69.049  1.00  0.00    -0.144 C  
HETATM    6  C   UNL     1     -10.335   7.630  68.454  1.00  0.00    -0.228 C  
HETATM    7  C   UNL     1      -8.617   9.484  68.384  1.00  0.00    -0.120 C  
HETATM    8  C   UNL     1      -8.665   9.453  66.855  1.00  0.00    -0.137 C  
HETATM    9  C   UNL     1     -10.397   7.628  66.927  1.00  0.00    -0.388 C  
HETATM   10  C   UNL     1     -10.023   8.986  66.350  1.00  0.00    -0.370 C  
BRANCH   5  11
HETATM   11  C   UNL     1      -9.226   8.331  70.570  1.00  0.00    -0.160 C  
HETATM   12  O   UNL     1     -11.165   7.176  71.415  1.00  0.00    -0.243 OA 
HETATM   13  C   UNL     1      -9.947   7.225  71.300  1.00  0.00    -0.188 C  
HETATM   14  O   UNL     1      -9.133   6.287  71.828  1.00  0.00    -0.144 OA 
ENDBRANCH   5  11
ENDBRANCH   2   5
TORSDOF 2
ENDMDL
MODEL      191
REMARK 921   NORMALIZED FREE ENERGY PREDICTED BY IDOCK:   -1.96 KCAL/MOL
REMARK 922        TOTAL FREE ENERGY PREDICTED BY IDOCK:   -2.37 KCAL/MOL
REMARK 923 INTER-LIGAND FREE ENERGY PREDICTED BY IDOCK:   -2.56 KCAL/MOL
REMARK 924 INTRA-LIGAND FREE ENERGY PREDICTED BY IDOCK:    0.19 KCAL/MOL
REMARK 927      BINDING AFFINITY PREDICTED BY RF-SCORE:    0.00 PKD
ROOT
HETATM    1  N   UNL     1     -11.473  12.823  66.382  1.00  0.00    -0.337 NA 
HETATM    2  C   UNL     1     -10.069  12.658  66.030  1.00  0.00    -0.262 C  
HETATM    3  H1  UNL     1     -11.832  13.774  66.293  1.00  0.00     0.000 HD 
HETATM    4  H2  UNL     1     -11.644  12.470  67.325  1.00  0.00     0.000 HD 
ENDROOT
BRANCH   2   5
HETATM    5  C   UNL     1      -9.521  11.203  66.167  1.00  0.00    -0.229 C  
HETATM    6  C   UNL     1     -10.445  10.425  67.156  1.00  0.00    -0.311 C  
HETATM    7  C   UNL     1      -8.071  11.179  66.720  1.00  0.00    -0.155 C  
HETATM    8  C   UNL     1      -7.959  11.628  68.178  1.00  0.00    -0.141 C  
HETATM    9  C   UNL     1     -10.312  10.850  68.618  1.00  0.00    -0.206 C  
HETATM   10  C   UNL     1      -8.864  10.805  69.085  1.00  0.00    -0.098 C  
BRANCH   5  11
HETATM   11  C   UNL     1      -9.590  10.435  64.818  1.00  0.00    -0.352 C  
HETATM   12  O   UNL     1      -7.464  10.211  63.706  1.00  0.00    -0.144 OA 
HETATM   13  C   UNL     1      -8.346   9.700  64.384  1.00  0.00    -0.168 C  
HETATM   14  O   UNL     1      -8.285   8.418  64.802  1.00  0.00    -0.154 OA 
ENDBRANCH   5  11
ENDBRANCH   2   5
TORSDOF 2
ENDMDL
MODEL      192
REMARK 921   NORMALIZED FREE ENERGY PREDICTED BY IDOCK:   -1.93 KCAL/MOL
REMARK 922        TOTAL FREE ENERGY PREDICTED BY IDOCK:   -2.34 KCAL/MOL
REMARK 923 INTER-LIGAND FREE ENERGY PREDICTED BY IDOCK:   -2.74 KCAL/MOL
REMARK 924 INTRA-LIGAND FREE ENERGY PREDICTED BY IDOCK:    0.40 KCAL/MOL
REMARK 927      BINDING AFFINITY PREDICTED BY RF-SCORE:    0.00 PKD
ROOT
HETATM    1  N   UNL     1     -11.043   5.952  66.452  1.00  0.00    -0.759 NA 
HETATM    2  C   UNL     1     -10.505   6.595  67.644  1.00  0.00    -0.227 C  
HETATM    3  H1  UNL     1     -11.600   6.558  65.849  1.00  0.00     0.000 HD 
HETATM    4  H2  UNL     1     -11.580   5.123  66.711  1.00  0.00     0.000 HD 
ENDROOT
BRANCH   2   5
HETATM    5  C   UNL     1      -9.654   5.668  68.567  1.00  0.00    -0.160 C  
HETATM    6  C   UNL     1      -8.193   6.216  68.594  1.00  0.00    -0.108 C  
HETATM    7  C   UNL     1      -9.625   4.204  68.051  1.00  0.00    -0.200 C  
HETATM    8  C   UNL     1      -8.857   4.027  66.740  1.00  0.00    -0.125 C  
HETATM    9  C   UNL     1      -7.413   6.013  67.296  1.00  0.00    -0.081 C  
HETATM   10  C   UNL     1      -7.433   4.556  66.852  1.00  0.00    -0.082 C  
BRANCH   5  11
HETATM   11  C   UNL     1     -10.156   5.705  70.037  1.00  0.00    -0.295 C  
HETATM   12  O   UNL     1     -10.723   7.910  70.826  1.00  0.00    -0.216 OA 
HETATM   13  C   UNL     1     -11.099   6.822  70.410  1.00  0.00    -0.308 C  
HETATM   14  O   UNL     1     -12.406   6.521  70.253  1.00  0.00    -0.178 OA 
ENDBRANCH   5  11
ENDBRANCH   2   5
TORSDOF 2
ENDMDL
MODEL      193
REMARK 921   NORMALIZED FREE ENERGY PREDICTED BY IDOCK:   -1.93 KCAL/MOL
REMARK 922        TOTAL FREE ENERGY PREDICTED BY IDOCK:   -2.34 KCAL/MOL
REMARK 923 INTER-LIGAND FREE ENERGY PREDICTED BY IDOCK:   -2.20 KCAL/MOL
REMARK 924 INTRA-LIGAND FREE ENERGY PREDICTED BY IDOCK:   -0.14 KCAL/MOL
REMARK 927      BINDING AFFINITY PREDICTED BY RF-SCORE:    0.00 PKD
ROOT
HETATM    1  N   UNL     1      -7.658   4.747  72.473  1.00  0.00    -0.088 NA 
HETATM    2  C   UNL     1      -8.457   5.830  73.030  1.00  0.00    -0.118 C  
HETATM    3  H1  UNL     1      -7.406   4.012  73.134  1.00  0.00     0.000 HD 
HETATM    4  H2  UNL     1      -6.820   5.121  72.026  1.00  0.00     0.000 HD 
ENDROOT
BRANCH   2   5
HETATM    5  C   UNL     1      -8.842   6.954  72.018  1.00  0.00    -0.135 C  
HETATM    6  C   UNL     1      -9.759   7.981  72.755  1.00  0.00    -0.348 C  
HETATM    7  C   UNL     1      -9.611   6.393  70.792  1.00  0.00    -0.193 C  
HETATM    8  C   UNL     1     -11.009   5.868  71.128  1.00  0.00    -0.327 C  
HETATM    9  C   UNL     1     -11.165   7.470  73.064  1.00  0.00    -0.373 C  
HETATM   10  C   UNL     1     -11.853   6.933  71.816  1.00  0.00    -0.354 C  
BRANCH   5  11
HETATM   11  C   UNL     1      -7.595   7.751  71.545  1.00  0.00    -0.082 C  
HETATM   12  O   UNL     1      -6.145   6.519  70.066  1.00  0.00    -0.028 OA 
HETATM   13  C   UNL     1      -7.009   7.375  70.206  1.00  0.00    -0.059 C  
HETATM   14  O   UNL     1      -7.514   8.069  69.165  1.00  0.00    -0.090 OA 
ENDBRANCH   5  11
ENDBRANCH   2   5
TORSDOF 2
ENDMDL
MODEL      194
REMARK 921   NORMALIZED FREE ENERGY PREDICTED BY IDOCK:   -1.90 KCAL/MOL
REMARK 922        TOTAL FREE ENERGY PREDICTED BY IDOCK:   -2.30 KCAL/MOL
REMARK 923 INTER-LIGAND FREE ENERGY PREDICTED BY IDOCK:   -2.35 KCAL/MOL
REMARK 924 INTRA-LIGAND FREE ENERGY PREDICTED BY IDOCK:    0.05 KCAL/MOL
REMARK 927      BINDING AFFINITY PREDICTED BY RF-SCORE:    0.00 PKD
ROOT
HETATM    1  N   UNL     1      -8.247  13.802  68.736  1.00  0.00    -0.320 NA 
HETATM    2  C   UNL     1      -8.445  13.236  67.408  1.00  0.00    -0.206 C  
HETATM    3  H1  UNL     1      -8.035  14.800  68.753  1.00  0.00     0.000 HD 
HETATM    4  H2  UNL     1      -7.528  13.280  69.238  1.00  0.00     0.000 HD 
ENDROOT
BRANCH   2   5
HETATM    5  C   UNL     1      -8.769  11.709  67.383  1.00  0.00    -0.155 C  
HETATM    6  C   UNL     1      -9.643  11.418  66.122  1.00  0.00    -0.242 C  
HETATM    7  C   UNL     1      -9.554  11.262  68.645  1.00  0.00    -0.195 C  
HETATM    8  C   UNL     1     -10.977  11.820  68.716  1.00  0.00    -0.281 C  
HETATM    9  C   UNL     1     -11.074  11.947  66.204  1.00  0.00    -0.374 C  
HETATM   10  C   UNL     1     -11.776  11.470  67.468  1.00  0.00    -0.262 C  
BRANCH   5  11
HETATM   11  C   UNL     1      -7.482  10.853  67.224  1.00  0.00    -0.104 C  
HETATM   12  O   UNL     1      -6.467  10.210  69.313  1.00  0.00    -0.044 OA 
HETATM   13  C   UNL     1      -7.151   9.900  68.346  1.00  0.00    -0.072 C  
HETATM   14  O   UNL     1      -7.670   8.663  68.194  1.00  0.00    -0.099 OA 
ENDBRANCH   5  11
ENDBRANCH   2   5
TORSDOF 2
ENDMDL
MODEL      195
REMARK 921   NORMALIZED FREE ENERGY PREDICTED BY IDOCK:   -1.84 KCAL/MOL
REMARK 922        TOTAL FREE ENERGY PREDICTED BY IDOCK:   -2.24 KCAL/MOL
REMARK 923 INTER-LIGAND FREE ENERGY PREDICTED BY IDOCK:   -2.12 KCAL/MOL
REMARK 924 INTRA-LIGAND FREE ENERGY PREDICTED BY IDOCK:   -0.12 KCAL/MOL
REMARK 927      BINDING AFFINITY PREDICTED BY RF-SCORE:    0.00 PKD
ROOT
HETATM    1  N   UNL     1      -6.849   8.273  69.142  1.00  0.00    -0.051 NA 
HETATM    2  C   UNL     1      -7.896   8.947  68.386  1.00  0.00    -0.104 C  
HETATM    3  H1  UNL     1      -5.911   8.655  69.014  1.00  0.00     0.000 HD 
HETATM    4  H2  UNL     1      -6.854   7.274  68.937  1.00  0.00     0.000 HD 
ENDROOT
BRANCH   2   5
HETATM    5  C   UNL     1      -9.331   8.363  68.582  1.00  0.00    -0.143 C  
HETATM    6  C   UNL     1     -10.360   9.417  68.065  1.00  0.00    -0.267 C  
HETATM    7  C   UNL     1      -9.636   8.062  70.074  1.00  0.00    -0.171 C  
HETATM    8  C   UNL     1      -9.753   9.314  70.945  1.00  0.00    -0.346 C  
HETATM    9  C   UNL     1     -10.502  10.655  68.950  1.00  0.00    -0.232 C  
HETATM   10  C   UNL     1     -10.796  10.279  70.396  1.00  0.00    -0.320 C  
BRANCH   5  11
HETATM   11  C   UNL     1      -9.552   7.086  67.724  1.00  0.00    -0.138 C  
HETATM   12  O   UNL     1      -7.815   5.433  67.959  1.00  0.00    -0.091 OA 
HETATM   13  C   UNL     1      -8.947   5.803  68.239  1.00  0.00    -0.115 C  
HETATM   14  O   UNL     1      -9.766   5.085  69.035  1.00  0.00    -0.143 OA 
ENDBRANCH   5  11
ENDBRANCH   2   5
TORSDOF 2
ENDMDL
MODEL      196
REMARK 921   NORMALIZED FREE ENERGY PREDICTED BY IDOCK:   -1.80 KCAL/MOL
REMARK 922        TOTAL FREE ENERGY PREDICTED BY IDOCK:   -2.19 KCAL/MOL
REMARK 923 INTER-LIGAND FREE ENERGY PREDICTED BY IDOCK:   -2.20 KCAL/MOL
REMARK 924 INTRA-LIGAND FREE ENERGY PREDICTED BY IDOCK:    0.01 KCAL/MOL
REMARK 927      BINDING AFFINITY PREDICTED BY RF-SCORE:    0.00 PKD
ROOT
HETATM    1  N   UNL     1      -7.864   6.882  67.406  1.00  0.00    -0.109 NA 
HETATM    2  C   UNL     1      -8.117   7.319  68.772  1.00  0.00    -0.124 C  
HETATM    3  H1  UNL     1      -7.176   6.134  67.313  1.00  0.00     0.000 HD 
HETATM    4  H2  UNL     1      -7.600   7.678  66.824  1.00  0.00     0.000 HD 
ENDROOT
BRANCH   2   5
HETATM    5  C   UNL     1      -9.170   8.463  68.915  1.00  0.00    -0.147 C  
HETATM    6  C   UNL     1      -9.059   9.386  67.661  1.00  0.00    -0.131 C  
HETATM    7  C   UNL     1      -8.927   9.320  70.185  1.00  0.00    -0.239 C  
HETATM    8  C   UNL     1      -7.650  10.160  70.128  1.00  0.00    -0.119 C  
HETATM    9  C   UNL     1      -7.799  10.250  67.616  1.00  0.00    -0.098 C  
HETATM   10  C   UNL     1      -7.628  11.056  68.897  1.00  0.00    -0.134 C  
BRANCH   5  11
HETATM   11  C   UNL     1     -10.621   7.908  68.915  1.00  0.00    -0.165 C  
HETATM   12  O   UNL     1     -10.917   5.930  67.571  1.00  0.00    -0.282 OA 
HETATM   13  C   UNL     1     -10.788   6.426  68.682  1.00  0.00    -0.314 C  
HETATM   14  O   UNL     1     -10.790   5.684  69.810  1.00  0.00    -0.336 OA 
ENDBRANCH   5  11
ENDBRANCH   2   5
TORSDOF 2
ENDMDL
MODEL      197
REMARK 921   NORMALIZED FREE ENERGY PREDICTED BY IDOCK:   -1.73 KCAL/MOL
REMARK 922        TOTAL FREE ENERGY PREDICTED BY IDOCK:   -2.11 KCAL/MOL
REMARK 923 INTER-LIGAND FREE ENERGY PREDICTED BY IDOCK:   -2.12 KCAL/MOL
REMARK 924 INTRA-LIGAND FREE ENERGY PREDICTED BY IDOCK:    0.01 KCAL/MOL
REMARK 927      BINDING AFFINITY PREDICTED BY RF-SCORE:    0.00 PKD
ROOT
HETATM    1  N   UNL     1      -8.201  11.086  65.727  1.00  0.00    -0.311 NA 
HETATM    2  C   UNL     1      -7.880  10.053  66.704  1.00  0.00    -0.111 C  
HETATM    3  H1  UNL     1      -7.451  11.307  65.071  1.00  0.00     0.000 HD 
HETATM    4  H2  UNL     1      -8.516  11.933  66.200  1.00  0.00     0.000 HD 
ENDROOT
BRANCH   2   5
HETATM    5  C   UNL     1      -9.027   9.715  67.707  1.00  0.00    -0.122 C  
HETATM    6  C   UNL     1      -8.632  10.280  69.107  1.00  0.00    -0.167 C  
HETATM    7  C   UNL     1      -9.254   8.185  67.835  1.00  0.00    -0.138 C  
HETATM    8  C   UNL     1      -8.100   7.445  68.514  1.00  0.00    -0.125 C  
HETATM    9  C   UNL     1      -7.501   9.524  69.802  1.00  0.00    -0.098 C  
HETATM   10  C   UNL     1      -7.793   8.032  69.886  1.00  0.00    -0.102 C  
BRANCH   5  11
HETATM   11  C   UNL     1     -10.356  10.420  67.316  1.00  0.00    -0.278 C  
HETATM   12  O   UNL     1     -11.513  11.434  69.170  1.00  0.00    -0.242 OA 
HETATM   13  C   UNL     1     -10.802  11.571  68.183  1.00  0.00    -0.215 C  
HETATM   14  O   UNL     1     -10.355  12.777  67.776  1.00  0.00    -0.214 OA 
ENDBRANCH   5  11
ENDBRANCH   2   5
TORSDOF 2
ENDMDL
MODEL      198
REMARK 921   NORMALIZED FREE ENERGY PREDICTED BY IDOCK:   -1.70 KCAL/MOL
REMARK 922        TOTAL FREE ENERGY PREDICTED BY IDOCK:   -2.09 KCAL/MOL
REMARK 923 INTER-LIGAND FREE ENERGY PREDICTED BY IDOCK:   -2.29 KCAL/MOL
REMARK 924 INTRA-LIGAND FREE ENERGY PREDICTED BY IDOCK:    0.20 KCAL/MOL
REMARK 927      BINDING AFFINITY PREDICTED BY RF-SCORE:    0.00 PKD
ROOT
HETATM    1  N   UNL     1      -8.262   6.987  67.536  1.00  0.00    -0.116 NA 
HETATM    2  C   UNL     1      -8.166   7.305  68.955  1.00  0.00    -0.125 C  
HETATM    3  H1  UNL     1      -7.648   6.236  67.220  1.00  0.00     0.000 HD 
HETATM    4  H2  UNL     1      -8.109   7.826  66.976  1.00  0.00     0.000 HD 
ENDROOT
BRANCH   2   5
HETATM    5  C   UNL     1      -9.106   8.455  69.438  1.00  0.00    -0.154 C  
HETATM    6  C   UNL     1      -9.486   9.326  68.200  1.00  0.00    -0.150 C  
HETATM    7  C   UNL     1      -8.417   9.362  70.492  1.00  0.00    -0.251 C  
HETATM    8  C   UNL     1      -7.267  10.199  69.928  1.00  0.00    -0.155 C  
HETATM    9  C   UNL     1      -8.348  10.186  67.654  1.00  0.00    -0.114 C  
HETATM   10  C   UNL     1      -7.721  11.044  68.745  1.00  0.00    -0.135 C  
BRANCH   5  11
HETATM   11  C   UNL     1     -10.443   7.901  70.004  1.00  0.00    -0.231 C  
HETATM   12  O   UNL     1     -10.944   8.642  72.242  1.00  0.00    -0.354 OA 
HETATM   13  C   UNL     1     -11.149   8.742  71.039  1.00  0.00    -0.270 C  
HETATM   14  O   UNL     1     -12.039   9.618  70.528  1.00  0.00    -0.231 OA 
ENDBRANCH   5  11
ENDBRANCH   2   5
TORSDOF 2
ENDMDL
MODEL      199
REMARK 921   NORMALIZED FREE ENERGY PREDICTED BY IDOCK:   -1.70 KCAL/MOL
REMARK 922        TOTAL FREE ENERGY PREDICTED BY IDOCK:   -2.08 KCAL/MOL
REMARK 923 INTER-LIGAND FREE ENERGY PREDICTED BY IDOCK:   -2.07 KCAL/MOL
REMARK 924 INTRA-LIGAND FREE ENERGY PREDICTED BY IDOCK:   -0.02 KCAL/MOL
REMARK 927      BINDING AFFINITY PREDICTED BY RF-SCORE:    0.00 PKD
ROOT
HETATM    1  N   UNL     1      -9.562   6.418  73.988  1.00  0.00    -0.183 NA 
HETATM    2  C   UNL     1      -8.675   6.320  72.836  1.00  0.00    -0.125 C  
HETATM    3  H1  UNL     1      -9.296   5.842  74.787  1.00  0.00     0.000 HD 
HETATM    4  H2  UNL     1     -10.523   6.214  73.711  1.00  0.00     0.000 HD 
ENDROOT
BRANCH   2   5
HETATM    5  C   UNL     1      -9.082   7.202  71.613  1.00  0.00    -0.141 C  
HETATM    6  C   UNL     1      -8.951   6.334  70.322  1.00  0.00    -0.154 C  
HETATM    7  C   UNL     1      -8.171   8.449  71.468  1.00  0.00    -0.182 C  
HETATM    8  C   UNL     1      -6.731   8.118  71.070  1.00  0.00    -0.042 C  
HETATM    9  C   UNL     1      -7.514   6.028  69.905  1.00  0.00    -0.080 C  
HETATM   10  C   UNL     1      -6.682   7.298  69.788  1.00  0.00    -0.044 C  
BRANCH   5  11
HETATM   11  C   UNL     1     -10.572   7.637  71.692  1.00  0.00    -0.233 C  
HETATM   12  O   UNL     1     -12.038   6.388  70.244  1.00  0.00    -0.294 OA 
HETATM   13  C   UNL     1     -11.609   6.588  71.373  1.00  0.00    -0.318 C  
HETATM   14  O   UNL     1     -12.036   5.887  72.443  1.00  0.00    -0.270 OA 
ENDBRANCH   5  11
ENDBRANCH   2   5
TORSDOF 2
ENDMDL
MODEL      200
REMARK 921   NORMALIZED FREE ENERGY PREDICTED BY IDOCK:   -1.70 KCAL/MOL
REMARK 922        TOTAL FREE ENERGY PREDICTED BY IDOCK:   -2.08 KCAL/MOL
REMARK 923 INTER-LIGAND FREE ENERGY PREDICTED BY IDOCK:   -2.12 KCAL/MOL
REMARK 924 INTRA-LIGAND FREE ENERGY PREDICTED BY IDOCK:    0.04 KCAL/MOL
REMARK 927      BINDING AFFINITY PREDICTED BY RF-SCORE:    0.00 PKD
ROOT
HETATM    1  N   UNL     1      -9.142   5.354  74.482  1.00  0.00    -0.120 NA 
HETATM    2  C   UNL     1      -8.607   5.617  73.153  1.00  0.00    -0.117 C  
HETATM    3  H1  UNL     1      -8.667   5.842  75.242  1.00  0.00     0.000 HD 
HETATM    4  H2  UNL     1      -9.157   4.350  74.664  1.00  0.00     0.000 HD 
ENDROOT
BRANCH   2   5
HETATM    5  C   UNL     1      -9.333   4.869  71.990  1.00  0.00    -0.175 C  
HETATM    6  C   UNL     1      -9.107   5.679  70.675  1.00  0.00    -0.168 C  
HETATM    7  C   UNL     1     -10.859   4.747  72.242  1.00  0.00    -0.131 C  
HETATM    8  C   UNL     1     -11.603   6.083  72.185  1.00  0.00    -0.348 C  
HETATM    9  C   UNL     1      -9.873   6.999  70.601  1.00  0.00    -0.187 C  
HETATM   10  C   UNL     1     -11.360   6.800  70.863  1.00  0.00    -0.363 C  
BRANCH   5  11
HETATM   11  C   UNL     1      -8.720   3.463  71.742  1.00  0.00    -0.119 C  
HETATM   12  O   UNL     1     -10.311   1.659  71.880  1.00  0.00    -0.159 OA 
HETATM   13  C   UNL     1      -9.637   2.405  71.181  1.00  0.00    -0.145 C  
HETATM   14  O   UNL     1      -9.651   2.341  69.833  1.00  0.00    -0.088 OA 
ENDBRANCH   5  11
ENDBRANCH   2   5
TORSDOF 2
ENDMDL
MODEL      201
REMARK 921   NORMALIZED FREE ENERGY PREDICTED BY IDOCK:   -1.66 KCAL/MOL
REMARK 922        TOTAL FREE ENERGY PREDICTED BY IDOCK:   -2.04 KCAL/MOL
REMARK 923 INTER-LIGAND FREE ENERGY PREDICTED BY IDOCK:   -2.03 KCAL/MOL
REMARK 924 INTRA-LIGAND FREE ENERGY PREDICTED BY IDOCK:   -0.01 KCAL/MOL
REMARK 927      BINDING AFFINITY PREDICTED BY RF-SCORE:    0.00 PKD
ROOT
HETATM    1  N   UNL     1     -11.463   9.696  67.710  1.00  0.00    -0.339 NA 
HETATM    2  C   UNL     1     -10.308  10.491  68.105  1.00  0.00    -0.172 C  
HETATM    3  H1  UNL     1     -12.293   9.823  68.289  1.00  0.00     0.000 HD 
HETATM    4  H2  UNL     1     -11.212   8.707  67.667  1.00  0.00     0.000 HD 
ENDROOT
BRANCH   2   5
HETATM    5  C   UNL     1      -9.038  10.296  67.219  1.00  0.00    -0.150 C  
HETATM    6  C   UNL     1      -7.877   9.797  68.134  1.00  0.00    -0.085 C  
HETATM    7  C   UNL     1      -8.598  11.619  66.536  1.00  0.00    -0.164 C  
HETATM    8  C   UNL     1      -8.064  12.669  67.512  1.00  0.00    -0.178 C  
HETATM    9  C   UNL     1      -7.320  10.852  69.089  1.00  0.00    -0.126 C  
HETATM   10  C   UNL     1      -6.915  12.120  68.348  1.00  0.00    -0.078 C  
BRANCH   5  11
HETATM   11  C   UNL     1      -9.251   9.189  66.149  1.00  0.00    -0.259 C  
HETATM   12  O   UNL     1      -9.024   9.962  63.878  1.00  0.00    -0.215 OA 
HETATM   13  C   UNL     1      -8.539   9.365  64.830  1.00  0.00    -0.176 C  
HETATM   14  O   UNL     1      -7.314   8.801  64.782  1.00  0.00    -0.090 OA 
ENDBRANCH   5  11
ENDBRANCH   2   5
TORSDOF 2
ENDMDL
MODEL      202
REMARK 921   NORMALIZED FREE ENERGY PREDICTED BY IDOCK:   -1.65 KCAL/MOL
REMARK 922        TOTAL FREE ENERGY PREDICTED BY IDOCK:   -2.03 KCAL/MOL
REMARK 923 INTER-LIGAND FREE ENERGY PREDICTED BY IDOCK:   -2.21 KCAL/MOL
REMARK 924 INTRA-LIGAND FREE ENERGY PREDICTED BY IDOCK:    0.19 KCAL/MOL
REMARK 927      BINDING AFFINITY PREDICTED BY RF-SCORE:    0.00 PKD
ROOT
HETATM    1  N   UNL     1     -11.003   7.707  66.898  1.00  0.00    -0.491 NA 
HETATM    2  C   UNL     1     -10.276   8.222  68.051  1.00  0.00    -0.214 C  
HETATM    3  H1  UNL     1     -11.789   7.095  67.122  1.00  0.00     0.000 HD 
HETATM    4  H2  UNL     1     -10.362   7.237  66.258  1.00  0.00     0.000 HD 
ENDROOT
BRANCH   2   5
HETATM    5  C   UNL     1      -9.075   9.158  67.709  1.00  0.00    -0.135 C  
HETATM    6  C   UNL     1      -9.054  10.323  68.748  1.00  0.00    -0.159 C  
HETATM    7  C   UNL     1      -9.199   9.764  66.286  1.00  0.00    -0.207 C  
HETATM    8  C   UNL     1     -10.346  10.765  66.139  1.00  0.00    -0.300 C  
HETATM    9  C   UNL     1     -10.181  11.342  68.584  1.00  0.00    -0.214 C  
HETATM   10  C   UNL     1     -10.242  11.887  67.164  1.00  0.00    -0.230 C  
BRANCH   5  11
HETATM   11  C   UNL     1      -7.714   8.422  67.858  1.00  0.00    -0.103 C  
HETATM   12  O   UNL     1      -6.326   8.515  65.891  1.00  0.00    -0.051 OA 
HETATM   13  C   UNL     1      -6.567   8.927  67.018  1.00  0.00    -0.061 C  
HETATM   14  O   UNL     1      -5.815   9.873  67.619  1.00  0.00    -0.046 OA 
ENDBRANCH   5  11
ENDBRANCH   2   5
TORSDOF 2
ENDMDL
MODEL      203
REMARK 921   NORMALIZED FREE ENERGY PREDICTED BY IDOCK:   -1.63 KCAL/MOL
REMARK 922        TOTAL FREE ENERGY PREDICTED BY IDOCK:   -2.00 KCAL/MOL
REMARK 923 INTER-LIGAND FREE ENERGY PREDICTED BY IDOCK:   -2.11 KCAL/MOL
REMARK 924 INTRA-LIGAND FREE ENERGY PREDICTED BY IDOCK:    0.11 KCAL/MOL
REMARK 927      BINDING AFFINITY PREDICTED BY RF-SCORE:    0.00 PKD
ROOT
HETATM    1  N   UNL     1      -8.157  11.047  65.860  1.00  0.00    -0.298 NA 
HETATM    2  C   UNL     1      -7.552   9.924  66.565  1.00  0.00    -0.103 C  
HETATM    3  H1  UNL     1      -7.625  11.390  65.060  1.00  0.00     0.000 HD 
HETATM    4  H2  UNL     1      -8.346  11.810  66.511  1.00  0.00     0.000 HD 
ENDROOT
BRANCH   2   5
HETATM    5  C   UNL     1      -8.366   9.399  67.790  1.00  0.00    -0.115 C  
HETATM    6  C   UNL     1      -7.727   8.054  68.258  1.00  0.00    -0.117 C  
HETATM    7  C   UNL     1      -9.854   9.144  67.431  1.00  0.00    -0.237 C  
HETATM    8  C   UNL     1     -10.065   7.973  66.469  1.00  0.00    -0.270 C  
HETATM    9  C   UNL     1      -7.963   6.875  67.314  1.00  0.00    -0.114 C  
HETATM   10  C   UNL     1      -9.443   6.691  67.007  1.00  0.00    -0.170 C  
BRANCH   5  11
HETATM   11  C   UNL     1      -8.267  10.368  69.000  1.00  0.00    -0.141 C  
HETATM   12  O   UNL     1      -8.402   9.278  71.145  1.00  0.00    -0.291 OA 
HETATM   13  C   UNL     1      -7.709   9.805  70.284  1.00  0.00    -0.172 C  
HETATM   14  O   UNL     1      -6.372   9.938  70.413  1.00  0.00    -0.080 OA 
ENDBRANCH   5  11
ENDBRANCH   2   5
TORSDOF 2
ENDMDL
MODEL      204
REMARK 921   NORMALIZED FREE ENERGY PREDICTED BY IDOCK:   -1.61 KCAL/MOL
REMARK 922        TOTAL FREE ENERGY PREDICTED BY IDOCK:   -1.98 KCAL/MOL
REMARK 923 INTER-LIGAND FREE ENERGY PREDICTED BY IDOCK:   -2.16 KCAL/MOL
REMARK 924 INTRA-LIGAND FREE ENERGY PREDICTED BY IDOCK:    0.18 KCAL/MOL
REMARK 927      BINDING AFFINITY PREDICTED BY RF-SCORE:    0.00 PKD
ROOT
HETATM    1  N   UNL     1      -9.580  12.163  66.816  1.00  0.00    -0.206 NA 
HETATM    2  C   UNL     1      -9.007  11.901  68.131  1.00  0.00    -0.185 C  
HETATM    3  H1  UNL     1      -9.423  13.105  66.457  1.00  0.00     0.000 HD 
HETATM    4  H2  UNL     1     -10.577  11.948  66.817  1.00  0.00     0.000 HD 
ENDROOT
BRANCH   2   5
HETATM    5  C   UNL     1      -9.248  10.460  68.680  1.00  0.00    -0.164 C  
HETATM    6  C   UNL     1      -8.069  10.101  69.639  1.00  0.00    -0.178 C  
HETATM    7  C   UNL     1      -9.300   9.407  67.541  1.00  0.00    -0.147 C  
HETATM    8  C   UNL     1      -7.957   9.188  66.841  1.00  0.00    -0.105 C  
HETATM    9  C   UNL     1      -6.734   9.852  68.939  1.00  0.00    -0.053 C  
HETATM   10  C   UNL     1      -6.865   8.812  67.835  1.00  0.00    -0.070 C  
BRANCH   5  11
HETATM   11  C   UNL     1     -10.541  10.382  69.537  1.00  0.00    -0.274 C  
HETATM   12  O   UNL     1     -11.260   8.136  70.030  1.00  0.00    -0.205 OA 
HETATM   13  C   UNL     1     -10.712   9.163  70.410  1.00  0.00    -0.238 C  
HETATM   14  O   UNL     1     -10.215   9.299  71.657  1.00  0.00    -0.332 OA 
ENDBRANCH   5  11
ENDBRANCH   2   5
TORSDOF 2
ENDMDL
MODEL      205
REMARK 921   NORMALIZED FREE ENERGY PREDICTED BY IDOCK:   -1.57 KCAL/MOL
REMARK 922        TOTAL FREE ENERGY PREDICTED BY IDOCK:   -1.93 KCAL/MOL
REMARK 923 INTER-LIGAND FREE ENERGY PREDICTED BY IDOCK:   -2.88 KCAL/MOL
REMARK 924 INTRA-LIGAND FREE ENERGY PREDICTED BY IDOCK:    0.95 KCAL/MOL
REMARK 927      BINDING AFFINITY PREDICTED BY RF-SCORE:    0.00 PKD
ROOT
HETATM    1  N   UNL     1      -8.648   6.179  73.989  1.00  0.00    -0.119 NA 
HETATM    2  C   UNL     1      -9.218   6.781  72.791  1.00  0.00    -0.135 C  
HETATM    3  H1  UNL     1      -7.905   6.721  74.432  1.00  0.00     0.000 HD 
HETATM    4  H2  UNL     1      -8.321   5.234  73.787  1.00  0.00     0.000 HD 
ENDROOT
BRANCH   2   5
HETATM    5  C   UNL     1     -10.354   5.953  72.113  1.00  0.00    -0.241 C  
HETATM    6  C   UNL     1     -11.191   5.264  73.236  1.00  0.00    -0.359 C  
HETATM    7  C   UNL     1      -9.790   4.856  71.171  1.00  0.00    -0.261 C  
HETATM    8  C   UNL     1      -9.060   3.729  71.904  1.00  0.00    -0.163 C  
HETATM    9  C   UNL     1     -10.477   4.117  73.950  1.00  0.00    -0.274 C  
HETATM   10  C   UNL     1      -9.948   3.086  72.961  1.00  0.00    -0.194 C  
BRANCH   5  11
HETATM   11  C   UNL     1     -11.343   6.866  71.336  1.00  0.00    -0.308 C  
HETATM   12  O   UNL     1     -10.316   8.152  69.577  1.00  0.00    -0.213 OA 
HETATM   13  C   UNL     1     -10.995   7.188  69.904  1.00  0.00    -0.253 C  
HETATM   14  O   UNL     1     -11.505   6.323  69.001  1.00  0.00    -0.363 OA 
ENDBRANCH   5  11
ENDBRANCH   2   5
TORSDOF 2
ENDMDL
MODEL      206
REMARK 921   NORMALIZED FREE ENERGY PREDICTED BY IDOCK:   -1.37 KCAL/MOL
REMARK 922        TOTAL FREE ENERGY PREDICTED BY IDOCK:   -1.71 KCAL/MOL
REMARK 923 INTER-LIGAND FREE ENERGY PREDICTED BY IDOCK:   -1.66 KCAL/MOL
REMARK 924 INTRA-LIGAND FREE ENERGY PREDICTED BY IDOCK:   -0.06 KCAL/MOL
REMARK 927      BINDING AFFINITY PREDICTED BY RF-SCORE:    0.00 PKD
ROOT
HETATM    1  N   UNL     1      -9.531  11.018  65.060  1.00  0.00    -0.225 NA 
HETATM    2  C   UNL     1      -8.218  10.613  65.546  1.00  0.00    -0.141 C  
HETATM    3  H1  UNL     1      -9.641  10.994  64.045  1.00  0.00     0.000 HD 
HETATM    4  H2  UNL     1      -9.769  11.943  65.418  1.00  0.00     0.000 HD 
ENDROOT
BRANCH   2   5
HETATM    5  C   UNL     1      -8.049  10.649  67.097  1.00  0.00    -0.121 C  
HETATM    6  C   UNL     1      -8.784  11.916  67.638  1.00  0.00    -0.162 C  
HETATM    7  C   UNL     1      -6.557  10.723  67.517  1.00  0.00    -0.059 C  
HETATM    8  C   UNL     1      -5.881  12.048  67.160  1.00  0.00    -0.150 C  
HETATM    9  C   UNL     1      -8.095  13.239  67.310  1.00  0.00    -0.150 C  
HETATM   10  C   UNL     1      -6.636  13.234  67.747  1.00  0.00    -0.156 C  
BRANCH   5  11
HETATM   11  C   UNL     1      -8.734   9.430  67.776  1.00  0.00    -0.116 C  
HETATM   12  O   UNL     1      -9.098   7.560  66.300  1.00  0.00    -0.163 OA 
HETATM   13  C   UNL     1      -8.438   8.068  67.197  1.00  0.00    -0.124 C  
HETATM   14  O   UNL     1      -7.380   7.446  67.758  1.00  0.00    -0.088 OA 
ENDBRANCH   5  11
ENDBRANCH   2   5
TORSDOF 2
ENDMDL
MODEL      207
REMARK 921   NORMALIZED FREE ENERGY PREDICTED BY IDOCK:   -1.23 KCAL/MOL
REMARK 922        TOTAL FREE ENERGY PREDICTED BY IDOCK:   -1.56 KCAL/MOL
REMARK 923 INTER-LIGAND FREE ENERGY PREDICTED BY IDOCK:   -1.44 KCAL/MOL
REMARK 924 INTRA-LIGAND FREE ENERGY PREDICTED BY IDOCK:   -0.12 KCAL/MOL
REMARK 927      BINDING AFFINITY PREDICTED BY RF-SCORE:    0.00 PKD
ROOT
HETATM    1  N   UNL     1      -9.255  12.409  66.955  1.00  0.00    -0.203 NA 
HETATM    2  C   UNL     1      -8.715  11.411  67.868  1.00  0.00    -0.145 C  
HETATM    3  H1  UNL     1      -9.991  12.999  67.345  1.00  0.00     0.000 HD 
HETATM    4  H2  UNL     1      -9.581  11.962  66.097  1.00  0.00     0.000 HD 
ENDROOT
BRANCH   2   5
HETATM    5  C   UNL     1      -7.590  10.509  67.271  1.00  0.00    -0.096 C  
HETATM    6  C   UNL     1      -7.396   9.282  68.216  1.00  0.00    -0.078 C  
HETATM    7  C   UNL     1      -6.240  11.266  67.155  1.00  0.00    -0.096 C  
HETATM    8  C   UNL     1      -5.603  11.601  68.505  1.00  0.00    -0.045 C  
HETATM    9  C   UNL     1      -6.731   9.608  69.553  1.00  0.00    -0.051 C  
HETATM   10  C   UNL     1      -5.417  10.353  69.358  1.00  0.00    -0.038 C  
BRANCH   5  11
HETATM   11  C   UNL     1      -7.996   9.929  65.888  1.00  0.00    -0.115 C  
HETATM   12  O   UNL     1      -9.129   7.805  66.008  1.00  0.00    -0.173 OA 
HETATM   13  C   UNL     1      -9.199   9.018  65.854  1.00  0.00    -0.230 C  
HETATM   14  O   UNL     1     -10.369   9.652  65.631  1.00  0.00    -0.173 OA 
ENDBRANCH   5  11
ENDBRANCH   2   5
TORSDOF 2
ENDMDL
