MODEL        1
REMARK 921   NORMALIZED FREE ENERGY PREDICTED BY IDOCK:   -6.01 KCAL/MOL
REMARK 922        TOTAL FREE ENERGY PREDICTED BY IDOCK:  -10.10 KCAL/MOL
REMARK 923 INTER-LIGAND FREE ENERGY PREDICTED BY IDOCK:   -8.47 KCAL/MOL
REMARK 924 INTRA-LIGAND FREE ENERGY PREDICTED BY IDOCK:   -1.63 KCAL/MOL
REMARK 927      BINDING AFFINITY PREDICTED BY RF-SCORE:    0.00 PKD
ROOT
HETATM    1  C   UNL     1      -9.406  10.364  67.641  1.00  0.00    -0.161 C  
HETATM    2  C   UNL     1     -10.738  10.910  67.117  1.00  0.00    -0.320 C  
HETATM    3  C   UNL     1     -11.742  11.012  68.258  1.00  0.00    -0.301 C  
HETATM    4  C   UNL     1     -10.529  12.260  66.449  1.00  0.00    -0.236 C  
HETATM    5  O   UNL     1      -9.435  12.803  66.336  1.00  0.00    -0.246 OA 
ENDROOT
BRANCH   4   6
HETATM    6  O   UNL     1     -11.688  12.759  65.926  1.00  0.00    -0.368 OA 
BRANCH   6   7
HETATM    7  C   UNL     1     -11.499  13.417  64.664  1.00  0.00    -0.348 C  
HETATM    8  C   UNL     1     -12.198  12.615  63.566  1.00  0.00    -0.638 C  
BRANCH   7   9
HETATM    9  O   UNL     1     -12.161  14.691  64.589  1.00  0.00    -0.453 OA 
BRANCH   9  10
HETATM   10  C   UNL     1     -11.353  15.770  64.606  1.00  0.00    -0.337 C  
HETATM   11  O   UNL     1     -11.506  16.786  63.956  1.00  0.00    -1.198 OA 
HETATM   12  N   UNL     1     -10.393  15.553  65.554  1.00  0.00    -0.365 N  
HETATM   13  H   UNL     1     -10.383  14.659  66.045  1.00  0.00     0.000 HD 
BRANCH  12  14
HETATM   14  C   UNL     1      -9.390  16.541  65.889  1.00  0.00    -0.191 C  
BRANCH  14  15
HETATM   15  C   UNL     1      -9.524  17.108  67.342  1.00  0.00    -0.247 C  
HETATM   16  C   UNL     1      -8.266  17.930  67.732  1.00  0.00    -0.233 C  
HETATM   17  C   UNL     1     -10.783  18.022  67.387  1.00  0.00    -0.334 C  
HETATM   18  C   UNL     1     -10.618  19.346  66.638  1.00  0.00    -0.566 C  
HETATM   19  C   UNL     1      -8.128  19.246  66.969  1.00  0.00    -0.284 C  
HETATM   20  C   UNL     1      -9.382  20.100  67.111  1.00  0.00    -0.521 C  
BRANCH  15  21
HETATM   21  C   UNL     1      -9.704  15.910  68.321  1.00  0.00    -0.209 C  
HETATM   22  O   UNL     1     -11.953  15.012  68.255  1.00  0.00    -0.293 OA 
HETATM   23  C   UNL     1     -11.113  15.683  68.837  1.00  0.00    -0.290 C  
HETATM   24  O   UNL     1     -11.368  16.286  70.018  1.00  0.00    -0.334 OA 
ENDBRANCH  15  21
ENDBRANCH  14  15
ENDBRANCH  12  14
ENDBRANCH   9  10
ENDBRANCH   7   9
ENDBRANCH   6   7
ENDBRANCH   4   6
TORSDOF 7
ENDMDL
MODEL        2
REMARK 921   NORMALIZED FREE ENERGY PREDICTED BY IDOCK:   -5.90 KCAL/MOL
REMARK 922        TOTAL FREE ENERGY PREDICTED BY IDOCK:   -9.95 KCAL/MOL
REMARK 923 INTER-LIGAND FREE ENERGY PREDICTED BY IDOCK:   -8.65 KCAL/MOL
REMARK 924 INTRA-LIGAND FREE ENERGY PREDICTED BY IDOCK:   -1.30 KCAL/MOL
REMARK 927      BINDING AFFINITY PREDICTED BY RF-SCORE:    0.00 PKD
ROOT
HETATM    1  C   UNL     1     -13.960  14.405  71.584  1.00  0.00    -0.506 C  
HETATM    2  C   UNL     1     -13.048  15.612  71.340  1.00  0.00    -0.559 C  
HETATM    3  C   UNL     1     -12.202  15.882  72.578  1.00  0.00    -0.597 C  
HETATM    4  C   UNL     1     -12.173  15.374  70.119  1.00  0.00    -0.375 C  
HETATM    5  O   UNL     1     -12.225  14.362  69.429  1.00  0.00    -0.317 OA 
ENDROOT
BRANCH   4   6
HETATM    6  O   UNL     1     -11.378  16.450  69.840  1.00  0.00    -0.298 OA 
BRANCH   6   7
HETATM    7  C   UNL     1     -10.846  16.426  68.508  1.00  0.00    -0.339 C  
HETATM    8  C   UNL     1     -10.773  17.854  67.966  1.00  0.00    -0.307 C  
BRANCH   7   9
HETATM    9  O   UNL     1      -9.472  16.003  68.458  1.00  0.00    -0.204 OA 
BRANCH   9  10
HETATM   10  C   UNL     1      -9.116  15.307  67.360  1.00  0.00    -0.192 C  
HETATM   11  O   UNL     1      -8.175  15.558  66.631  1.00  0.00    -0.253 OA 
HETATM   12  N   UNL     1      -9.940  14.221  67.271  1.00  0.00    -0.249 N  
HETATM   13  H   UNL     1     -10.686  14.115  67.959  1.00  0.00     0.000 HD 
BRANCH  12  14
HETATM   14  C   UNL     1      -9.797  13.214  66.241  1.00  0.00    -0.283 C  
BRANCH  14  15
HETATM   15  C   UNL     1     -11.080  12.341  66.030  1.00  0.00    -0.347 C  
HETATM   16  C   UNL     1     -10.872  11.326  64.874  1.00  0.00    -0.299 C  
HETATM   17  C   UNL     1     -11.364  11.577  67.356  1.00  0.00    -0.367 C  
HETATM   18  C   UNL     1     -10.367  10.454  67.653  1.00  0.00    -0.260 C  
HETATM   19  C   UNL     1      -9.873  10.217  65.199  1.00  0.00    -0.394 C  
HETATM   20  C   UNL     1     -10.257   9.488  66.481  1.00  0.00    -0.307 C  
BRANCH  15  21
HETATM   21  C   UNL     1     -12.269  13.290  65.701  1.00  0.00    -0.514 C  
HETATM   22  O   UNL     1     -12.451  13.734  63.328  1.00  0.00    -0.819 OA 
HETATM   23  C   UNL     1     -12.125  14.121  64.440  1.00  0.00    -0.463 C  
HETATM   24  O   UNL     1     -11.606  15.351  64.650  1.00  0.00    -0.399 OA 
ENDBRANCH  15  21
ENDBRANCH  14  15
ENDBRANCH  12  14
ENDBRANCH   9  10
ENDBRANCH   7   9
ENDBRANCH   6   7
ENDBRANCH   4   6
TORSDOF 7
ENDMDL
MODEL        3
REMARK 921   NORMALIZED FREE ENERGY PREDICTED BY IDOCK:   -5.86 KCAL/MOL
REMARK 922        TOTAL FREE ENERGY PREDICTED BY IDOCK:   -9.89 KCAL/MOL
REMARK 923 INTER-LIGAND FREE ENERGY PREDICTED BY IDOCK:   -8.35 KCAL/MOL
REMARK 924 INTRA-LIGAND FREE ENERGY PREDICTED BY IDOCK:   -1.55 KCAL/MOL
REMARK 927      BINDING AFFINITY PREDICTED BY RF-SCORE:    0.00 PKD
ROOT
HETATM    1  C   UNL     1     -10.183  10.149  67.995  1.00  0.00    -0.205 C  
HETATM    2  C   UNL     1     -11.384  10.983  67.538  1.00  0.00    -0.332 C  
HETATM    3  C   UNL     1     -11.797  11.948  68.641  1.00  0.00    -0.365 C  
HETATM    4  C   UNL     1     -11.052  11.728  66.254  1.00  0.00    -0.311 C  
HETATM    5  O   UNL     1      -9.976  11.639  65.673  1.00  0.00    -0.223 OA 
ENDROOT
BRANCH   4   6
HETATM    6  O   UNL     1     -12.116  12.446  65.788  1.00  0.00    -0.561 OA 
BRANCH   6   7
HETATM    7  C   UNL     1     -11.891  13.004  64.484  1.00  0.00    -0.377 C  
HETATM    8  C   UNL     1     -12.655  12.184  63.444  1.00  0.00    -0.584 C  
BRANCH   7   9
HETATM    9  O   UNL     1     -12.460  14.315  64.327  1.00  0.00    -0.657 OA 
BRANCH   9  10
HETATM   10  C   UNL     1     -11.601  15.344  64.473  1.00  0.00    -0.296 C  
HETATM   11  O   UNL     1     -11.765  16.474  64.054  1.00  0.00    -1.111 OA 
HETATM   12  N   UNL     1     -10.567  14.914  65.256  1.00  0.00    -0.369 N  
HETATM   13  H   UNL     1     -10.555  13.940  65.558  1.00  0.00     0.000 HD 
BRANCH  12  14
HETATM   14  C   UNL     1      -9.489  15.785  65.673  1.00  0.00    -0.217 C  
BRANCH  14  15
HETATM   15  C   UNL     1      -9.326  15.887  67.227  1.00  0.00    -0.218 C  
HETATM   16  C   UNL     1      -9.235  14.475  67.866  1.00  0.00    -0.196 C  
HETATM   17  C   UNL     1      -8.022  16.683  67.521  1.00  0.00    -0.186 C  
HETATM   18  C   UNL     1      -6.738  15.912  67.206  1.00  0.00    -0.221 C  
HETATM   19  C   UNL     1      -7.944  13.730  67.535  1.00  0.00    -0.190 C  
HETATM   20  C   UNL     1      -6.719  14.558  67.904  1.00  0.00    -0.176 C  
BRANCH  15  21
HETATM   21  C   UNL     1     -10.554  16.655  67.798  1.00  0.00    -0.342 C  
HETATM   22  O   UNL     1     -10.742  18.886  66.875  1.00  0.00    -0.421 OA 
HETATM   23  C   UNL     1     -10.440  18.168  67.817  1.00  0.00    -0.404 C  
HETATM   24  O   UNL     1      -9.975  18.669  68.982  1.00  0.00    -0.385 OA 
ENDBRANCH  15  21
ENDBRANCH  14  15
ENDBRANCH  12  14
ENDBRANCH   9  10
ENDBRANCH   7   9
ENDBRANCH   6   7
ENDBRANCH   4   6
TORSDOF 7
ENDMDL
MODEL        4
REMARK 921   NORMALIZED FREE ENERGY PREDICTED BY IDOCK:   -5.77 KCAL/MOL
REMARK 922        TOTAL FREE ENERGY PREDICTED BY IDOCK:   -9.76 KCAL/MOL
REMARK 923 INTER-LIGAND FREE ENERGY PREDICTED BY IDOCK:   -8.40 KCAL/MOL
REMARK 924 INTRA-LIGAND FREE ENERGY PREDICTED BY IDOCK:   -1.36 KCAL/MOL
REMARK 927      BINDING AFFINITY PREDICTED BY RF-SCORE:    0.00 PKD
ROOT
HETATM    1  C   UNL     1      -6.080  17.535  68.246  1.00  0.00    -0.167 C  
HETATM    2  C   UNL     1      -7.186  18.505  67.818  1.00  0.00    -0.228 C  
HETATM    3  C   UNL     1      -6.642  19.928  67.780  1.00  0.00    -0.271 C  
HETATM    4  C   UNL     1      -7.751  18.098  66.467  1.00  0.00    -0.249 C  
HETATM    5  O   UNL     1      -7.377  17.114  65.838  1.00  0.00    -0.304 OA 
ENDROOT
BRANCH   4   6
HETATM    6  O   UNL     1      -8.774  18.914  66.072  1.00  0.00    -0.466 OA 
BRANCH   6   7
HETATM    7  C   UNL     1     -10.069  18.406  66.430  1.00  0.00    -0.403 C  
HETATM    8  C   UNL     1     -10.832  19.474  67.213  1.00  0.00    -0.557 C  
BRANCH   7   9
HETATM    9  O   UNL     1     -10.920  18.185  65.292  1.00  0.00    -0.571 OA 
BRANCH   9  10
HETATM   10  C   UNL     1     -11.033  16.904  64.888  1.00  0.00    -0.001 C  
HETATM   11  O   UNL     1     -11.564  16.524  63.862  1.00  0.00    -1.175 OA 
HETATM   12  N   UNL     1     -10.361  16.125  65.788  1.00  0.00    -0.362 N  
HETATM   13  H   UNL     1      -9.942  16.571  66.604  1.00  0.00     0.000 HD 
BRANCH  12  14
HETATM   14  C   UNL     1     -10.219  14.694  65.628  1.00  0.00    -0.359 C  
BRANCH  14  15
HETATM   15  C   UNL     1     -10.465  13.885  66.946  1.00  0.00    -0.276 C  
HETATM   16  C   UNL     1      -9.303  12.889  67.206  1.00  0.00    -0.212 C  
HETATM   17  C   UNL     1     -10.560  14.900  68.121  1.00  0.00    -0.244 C  
HETATM   18  C   UNL     1      -9.224  15.548  68.494  1.00  0.00    -0.197 C  
HETATM   19  C   UNL     1      -7.983  13.563  67.577  1.00  0.00    -0.186 C  
HETATM   20  C   UNL     1      -8.156  14.497  68.768  1.00  0.00    -0.146 C  
BRANCH  15  21
HETATM   21  C   UNL     1     -11.810  13.113  66.804  1.00  0.00    -0.444 C  
HETATM   22  O   UNL     1     -12.124  12.234  64.570  1.00  0.00    -0.392 OA 
HETATM   23  C   UNL     1     -12.408  13.074  65.410  1.00  0.00    -0.486 C  
HETATM   24  O   UNL     1     -13.303  14.057  65.170  1.00  0.00    -0.703 OA 
ENDBRANCH  15  21
ENDBRANCH  14  15
ENDBRANCH  12  14
ENDBRANCH   9  10
ENDBRANCH   7   9
ENDBRANCH   6   7
ENDBRANCH   4   6
TORSDOF 7
ENDMDL
MODEL        5
REMARK 921   NORMALIZED FREE ENERGY PREDICTED BY IDOCK:   -5.74 KCAL/MOL
REMARK 922        TOTAL FREE ENERGY PREDICTED BY IDOCK:   -9.72 KCAL/MOL
REMARK 923 INTER-LIGAND FREE ENERGY PREDICTED BY IDOCK:   -8.21 KCAL/MOL
REMARK 924 INTRA-LIGAND FREE ENERGY PREDICTED BY IDOCK:   -1.51 KCAL/MOL
REMARK 927      BINDING AFFINITY PREDICTED BY RF-SCORE:    0.00 PKD
ROOT
HETATM    1  C   UNL     1      -5.942  18.975  69.039  1.00  0.00    -0.242 C  
HETATM    2  C   UNL     1      -6.999  19.607  68.127  1.00  0.00    -0.319 C  
HETATM    3  C   UNL     1      -6.381  20.749  67.330  1.00  0.00    -0.345 C  
HETATM    4  C   UNL     1      -7.598  18.556  67.206  1.00  0.00    -0.222 C  
HETATM    5  O   UNL     1      -7.281  17.372  67.224  1.00  0.00    -0.158 OA 
ENDROOT
BRANCH   4   6
HETATM    6  O   UNL     1      -8.580  19.073  66.409  1.00  0.00    -0.309 OA 
BRANCH   6   7
HETATM    7  C   UNL     1      -9.891  18.598  66.751  1.00  0.00    -0.341 C  
HETATM    8  C   UNL     1     -10.640  19.690  67.515  1.00  0.00    -0.577 C  
BRANCH   7   9
HETATM    9  O   UNL     1     -10.731  18.388  65.603  1.00  0.00    -0.548 OA 
BRANCH   9  10
HETATM   10  C   UNL     1     -10.754  17.130  65.120  1.00  0.00     0.004 C  
HETATM   11  O   UNL     1     -11.330  16.763  64.114  1.00  0.00    -1.194 OA 
HETATM   12  N   UNL     1      -9.936  16.369  65.907  1.00  0.00    -0.335 N  
HETATM   13  H   UNL     1      -9.494  16.803  66.718  1.00  0.00     0.000 HD 
BRANCH  12  14
HETATM   14  C   UNL     1      -9.671  14.972  65.636  1.00  0.00    -0.309 C  
BRANCH  14  15
HETATM   15  C   UNL     1     -10.448  13.989  66.575  1.00  0.00    -0.281 C  
HETATM   16  C   UNL     1     -11.979  14.096  66.340  1.00  0.00    -0.457 C  
HETATM   17  C   UNL     1      -9.967  12.543  66.260  1.00  0.00    -0.263 C  
HETATM   18  C   UNL     1     -10.453  12.006  64.912  1.00  0.00    -0.325 C  
HETATM   19  C   UNL     1     -12.435  13.551  64.988  1.00  0.00    -0.462 C  
HETATM   20  C   UNL     1     -11.967  12.116  64.785  1.00  0.00    -0.377 C  
BRANCH  15  21
HETATM   21  C   UNL     1     -10.107  14.350  68.051  1.00  0.00    -0.232 C  
HETATM   22  O   UNL     1     -12.063  14.290  69.478  1.00  0.00    -0.313 OA 
HETATM   23  C   UNL     1     -11.238  14.951  68.865  1.00  0.00    -0.269 C  
HETATM   24  O   UNL     1     -11.257  16.301  68.864  1.00  0.00    -0.331 OA 
ENDBRANCH  15  21
ENDBRANCH  14  15
ENDBRANCH  12  14
ENDBRANCH   9  10
ENDBRANCH   7   9
ENDBRANCH   6   7
ENDBRANCH   4   6
TORSDOF 7
ENDMDL
MODEL        6
REMARK 921   NORMALIZED FREE ENERGY PREDICTED BY IDOCK:   -5.72 KCAL/MOL
REMARK 922        TOTAL FREE ENERGY PREDICTED BY IDOCK:   -9.70 KCAL/MOL
REMARK 923 INTER-LIGAND FREE ENERGY PREDICTED BY IDOCK:   -8.35 KCAL/MOL
REMARK 924 INTRA-LIGAND FREE ENERGY PREDICTED BY IDOCK:   -1.34 KCAL/MOL
REMARK 927      BINDING AFFINITY PREDICTED BY RF-SCORE:    0.00 PKD
ROOT
HETATM    1  C   UNL     1     -10.436  10.833  68.854  1.00  0.00    -0.228 C  
HETATM    2  C   UNL     1     -11.574  11.609  68.182  1.00  0.00    -0.389 C  
HETATM    3  C   UNL     1     -11.945  12.821  69.027  1.00  0.00    -0.288 C  
HETATM    4  C   UNL     1     -11.172  12.024  66.776  1.00  0.00    -0.322 C  
HETATM    5  O   UNL     1     -10.093  11.745  66.264  1.00  0.00    -0.207 OA 
ENDROOT
BRANCH   4   6
HETATM    6  O   UNL     1     -12.180  12.678  66.126  1.00  0.00    -0.568 OA 
BRANCH   6   7
HETATM    7  C   UNL     1     -11.736  13.365  64.946  1.00  0.00    -0.351 C  
HETATM    8  C   UNL     1     -12.324  12.682  63.711  1.00  0.00    -0.568 C  
BRANCH   7   9
HETATM    9  O   UNL     1     -12.259  14.700  64.842  1.00  0.00    -0.401 OA 
BRANCH   9  10
HETATM   10  C   UNL     1     -11.339  15.685  64.796  1.00  0.00    -0.343 C  
HETATM   11  O   UNL     1     -11.318  16.604  64.000  1.00  0.00    -1.120 OA 
HETATM   12  N   UNL     1     -10.498  15.517  65.860  1.00  0.00    -0.322 N  
HETATM   13  H   UNL     1     -10.633  14.708  66.467  1.00  0.00     0.000 HD 
BRANCH  12  14
HETATM   14  C   UNL     1      -9.424  16.439  66.160  1.00  0.00    -0.329 C  
BRANCH  14  15
HETATM   15  C   UNL     1      -9.526  17.085  67.582  1.00  0.00    -0.236 C  
HETATM   16  C   UNL     1      -8.228  17.862  67.929  1.00  0.00    -0.246 C  
HETATM   17  C   UNL     1     -10.738  18.061  67.580  1.00  0.00    -0.352 C  
HETATM   18  C   UNL     1     -10.510  19.336  66.764  1.00  0.00    -0.544 C  
HETATM   19  C   UNL     1      -8.027  19.129  67.101  1.00  0.00    -0.279 C  
HETATM   20  C   UNL     1      -9.237  20.050  67.198  1.00  0.00    -0.483 C  
BRANCH  15  21
HETATM   21  C   UNL     1      -9.764  15.949  68.620  1.00  0.00    -0.207 C  
HETATM   22  O   UNL     1      -7.710  15.261  69.703  1.00  0.00    -0.219 OA 
HETATM   23  C   UNL     1      -8.584  15.031  68.880  1.00  0.00    -0.189 C  
HETATM   24  O   UNL     1      -8.580  13.914  68.121  1.00  0.00    -0.164 OA 
ENDBRANCH  15  21
ENDBRANCH  14  15
ENDBRANCH  12  14
ENDBRANCH   9  10
ENDBRANCH   7   9
ENDBRANCH   6   7
ENDBRANCH   4   6
TORSDOF 7
ENDMDL
MODEL        7
REMARK 921   NORMALIZED FREE ENERGY PREDICTED BY IDOCK:   -5.70 KCAL/MOL
REMARK 922        TOTAL FREE ENERGY PREDICTED BY IDOCK:   -9.66 KCAL/MOL
REMARK 923 INTER-LIGAND FREE ENERGY PREDICTED BY IDOCK:   -8.62 KCAL/MOL
REMARK 924 INTRA-LIGAND FREE ENERGY PREDICTED BY IDOCK:   -1.03 KCAL/MOL
REMARK 927      BINDING AFFINITY PREDICTED BY RF-SCORE:    0.00 PKD
ROOT
HETATM    1  C   UNL     1      -6.816  16.943  69.103  1.00  0.00    -0.238 C  
HETATM    2  C   UNL     1      -7.707  17.885  68.286  1.00  0.00    -0.279 C  
HETATM    3  C   UNL     1      -7.064  19.263  68.200  1.00  0.00    -0.299 C  
HETATM    4  C   UNL     1      -7.955  17.308  66.901  1.00  0.00    -0.225 C  
HETATM    5  O   UNL     1      -7.514  16.229  66.523  1.00  0.00    -0.231 OA 
ENDROOT
BRANCH   4   6
HETATM    6  O   UNL     1      -8.786  18.098  66.158  1.00  0.00    -0.460 OA 
BRANCH   6   7
HETATM    7  C   UNL     1     -10.177  17.833  66.398  1.00  0.00    -0.365 C  
HETATM    8  C   UNL     1     -10.790  19.004  67.166  1.00  0.00    -0.473 C  
BRANCH   7   9
HETATM    9  O   UNL     1     -10.960  17.807  65.192  1.00  0.00    -0.651 OA 
BRANCH   9  10
HETATM   10  C   UNL     1     -11.192  16.584  64.674  1.00  0.00    -0.115 C  
HETATM   11  O   UNL     1     -11.898  16.338  63.715  1.00  0.00    -0.955 OA 
HETATM   12  N   UNL     1     -10.418  15.690  65.359  1.00  0.00    -0.387 N  
HETATM   13  H   UNL     1      -9.854  16.028  66.139  1.00  0.00     0.000 HD 
BRANCH  12  14
HETATM   14  C   UNL     1     -10.366  14.283  65.022  1.00  0.00    -0.421 C  
BRANCH  14  15
HETATM   15  C   UNL     1     -11.206  13.374  65.981  1.00  0.00    -0.310 C  
HETATM   16  C   UNL     1     -10.460  12.045  66.274  1.00  0.00    -0.273 C  
HETATM   17  C   UNL     1     -11.430  14.155  67.309  1.00  0.00    -0.371 C  
HETATM   18  C   UNL     1     -10.171  14.296  68.168  1.00  0.00    -0.231 C  
HETATM   19  C   UNL     1      -9.209  12.215  67.134  1.00  0.00    -0.193 C  
HETATM   20  C   UNL     1      -9.529  12.941  68.435  1.00  0.00    -0.162 C  
BRANCH  15  21
HETATM   21  C   UNL     1     -12.577  13.081  65.303  1.00  0.00    -0.516 C  
HETATM   22  O   UNL     1     -12.375  11.477  63.500  1.00  0.00    -0.331 OA 
HETATM   23  C   UNL     1     -12.517  12.638  63.853  1.00  0.00    -0.407 C  
HETATM   24  O   UNL     1     -12.645  13.649  62.966  1.00  0.00    -0.729 OA 
ENDBRANCH  15  21
ENDBRANCH  14  15
ENDBRANCH  12  14
ENDBRANCH   9  10
ENDBRANCH   7   9
ENDBRANCH   6   7
ENDBRANCH   4   6
TORSDOF 7
ENDMDL
MODEL        8
REMARK 921   NORMALIZED FREE ENERGY PREDICTED BY IDOCK:   -5.63 KCAL/MOL
REMARK 922        TOTAL FREE ENERGY PREDICTED BY IDOCK:   -9.56 KCAL/MOL
REMARK 923 INTER-LIGAND FREE ENERGY PREDICTED BY IDOCK:   -8.43 KCAL/MOL
REMARK 924 INTRA-LIGAND FREE ENERGY PREDICTED BY IDOCK:   -1.13 KCAL/MOL
REMARK 927      BINDING AFFINITY PREDICTED BY RF-SCORE:    0.00 PKD
ROOT
HETATM    1  C   UNL     1     -12.639  12.002  63.370  1.00  0.00    -0.592 C  
HETATM    2  C   UNL     1     -11.654  12.129  64.536  1.00  0.00    -0.403 C  
HETATM    3  C   UNL     1     -10.262  12.452  64.007  1.00  0.00    -0.401 C  
HETATM    4  C   UNL     1     -12.129  13.191  65.515  1.00  0.00    -0.442 C  
HETATM    5  O   UNL     1     -13.168  13.826  65.381  1.00  0.00    -0.722 OA 
ENDROOT
BRANCH   4   6
HETATM    6  O   UNL     1     -11.299  13.300  66.595  1.00  0.00    -0.301 OA 
BRANCH   6   7
HETATM    7  C   UNL     1     -11.879  12.789  67.804  1.00  0.00    -0.332 C  
HETATM    8  C   UNL     1     -11.551  11.301  67.933  1.00  0.00    -0.330 C  
BRANCH   7   9
HETATM    9  O   UNL     1     -11.285  13.342  68.991  1.00  0.00    -0.259 OA 
BRANCH   9  10
HETATM   10  C   UNL     1     -11.567  14.638  69.234  1.00  0.00    -0.302 C  
HETATM   11  O   UNL     1     -12.449  15.052  69.963  1.00  0.00    -0.320 OA 
HETATM   12  N   UNL     1     -10.626  15.394  68.594  1.00  0.00    -0.233 N  
HETATM   13  H   UNL     1      -9.925  14.922  68.023  1.00  0.00     0.000 HD 
BRANCH  12  14
HETATM   14  C   UNL     1     -10.584  16.837  68.694  1.00  0.00    -0.353 C  
BRANCH  14  15
HETATM   15  C   UNL     1      -9.289  17.474  68.087  1.00  0.00    -0.276 C  
HETATM   16  C   UNL     1      -9.400  17.583  66.542  1.00  0.00    -0.281 C  
HETATM   17  C   UNL     1      -9.118  18.893  68.703  1.00  0.00    -0.386 C  
HETATM   18  C   UNL     1     -10.136  19.918  68.198  1.00  0.00    -0.569 C  
HETATM   19  C   UNL     1     -10.422  18.613  66.068  1.00  0.00    -0.456 C  
HETATM   20  C   UNL     1     -10.149  19.983  66.677  1.00  0.00    -0.607 C  
BRANCH  15  21
HETATM   21  C   UNL     1      -8.075  16.579  68.475  1.00  0.00    -0.218 C  
HETATM   22  O   UNL     1      -6.573  16.224  66.610  1.00  0.00    -0.263 OA 
HETATM   23  C   UNL     1      -7.447  15.787  67.344  1.00  0.00    -0.194 C  
HETATM   24  O   UNL     1      -7.934  14.534  67.214  1.00  0.00    -0.193 OA 
ENDBRANCH  15  21
ENDBRANCH  14  15
ENDBRANCH  12  14
ENDBRANCH   9  10
ENDBRANCH   7   9
ENDBRANCH   6   7
ENDBRANCH   4   6
TORSDOF 7
ENDMDL
MODEL        9
REMARK 921   NORMALIZED FREE ENERGY PREDICTED BY IDOCK:   -5.60 KCAL/MOL
REMARK 922        TOTAL FREE ENERGY PREDICTED BY IDOCK:   -9.52 KCAL/MOL
REMARK 923 INTER-LIGAND FREE ENERGY PREDICTED BY IDOCK:   -8.61 KCAL/MOL
REMARK 924 INTRA-LIGAND FREE ENERGY PREDICTED BY IDOCK:   -0.91 KCAL/MOL
REMARK 927      BINDING AFFINITY PREDICTED BY RF-SCORE:    0.00 PKD
ROOT
HETATM    1  C   UNL     1     -12.065  15.973  72.069  1.00  0.00    -0.606 C  
HETATM    2  C   UNL     1     -12.929  14.716  72.220  1.00  0.00    -0.436 C  
HETATM    3  C   UNL     1     -14.392  15.060  71.974  1.00  0.00    -0.666 C  
HETATM    4  C   UNL     1     -12.453  13.631  71.266  1.00  0.00    -0.326 C  
HETATM    5  O   UNL     1     -11.496  13.759  70.511  1.00  0.00    -0.095 OA 
ENDROOT
BRANCH   4   6
HETATM    6  O   UNL     1     -13.170  12.476  71.405  1.00  0.00    -0.282 OA 
BRANCH   6   7
HETATM    7  C   UNL     1     -12.423  11.304  71.046  1.00  0.00    -0.400 C  
HETATM    8  C   UNL     1     -12.874  10.131  71.915  1.00  0.00    -0.526 C  
BRANCH   7   9
HETATM    9  O   UNL     1     -12.713  10.837  69.717  1.00  0.00    -0.208 OA 
BRANCH   9  10
HETATM   10  C   UNL     1     -11.684  10.876  68.847  1.00  0.00    -0.306 C  
HETATM   11  O   UNL     1     -10.912   9.965  68.614  1.00  0.00    -0.225 OA 
HETATM   12  N   UNL     1     -11.726  12.083  68.209  1.00  0.00    -0.330 N  
HETATM   13  H   UNL     1     -12.437  12.759  68.487  1.00  0.00     0.000 HD 
BRANCH  12  14
HETATM   14  C   UNL     1     -10.801  12.441  67.155  1.00  0.00    -0.245 C  
BRANCH  14  15
HETATM   15  C   UNL     1     -11.382  13.472  66.129  1.00  0.00    -0.325 C  
HETATM   16  C   UNL     1     -12.139  14.612  66.863  1.00  0.00    -0.224 C  
HETATM   17  C   UNL     1     -10.193  14.067  65.320  1.00  0.00    -0.383 C  
HETATM   18  C   UNL     1      -9.305  15.018  66.126  1.00  0.00    -0.327 C  
HETATM   19  C   UNL     1     -11.229  15.546  67.657  1.00  0.00    -0.291 C  
HETATM   20  C   UNL     1     -10.127  16.123  66.777  1.00  0.00    -0.275 C  
BRANCH  15  21
HETATM   21  C   UNL     1     -12.349  12.718  65.170  1.00  0.00    -0.555 C  
HETATM   22  O   UNL     1     -11.233  11.970  63.155  1.00  0.00    -0.324 OA 
HETATM   23  C   UNL     1     -11.990  12.762  63.697  1.00  0.00    -0.539 C  
HETATM   24  O   UNL     1     -12.591  13.762  63.016  1.00  0.00    -0.721 OA 
ENDBRANCH  15  21
ENDBRANCH  14  15
ENDBRANCH  12  14
ENDBRANCH   9  10
ENDBRANCH   7   9
ENDBRANCH   6   7
ENDBRANCH   4   6
TORSDOF 7
ENDMDL
MODEL       10
REMARK 921   NORMALIZED FREE ENERGY PREDICTED BY IDOCK:   -5.53 KCAL/MOL
REMARK 922        TOTAL FREE ENERGY PREDICTED BY IDOCK:   -9.42 KCAL/MOL
REMARK 923 INTER-LIGAND FREE ENERGY PREDICTED BY IDOCK:   -8.05 KCAL/MOL
REMARK 924 INTRA-LIGAND FREE ENERGY PREDICTED BY IDOCK:   -1.38 KCAL/MOL
REMARK 927      BINDING AFFINITY PREDICTED BY RF-SCORE:    0.00 PKD
ROOT
HETATM    1  C   UNL     1     -10.402   9.332  67.032  1.00  0.00    -0.325 C  
HETATM    2  C   UNL     1     -10.284   9.784  68.491  1.00  0.00    -0.209 C  
HETATM    3  C   UNL     1      -8.910  10.395  68.736  1.00  0.00    -0.157 C  
HETATM    4  C   UNL     1     -11.390  10.771  68.830  1.00  0.00    -0.288 C  
HETATM    5  O   UNL     1     -12.257  11.121  68.037  1.00  0.00    -0.584 OA 
ENDROOT
BRANCH   4   6
HETATM    6  O   UNL     1     -11.346  11.162  70.138  1.00  0.00    -0.279 OA 
BRANCH   6   7
HETATM    7  C   UNL     1     -12.460  11.984  70.518  1.00  0.00    -0.207 C  
HETATM    8  C   UNL     1     -13.108  11.408  71.777  1.00  0.00    -0.523 C  
BRANCH   7   9
HETATM    9  O   UNL     1     -12.069  13.301  70.942  1.00  0.00    -0.321 OA 
BRANCH   9  10
HETATM   10  C   UNL     1     -12.376  14.302  70.092  1.00  0.00    -0.353 C  
HETATM   11  O   UNL     1     -13.027  15.292  70.363  1.00  0.00    -0.348 OA 
HETATM   12  N   UNL     1     -11.742  14.049  68.908  1.00  0.00    -0.317 N  
HETATM   13  H   UNL     1     -11.209  13.185  68.813  1.00  0.00     0.000 HD 
BRANCH  12  14
HETATM   14  C   UNL     1     -11.797  14.959  67.784  1.00  0.00    -0.251 C  
BRANCH  14  15
HETATM   15  C   UNL     1     -11.079  14.420  66.501  1.00  0.00    -0.331 C  
HETATM   16  C   UNL     1     -10.590  15.593  65.609  1.00  0.00    -0.393 C  
HETATM   17  C   UNL     1      -9.861  13.564  66.957  1.00  0.00    -0.251 C  
HETATM   18  C   UNL     1      -8.708  14.383  67.540  1.00  0.00    -0.203 C  
HETATM   19  C   UNL     1      -9.439  16.392  66.215  1.00  0.00    -0.347 C  
HETATM   20  C   UNL     1      -8.271  15.484  66.582  1.00  0.00    -0.244 C  
BRANCH  15  21
HETATM   21  C   UNL     1     -12.085  13.530  65.713  1.00  0.00    -0.473 C  
HETATM   22  O   UNL     1     -11.146  12.716  63.634  1.00  0.00    -0.429 OA 
HETATM   23  C   UNL     1     -11.897  13.491  64.207  1.00  0.00    -0.428 C  
HETATM   24  O   UNL     1     -12.646  14.393  63.538  1.00  0.00    -0.784 OA 
ENDBRANCH  15  21
ENDBRANCH  14  15
ENDBRANCH  12  14
ENDBRANCH   9  10
ENDBRANCH   7   9
ENDBRANCH   6   7
ENDBRANCH   4   6
TORSDOF 7
ENDMDL
MODEL       11
REMARK 921   NORMALIZED FREE ENERGY PREDICTED BY IDOCK:   -5.52 KCAL/MOL
REMARK 922        TOTAL FREE ENERGY PREDICTED BY IDOCK:   -9.42 KCAL/MOL
REMARK 923 INTER-LIGAND FREE ENERGY PREDICTED BY IDOCK:   -8.18 KCAL/MOL
REMARK 924 INTRA-LIGAND FREE ENERGY PREDICTED BY IDOCK:   -1.24 KCAL/MOL
REMARK 927      BINDING AFFINITY PREDICTED BY RF-SCORE:    0.00 PKD
ROOT
HETATM    1  C   UNL     1      -8.132   9.000  67.500  1.00  0.00    -0.108 C  
HETATM    2  C   UNL     1      -9.357   9.021  66.580  1.00  0.00    -0.229 C  
HETATM    3  C   UNL     1     -10.631   8.948  67.411  1.00  0.00    -0.305 C  
HETATM    4  C   UNL     1      -9.341  10.267  65.709  1.00  0.00    -0.186 C  
HETATM    5  O   UNL     1      -8.451  11.110  65.739  1.00  0.00    -0.158 OA 
ENDROOT
BRANCH   4   6
HETATM    6  O   UNL     1     -10.395  10.299  64.840  1.00  0.00    -0.283 OA 
BRANCH   6   7
HETATM    7  C   UNL     1     -10.322  11.387  63.906  1.00  0.00    -0.379 C  
HETATM    8  C   UNL     1      -9.648  10.906  62.621  1.00  0.00    -0.290 C  
BRANCH   7   9
HETATM    9  O   UNL     1     -11.613  11.815  63.439  1.00  0.00    -0.410 OA 
BRANCH   9  10
HETATM   10  C   UNL     1     -12.057  12.983  63.944  1.00  0.00    -0.471 C  
HETATM   11  O   UNL     1     -12.671  13.837  63.332  1.00  0.00    -0.795 OA 
HETATM   12  N   UNL     1     -11.780  12.989  65.282  1.00  0.00    -0.336 N  
HETATM   13  H   UNL     1     -11.270  12.200  65.679  1.00  0.00     0.000 HD 
BRANCH  12  14
HETATM   14  C   UNL     1     -12.179  14.070  66.157  1.00  0.00    -0.465 C  
BRANCH  14  15
HETATM   15  C   UNL     1     -10.987  14.730  66.929  1.00  0.00    -0.328 C  
HETATM   16  C   UNL     1     -11.507  15.743  67.984  1.00  0.00    -0.264 C  
HETATM   17  C   UNL     1     -10.188  13.598  67.636  1.00  0.00    -0.239 C  
HETATM   18  C   UNL     1     -10.917  12.973  68.828  1.00  0.00    -0.295 C  
HETATM   19  C   UNL     1     -12.229  15.092  69.162  1.00  0.00    -0.185 C  
HETATM   20  C   UNL     1     -11.356  14.036  69.828  1.00  0.00    -0.239 C  
BRANCH  15  21
HETATM   21  C   UNL     1     -10.075  15.455  65.895  1.00  0.00    -0.370 C  
HETATM   22  O   UNL     1     -10.441  17.848  65.879  1.00  0.00    -0.497 OA 
HETATM   23  C   UNL     1     -10.609  16.763  65.343  1.00  0.00    -0.203 C  
HETATM   24  O   UNL     1     -11.292  16.632  64.185  1.00  0.00    -1.141 OA 
ENDBRANCH  15  21
ENDBRANCH  14  15
ENDBRANCH  12  14
ENDBRANCH   9  10
ENDBRANCH   7   9
ENDBRANCH   6   7
ENDBRANCH   4   6
TORSDOF 7
ENDMDL
MODEL       12
REMARK 921   NORMALIZED FREE ENERGY PREDICTED BY IDOCK:   -5.47 KCAL/MOL
REMARK 922        TOTAL FREE ENERGY PREDICTED BY IDOCK:   -9.34 KCAL/MOL
REMARK 923 INTER-LIGAND FREE ENERGY PREDICTED BY IDOCK:   -7.92 KCAL/MOL
REMARK 924 INTRA-LIGAND FREE ENERGY PREDICTED BY IDOCK:   -1.42 KCAL/MOL
REMARK 927      BINDING AFFINITY PREDICTED BY RF-SCORE:    0.00 PKD
ROOT
HETATM    1  C   UNL     1      -7.301  16.925  68.942  1.00  0.00    -0.236 C  
HETATM    2  C   UNL     1      -8.016  17.984  68.097  1.00  0.00    -0.270 C  
HETATM    3  C   UNL     1      -7.281  19.314  68.201  1.00  0.00    -0.304 C  
HETATM    4  C   UNL     1      -8.118  17.526  66.651  1.00  0.00    -0.255 C  
HETATM    5  O   UNL     1      -7.701  16.446  66.246  1.00  0.00    -0.267 OA 
ENDROOT
BRANCH   4   6
HETATM    6  O   UNL     1      -8.793  18.425  65.874  1.00  0.00    -0.491 OA 
BRANCH   6   7
HETATM    7  C   UNL     1     -10.210  18.414  66.103  1.00  0.00    -0.389 C  
HETATM    8  C   UNL     1     -10.688  19.838  66.383  1.00  0.00    -0.499 C  
BRANCH   7   9
HETATM    9  O   UNL     1     -10.967  18.055  64.934  1.00  0.00    -0.776 OA 
BRANCH   9  10
HETATM   10  C   UNL     1     -11.263  16.746  64.811  1.00  0.00     0.040 C  
HETATM   11  O   UNL     1     -11.784  16.220  63.846  1.00  0.00    -0.986 OA 
HETATM   12  N   UNL     1     -10.786  16.106  65.921  1.00  0.00    -0.234 N  
HETATM   13  H   UNL     1     -10.352  16.663  66.657  1.00  0.00     0.000 HD 
BRANCH  12  14
HETATM   14  C   UNL     1     -10.873  14.672  66.093  1.00  0.00    -0.321 C  
BRANCH  14  15
HETATM   15  C   UNL     1     -10.962  14.221  67.590  1.00  0.00    -0.286 C  
HETATM   16  C   UNL     1     -11.773  12.903  67.721  1.00  0.00    -0.412 C  
HETATM   17  C   UNL     1      -9.513  14.000  68.112  1.00  0.00    -0.215 C  
HETATM   18  C   UNL     1      -8.827  12.758  67.537  1.00  0.00    -0.187 C  
HETATM   19  C   UNL     1     -11.064  11.681  67.141  1.00  0.00    -0.354 C  
HETATM   20  C   UNL     1      -9.676  11.511  67.745  1.00  0.00    -0.180 C  
BRANCH  15  21
HETATM   21  C   UNL     1     -11.650  15.356  68.404  1.00  0.00    -0.368 C  
HETATM   22  O   UNL     1     -10.906  15.404  70.708  1.00  0.00    -0.323 OA 
HETATM   23  C   UNL     1     -11.775  15.119  69.897  1.00  0.00    -0.315 C  
HETATM   24  O   UNL     1     -12.950  14.564  70.268  1.00  0.00    -0.289 OA 
ENDBRANCH  15  21
ENDBRANCH  14  15
ENDBRANCH  12  14
ENDBRANCH   9  10
ENDBRANCH   7   9
ENDBRANCH   6   7
ENDBRANCH   4   6
TORSDOF 7
ENDMDL
MODEL       13
REMARK 921   NORMALIZED FREE ENERGY PREDICTED BY IDOCK:   -5.43 KCAL/MOL
REMARK 922        TOTAL FREE ENERGY PREDICTED BY IDOCK:   -9.29 KCAL/MOL
REMARK 923 INTER-LIGAND FREE ENERGY PREDICTED BY IDOCK:   -8.36 KCAL/MOL
REMARK 924 INTRA-LIGAND FREE ENERGY PREDICTED BY IDOCK:   -0.92 KCAL/MOL
REMARK 927      BINDING AFFINITY PREDICTED BY RF-SCORE:    0.00 PKD
ROOT
HETATM    1  C   UNL     1     -12.336   7.098  71.607  1.00  0.00    -0.398 C  
HETATM    2  C   UNL     1     -11.812   8.489  71.982  1.00  0.00    -0.429 C  
HETATM    3  C   UNL     1     -10.486   8.751  71.280  1.00  0.00    -0.326 C  
HETATM    4  C   UNL     1     -12.840   9.553  71.626  1.00  0.00    -0.393 C  
HETATM    5  O   UNL     1     -13.934   9.306  71.133  1.00  0.00    -0.238 OA 
ENDROOT
BRANCH   4   6
HETATM    6  O   UNL     1     -12.428  10.804  71.989  1.00  0.00    -0.180 OA 
BRANCH   6   7
HETATM    7  C   UNL     1     -12.897  11.830  71.102  1.00  0.00    -0.267 C  
HETATM    8  C   UNL     1     -13.317  13.052  71.918  1.00  0.00    -0.539 C  
BRANCH   7   9
HETATM    9  O   UNL     1     -11.862  12.360  70.257  1.00  0.00    -0.322 OA 
BRANCH   9  10
HETATM   10  C   UNL     1     -11.903  11.968  68.968  1.00  0.00    -0.315 C  
HETATM   11  O   UNL     1     -12.136  10.842  68.572  1.00  0.00    -0.545 OA 
HETATM   12  N   UNL     1     -11.734  13.080  68.191  1.00  0.00    -0.334 N  
HETATM   13  H   UNL     1     -11.561  13.975  68.649  1.00  0.00     0.000 HD 
BRANCH  12  14
HETATM   14  C   UNL     1     -11.790  13.038  66.745  1.00  0.00    -0.388 C  
BRANCH  14  15
HETATM   15  C   UNL     1     -10.387  13.138  66.057  1.00  0.00    -0.292 C  
HETATM   16  C   UNL     1      -9.653  11.771  66.100  1.00  0.00    -0.250 C  
HETATM   17  C   UNL     1     -10.608  13.569  64.578  1.00  0.00    -0.439 C  
HETATM   18  C   UNL     1     -11.220  12.478  63.696  1.00  0.00    -0.545 C  
HETATM   19  C   UNL     1     -10.284  10.702  65.211  1.00  0.00    -0.351 C  
HETATM   20  C   UNL     1     -10.414  11.188  63.772  1.00  0.00    -0.444 C  
BRANCH  15  21
HETATM   21  C   UNL     1      -9.551  14.219  66.803  1.00  0.00    -0.290 C  
HETATM   22  O   UNL     1     -10.896  16.127  67.447  1.00  0.00    -0.322 OA 
HETATM   23  C   UNL     1     -10.062  15.643  66.696  1.00  0.00    -0.273 C  
HETATM   24  O   UNL     1      -9.505  16.351  65.689  1.00  0.00    -0.486 OA 
ENDBRANCH  15  21
ENDBRANCH  14  15
ENDBRANCH  12  14
ENDBRANCH   9  10
ENDBRANCH   7   9
ENDBRANCH   6   7
ENDBRANCH   4   6
TORSDOF 7
ENDMDL
MODEL       14
REMARK 921   NORMALIZED FREE ENERGY PREDICTED BY IDOCK:   -5.43 KCAL/MOL
REMARK 922        TOTAL FREE ENERGY PREDICTED BY IDOCK:   -9.28 KCAL/MOL
REMARK 923 INTER-LIGAND FREE ENERGY PREDICTED BY IDOCK:   -8.53 KCAL/MOL
REMARK 924 INTRA-LIGAND FREE ENERGY PREDICTED BY IDOCK:   -0.75 KCAL/MOL
REMARK 927      BINDING AFFINITY PREDICTED BY RF-SCORE:    0.00 PKD
ROOT
HETATM    1  C   UNL     1      -5.706  21.191  67.427  1.00  0.00    -0.374 C  
HETATM    2  C   UNL     1      -6.681  20.670  66.366  1.00  0.00    -0.303 C  
HETATM    3  C   UNL     1      -5.957  20.494  65.038  1.00  0.00    -0.278 C  
HETATM    4  C   UNL     1      -7.312  19.365  66.825  1.00  0.00    -0.220 C  
HETATM    5  O   UNL     1      -7.076  18.835  67.905  1.00  0.00    -0.231 OA 
ENDROOT
BRANCH   4   6
HETATM    6  O   UNL     1      -8.225  18.892  65.924  1.00  0.00    -0.477 OA 
BRANCH   6   7
HETATM    7  C   UNL     1      -9.486  18.558  66.524  1.00  0.00    -0.320 C  
HETATM    8  C   UNL     1     -10.439  19.745  66.393  1.00  0.00    -0.618 C  
BRANCH   7   9
HETATM    9  O   UNL     1     -10.185  17.517  65.821  1.00  0.00    -0.561 OA 
BRANCH   9  10
HETATM   10  C   UNL     1     -10.543  16.451  66.563  1.00  0.00    -0.235 C  
HETATM   11  O   UNL     1     -10.459  16.363  67.774  1.00  0.00    -0.283 OA 
HETATM   12  N   UNL     1     -11.106  15.531  65.724  1.00  0.00    -0.268 N  
HETATM   13  H   UNL     1     -11.132  15.732  64.724  1.00  0.00     0.000 HD 
BRANCH  12  14
HETATM   14  C   UNL     1     -11.667  14.283  66.196  1.00  0.00    -0.390 C  
BRANCH  14  15
HETATM   15  C   UNL     1     -10.824  13.024  65.802  1.00  0.00    -0.292 C  
HETATM   16  C   UNL     1      -9.384  13.123  66.373  1.00  0.00    -0.188 C  
HETATM   17  C   UNL     1     -11.536  11.768  66.385  1.00  0.00    -0.309 C  
HETATM   18  C   UNL     1     -11.434  11.646  67.907  1.00  0.00    -0.381 C  
HETATM   19  C   UNL     1      -9.313  12.997  67.894  1.00  0.00    -0.212 C  
HETATM   20  C   UNL     1      -9.985  11.716  68.373  1.00  0.00    -0.201 C  
BRANCH  15  21
HETATM   21  C   UNL     1     -10.779  12.931  64.248  1.00  0.00    -0.430 C  
HETATM   22  O   UNL     1     -12.597  14.149  63.210  1.00  0.00    -0.766 OA 
HETATM   23  C   UNL     1     -12.111  13.076  63.536  1.00  0.00    -0.542 C  
HETATM   24  O   UNL     1     -12.725  11.901  63.279  1.00  0.00    -0.654 OA 
ENDBRANCH  15  21
ENDBRANCH  14  15
ENDBRANCH  12  14
ENDBRANCH   9  10
ENDBRANCH   7   9
ENDBRANCH   6   7
ENDBRANCH   4   6
TORSDOF 7
ENDMDL
MODEL       15
REMARK 921   NORMALIZED FREE ENERGY PREDICTED BY IDOCK:   -5.43 KCAL/MOL
REMARK 922        TOTAL FREE ENERGY PREDICTED BY IDOCK:   -9.28 KCAL/MOL
REMARK 923 INTER-LIGAND FREE ENERGY PREDICTED BY IDOCK:   -8.16 KCAL/MOL
REMARK 924 INTRA-LIGAND FREE ENERGY PREDICTED BY IDOCK:   -1.12 KCAL/MOL
REMARK 927      BINDING AFFINITY PREDICTED BY RF-SCORE:    0.00 PKD
ROOT
HETATM    1  C   UNL     1     -14.168  14.364  72.113  1.00  0.00    -0.626 C  
HETATM    2  C   UNL     1     -13.142  15.496  71.997  1.00  0.00    -0.535 C  
HETATM    3  C   UNL     1     -12.297  15.562  73.263  1.00  0.00    -0.599 C  
HETATM    4  C   UNL     1     -12.271  15.295  70.767  1.00  0.00    -0.360 C  
HETATM    5  O   UNL     1     -12.405  14.364  69.980  1.00  0.00    -0.326 OA 
ENDROOT
BRANCH   4   6
HETATM    6  O   UNL     1     -11.372  16.311  70.603  1.00  0.00    -0.386 OA 
BRANCH   6   7
HETATM    7  C   UNL     1     -10.708  16.275  69.330  1.00  0.00    -0.318 C  
HETATM    8  C   UNL     1     -10.372  17.701  68.894  1.00  0.00    -0.323 C  
BRANCH   7   9
HETATM    9  O   UNL     1      -9.413  15.654  69.389  1.00  0.00    -0.251 OA 
BRANCH   9  10
HETATM   10  C   UNL     1      -9.011  15.036  68.260  1.00  0.00    -0.174 C  
HETATM   11  O   UNL     1      -7.923  15.156  67.730  1.00  0.00    -0.125 OA 
HETATM   12  N   UNL     1     -10.007  14.183  67.877  1.00  0.00    -0.227 N  
HETATM   13  H   UNL     1     -10.871  14.165  68.419  1.00  0.00     0.000 HD 
BRANCH  12  14
HETATM   14  C   UNL     1      -9.886  13.304  66.733  1.00  0.00    -0.264 C  
BRANCH  14  15
HETATM   15  C   UNL     1     -11.198  12.518  66.400  1.00  0.00    -0.353 C  
HETATM   16  C   UNL     1     -12.328  13.489  65.964  1.00  0.00    -0.486 C  
HETATM   17  C   UNL     1     -10.883  11.526  65.243  1.00  0.00    -0.319 C  
HETATM   18  C   UNL     1     -10.668  12.200  63.886  1.00  0.00    -0.456 C  
HETATM   19  C   UNL     1     -12.088  14.146  64.607  1.00  0.00    -0.469 C  
HETATM   20  C   UNL     1     -11.840  13.103  63.525  1.00  0.00    -0.539 C  
BRANCH  15  21
HETATM   21  C   UNL     1     -11.632  11.728  67.670  1.00  0.00    -0.364 C  
HETATM   22  O   UNL     1      -9.730  10.962  68.959  1.00  0.00    -0.202 OA 
HETATM   23  C   UNL     1     -10.638  10.702  68.184  1.00  0.00    -0.202 C  
HETATM   24  O   UNL     1     -10.847   9.453  67.713  1.00  0.00    -0.252 OA 
ENDBRANCH  15  21
ENDBRANCH  14  15
ENDBRANCH  12  14
ENDBRANCH   9  10
ENDBRANCH   7   9
ENDBRANCH   6   7
ENDBRANCH   4   6
TORSDOF 7
ENDMDL
MODEL       16
REMARK 921   NORMALIZED FREE ENERGY PREDICTED BY IDOCK:   -5.42 KCAL/MOL
REMARK 922        TOTAL FREE ENERGY PREDICTED BY IDOCK:   -9.27 KCAL/MOL
REMARK 923 INTER-LIGAND FREE ENERGY PREDICTED BY IDOCK:   -8.12 KCAL/MOL
REMARK 924 INTRA-LIGAND FREE ENERGY PREDICTED BY IDOCK:   -1.15 KCAL/MOL
REMARK 927      BINDING AFFINITY PREDICTED BY RF-SCORE:    0.00 PKD
ROOT
HETATM    1  C   UNL     1     -10.730  20.070  65.604  1.00  0.00    -0.321 C  
HETATM    2  C   UNL     1      -9.862  19.312  66.613  1.00  0.00    -0.442 C  
HETATM    3  C   UNL     1     -10.377  19.555  68.026  1.00  0.00    -0.564 C  
HETATM    4  C   UNL     1      -9.845  17.827  66.284  1.00  0.00    -0.294 C  
HETATM    5  O   UNL     1     -10.431  17.334  65.327  1.00  0.00    -0.661 OA 
ENDROOT
BRANCH   4   6
HETATM    6  O   UNL     1      -9.042  17.122  67.136  1.00  0.00    -0.221 OA 
BRANCH   6   7
HETATM    7  C   UNL     1      -7.652  17.189  66.782  1.00  0.00    -0.239 C  
HETATM    8  C   UNL     1      -6.856  17.746  67.963  1.00  0.00    -0.191 C  
BRANCH   7   9
HETATM    9  O   UNL     1      -7.058  15.893  66.590  1.00  0.00    -0.195 OA 
BRANCH   9  10
HETATM   10  C   UNL     1      -7.605  14.889  67.304  1.00  0.00    -0.181 C  
HETATM   11  O   UNL     1      -7.279  14.551  68.425  1.00  0.00    -0.101 OA 
HETATM   12  N   UNL     1      -8.651  14.388  66.581  1.00  0.00    -0.437 N  
HETATM   13  H   UNL     1      -8.833  14.772  65.653  1.00  0.00     0.000 HD 
BRANCH  12  14
HETATM   14  C   UNL     1      -9.511  13.336  67.078  1.00  0.00    -0.243 C  
BRANCH  14  15
HETATM   15  C   UNL     1     -11.036  13.685  67.015  1.00  0.00    -0.313 C  
HETATM   16  C   UNL     1     -11.893  12.515  67.568  1.00  0.00    -0.389 C  
HETATM   17  C   UNL     1     -11.272  14.961  67.873  1.00  0.00    -0.324 C  
HETATM   18  C   UNL     1     -11.152  14.728  69.381  1.00  0.00    -0.302 C  
HETATM   19  C   UNL     1     -11.754  12.306  69.075  1.00  0.00    -0.376 C  
HETATM   20  C   UNL     1     -12.054  13.589  69.839  1.00  0.00    -0.408 C  
BRANCH  15  21
HETATM   21  C   UNL     1     -11.412  13.969  65.531  1.00  0.00    -0.318 C  
HETATM   22  O   UNL     1     -13.276  12.612  64.788  1.00  0.00    -0.846 OA 
HETATM   23  C   UNL     1     -12.073  12.825  64.784  1.00  0.00    -0.432 C  
HETATM   24  O   UNL     1     -11.208  12.050  64.093  1.00  0.00    -0.325 OA 
ENDBRANCH  15  21
ENDBRANCH  14  15
ENDBRANCH  12  14
ENDBRANCH   9  10
ENDBRANCH   7   9
ENDBRANCH   6   7
ENDBRANCH   4   6
TORSDOF 7
ENDMDL
MODEL       17
REMARK 921   NORMALIZED FREE ENERGY PREDICTED BY IDOCK:   -5.40 KCAL/MOL
REMARK 922        TOTAL FREE ENERGY PREDICTED BY IDOCK:   -9.25 KCAL/MOL
REMARK 923 INTER-LIGAND FREE ENERGY PREDICTED BY IDOCK:   -7.80 KCAL/MOL
REMARK 924 INTRA-LIGAND FREE ENERGY PREDICTED BY IDOCK:   -1.45 KCAL/MOL
REMARK 927      BINDING AFFINITY PREDICTED BY RF-SCORE:    0.00 PKD
ROOT
HETATM    1  C   UNL     1     -10.232   9.343  67.331  1.00  0.00    -0.298 C  
HETATM    2  C   UNL     1     -10.216   9.868  68.770  1.00  0.00    -0.205 C  
HETATM    3  C   UNL     1      -8.912  10.610  69.038  1.00  0.00    -0.165 C  
HETATM    4  C   UNL     1     -11.418  10.766  69.018  1.00  0.00    -0.298 C  
HETATM    5  O   UNL     1     -12.278  11.002  68.177  1.00  0.00    -0.578 OA 
ENDROOT
BRANCH   4   6
HETATM    6  O   UNL     1     -11.465  11.217  70.307  1.00  0.00    -0.297 OA 
BRANCH   6   7
HETATM    7  C   UNL     1     -12.394  12.295  70.493  1.00  0.00    -0.264 C  
HETATM    8  C   UNL     1     -13.090  12.136  71.845  1.00  0.00    -0.475 C  
BRANCH   7   9
HETATM    9  O   UNL     1     -11.752  13.575  70.622  1.00  0.00    -0.185 OA 
BRANCH   9  10
HETATM   10  C   UNL     1     -12.029  14.466  69.649  1.00  0.00    -0.336 C  
HETATM   11  O   UNL     1     -12.306  15.639  69.813  1.00  0.00    -0.333 OA 
HETATM   12  N   UNL     1     -11.845  13.839  68.448  1.00  0.00    -0.361 N  
HETATM   13  H   UNL     1     -11.595  12.850  68.445  1.00  0.00     0.000 HD 
BRANCH  12  14
HETATM   14  C   UNL     1     -11.991  14.523  67.181  1.00  0.00    -0.345 C  
BRANCH  14  15
HETATM   15  C   UNL     1     -10.737  14.402  66.251  1.00  0.00    -0.307 C  
HETATM   16  C   UNL     1     -10.332  12.915  66.062  1.00  0.00    -0.294 C  
HETATM   17  C   UNL     1     -11.100  15.027  64.872  1.00  0.00    -0.425 C  
HETATM   18  C   UNL     1     -12.080  14.189  64.048  1.00  0.00    -0.382 C  
HETATM   19  C   UNL     1     -11.327  12.104  65.235  1.00  0.00    -0.386 C  
HETATM   20  C   UNL     1     -11.583  12.758  63.883  1.00  0.00    -0.518 C  
BRANCH  15  21
HETATM   21  C   UNL     1      -9.567  15.198  66.901  1.00  0.00    -0.252 C  
HETATM   22  O   UNL     1     -10.299  17.327  67.792  1.00  0.00    -0.326 OA 
HETATM   23  C   UNL     1      -9.719  16.707  66.913  1.00  0.00    -0.254 C  
HETATM   24  O   UNL     1      -9.143  17.325  65.859  1.00  0.00    -0.516 OA 
ENDBRANCH  15  21
ENDBRANCH  14  15
ENDBRANCH  12  14
ENDBRANCH   9  10
ENDBRANCH   7   9
ENDBRANCH   6   7
ENDBRANCH   4   6
TORSDOF 7
ENDMDL
MODEL       18
REMARK 921   NORMALIZED FREE ENERGY PREDICTED BY IDOCK:   -5.38 KCAL/MOL
REMARK 922        TOTAL FREE ENERGY PREDICTED BY IDOCK:   -9.21 KCAL/MOL
REMARK 923 INTER-LIGAND FREE ENERGY PREDICTED BY IDOCK:   -8.59 KCAL/MOL
REMARK 924 INTRA-LIGAND FREE ENERGY PREDICTED BY IDOCK:   -0.62 KCAL/MOL
REMARK 927      BINDING AFFINITY PREDICTED BY RF-SCORE:    0.00 PKD
ROOT
HETATM    1  C   UNL     1      -5.206  19.162  67.261  1.00  0.00    -0.155 C  
HETATM    2  C   UNL     1      -6.694  19.522  67.211  1.00  0.00    -0.216 C  
HETATM    3  C   UNL     1      -6.888  20.985  67.586  1.00  0.00    -0.370 C  
HETATM    4  C   UNL     1      -7.261  19.230  65.830  1.00  0.00    -0.282 C  
HETATM    5  O   UNL     1      -6.606  18.752  64.911  1.00  0.00    -0.516 OA 
ENDROOT
BRANCH   4   6
HETATM    6  O   UNL     1      -8.600  19.493  65.759  1.00  0.00    -0.407 OA 
BRANCH   6   7
HETATM    7  C   UNL     1      -9.397  18.560  66.504  1.00  0.00    -0.313 C  
HETATM    8  C   UNL     1     -10.692  19.242  66.948  1.00  0.00    -0.543 C  
BRANCH   7   9
HETATM    9  O   UNL     1      -9.879  17.468  65.702  1.00  0.00    -0.543 OA 
BRANCH   9  10
HETATM   10  C   UNL     1      -9.337  16.263  65.972  1.00  0.00    -0.326 C  
HETATM   11  O   UNL     1      -8.247  16.069  66.476  1.00  0.00    -0.272 OA 
HETATM   12  N   UNL     1     -10.268  15.311  65.667  1.00  0.00    -0.341 N  
HETATM   13  H   UNL     1     -11.156  15.608  65.261  1.00  0.00     0.000 HD 
BRANCH  12  14
HETATM   14  C   UNL     1     -10.045  13.899  65.895  1.00  0.00    -0.317 C  
BRANCH  14  15
HETATM   15  C   UNL     1     -11.362  13.079  66.106  1.00  0.00    -0.349 C  
HETATM   16  C   UNL     1     -12.516  13.658  65.244  1.00  0.00    -0.517 C  
HETATM   17  C   UNL     1     -11.082  11.607  65.688  1.00  0.00    -0.308 C  
HETATM   18  C   UNL     1     -10.925  11.406  64.179  1.00  0.00    -0.411 C  
HETATM   19  C   UNL     1     -12.333  13.443  63.743  1.00  0.00    -0.418 C  
HETATM   20  C   UNL     1     -12.118  11.970  63.419  1.00  0.00    -0.597 C  
BRANCH  15  21
HETATM   21  C   UNL     1     -11.740  13.138  67.615  1.00  0.00    -0.414 C  
HETATM   22  O   UNL     1     -10.300  11.740  68.970  1.00  0.00    -0.167 OA 
HETATM   23  C   UNL     1     -11.386  11.912  68.436  1.00  0.00    -0.276 C  
HETATM   24  O   UNL     1     -12.388  11.012  68.538  1.00  0.00    -0.536 OA 
ENDBRANCH  15  21
ENDBRANCH  14  15
ENDBRANCH  12  14
ENDBRANCH   9  10
ENDBRANCH   7   9
ENDBRANCH   6   7
ENDBRANCH   4   6
TORSDOF 7
ENDMDL
MODEL       19
REMARK 921   NORMALIZED FREE ENERGY PREDICTED BY IDOCK:   -5.37 KCAL/MOL
REMARK 922        TOTAL FREE ENERGY PREDICTED BY IDOCK:   -9.19 KCAL/MOL
REMARK 923 INTER-LIGAND FREE ENERGY PREDICTED BY IDOCK:   -8.45 KCAL/MOL
REMARK 924 INTRA-LIGAND FREE ENERGY PREDICTED BY IDOCK:   -0.74 KCAL/MOL
REMARK 927      BINDING AFFINITY PREDICTED BY RF-SCORE:    0.00 PKD
ROOT
HETATM    1  C   UNL     1     -11.475   5.853  72.289  1.00  0.00    -0.351 C  
HETATM    2  C   UNL     1     -11.319   7.357  72.537  1.00  0.00    -0.358 C  
HETATM    3  C   UNL     1     -10.126   7.612  73.448  1.00  0.00    -0.379 C  
HETATM    4  C   UNL     1     -11.168   8.096  71.216  1.00  0.00    -0.260 C  
HETATM    5  O   UNL     1     -11.195   7.548  70.120  1.00  0.00    -0.259 OA 
ENDROOT
BRANCH   4   6
HETATM    6  O   UNL     1     -11.073   9.448  71.393  1.00  0.00    -0.335 OA 
BRANCH   6   7
HETATM    7  C   UNL     1     -12.138  10.174  70.762  1.00  0.00    -0.343 C  
HETATM    8  C   UNL     1     -13.233  10.462  71.789  1.00  0.00    -0.529 C  
BRANCH   7   9
HETATM    9  O   UNL     1     -11.749  11.493  70.343  1.00  0.00    -0.320 OA 
BRANCH   9  10
HETATM   10  C   UNL     1     -11.423  11.619  69.041  1.00  0.00    -0.294 C  
HETATM   11  O   UNL     1     -11.790  10.889  68.140  1.00  0.00    -0.564 OA 
HETATM   12  N   UNL     1     -10.690  12.764  68.905  1.00  0.00    -0.377 N  
HETATM   13  H   UNL     1     -10.461  13.300  69.742  1.00  0.00     0.000 HD 
BRANCH  12  14
HETATM   14  C   UNL     1     -10.226  13.247  67.622  1.00  0.00    -0.228 C  
BRANCH  14  15
HETATM   15  C   UNL     1     -11.016  14.490  67.092  1.00  0.00    -0.304 C  
HETATM   16  C   UNL     1     -11.202  15.545  68.216  1.00  0.00    -0.343 C  
HETATM   17  C   UNL     1     -10.205  15.110  65.918  1.00  0.00    -0.345 C  
HETATM   18  C   UNL     1      -8.923  15.821  66.354  1.00  0.00    -0.366 C  
HETATM   19  C   UNL     1      -9.906  16.240  68.630  1.00  0.00    -0.230 C  
HETATM   20  C   UNL     1      -9.206  16.863  67.429  1.00  0.00    -0.224 C  
BRANCH  15  21
HETATM   21  C   UNL     1     -12.404  14.005  66.579  1.00  0.00    -0.442 C  
HETATM   22  O   UNL     1     -12.213  12.096  65.102  1.00  0.00    -0.445 OA 
HETATM   23  C   UNL     1     -12.404  13.295  65.238  1.00  0.00    -0.476 C  
HETATM   24  O   UNL     1     -12.644  14.108  64.187  1.00  0.00    -0.684 OA 
ENDBRANCH  15  21
ENDBRANCH  14  15
ENDBRANCH  12  14
ENDBRANCH   9  10
ENDBRANCH   7   9
ENDBRANCH   6   7
ENDBRANCH   4   6
TORSDOF 7
ENDMDL
MODEL       20
REMARK 921   NORMALIZED FREE ENERGY PREDICTED BY IDOCK:   -5.36 KCAL/MOL
REMARK 922        TOTAL FREE ENERGY PREDICTED BY IDOCK:   -9.18 KCAL/MOL
REMARK 923 INTER-LIGAND FREE ENERGY PREDICTED BY IDOCK:   -8.14 KCAL/MOL
REMARK 924 INTRA-LIGAND FREE ENERGY PREDICTED BY IDOCK:   -1.04 KCAL/MOL
REMARK 927      BINDING AFFINITY PREDICTED BY RF-SCORE:    0.00 PKD
ROOT
HETATM    1  C   UNL     1     -12.534  12.089  63.366  1.00  0.00    -0.625 C  
HETATM    2  C   UNL     1     -11.841  12.155  64.731  1.00  0.00    -0.385 C  
HETATM    3  C   UNL     1     -10.333  12.263  64.543  1.00  0.00    -0.339 C  
HETATM    4  C   UNL     1     -12.377  13.327  65.538  1.00  0.00    -0.480 C  
HETATM    5  O   UNL     1     -13.257  14.083  65.142  1.00  0.00    -0.768 OA 
ENDROOT
BRANCH   4   6
HETATM    6  O   UNL     1     -11.816  13.392  66.783  1.00  0.00    -0.365 OA 
BRANCH   6   7
HETATM    7  C   UNL     1     -11.447  14.726  67.164  1.00  0.00    -0.364 C  
HETATM    8  C   UNL     1     -11.704  14.914  68.660  1.00  0.00    -0.358 C  
BRANCH   7   9
HETATM    9  O   UNL     1     -10.034  14.971  67.058  1.00  0.00    -0.238 OA 
BRANCH   9  10
HETATM   10  C   UNL     1      -9.670  15.898  66.150  1.00  0.00    -0.321 C  
HETATM   11  O   UNL     1     -10.260  16.156  65.118  1.00  0.00    -0.542 OA 
HETATM   12  N   UNL     1      -8.580  16.557  66.645  1.00  0.00    -0.226 N  
HETATM   13  H   UNL     1      -8.187  16.253  67.536  1.00  0.00     0.000 HD 
BRANCH  12  14
HETATM   14  C   UNL     1      -7.961  17.669  65.956  1.00  0.00    -0.140 C  
BRANCH  14  15
HETATM   15  C   UNL     1      -8.080  19.030  66.721  1.00  0.00    -0.279 C  
HETATM   16  C   UNL     1      -7.605  18.879  68.191  1.00  0.00    -0.305 C  
HETATM   17  C   UNL     1      -7.190  20.073  65.986  1.00  0.00    -0.320 C  
HETATM   18  C   UNL     1      -5.687  19.842  66.160  1.00  0.00    -0.178 C  
HETATM   19  C   UNL     1      -6.102  18.650  68.335  1.00  0.00    -0.216 C  
HETATM   20  C   UNL     1      -5.308  19.745  67.632  1.00  0.00    -0.189 C  
BRANCH  15  21
HETATM   21  C   UNL     1      -9.569  19.485  66.683  1.00  0.00    -0.450 C  
HETATM   22  O   UNL     1     -10.366  20.175  68.863  1.00  0.00    -0.382 OA 
HETATM   23  C   UNL     1     -10.342  19.331  67.979  1.00  0.00    -0.405 C  
HETATM   24  O   UNL     1     -11.022  18.168  68.078  1.00  0.00    -0.265 OA 
ENDBRANCH  15  21
ENDBRANCH  14  15
ENDBRANCH  12  14
ENDBRANCH   9  10
ENDBRANCH   7   9
ENDBRANCH   6   7
ENDBRANCH   4   6
TORSDOF 7
ENDMDL
MODEL       21
REMARK 921   NORMALIZED FREE ENERGY PREDICTED BY IDOCK:   -5.34 KCAL/MOL
REMARK 922        TOTAL FREE ENERGY PREDICTED BY IDOCK:   -9.16 KCAL/MOL
REMARK 923 INTER-LIGAND FREE ENERGY PREDICTED BY IDOCK:   -8.16 KCAL/MOL
REMARK 924 INTRA-LIGAND FREE ENERGY PREDICTED BY IDOCK:   -1.00 KCAL/MOL
REMARK 927      BINDING AFFINITY PREDICTED BY RF-SCORE:    0.00 PKD
ROOT
HETATM    1  C   UNL     1     -12.015  16.046  72.021  1.00  0.00    -0.622 C  
HETATM    2  C   UNL     1     -12.863  14.776  72.140  1.00  0.00    -0.407 C  
HETATM    3  C   UNL     1     -14.339  15.120  71.981  1.00  0.00    -0.682 C  
HETATM    4  C   UNL     1     -12.425  13.750  71.106  1.00  0.00    -0.370 C  
HETATM    5  O   UNL     1     -11.505  13.928  70.316  1.00  0.00    -0.190 OA 
ENDROOT
BRANCH   4   6
HETATM    6  O   UNL     1     -13.128  12.583  71.211  1.00  0.00    -0.272 OA 
BRANCH   6   7
HETATM    7  C   UNL     1     -12.356  11.427  70.856  1.00  0.00    -0.381 C  
HETATM    8  C   UNL     1     -12.786  10.244  71.723  1.00  0.00    -0.565 C  
BRANCH   7   9
HETATM    9  O   UNL     1     -12.630  10.954  69.526  1.00  0.00    -0.304 OA 
BRANCH   9  10
HETATM   10  C   UNL     1     -11.563  10.864  68.707  1.00  0.00    -0.309 C  
HETATM   11  O   UNL     1     -10.889   9.869  68.521  1.00  0.00    -0.229 OA 
HETATM   12  N   UNL     1     -11.437  12.059  68.057  1.00  0.00    -0.304 N  
HETATM   13  H   UNL     1     -12.081  12.815  68.293  1.00  0.00     0.000 HD 
BRANCH  12  14
HETATM   14  C   UNL     1     -10.429  12.296  67.045  1.00  0.00    -0.216 C  
BRANCH  14  15
HETATM   15  C   UNL     1     -10.587  13.666  66.306  1.00  0.00    -0.289 C  
HETATM   16  C   UNL     1      -9.979  13.597  64.879  1.00  0.00    -0.183 C  
HETATM   17  C   UNL     1     -12.107  13.989  66.213  1.00  0.00    -0.482 C  
HETATM   18  C   UNL     1     -12.872  13.105  65.226  1.00  0.00    -0.332 C  
HETATM   19  C   UNL     1     -10.763  12.709  63.916  1.00  0.00    -0.465 C  
HETATM   20  C   UNL     1     -12.226  13.128  63.847  1.00  0.00    -0.503 C  
BRANCH  15  21
HETATM   21  C   UNL     1      -9.864  14.762  67.143  1.00  0.00    -0.232 C  
HETATM   22  O   UNL     1     -11.386  16.491  67.888  1.00  0.00    -0.218 OA 
HETATM   23  C   UNL     1     -10.500  16.139  67.124  1.00  0.00    -0.305 C  
HETATM   24  O   UNL     1      -9.994  16.964  66.181  1.00  0.00    -0.302 OA 
ENDBRANCH  15  21
ENDBRANCH  14  15
ENDBRANCH  12  14
ENDBRANCH   9  10
ENDBRANCH   7   9
ENDBRANCH   6   7
ENDBRANCH   4   6
TORSDOF 7
ENDMDL
MODEL       22
REMARK 921   NORMALIZED FREE ENERGY PREDICTED BY IDOCK:   -5.33 KCAL/MOL
REMARK 922        TOTAL FREE ENERGY PREDICTED BY IDOCK:   -9.15 KCAL/MOL
REMARK 923 INTER-LIGAND FREE ENERGY PREDICTED BY IDOCK:   -7.99 KCAL/MOL
REMARK 924 INTRA-LIGAND FREE ENERGY PREDICTED BY IDOCK:   -1.15 KCAL/MOL
REMARK 927      BINDING AFFINITY PREDICTED BY RF-SCORE:    0.00 PKD
ROOT
HETATM    1  C   UNL     1     -12.457  12.129  63.411  1.00  0.00    -0.625 C  
HETATM    2  C   UNL     1     -11.571  12.185  64.660  1.00  0.00    -0.392 C  
HETATM    3  C   UNL     1     -10.162  12.619  64.278  1.00  0.00    -0.358 C  
HETATM    4  C   UNL     1     -12.173  13.127  65.692  1.00  0.00    -0.466 C  
HETATM    5  O   UNL     1     -13.231  13.726  65.534  1.00  0.00    -0.662 OA 
ENDROOT
BRANCH   4   6
HETATM    6  O   UNL     1     -11.435  13.167  66.841  1.00  0.00    -0.309 OA 
BRANCH   6   7
HETATM    7  C   UNL     1     -11.731  12.086  67.738  1.00  0.00    -0.309 C  
HETATM    8  C   UNL     1     -10.636  11.024  67.629  1.00  0.00    -0.255 C  
BRANCH   7   9
HETATM    9  O   UNL     1     -11.658  12.467  69.123  1.00  0.00    -0.281 OA 
BRANCH   9  10
HETATM   10  C   UNL     1     -11.486  13.784  69.356  1.00  0.00    -0.286 C  
HETATM   11  O   UNL     1     -12.340  14.556  69.748  1.00  0.00    -0.316 OA 
HETATM   12  N   UNL     1     -10.163  14.069  69.167  1.00  0.00    -0.431 N  
HETATM   13  H   UNL     1      -9.542  13.324  68.851  1.00  0.00     0.000 HD 
BRANCH  12  14
HETATM   14  C   UNL     1      -9.608  15.386  69.398  1.00  0.00    -0.270 C  
BRANCH  14  15
HETATM   15  C   UNL     1      -9.176  16.127  68.088  1.00  0.00    -0.193 C  
HETATM   16  C   UNL     1      -8.141  17.241  68.400  1.00  0.00    -0.259 C  
HETATM   17  C   UNL     1      -8.544  15.076  67.129  1.00  0.00    -0.246 C  
HETATM   18  C   UNL     1      -7.169  14.574  67.574  1.00  0.00    -0.210 C  
HETATM   19  C   UNL     1      -6.778  16.711  68.840  1.00  0.00    -0.184 C  
HETATM   20  C   UNL     1      -6.210  15.732  67.820  1.00  0.00    -0.175 C  
BRANCH  15  21
HETATM   21  C   UNL     1     -10.446  16.744  67.433  1.00  0.00    -0.310 C  
HETATM   22  O   UNL     1     -10.563  16.280  65.059  1.00  0.00    -0.620 OA 
HETATM   23  C   UNL     1     -10.335  17.077  65.956  1.00  0.00    -0.315 C  
HETATM   24  O   UNL     1      -9.965  18.353  65.708  1.00  0.00    -0.523 OA 
ENDBRANCH  15  21
ENDBRANCH  14  15
ENDBRANCH  12  14
ENDBRANCH   9  10
ENDBRANCH   7   9
ENDBRANCH   6   7
ENDBRANCH   4   6
TORSDOF 7
ENDMDL
MODEL       23
REMARK 921   NORMALIZED FREE ENERGY PREDICTED BY IDOCK:   -5.33 KCAL/MOL
REMARK 922        TOTAL FREE ENERGY PREDICTED BY IDOCK:   -9.14 KCAL/MOL
REMARK 923 INTER-LIGAND FREE ENERGY PREDICTED BY IDOCK:   -8.17 KCAL/MOL
REMARK 924 INTRA-LIGAND FREE ENERGY PREDICTED BY IDOCK:   -0.97 KCAL/MOL
REMARK 927      BINDING AFFINITY PREDICTED BY RF-SCORE:    0.00 PKD
ROOT
HETATM    1  C   UNL     1     -12.170   6.845  71.734  1.00  0.00    -0.396 C  
HETATM    2  C   UNL     1     -11.897   8.254  72.269  1.00  0.00    -0.451 C  
HETATM    3  C   UNL     1     -10.568   8.767  71.729  1.00  0.00    -0.417 C  
HETATM    4  C   UNL     1     -13.037   9.190  71.897  1.00  0.00    -0.411 C  
HETATM    5  O   UNL     1     -14.034   8.838  71.277  1.00  0.00    -0.309 OA 
ENDROOT
BRANCH   4   6
HETATM    6  O   UNL     1     -12.852  10.448  72.398  1.00  0.00    -0.223 OA 
BRANCH   6   7
HETATM    7  C   UNL     1     -13.072  11.479  71.424  1.00  0.00    -0.258 C  
HETATM    8  C   UNL     1     -13.592  12.734  72.126  1.00  0.00    -0.547 C  
BRANCH   7   9
HETATM    9  O   UNL     1     -11.857  11.944  70.813  1.00  0.00    -0.213 OA 
BRANCH   9  10
HETATM   10  C   UNL     1     -11.742  11.709  69.491  1.00  0.00    -0.344 C  
HETATM   11  O   UNL     1     -12.432  10.949  68.839  1.00  0.00    -0.431 OA 
HETATM   12  N   UNL     1     -10.780  12.548  69.002  1.00  0.00    -0.405 N  
HETATM   13  H   UNL     1     -10.281  13.153  69.655  1.00  0.00     0.000 HD 
BRANCH  12  14
HETATM   14  C   UNL     1     -10.441  12.612  67.597  1.00  0.00    -0.219 C  
BRANCH  14  15
HETATM   15  C   UNL     1     -10.545  14.051  66.988  1.00  0.00    -0.279 C  
HETATM   16  C   UNL     1      -9.808  14.127  65.624  1.00  0.00    -0.278 C  
HETATM   17  C   UNL     1     -12.053  14.380  66.790  1.00  0.00    -0.393 C  
HETATM   18  C   UNL     1     -12.716  13.600  65.653  1.00  0.00    -0.505 C  
HETATM   19  C   UNL     1     -10.493  13.341  64.508  1.00  0.00    -0.434 C  
HETATM   20  C   UNL     1     -11.948  13.763  64.348  1.00  0.00    -0.480 C  
BRANCH  15  21
HETATM   21  C   UNL     1      -9.912  15.056  67.995  1.00  0.00    -0.219 C  
HETATM   22  O   UNL     1     -11.483  15.741  69.706  1.00  0.00    -0.299 OA 
HETATM   23  C   UNL     1     -10.878  16.006  68.678  1.00  0.00    -0.301 C  
HETATM   24  O   UNL     1     -11.012  17.195  68.052  1.00  0.00    -0.362 OA 
ENDBRANCH  15  21
ENDBRANCH  14  15
ENDBRANCH  12  14
ENDBRANCH   9  10
ENDBRANCH   7   9
ENDBRANCH   6   7
ENDBRANCH   4   6
TORSDOF 7
ENDMDL
MODEL       24
REMARK 921   NORMALIZED FREE ENERGY PREDICTED BY IDOCK:   -5.32 KCAL/MOL
REMARK 922        TOTAL FREE ENERGY PREDICTED BY IDOCK:   -9.12 KCAL/MOL
REMARK 923 INTER-LIGAND FREE ENERGY PREDICTED BY IDOCK:   -7.66 KCAL/MOL
REMARK 924 INTRA-LIGAND FREE ENERGY PREDICTED BY IDOCK:   -1.47 KCAL/MOL
REMARK 927      BINDING AFFINITY PREDICTED BY RF-SCORE:    0.00 PKD
ROOT
HETATM    1  C   UNL     1     -11.963  15.408  72.522  1.00  0.00    -0.549 C  
HETATM    2  C   UNL     1     -12.291  14.338  71.476  1.00  0.00    -0.417 C  
HETATM    3  C   UNL     1     -13.689  13.784  71.720  1.00  0.00    -0.435 C  
HETATM    4  C   UNL     1     -12.168  14.914  70.074  1.00  0.00    -0.333 C  
HETATM    5  O   UNL     1     -11.829  16.068  69.838  1.00  0.00    -0.315 OA 
ENDROOT
BRANCH   4   6
HETATM    6  O   UNL     1     -12.407  13.975  69.110  1.00  0.00    -0.313 OA 
BRANCH   6   7
HETATM    7  C   UNL     1     -11.235  13.632  68.356  1.00  0.00    -0.276 C  
HETATM    8  C   UNL     1     -10.784  12.222  68.737  1.00  0.00    -0.247 C  
BRANCH   7   9
HETATM    9  O   UNL     1     -11.490  13.508  66.946  1.00  0.00    -0.316 OA 
BRANCH   9  10
HETATM   10  C   UNL     1     -11.223  14.603  66.207  1.00  0.00    -0.340 C  
HETATM   11  O   UNL     1     -11.406  14.718  65.010  1.00  0.00    -0.358 OA 
HETATM   12  N   UNL     1     -10.806  15.587  67.059  1.00  0.00    -0.323 N  
HETATM   13  H   UNL     1     -10.709  15.367  68.051  1.00  0.00     0.000 HD 
BRANCH  12  14
HETATM   14  C   UNL     1     -10.496  16.928  66.612  1.00  0.00    -0.257 C  
BRANCH  14  15
HETATM   15  C   UNL     1      -9.179  17.510  67.227  1.00  0.00    -0.240 C  
HETATM   16  C   UNL     1      -8.521  18.529  66.259  1.00  0.00    -0.227 C  
HETATM   17  C   UNL     1      -9.546  18.217  68.564  1.00  0.00    -0.349 C  
HETATM   18  C   UNL     1     -10.316  19.528  68.385  1.00  0.00    -0.486 C  
HETATM   19  C   UNL     1      -9.309  19.827  66.100  1.00  0.00    -0.439 C  
HETATM   20  C   UNL     1      -9.578  20.479  67.451  1.00  0.00    -0.578 C  
BRANCH  15  21
HETATM   21  C   UNL     1      -8.204  16.328  67.504  1.00  0.00    -0.165 C  
HETATM   22  O   UNL     1      -8.623  15.286  69.650  1.00  0.00    -0.237 OA 
HETATM   23  C   UNL     1      -7.930  16.023  68.966  1.00  0.00    -0.224 C  
HETATM   24  O   UNL     1      -6.833  16.638  69.457  1.00  0.00    -0.231 OA 
ENDBRANCH  15  21
ENDBRANCH  14  15
ENDBRANCH  12  14
ENDBRANCH   9  10
ENDBRANCH   7   9
ENDBRANCH   6   7
ENDBRANCH   4   6
TORSDOF 7
ENDMDL
MODEL       25
REMARK 921   NORMALIZED FREE ENERGY PREDICTED BY IDOCK:   -5.31 KCAL/MOL
REMARK 922        TOTAL FREE ENERGY PREDICTED BY IDOCK:   -9.11 KCAL/MOL
REMARK 923 INTER-LIGAND FREE ENERGY PREDICTED BY IDOCK:   -8.16 KCAL/MOL
REMARK 924 INTRA-LIGAND FREE ENERGY PREDICTED BY IDOCK:   -0.95 KCAL/MOL
REMARK 927      BINDING AFFINITY PREDICTED BY RF-SCORE:    0.00 PKD
ROOT
HETATM    1  C   UNL     1     -11.173   9.510  71.488  1.00  0.00    -0.437 C  
HETATM    2  C   UNL     1     -12.105  10.232  70.509  1.00  0.00    -0.401 C  
HETATM    3  C   UNL     1     -12.701  11.467  71.173  1.00  0.00    -0.479 C  
HETATM    4  C   UNL     1     -11.354  10.601  69.240  1.00  0.00    -0.282 C  
HETATM    5  O   UNL     1     -10.176  10.328  69.041  1.00  0.00    -0.186 OA 
ENDROOT
BRANCH   4   6
HETATM    6  O   UNL     1     -12.165  11.205  68.321  1.00  0.00    -0.613 OA 
BRANCH   6   7
HETATM    7  C   UNL     1     -11.546  12.329  67.677  1.00  0.00    -0.354 C  
HETATM    8  C   UNL     1     -11.581  12.126  66.162  1.00  0.00    -0.418 C  
BRANCH   7   9
HETATM    9  O   UNL     1     -12.285  13.551  67.846  1.00  0.00    -0.305 OA 
BRANCH   9  10
HETATM   10  C   UNL     1     -11.679  14.502  68.584  1.00  0.00    -0.329 C  
HETATM   11  O   UNL     1     -11.328  14.389  69.743  1.00  0.00    -0.249 OA 
HETATM   12  N   UNL     1     -11.444  15.573  67.769  1.00  0.00    -0.292 N  
HETATM   13  H   UNL     1     -11.777  15.536  66.805  1.00  0.00     0.000 HD 
BRANCH  12  14
HETATM   14  C   UNL     1     -10.743  16.757  68.218  1.00  0.00    -0.364 C  
BRANCH  14  15
HETATM   15  C   UNL     1      -9.695  17.297  67.188  1.00  0.00    -0.259 C  
HETATM   16  C   UNL     1     -10.358  18.289  66.195  1.00  0.00    -0.414 C  
HETATM   17  C   UNL     1      -8.571  18.023  67.984  1.00  0.00    -0.267 C  
HETATM   18  C   UNL     1      -9.003  19.358  68.595  1.00  0.00    -0.419 C  
HETATM   19  C   UNL     1     -10.778  19.612  66.832  1.00  0.00    -0.570 C  
HETATM   20  C   UNL     1      -9.607  20.279  67.543  1.00  0.00    -0.562 C  
BRANCH  15  21
HETATM   21  C   UNL     1      -9.097  16.085  66.415  1.00  0.00    -0.354 C  
HETATM   22  O   UNL     1      -8.255  14.377  67.911  1.00  0.00    -0.136 OA 
HETATM   23  C   UNL     1      -8.023  15.299  67.143  1.00  0.00    -0.218 C  
HETATM   24  O   UNL     1      -6.764  15.702  66.864  1.00  0.00    -0.253 OA 
ENDBRANCH  15  21
ENDBRANCH  14  15
ENDBRANCH  12  14
ENDBRANCH   9  10
ENDBRANCH   7   9
ENDBRANCH   6   7
ENDBRANCH   4   6
TORSDOF 7
ENDMDL
MODEL       26
REMARK 921   NORMALIZED FREE ENERGY PREDICTED BY IDOCK:   -5.28 KCAL/MOL
REMARK 922        TOTAL FREE ENERGY PREDICTED BY IDOCK:   -9.07 KCAL/MOL
REMARK 923 INTER-LIGAND FREE ENERGY PREDICTED BY IDOCK:   -8.26 KCAL/MOL
REMARK 924 INTRA-LIGAND FREE ENERGY PREDICTED BY IDOCK:   -0.81 KCAL/MOL
REMARK 927      BINDING AFFINITY PREDICTED BY RF-SCORE:    0.00 PKD
ROOT
HETATM    1  C   UNL     1      -5.744  17.475  69.848  1.00  0.00    -0.250 C  
HETATM    2  C   UNL     1      -6.792  17.240  68.755  1.00  0.00    -0.219 C  
HETATM    3  C   UNL     1      -7.712  16.093  69.155  1.00  0.00    -0.230 C  
HETATM    4  C   UNL     1      -7.583  18.514  68.501  1.00  0.00    -0.306 C  
HETATM    5  O   UNL     1      -7.378  19.573  69.082  1.00  0.00    -0.361 OA 
ENDROOT
BRANCH   4   6
HETATM    6  O   UNL     1      -8.498  18.357  67.497  1.00  0.00    -0.250 OA 
BRANCH   6   7
HETATM    7  C   UNL     1      -9.781  18.918  67.813  1.00  0.00    -0.323 C  
HETATM    8  C   UNL     1     -10.039  20.129  66.916  1.00  0.00    -0.592 C  
BRANCH   7   9
HETATM    9  O   UNL     1     -10.874  18.045  67.480  1.00  0.00    -0.379 OA 
BRANCH   9  10
HETATM   10  C   UNL     1     -10.643  17.179  66.473  1.00  0.00    -0.172 C  
HETATM   11  O   UNL     1     -10.518  17.469  65.298  1.00  0.00    -0.643 OA 
HETATM   12  N   UNL     1     -10.477  15.939  67.022  1.00  0.00    -0.303 N  
HETATM   13  H   UNL     1     -10.592  15.831  68.030  1.00  0.00     0.000 HD 
BRANCH  12  14
HETATM   14  C   UNL     1     -10.145  14.773  66.231  1.00  0.00    -0.285 C  
BRANCH  14  15
HETATM   15  C   UNL     1     -11.200  13.620  66.334  1.00  0.00    -0.317 C  
HETATM   16  C   UNL     1     -12.517  14.011  65.610  1.00  0.00    -0.531 C  
HETATM   17  C   UNL     1     -10.591  12.352  65.669  1.00  0.00    -0.297 C  
HETATM   18  C   UNL     1     -10.490  12.436  64.144  1.00  0.00    -0.415 C  
HETATM   19  C   UNL     1     -12.387  14.086  64.090  1.00  0.00    -0.374 C  
HETATM   20  C   UNL     1     -11.834  12.786  63.519  1.00  0.00    -0.618 C  
BRANCH  15  21
HETATM   21  C   UNL     1     -11.479  13.345  67.841  1.00  0.00    -0.350 C  
HETATM   22  O   UNL     1      -9.971  11.687  68.758  1.00  0.00    -0.200 OA 
HETATM   23  C   UNL     1     -11.087  11.969  68.347  1.00  0.00    -0.245 C  
HETATM   24  O   UNL     1     -12.090  11.066  68.315  1.00  0.00    -0.604 OA 
ENDBRANCH  15  21
ENDBRANCH  14  15
ENDBRANCH  12  14
ENDBRANCH   9  10
ENDBRANCH   7   9
ENDBRANCH   6   7
ENDBRANCH   4   6
TORSDOF 7
ENDMDL
MODEL       27
REMARK 921   NORMALIZED FREE ENERGY PREDICTED BY IDOCK:   -5.28 KCAL/MOL
REMARK 922        TOTAL FREE ENERGY PREDICTED BY IDOCK:   -9.07 KCAL/MOL
REMARK 923 INTER-LIGAND FREE ENERGY PREDICTED BY IDOCK:   -7.92 KCAL/MOL
REMARK 924 INTRA-LIGAND FREE ENERGY PREDICTED BY IDOCK:   -1.15 KCAL/MOL
REMARK 927      BINDING AFFINITY PREDICTED BY RF-SCORE:    0.00 PKD
ROOT
HETATM    1  C   UNL     1     -13.064  11.931  71.975  1.00  0.00    -0.441 C  
HETATM    2  C   UNL     1     -12.476  10.602  71.490  1.00  0.00    -0.471 C  
HETATM    3  C   UNL     1     -13.525   9.502  71.594  1.00  0.00    -0.463 C  
HETATM    4  C   UNL     1     -11.967  10.740  70.064  1.00  0.00    -0.347 C  
HETATM    5  O   UNL     1     -12.008  11.784  69.422  1.00  0.00    -0.306 OA 
ENDROOT
BRANCH   4   6
HETATM    6  O   UNL     1     -11.391   9.586  69.611  1.00  0.00    -0.165 OA 
BRANCH   6   7
HETATM    7  C   UNL     1     -10.263   9.819  68.754  1.00  0.00    -0.194 C  
HETATM    8  C   UNL     1      -9.265   8.671  68.909  1.00  0.00    -0.145 C  
BRANCH   7   9
HETATM    9  O   UNL     1     -10.595   9.756  67.357  1.00  0.00    -0.251 OA 
BRANCH   9  10
HETATM   10  C   UNL     1     -10.039  10.709  66.582  1.00  0.00    -0.220 C  
HETATM   11  O   UNL     1      -9.329  10.516  65.614  1.00  0.00    -0.180 OA 
HETATM   12  N   UNL     1     -10.497  11.919  67.021  1.00  0.00    -0.219 N  
HETATM   13  H   UNL     1     -11.105  11.945  67.840  1.00  0.00     0.000 HD 
BRANCH  12  14
HETATM   14  C   UNL     1     -10.153  13.166  66.372  1.00  0.00    -0.281 C  
BRANCH  14  15
HETATM   15  C   UNL     1     -11.362  14.148  66.210  1.00  0.00    -0.340 C  
HETATM   16  C   UNL     1     -11.873  14.626  67.595  1.00  0.00    -0.366 C  
HETATM   17  C   UNL     1     -10.880  15.370  65.376  1.00  0.00    -0.403 C  
HETATM   18  C   UNL     1      -9.927  16.301  66.130  1.00  0.00    -0.355 C  
HETATM   19  C   UNL     1     -10.903  15.554  68.324  1.00  0.00    -0.292 C  
HETATM   20  C   UNL     1     -10.526  16.749  67.457  1.00  0.00    -0.319 C  
BRANCH  15  21
HETATM   21  C   UNL     1     -12.498  13.403  65.448  1.00  0.00    -0.543 C  
HETATM   22  O   UNL     1     -11.637  12.001  63.672  1.00  0.00    -0.428 OA 
HETATM   23  C   UNL     1     -12.198  13.033  64.007  1.00  0.00    -0.417 C  
HETATM   24  O   UNL     1     -12.616  13.949  63.107  1.00  0.00    -0.775 OA 
ENDBRANCH  15  21
ENDBRANCH  14  15
ENDBRANCH  12  14
ENDBRANCH   9  10
ENDBRANCH   7   9
ENDBRANCH   6   7
ENDBRANCH   4   6
TORSDOF 7
ENDMDL
MODEL       28
REMARK 921   NORMALIZED FREE ENERGY PREDICTED BY IDOCK:   -5.25 KCAL/MOL
REMARK 922        TOTAL FREE ENERGY PREDICTED BY IDOCK:   -9.02 KCAL/MOL
REMARK 923 INTER-LIGAND FREE ENERGY PREDICTED BY IDOCK:   -8.16 KCAL/MOL
REMARK 924 INTRA-LIGAND FREE ENERGY PREDICTED BY IDOCK:   -0.86 KCAL/MOL
REMARK 927      BINDING AFFINITY PREDICTED BY RF-SCORE:    0.00 PKD
ROOT
HETATM    1  C   UNL     1     -11.349   8.939  72.045  1.00  0.00    -0.427 C  
HETATM    2  C   UNL     1     -11.835   9.473  70.694  1.00  0.00    -0.301 C  
HETATM    3  C   UNL     1     -12.730  10.687  70.906  1.00  0.00    -0.498 C  
HETATM    4  C   UNL     1     -10.650   9.815  69.804  1.00  0.00    -0.257 C  
HETATM    5  O   UNL     1      -9.480   9.655  70.135  1.00  0.00    -0.229 OA 
ENDROOT
BRANCH   4   6
HETATM    6  O   UNL     1     -11.043  10.250  68.570  1.00  0.00    -0.248 OA 
BRANCH   6   7
HETATM    7  C   UNL     1     -10.081   9.971  67.542  1.00  0.00    -0.198 C  
HETATM    8  C   UNL     1     -10.272   8.537  67.047  1.00  0.00    -0.371 C  
BRANCH   7   9
HETATM    9  O   UNL     1     -10.294  10.744  66.348  1.00  0.00    -0.239 OA 
BRANCH   9  10
HETATM   10  C   UNL     1     -11.018  11.871  66.504  1.00  0.00    -0.292 C  
HETATM   11  O   UNL     1     -12.205  11.993  66.272  1.00  0.00    -0.548 OA 
HETATM   12  N   UNL     1     -10.201  12.815  67.060  1.00  0.00    -0.240 N  
HETATM   13  H   UNL     1      -9.221  12.580  67.221  1.00  0.00     0.000 HD 
BRANCH  12  14
HETATM   14  C   UNL     1     -10.669  14.134  67.428  1.00  0.00    -0.284 C  
BRANCH  14  15
HETATM   15  C   UNL     1     -10.088  15.281  66.535  1.00  0.00    -0.280 C  
HETATM   16  C   UNL     1     -10.778  16.634  66.856  1.00  0.00    -0.153 C  
HETATM   17  C   UNL     1      -8.562  15.388  66.824  1.00  0.00    -0.308 C  
HETATM   18  C   UNL     1      -8.229  15.973  68.198  1.00  0.00    -0.152 C  
HETATM   19  C   UNL     1     -10.426  17.195  68.233  1.00  0.00    -0.373 C  
HETATM   20  C   UNL     1      -8.918  17.315  68.410  1.00  0.00    -0.269 C  
BRANCH  15  21
HETATM   21  C   UNL     1     -10.318  14.904  65.041  1.00  0.00    -0.401 C  
HETATM   22  O   UNL     1     -11.627  16.573  63.873  1.00  0.00    -1.175 OA 
HETATM   23  C   UNL     1     -11.571  15.472  64.400  1.00  0.00    -0.258 C  
HETATM   24  O   UNL     1     -12.637  14.644  64.452  1.00  0.00    -0.662 OA 
ENDBRANCH  15  21
ENDBRANCH  14  15
ENDBRANCH  12  14
ENDBRANCH   9  10
ENDBRANCH   7   9
ENDBRANCH   6   7
ENDBRANCH   4   6
TORSDOF 7
ENDMDL
MODEL       29
REMARK 921   NORMALIZED FREE ENERGY PREDICTED BY IDOCK:   -5.22 KCAL/MOL
REMARK 922        TOTAL FREE ENERGY PREDICTED BY IDOCK:   -8.98 KCAL/MOL
REMARK 923 INTER-LIGAND FREE ENERGY PREDICTED BY IDOCK:   -8.31 KCAL/MOL
REMARK 924 INTRA-LIGAND FREE ENERGY PREDICTED BY IDOCK:   -0.67 KCAL/MOL
REMARK 927      BINDING AFFINITY PREDICTED BY RF-SCORE:    0.00 PKD
ROOT
HETATM    1  C   UNL     1     -12.614  12.041  63.228  1.00  0.00    -0.512 C  
HETATM    2  C   UNL     1     -11.874  12.076  64.569  1.00  0.00    -0.363 C  
HETATM    3  C   UNL     1     -10.369  12.108  64.331  1.00  0.00    -0.348 C  
HETATM    4  C   UNL     1     -12.325  13.274  65.390  1.00  0.00    -0.479 C  
HETATM    5  O   UNL     1     -13.178  14.072  65.020  1.00  0.00    -0.720 OA 
ENDROOT
BRANCH   4   6
HETATM    6  O   UNL     1     -11.720  13.313  66.615  1.00  0.00    -0.340 OA 
BRANCH   6   7
HETATM    7  C   UNL     1     -11.171  14.601  66.930  1.00  0.00    -0.343 C  
HETATM    8  C   UNL     1     -10.922  14.691  68.436  1.00  0.00    -0.260 C  
BRANCH   7   9
HETATM    9  O   UNL     1      -9.855  14.801  66.385  1.00  0.00    -0.254 OA 
BRANCH   9  10
HETATM   10  C   UNL     1      -9.611  16.029  65.885  1.00  0.00    -0.335 C  
HETATM   11  O   UNL     1     -10.319  16.634  65.103  1.00  0.00    -0.630 OA 
HETATM   12  N   UNL     1      -8.482  16.505  66.489  1.00  0.00    -0.263 N  
HETATM   13  H   UNL     1      -7.985  15.901  67.144  1.00  0.00     0.000 HD 
BRANCH  12  14
HETATM   14  C   UNL     1      -7.962  17.832  66.238  1.00  0.00    -0.247 C  
BRANCH  14  15
HETATM   15  C   UNL     1      -7.720  18.671  67.538  1.00  0.00    -0.240 C  
HETATM   16  C   UNL     1      -7.962  20.182  67.272  1.00  0.00    -0.363 C  
HETATM   17  C   UNL     1      -8.708  18.164  68.627  1.00  0.00    -0.280 C  
HETATM   18  C   UNL     1     -10.167  18.550  68.373  1.00  0.00    -0.409 C  
HETATM   19  C   UNL     1      -9.426  20.538  67.023  1.00  0.00    -0.516 C  
HETATM   20  C   UNL     1     -10.314  20.051  68.161  1.00  0.00    -0.503 C  
BRANCH  15  21
HETATM   21  C   UNL     1      -6.253  18.439  68.005  1.00  0.00    -0.189 C  
HETATM   22  O   UNL     1      -6.131  16.964  69.922  1.00  0.00    -0.225 OA 
HETATM   23  C   UNL     1      -6.071  18.099  69.472  1.00  0.00    -0.248 C  
HETATM   24  O   UNL     1      -5.823  19.171  70.256  1.00  0.00    -0.245 OA 
ENDBRANCH  15  21
ENDBRANCH  14  15
ENDBRANCH  12  14
ENDBRANCH   9  10
ENDBRANCH   7   9
ENDBRANCH   6   7
ENDBRANCH   4   6
TORSDOF 7
ENDMDL
MODEL       30
REMARK 921   NORMALIZED FREE ENERGY PREDICTED BY IDOCK:   -5.21 KCAL/MOL
REMARK 922        TOTAL FREE ENERGY PREDICTED BY IDOCK:   -8.98 KCAL/MOL
REMARK 923 INTER-LIGAND FREE ENERGY PREDICTED BY IDOCK:   -8.16 KCAL/MOL
REMARK 924 INTRA-LIGAND FREE ENERGY PREDICTED BY IDOCK:   -0.82 KCAL/MOL
REMARK 927      BINDING AFFINITY PREDICTED BY RF-SCORE:    0.00 PKD
ROOT
HETATM    1  C   UNL     1     -11.399   6.348  70.789  1.00  0.00    -0.411 C  
HETATM    2  C   UNL     1     -11.656   7.634  71.582  1.00  0.00    -0.301 C  
HETATM    3  C   UNL     1     -11.070   7.505  72.982  1.00  0.00    -0.413 C  
HETATM    4  C   UNL     1     -11.071   8.832  70.850  1.00  0.00    -0.268 C  
HETATM    5  O   UNL     1     -10.501   8.758  69.768  1.00  0.00    -0.211 OA 
ENDROOT
BRANCH   4   6
HETATM    6  O   UNL     1     -11.322  10.005  71.505  1.00  0.00    -0.301 OA 
BRANCH   6   7
HETATM    7  C   UNL     1     -12.285  10.829  70.832  1.00  0.00    -0.384 C  
HETATM    8  C   UNL     1     -13.154  11.541  71.869  1.00  0.00    -0.492 C  
BRANCH   7   9
HETATM    9  O   UNL     1     -11.688  11.926  70.120  1.00  0.00    -0.314 OA 
BRANCH   9  10
HETATM   10  C   UNL     1     -11.893  11.938  68.788  1.00  0.00    -0.313 C  
HETATM   11  O   UNL     1     -12.195  10.978  68.105  1.00  0.00    -0.578 OA 
HETATM   12  N   UNL     1     -11.799  13.234  68.365  1.00  0.00    -0.354 N  
HETATM   13  H   UNL     1     -11.554  13.954  69.045  1.00  0.00     0.000 HD 
BRANCH  12  14
HETATM   14  C   UNL     1     -12.031  13.626  66.991  1.00  0.00    -0.406 C  
BRANCH  14  15
HETATM   15  C   UNL     1     -10.720  13.772  66.147  1.00  0.00    -0.283 C  
HETATM   16  C   UNL     1     -10.166  12.379  65.743  1.00  0.00    -0.283 C  
HETATM   17  C   UNL     1     -11.062  14.593  64.870  1.00  0.00    -0.409 C  
HETATM   18  C   UNL     1     -11.910  13.830  63.848  1.00  0.00    -0.368 C  
HETATM   19  C   UNL     1     -11.031  11.643  64.723  1.00  0.00    -0.351 C  
HETATM   20  C   UNL     1     -11.271  12.496  63.484  1.00  0.00    -0.525 C  
BRANCH  15  21
HETATM   21  C   UNL     1      -9.669  14.539  67.003  1.00  0.00    -0.247 C  
HETATM   22  O   UNL     1     -10.440  16.750  67.624  1.00  0.00    -0.311 OA 
HETATM   23  C   UNL     1      -9.724  16.053  66.919  1.00  0.00    -0.235 C  
HETATM   24  O   UNL     1      -8.897  16.581  65.991  1.00  0.00    -0.400 OA 
ENDBRANCH  15  21
ENDBRANCH  14  15
ENDBRANCH  12  14
ENDBRANCH   9  10
ENDBRANCH   7   9
ENDBRANCH   6   7
ENDBRANCH   4   6
TORSDOF 7
ENDMDL
MODEL       31
REMARK 921   NORMALIZED FREE ENERGY PREDICTED BY IDOCK:   -5.21 KCAL/MOL
REMARK 922        TOTAL FREE ENERGY PREDICTED BY IDOCK:   -8.98 KCAL/MOL
REMARK 923 INTER-LIGAND FREE ENERGY PREDICTED BY IDOCK:   -8.42 KCAL/MOL
REMARK 924 INTRA-LIGAND FREE ENERGY PREDICTED BY IDOCK:   -0.55 KCAL/MOL
REMARK 927      BINDING AFFINITY PREDICTED BY RF-SCORE:    0.00 PKD
ROOT
HETATM    1  C   UNL     1     -10.336  13.893  64.748  1.00  0.00    -0.419 C  
HETATM    2  C   UNL     1     -11.304  12.784  65.174  1.00  0.00    -0.346 C  
HETATM    3  C   UNL     1     -11.240  11.630  64.182  1.00  0.00    -0.421 C  
HETATM    4  C   UNL     1     -10.979  12.313  66.583  1.00  0.00    -0.278 C  
HETATM    5  O   UNL     1     -10.081  12.786  67.271  1.00  0.00    -0.222 OA 
ENDROOT
BRANCH   4   6
HETATM    6  O   UNL     1     -11.852  11.355  67.018  1.00  0.00    -0.530 OA 
BRANCH   6   7
HETATM    7  C   UNL     1     -11.204  10.277  67.709  1.00  0.00    -0.190 C  
HETATM    8  C   UNL     1      -9.952   9.860  66.937  1.00  0.00    -0.268 C  
BRANCH   7   9
HETATM    9  O   UNL     1     -10.669  10.667  68.985  1.00  0.00    -0.193 OA 
BRANCH   9  10
HETATM   10  C   UNL     1     -11.577  11.034  69.911  1.00  0.00    -0.337 C  
HETATM   11  O   UNL     1     -12.233  10.280  70.604  1.00  0.00    -0.291 OA 
HETATM   12  N   UNL     1     -11.554  12.397  69.996  1.00  0.00    -0.525 N  
HETATM   13  H   UNL     1     -10.944  12.917  69.366  1.00  0.00     0.000 HD 
BRANCH  12  14
HETATM   14  C   UNL     1     -12.362  13.134  70.945  1.00  0.00    -0.307 C  
BRANCH  14  15
HETATM   15  C   UNL     1     -12.272  14.688  70.778  1.00  0.00    -0.394 C  
HETATM   16  C   UNL     1     -13.679  15.336  70.873  1.00  0.00    -0.363 C  
HETATM   17  C   UNL     1     -11.360  15.240  71.912  1.00  0.00    -0.447 C  
HETATM   18  C   UNL     1     -12.000  15.195  73.301  1.00  0.00    -0.474 C  
HETATM   19  C   UNL     1     -14.292  15.277  72.271  1.00  0.00    -0.586 C  
HETATM   20  C   UNL     1     -13.357  15.886  73.309  1.00  0.00    -0.660 C  
BRANCH  15  21
HETATM   21  C   UNL     1     -11.634  14.995  69.390  1.00  0.00    -0.337 C  
HETATM   22  O   UNL     1      -9.279  15.527  69.569  1.00  0.00    -0.269 OA 
HETATM   23  C   UNL     1     -10.426  15.913  69.405  1.00  0.00    -0.265 C  
HETATM   24  O   UNL     1     -10.726  17.216  69.210  1.00  0.00    -0.300 OA 
ENDBRANCH  15  21
ENDBRANCH  14  15
ENDBRANCH  12  14
ENDBRANCH   9  10
ENDBRANCH   7   9
ENDBRANCH   6   7
ENDBRANCH   4   6
TORSDOF 7
ENDMDL
MODEL       32
REMARK 921   NORMALIZED FREE ENERGY PREDICTED BY IDOCK:   -5.17 KCAL/MOL
REMARK 922        TOTAL FREE ENERGY PREDICTED BY IDOCK:   -8.91 KCAL/MOL
REMARK 923 INTER-LIGAND FREE ENERGY PREDICTED BY IDOCK:   -8.46 KCAL/MOL
REMARK 924 INTRA-LIGAND FREE ENERGY PREDICTED BY IDOCK:   -0.45 KCAL/MOL
REMARK 927      BINDING AFFINITY PREDICTED BY RF-SCORE:    0.00 PKD
ROOT
HETATM    1  C   UNL     1     -11.631   9.301  71.775  1.00  0.00    -0.458 C  
HETATM    2  C   UNL     1     -12.355  10.146  70.722  1.00  0.00    -0.422 C  
HETATM    3  C   UNL     1     -12.746  11.494  71.316  1.00  0.00    -0.469 C  
HETATM    4  C   UNL     1     -11.478  10.323  69.493  1.00  0.00    -0.210 C  
HETATM    5  O   UNL     1     -10.363   9.829  69.374  1.00  0.00    -0.191 OA 
ENDROOT
BRANCH   4   6
HETATM    6  O   UNL     1     -12.110  11.032  68.510  1.00  0.00    -0.573 OA 
BRANCH   6   7
HETATM    7  C   UNL     1     -11.423  12.244  68.162  1.00  0.00    -0.316 C  
HETATM    8  C   UNL     1     -11.220  12.293  66.647  1.00  0.00    -0.367 C  
BRANCH   7   9
HETATM    9  O   UNL     1     -12.206  13.425  68.409  1.00  0.00    -0.293 OA 
BRANCH   9  10
HETATM   10  C   UNL     1     -11.522  14.490  68.875  1.00  0.00    -0.300 C  
HETATM   11  O   UNL     1     -11.041  14.597  69.987  1.00  0.00    -0.235 OA 
HETATM   12  N   UNL     1     -11.387  15.378  67.846  1.00  0.00    -0.334 N  
HETATM   13  H   UNL     1     -11.827  15.162  66.952  1.00  0.00     0.000 HD 
BRANCH  12  14
HETATM   14  C   UNL     1     -10.644  16.614  67.974  1.00  0.00    -0.338 C  
BRANCH  14  15
HETATM   15  C   UNL     1      -9.968  17.084  66.642  1.00  0.00    -0.307 C  
HETATM   16  C   UNL     1     -10.658  18.362  66.095  1.00  0.00    -0.346 C  
HETATM   17  C   UNL     1      -8.471  17.383  66.943  1.00  0.00    -0.264 C  
HETATM   18  C   UNL     1      -8.243  18.647  67.775  1.00  0.00    -0.273 C  
HETATM   19  C   UNL     1     -10.414  19.608  66.944  1.00  0.00    -0.606 C  
HETATM   20  C   UNL     1      -8.924  19.855  67.144  1.00  0.00    -0.425 C  
BRANCH  15  21
HETATM   21  C   UNL     1     -10.078  15.930  65.603  1.00  0.00    -0.388 C  
HETATM   22  O   UNL     1     -11.458  16.539  63.708  1.00  0.00    -1.065 OA 
HETATM   23  C   UNL     1     -11.336  15.920  64.754  1.00  0.00    -0.309 C  
HETATM   24  O   UNL     1     -12.328  15.150  65.253  1.00  0.00     0.032 OA 
ENDBRANCH  15  21
ENDBRANCH  14  15
ENDBRANCH  12  14
ENDBRANCH   9  10
ENDBRANCH   7   9
ENDBRANCH   6   7
ENDBRANCH   4   6
TORSDOF 7
ENDMDL
MODEL       33
REMARK 921   NORMALIZED FREE ENERGY PREDICTED BY IDOCK:   -5.17 KCAL/MOL
REMARK 922        TOTAL FREE ENERGY PREDICTED BY IDOCK:   -8.91 KCAL/MOL
REMARK 923 INTER-LIGAND FREE ENERGY PREDICTED BY IDOCK:   -8.06 KCAL/MOL
REMARK 924 INTRA-LIGAND FREE ENERGY PREDICTED BY IDOCK:   -0.85 KCAL/MOL
REMARK 927      BINDING AFFINITY PREDICTED BY RF-SCORE:    0.00 PKD
ROOT
HETATM    1  C   UNL     1     -12.763  11.984  63.494  1.00  0.00    -0.567 C  
HETATM    2  C   UNL     1     -11.734  12.219  64.605  1.00  0.00    -0.420 C  
HETATM    3  C   UNL     1     -10.341  12.353  64.003  1.00  0.00    -0.435 C  
HETATM    4  C   UNL     1     -12.103  13.454  65.412  1.00  0.00    -0.421 C  
HETATM    5  O   UNL     1     -13.100  14.135  65.201  1.00  0.00    -0.757 OA 
ENDROOT
BRANCH   4   6
HETATM    6  O   UNL     1     -11.234  13.671  66.444  1.00  0.00    -0.301 OA 
BRANCH   6   7
HETATM    7  C   UNL     1     -11.869  13.643  67.731  1.00  0.00    -0.368 C  
HETATM    8  C   UNL     1     -11.867  12.211  68.266  1.00  0.00    -0.361 C  
BRANCH   7   9
HETATM    9  O   UNL     1     -11.130  14.354  68.739  1.00  0.00    -0.236 OA 
BRANCH   9  10
HETATM   10  C   UNL     1      -9.852  14.648  68.426  1.00  0.00    -0.220 C  
HETATM   11  O   UNL     1      -8.922  13.866  68.416  1.00  0.00    -0.186 OA 
HETATM   12  N   UNL     1      -9.813  15.956  68.029  1.00  0.00    -0.217 N  
HETATM   13  H   UNL     1     -10.672  16.505  68.068  1.00  0.00     0.000 HD 
BRANCH  12  14
HETATM   14  C   UNL     1      -8.603  16.592  67.556  1.00  0.00    -0.189 C  
BRANCH  14  15
HETATM   15  C   UNL     1      -8.692  18.154  67.500  1.00  0.00    -0.249 C  
HETATM   16  C   UNL     1      -8.126  18.786  68.801  1.00  0.00    -0.330 C  
HETATM   17  C   UNL     1      -7.862  18.639  66.277  1.00  0.00    -0.288 C  
HETATM   18  C   UNL     1      -6.348  18.501  66.457  1.00  0.00    -0.213 C  
HETATM   19  C   UNL     1      -6.614  18.634  68.954  1.00  0.00    -0.282 C  
HETATM   20  C   UNL     1      -5.879  19.181  67.737  1.00  0.00    -0.198 C  
BRANCH  15  21
HETATM   21  C   UNL     1     -10.186  18.553  67.318  1.00  0.00    -0.400 C  
HETATM   22  O   UNL     1     -11.002  18.033  65.097  1.00  0.00    -0.645 OA 
HETATM   23  C   UNL     1     -10.618  18.873  65.898  1.00  0.00    -0.373 C  
HETATM   24  O   UNL     1     -10.550  20.185  65.587  1.00  0.00    -0.404 OA 
ENDBRANCH  15  21
ENDBRANCH  14  15
ENDBRANCH  12  14
ENDBRANCH   9  10
ENDBRANCH   7   9
ENDBRANCH   6   7
ENDBRANCH   4   6
TORSDOF 7
ENDMDL
MODEL       34
REMARK 921   NORMALIZED FREE ENERGY PREDICTED BY IDOCK:   -5.16 KCAL/MOL
REMARK 922        TOTAL FREE ENERGY PREDICTED BY IDOCK:   -8.91 KCAL/MOL
REMARK 923 INTER-LIGAND FREE ENERGY PREDICTED BY IDOCK:   -7.75 KCAL/MOL
REMARK 924 INTRA-LIGAND FREE ENERGY PREDICTED BY IDOCK:   -1.16 KCAL/MOL
REMARK 927      BINDING AFFINITY PREDICTED BY RF-SCORE:    0.00 PKD
ROOT
HETATM    1  C   UNL     1     -12.743  12.135  63.388  1.00  0.00    -0.508 C  
HETATM    2  C   UNL     1     -11.897  12.096  64.665  1.00  0.00    -0.400 C  
HETATM    3  C   UNL     1     -10.416  12.124  64.307  1.00  0.00    -0.373 C  
HETATM    4  C   UNL     1     -12.263  13.258  65.575  1.00  0.00    -0.457 C  
HETATM    5  O   UNL     1     -13.132  14.082  65.315  1.00  0.00    -0.782 OA 
ENDROOT
BRANCH   4   6
HETATM    6  O   UNL     1     -11.561  13.231  66.748  1.00  0.00    -0.330 OA 
BRANCH   6   7
HETATM    7  C   UNL     1     -10.839  14.446  67.000  1.00  0.00    -0.297 C  
HETATM    8  C   UNL     1     -11.577  15.262  68.061  1.00  0.00    -0.325 C  
BRANCH   7   9
HETATM    9  O   UNL     1      -9.558  14.222  67.613  1.00  0.00    -0.212 OA 
BRANCH   9  10
HETATM   10  C   UNL     1      -9.120  12.947  67.600  1.00  0.00    -0.194 C  
HETATM   11  O   UNL     1      -8.279  12.490  66.850  1.00  0.00    -0.156 OA 
HETATM   12  N   UNL     1      -9.718  12.293  68.640  1.00  0.00    -0.387 N  
HETATM   13  H   UNL     1     -10.399  12.797  69.209  1.00  0.00     0.000 HD 
BRANCH  12  14
HETATM   14  C   UNL     1      -9.425  10.914  68.967  1.00  0.00    -0.146 C  
BRANCH  14  15
HETATM   15  C   UNL     1     -10.644   9.949  68.778  1.00  0.00    -0.246 C  
HETATM   16  C   UNL     1     -10.512   8.707  69.701  1.00  0.00    -0.220 C  
HETATM   17  C   UNL     1     -11.938  10.735  69.136  1.00  0.00    -0.302 C  
HETATM   18  C   UNL     1     -12.100  11.020  70.631  1.00  0.00    -0.471 C  
HETATM   19  C   UNL     1     -10.679   9.021  71.186  1.00  0.00    -0.358 C  
HETATM   20  C   UNL     1     -11.994   9.742  71.453  1.00  0.00    -0.493 C  
BRANCH  15  21
HETATM   21  C   UNL     1     -10.690   9.505  67.286  1.00  0.00    -0.269 C  
HETATM   22  O   UNL     1     -11.125   7.134  67.055  1.00  0.00    -0.345 OA 
HETATM   23  C   UNL     1     -10.326   8.057  67.014  1.00  0.00    -0.344 C  
HETATM   24  O   UNL     1      -9.024   7.867  66.708  1.00  0.00    -0.132 OA 
ENDBRANCH  15  21
ENDBRANCH  14  15
ENDBRANCH  12  14
ENDBRANCH   9  10
ENDBRANCH   7   9
ENDBRANCH   6   7
ENDBRANCH   4   6
TORSDOF 7
ENDMDL
MODEL       35
REMARK 921   NORMALIZED FREE ENERGY PREDICTED BY IDOCK:   -5.16 KCAL/MOL
REMARK 922        TOTAL FREE ENERGY PREDICTED BY IDOCK:   -8.91 KCAL/MOL
REMARK 923 INTER-LIGAND FREE ENERGY PREDICTED BY IDOCK:   -7.86 KCAL/MOL
REMARK 924 INTRA-LIGAND FREE ENERGY PREDICTED BY IDOCK:   -1.05 KCAL/MOL
REMARK 927      BINDING AFFINITY PREDICTED BY RF-SCORE:    0.00 PKD
ROOT
HETATM    1  C   UNL     1     -10.515  12.510  64.487  1.00  0.00    -0.366 C  
HETATM    2  C   UNL     1     -10.182  13.234  65.795  1.00  0.00    -0.296 C  
HETATM    3  C   UNL     1      -9.992  14.722  65.532  1.00  0.00    -0.390 C  
HETATM    4  C   UNL     1     -11.278  12.995  66.823  1.00  0.00    -0.298 C  
HETATM    5  O   UNL     1     -12.265  12.298  66.619  1.00  0.00    -0.574 OA 
ENDROOT
BRANCH   4   6
HETATM    6  O   UNL     1     -10.994  13.586  68.022  1.00  0.00    -0.239 OA 
BRANCH   6   7
HETATM    7  C   UNL     1     -12.160  13.813  68.827  1.00  0.00    -0.309 C  
HETATM    8  C   UNL     1     -12.069  12.970  70.099  1.00  0.00    -0.377 C  
BRANCH   7   9
HETATM    9  O   UNL     1     -12.234  15.153  69.346  1.00  0.00    -0.275 OA 
BRANCH   9  10
HETATM   10  C   UNL     1     -11.063  15.688  69.745  1.00  0.00    -0.313 C  
HETATM   11  O   UNL     1     -10.572  15.584  70.853  1.00  0.00    -0.241 OA 
HETATM   12  N   UNL     1     -10.487  16.283  68.658  1.00  0.00    -0.265 N  
HETATM   13  H   UNL     1     -10.998  16.289  67.775  1.00  0.00     0.000 HD 
BRANCH  12  14
HETATM   14  C   UNL     1      -9.181  16.905  68.709  1.00  0.00    -0.260 C  
BRANCH  14  15
HETATM   15  C   UNL     1      -9.081  18.229  67.879  1.00  0.00    -0.288 C  
HETATM   16  C   UNL     1      -8.488  19.377  68.741  1.00  0.00    -0.377 C  
HETATM   17  C   UNL     1      -8.157  17.959  66.656  1.00  0.00    -0.281 C  
HETATM   18  C   UNL     1      -6.678  17.800  67.016  1.00  0.00    -0.200 C  
HETATM   19  C   UNL     1      -7.011  19.192  69.084  1.00  0.00    -0.361 C  
HETATM   20  C   UNL     1      -6.175  18.987  67.827  1.00  0.00    -0.217 C  
BRANCH  15  21
HETATM   21  C   UNL     1     -10.509  18.610  67.389  1.00  0.00    -0.467 C  
HETATM   22  O   UNL     1     -10.845  18.067  65.053  1.00  0.00    -0.738 OA 
HETATM   23  C   UNL     1     -10.642  18.916  65.909  1.00  0.00    -0.373 C  
HETATM   24  O   UNL     1     -10.525  20.227  65.607  1.00  0.00    -0.352 OA 
ENDBRANCH  15  21
ENDBRANCH  14  15
ENDBRANCH  12  14
ENDBRANCH   9  10
ENDBRANCH   7   9
ENDBRANCH   6   7
ENDBRANCH   4   6
TORSDOF 7
ENDMDL
MODEL       36
REMARK 921   NORMALIZED FREE ENERGY PREDICTED BY IDOCK:   -5.15 KCAL/MOL
REMARK 922        TOTAL FREE ENERGY PREDICTED BY IDOCK:   -8.89 KCAL/MOL
REMARK 923 INTER-LIGAND FREE ENERGY PREDICTED BY IDOCK:   -7.97 KCAL/MOL
REMARK 924 INTRA-LIGAND FREE ENERGY PREDICTED BY IDOCK:   -0.92 KCAL/MOL
REMARK 927      BINDING AFFINITY PREDICTED BY RF-SCORE:    0.00 PKD
ROOT
HETATM    1  C   UNL     1     -12.282  12.601  63.407  1.00  0.00    -0.610 C  
HETATM    2  C   UNL     1     -11.834  11.979  64.734  1.00  0.00    -0.325 C  
HETATM    3  C   UNL     1     -10.325  11.775  64.729  1.00  0.00    -0.333 C  
HETATM    4  C   UNL     1     -12.265  12.855  65.900  1.00  0.00    -0.407 C  
HETATM    5  O   UNL     1     -12.900  13.896  65.773  1.00  0.00    -0.501 OA 
ENDROOT
BRANCH   4   6
HETATM    6  O   UNL     1     -11.924  12.309  67.105  1.00  0.00    -0.564 OA 
BRANCH   6   7
HETATM    7  C   UNL     1     -11.397  13.272  68.030  1.00  0.00    -0.291 C  
HETATM    8  C   UNL     1     -12.228  13.250  69.313  1.00  0.00    -0.194 C  
BRANCH   7   9
HETATM    9  O   UNL     1     -10.082  12.934  68.506  1.00  0.00    -0.233 OA 
BRANCH   9  10
HETATM   10  C   UNL     1      -9.106  13.808  68.191  1.00  0.00    -0.194 C  
HETATM   11  O   UNL     1      -8.106  13.559  67.546  1.00  0.00    -0.162 OA 
HETATM   12  N   UNL     1      -9.491  15.039  68.643  1.00  0.00    -0.205 N  
HETATM   13  H   UNL     1     -10.367  15.119  69.161  1.00  0.00     0.000 HD 
BRANCH  12  14
HETATM   14  C   UNL     1      -8.706  16.234  68.418  1.00  0.00    -0.205 C  
BRANCH  14  15
HETATM   15  C   UNL     1      -9.406  17.283  67.489  1.00  0.00    -0.236 C  
HETATM   16  C   UNL     1      -9.819  18.544  68.294  1.00  0.00    -0.394 C  
HETATM   17  C   UNL     1      -8.401  17.679  66.370  1.00  0.00    -0.288 C  
HETATM   18  C   UNL     1      -7.236  18.545  66.857  1.00  0.00    -0.226 C  
HETATM   19  C   UNL     1      -8.638  19.389  68.767  1.00  0.00    -0.371 C  
HETATM   20  C   UNL     1      -7.736  19.776  67.602  1.00  0.00    -0.317 C  
BRANCH  15  21
HETATM   21  C   UNL     1     -10.664  16.615  66.858  1.00  0.00    -0.153 C  
HETATM   22  O   UNL     1     -10.098  15.220  64.961  1.00  0.00    -0.328 OA 
HETATM   23  C   UNL     1     -10.561  16.269  65.384  1.00  0.00    -0.352 C  
HETATM   24  O   UNL     1     -11.038  17.228  64.561  1.00  0.00    -1.082 OA 
ENDBRANCH  15  21
ENDBRANCH  14  15
ENDBRANCH  12  14
ENDBRANCH   9  10
ENDBRANCH   7   9
ENDBRANCH   6   7
ENDBRANCH   4   6
TORSDOF 7
ENDMDL
MODEL       37
REMARK 921   NORMALIZED FREE ENERGY PREDICTED BY IDOCK:   -5.14 KCAL/MOL
REMARK 922        TOTAL FREE ENERGY PREDICTED BY IDOCK:   -8.87 KCAL/MOL
REMARK 923 INTER-LIGAND FREE ENERGY PREDICTED BY IDOCK:   -8.14 KCAL/MOL
REMARK 924 INTRA-LIGAND FREE ENERGY PREDICTED BY IDOCK:   -0.73 KCAL/MOL
REMARK 927      BINDING AFFINITY PREDICTED BY RF-SCORE:    0.00 PKD
ROOT
HETATM    1  C   UNL     1     -12.469  12.182  63.443  1.00  0.00    -0.625 C  
HETATM    2  C   UNL     1     -11.803  12.285  64.819  1.00  0.00    -0.428 C  
HETATM    3  C   UNL     1     -10.302  12.487  64.656  1.00  0.00    -0.341 C  
HETATM    4  C   UNL     1     -12.423  13.417  65.623  1.00  0.00    -0.464 C  
HETATM    5  O   UNL     1     -13.342  14.119  65.216  1.00  0.00    -0.715 OA 
ENDROOT
BRANCH   4   6
HETATM    6  O   UNL     1     -11.887  13.510  66.876  1.00  0.00    -0.366 OA 
BRANCH   6   7
HETATM    7  C   UNL     1     -11.566  14.858  67.252  1.00  0.00    -0.324 C  
HETATM    8  C   UNL     1     -11.606  14.981  68.776  1.00  0.00    -0.357 C  
BRANCH   7   9
HETATM    9  O   UNL     1     -10.209  15.219  66.946  1.00  0.00    -0.259 OA 
BRANCH   9  10
HETATM   10  C   UNL     1     -10.054  16.360  66.244  1.00  0.00    -0.331 C  
HETATM   11  O   UNL     1     -10.598  16.628  65.190  1.00  0.00    -0.645 OA 
HETATM   12  N   UNL     1      -9.257  17.193  66.977  1.00  0.00    -0.235 N  
HETATM   13  H   UNL     1      -8.873  16.852  67.859  1.00  0.00     0.000 HD 
BRANCH  12  14
HETATM   14  C   UNL     1      -8.934  18.538  66.552  1.00  0.00    -0.293 C  
BRANCH  14  15
HETATM   15  C   UNL     1      -7.601  19.089  67.162  1.00  0.00    -0.243 C  
HETATM   16  C   UNL     1      -6.435  18.090  66.931  1.00  0.00    -0.209 C  
HETATM   17  C   UNL     1      -7.278  20.443  66.466  1.00  0.00    -0.299 C  
HETATM   18  C   UNL     1      -6.826  20.303  65.011  1.00  0.00    -0.276 C  
HETATM   19  C   UNL     1      -6.004  17.971  65.471  1.00  0.00    -0.195 C  
HETATM   20  C   UNL     1      -5.656  19.335  64.886  1.00  0.00    -0.246 C  
BRANCH  15  21
HETATM   21  C   UNL     1      -7.817  19.317  68.687  1.00  0.00    -0.396 C  
HETATM   22  O   UNL     1      -6.066  20.678  69.661  1.00  0.00    -0.327 OA 
HETATM   23  C   UNL     1      -6.563  19.573  69.503  1.00  0.00    -0.329 C  
HETATM   24  O   UNL     1      -6.034  18.461  70.058  1.00  0.00    -0.233 OA 
ENDBRANCH  15  21
ENDBRANCH  14  15
ENDBRANCH  12  14
ENDBRANCH   9  10
ENDBRANCH   7   9
ENDBRANCH   6   7
ENDBRANCH   4   6
TORSDOF 7
ENDMDL
MODEL       38
REMARK 921   NORMALIZED FREE ENERGY PREDICTED BY IDOCK:   -5.12 KCAL/MOL
REMARK 922        TOTAL FREE ENERGY PREDICTED BY IDOCK:   -8.85 KCAL/MOL
REMARK 923 INTER-LIGAND FREE ENERGY PREDICTED BY IDOCK:   -7.40 KCAL/MOL
REMARK 924 INTRA-LIGAND FREE ENERGY PREDICTED BY IDOCK:   -1.45 KCAL/MOL
REMARK 927      BINDING AFFINITY PREDICTED BY RF-SCORE:    0.00 PKD
ROOT
HETATM    1  C   UNL     1     -12.763  13.472  71.281  1.00  0.00    -0.432 C  
HETATM    2  C   UNL     1     -12.587  14.259  69.979  1.00  0.00    -0.277 C  
HETATM    3  C   UNL     1     -11.929  15.602  70.268  1.00  0.00    -0.398 C  
HETATM    4  C   UNL     1     -11.772  13.453  68.980  1.00  0.00    -0.323 C  
HETATM    5  O   UNL     1     -11.346  12.324  69.200  1.00  0.00    -0.248 OA 
ENDROOT
BRANCH   4   6
HETATM    6  O   UNL     1     -11.634  14.103  67.786  1.00  0.00    -0.308 OA 
BRANCH   6   7
HETATM    7  C   UNL     1     -11.701  13.223  66.655  1.00  0.00    -0.377 C  
HETATM    8  C   UNL     1     -12.761  13.733  65.678  1.00  0.00    -0.523 C  
BRANCH   7   9
HETATM    9  O   UNL     1     -10.506  13.242  65.855  1.00  0.00    -0.275 OA 
BRANCH   9  10
HETATM   10  C   UNL     1      -9.442  13.855  66.412  1.00  0.00    -0.250 C  
HETATM   11  O   UNL     1      -8.580  13.320  67.082  1.00  0.00    -0.201 OA 
HETATM   12  N   UNL     1      -9.457  15.160  66.006  1.00  0.00    -0.331 N  
HETATM   13  H   UNL     1     -10.232  15.484  65.428  1.00  0.00     0.000 HD 
BRANCH  12  14
HETATM   14  C   UNL     1      -8.417  16.101  66.364  1.00  0.00    -0.334 C  
BRANCH  14  15
HETATM   15  C   UNL     1      -8.805  17.050  67.548  1.00  0.00    -0.214 C  
HETATM   16  C   UNL     1      -8.616  16.334  68.913  1.00  0.00    -0.260 C  
HETATM   17  C   UNL     1      -7.885  18.303  67.480  1.00  0.00    -0.228 C  
HETATM   18  C   UNL     1      -6.431  18.029  67.871  1.00  0.00    -0.188 C  
HETATM   19  C   UNL     1      -7.156  16.075  69.277  1.00  0.00    -0.220 C  
HETATM   20  C   UNL     1      -6.341  17.361  69.237  1.00  0.00    -0.244 C  
BRANCH  15  21
HETATM   21  C   UNL     1     -10.292  17.475  67.367  1.00  0.00    -0.351 C  
HETATM   22  O   UNL     1     -10.663  18.619  65.265  1.00  0.00    -0.559 OA 
HETATM   23  C   UNL     1     -10.533  18.681  66.479  1.00  0.00    -0.420 C  
HETATM   24  O   UNL     1     -10.602  19.852  67.150  1.00  0.00    -0.440 OA 
ENDBRANCH  15  21
ENDBRANCH  14  15
ENDBRANCH  12  14
ENDBRANCH   9  10
ENDBRANCH   7   9
ENDBRANCH   6   7
ENDBRANCH   4   6
TORSDOF 7
ENDMDL
MODEL       39
REMARK 921   NORMALIZED FREE ENERGY PREDICTED BY IDOCK:   -5.10 KCAL/MOL
REMARK 922        TOTAL FREE ENERGY PREDICTED BY IDOCK:   -8.82 KCAL/MOL
REMARK 923 INTER-LIGAND FREE ENERGY PREDICTED BY IDOCK:   -8.44 KCAL/MOL
REMARK 924 INTRA-LIGAND FREE ENERGY PREDICTED BY IDOCK:   -0.38 KCAL/MOL
REMARK 927      BINDING AFFINITY PREDICTED BY RF-SCORE:    0.00 PKD
ROOT
HETATM    1  C   UNL     1     -12.659  11.728  63.549  1.00  0.00    -0.485 C  
HETATM    2  C   UNL     1     -12.064  12.409  64.786  1.00  0.00    -0.483 C  
HETATM    3  C   UNL     1     -10.620  11.966  64.980  1.00  0.00    -0.335 C  
HETATM    4  C   UNL     1     -12.160  13.921  64.652  1.00  0.00    -0.431 C  
HETATM    5  O   UNL     1     -12.666  14.491  63.692  1.00  0.00    -0.754 OA 
ENDROOT
BRANCH   4   6
HETATM    6  O   UNL     1     -11.682  14.565  65.759  1.00  0.00    -0.358 OA 
BRANCH   6   7
HETATM    7  C   UNL     1     -10.497  15.332  65.496  1.00  0.00    -0.374 C  
HETATM    8  C   UNL     1     -10.888  16.664  64.855  1.00  0.00    -0.158 C  
BRANCH   7   9
HETATM    9  O   UNL     1      -9.820  15.750  66.693  1.00  0.00    -0.235 OA 
BRANCH   9  10
HETATM   10  C   UNL     1     -10.604  16.285  67.650  1.00  0.00    -0.311 C  
HETATM   11  O   UNL     1     -10.814  17.471  67.820  1.00  0.00    -0.368 OA 
HETATM   12  N   UNL     1     -11.193  15.254  68.328  1.00  0.00    -0.299 N  
HETATM   13  H   UNL     1     -10.943  14.298  68.077  1.00  0.00     0.000 HD 
BRANCH  12  14
HETATM   14  C   UNL     1     -12.156  15.466  69.387  1.00  0.00    -0.280 C  
BRANCH  14  15
HETATM   15  C   UNL     1     -12.012  14.463  70.581  1.00  0.00    -0.393 C  
HETATM   16  C   UNL     1     -11.326  15.145  71.795  1.00  0.00    -0.391 C  
HETATM   17  C   UNL     1     -13.438  13.986  70.982  1.00  0.00    -0.178 C  
HETATM   18  C   UNL     1     -14.278  15.057  71.681  1.00  0.00    -0.649 C  
HETATM   19  C   UNL     1     -12.187  16.207  72.474  1.00  0.00    -0.609 C  
HETATM   20  C   UNL     1     -13.543  15.642  72.880  1.00  0.00    -0.658 C  
BRANCH  15  21
HETATM   21  C   UNL     1     -11.164  13.248  70.100  1.00  0.00     0.277 C  
HETATM   22  O   UNL     1     -12.165  12.137  68.194  1.00  0.00    -0.388 OA 
HETATM   23  C   UNL     1     -11.929  12.144  69.393  1.00  0.00    -0.270 C  
HETATM   24  O   UNL     1     -12.330  11.146  70.210  1.00  0.00    -0.309 OA 
ENDBRANCH  15  21
ENDBRANCH  14  15
ENDBRANCH  12  14
ENDBRANCH   9  10
ENDBRANCH   7   9
ENDBRANCH   6   7
ENDBRANCH   4   6
TORSDOF 7
ENDMDL
MODEL       40
REMARK 921   NORMALIZED FREE ENERGY PREDICTED BY IDOCK:   -5.09 KCAL/MOL
REMARK 922        TOTAL FREE ENERGY PREDICTED BY IDOCK:   -8.80 KCAL/MOL
REMARK 923 INTER-LIGAND FREE ENERGY PREDICTED BY IDOCK:   -7.68 KCAL/MOL
REMARK 924 INTRA-LIGAND FREE ENERGY PREDICTED BY IDOCK:   -1.12 KCAL/MOL
REMARK 927      BINDING AFFINITY PREDICTED BY RF-SCORE:    0.00 PKD
ROOT
HETATM    1  C   UNL     1      -9.248   9.875  62.572  1.00  0.00    -0.307 C  
HETATM    2  C   UNL     1      -9.364  10.901  63.704  1.00  0.00    -0.285 C  
HETATM    3  C   UNL     1     -10.646  11.709  63.542  1.00  0.00    -0.496 C  
HETATM    4  C   UNL     1      -9.321  10.205  65.055  1.00  0.00    -0.243 C  
HETATM    5  O   UNL     1      -9.188   8.995  65.195  1.00  0.00    -0.192 OA 
ENDROOT
BRANCH   4   6
HETATM    6  O   UNL     1      -9.375  11.094  66.092  1.00  0.00    -0.192 OA 
BRANCH   6   7
HETATM    7  C   UNL     1      -9.644  10.468  67.355  1.00  0.00    -0.158 C  
HETATM    8  C   UNL     1      -8.431  10.635  68.271  1.00  0.00    -0.127 C  
BRANCH   7   9
HETATM    9  O   UNL     1     -10.686  11.124  68.097  1.00  0.00    -0.181 OA 
BRANCH   9  10
HETATM   10  C   UNL     1     -11.307  12.137  67.460  1.00  0.00    -0.326 C  
HETATM   11  O   UNL     1     -12.231  12.027  66.676  1.00  0.00    -0.550 OA 
HETATM   12  N   UNL     1     -10.777  13.307  67.926  1.00  0.00    -0.235 N  
HETATM   13  H   UNL     1     -10.012  13.264  68.599  1.00  0.00     0.000 HD 
BRANCH  12  14
HETATM   14  C   UNL     1     -11.259  14.605  67.504  1.00  0.00    -0.333 C  
BRANCH  14  15
HETATM   15  C   UNL     1     -10.231  15.407  66.636  1.00  0.00    -0.281 C  
HETATM   16  C   UNL     1     -10.504  16.933  66.729  1.00  0.00    -0.260 C  
HETATM   17  C   UNL     1      -8.804  15.094  67.172  1.00  0.00    -0.236 C  
HETATM   18  C   UNL     1      -8.498  15.724  68.532  1.00  0.00    -0.181 C  
HETATM   19  C   UNL     1     -10.188  17.534  68.097  1.00  0.00    -0.359 C  
HETATM   20  C   UNL     1      -8.757  17.225  68.519  1.00  0.00    -0.273 C  
BRANCH  15  21
HETATM   21  C   UNL     1     -10.359  14.929  65.160  1.00  0.00    -0.431 C  
HETATM   22  O   UNL     1     -11.578  16.514  63.792  1.00  0.00    -1.109 OA 
HETATM   23  C   UNL     1     -11.562  15.451  64.395  1.00  0.00    -0.264 C  
HETATM   24  O   UNL     1     -12.632  14.628  64.429  1.00  0.00    -0.662 OA 
ENDBRANCH  15  21
ENDBRANCH  14  15
ENDBRANCH  12  14
ENDBRANCH   9  10
ENDBRANCH   7   9
ENDBRANCH   6   7
ENDBRANCH   4   6
TORSDOF 7
ENDMDL
MODEL       41
REMARK 921   NORMALIZED FREE ENERGY PREDICTED BY IDOCK:   -5.09 KCAL/MOL
REMARK 922        TOTAL FREE ENERGY PREDICTED BY IDOCK:   -8.80 KCAL/MOL
REMARK 923 INTER-LIGAND FREE ENERGY PREDICTED BY IDOCK:   -7.70 KCAL/MOL
REMARK 924 INTRA-LIGAND FREE ENERGY PREDICTED BY IDOCK:   -1.10 KCAL/MOL
REMARK 927      BINDING AFFINITY PREDICTED BY RF-SCORE:    0.00 PKD
ROOT
HETATM    1  C   UNL     1     -12.154  11.848  63.701  1.00  0.00    -0.580 C  
HETATM    2  C   UNL     1     -10.873  11.027  63.884  1.00  0.00    -0.221 C  
HETATM    3  C   UNL     1      -9.732  11.663  63.101  1.00  0.00    -0.385 C  
HETATM    4  C   UNL     1     -10.527  10.912  65.361  1.00  0.00    -0.223 C  
HETATM    5  O   UNL     1     -11.205  11.395  66.261  1.00  0.00    -0.270 OA 
ENDROOT
BRANCH   4   6
HETATM    6  O   UNL     1      -9.414  10.145  65.568  1.00  0.00    -0.193 OA 
BRANCH   6   7
HETATM    7  C   UNL     1      -8.748  10.444  66.804  1.00  0.00    -0.127 C  
HETATM    8  C   UNL     1      -8.204   9.150  67.411  1.00  0.00    -0.107 C  
BRANCH   7   9
HETATM    9  O   UNL     1      -7.557  11.230  66.626  1.00  0.00    -0.146 OA 
BRANCH   9  10
HETATM   10  C   UNL     1      -7.566  12.442  67.215  1.00  0.00    -0.141 C  
HETATM   11  O   UNL     1      -6.707  12.881  67.956  1.00  0.00    -0.082 OA 
HETATM   12  N   UNL     1      -8.658  13.121  66.752  1.00  0.00    -0.417 N  
HETATM   13  H   UNL     1      -9.297  12.643  66.116  1.00  0.00     0.000 HD 
BRANCH  12  14
HETATM   14  C   UNL     1      -8.944  14.489  67.126  1.00  0.00    -0.230 C  
BRANCH  14  15
HETATM   15  C   UNL     1     -10.355  14.987  66.666  1.00  0.00    -0.278 C  
HETATM   16  C   UNL     1     -11.479  14.131  67.309  1.00  0.00    -0.371 C  
HETATM   17  C   UNL     1     -10.508  16.472  67.107  1.00  0.00    -0.300 C  
HETATM   18  C   UNL     1     -10.679  16.658  68.616  1.00  0.00    -0.349 C  
HETATM   19  C   UNL     1     -11.628  14.338  68.815  1.00  0.00    -0.357 C  
HETATM   20  C   UNL     1     -11.825  15.810  69.152  1.00  0.00    -0.367 C  
BRANCH  15  21
HETATM   21  C   UNL     1     -10.428  14.887  65.114  1.00  0.00    -0.442 C  
HETATM   22  O   UNL     1     -11.306  16.908  64.111  1.00  0.00    -1.208 OA 
HETATM   23  C   UNL     1     -11.483  15.746  64.442  1.00  0.00    -0.263 C  
HETATM   24  O   UNL     1     -12.655  15.108  64.229  1.00  0.00    -0.638 OA 
ENDBRANCH  15  21
ENDBRANCH  14  15
ENDBRANCH  12  14
ENDBRANCH   9  10
ENDBRANCH   7   9
ENDBRANCH   6   7
ENDBRANCH   4   6
TORSDOF 7
ENDMDL
MODEL       42
REMARK 921   NORMALIZED FREE ENERGY PREDICTED BY IDOCK:   -5.08 KCAL/MOL
REMARK 922        TOTAL FREE ENERGY PREDICTED BY IDOCK:   -8.79 KCAL/MOL
REMARK 923 INTER-LIGAND FREE ENERGY PREDICTED BY IDOCK:   -7.65 KCAL/MOL
REMARK 924 INTRA-LIGAND FREE ENERGY PREDICTED BY IDOCK:   -1.14 KCAL/MOL
REMARK 927      BINDING AFFINITY PREDICTED BY RF-SCORE:    0.00 PKD
ROOT
HETATM    1  C   UNL     1     -12.146  12.712  63.436  1.00  0.00    -0.614 C  
HETATM    2  C   UNL     1     -11.964  12.013  64.788  1.00  0.00    -0.310 C  
HETATM    3  C   UNL     1     -10.574  11.397  64.871  1.00  0.00    -0.368 C  
HETATM    4  C   UNL     1     -12.197  12.995  65.925  1.00  0.00    -0.432 C  
HETATM    5  O   UNL     1     -12.509  14.169  65.760  1.00  0.00    -0.466 OA 
ENDROOT
BRANCH   4   6
HETATM    6  O   UNL     1     -12.090  12.397  67.149  1.00  0.00    -0.532 OA 
BRANCH   6   7
HETATM    7  C   UNL     1     -11.365  13.189  68.101  1.00  0.00    -0.292 C  
HETATM    8  C   UNL     1     -11.894  12.902  69.506  1.00  0.00    -0.383 C  
BRANCH   7   9
HETATM    9  O   UNL     1      -9.981  12.814  68.207  1.00  0.00    -0.223 OA 
BRANCH   9  10
HETATM   10  C   UNL     1      -9.112  13.592  67.531  1.00  0.00    -0.213 C  
HETATM   11  O   UNL     1      -7.981  13.284  67.207  1.00  0.00    -0.171 OA 
HETATM   12  N   UNL     1      -9.765  14.744  67.192  1.00  0.00    -0.229 N  
HETATM   13  H   UNL     1     -10.724  14.876  67.513  1.00  0.00     0.000 HD 
BRANCH  12  14
HETATM   14  C   UNL     1      -9.149  15.785  66.397  1.00  0.00    -0.322 C  
BRANCH  14  15
HETATM   15  C   UNL     1      -9.034  17.160  67.139  1.00  0.00    -0.238 C  
HETATM   16  C   UNL     1      -8.396  16.978  68.542  1.00  0.00    -0.260 C  
HETATM   17  C   UNL     1      -8.144  18.099  66.274  1.00  0.00    -0.254 C  
HETATM   18  C   UNL     1      -6.662  17.717  66.265  1.00  0.00    -0.303 C  
HETATM   19  C   UNL     1      -6.917  16.599  68.503  1.00  0.00    -0.161 C  
HETATM   20  C   UNL     1      -6.113  17.598  67.680  1.00  0.00    -0.164 C  
BRANCH  15  21
HETATM   21  C   UNL     1     -10.463  17.764  67.275  1.00  0.00    -0.356 C  
HETATM   22  O   UNL     1     -10.770  19.706  65.861  1.00  0.00    -0.492 OA 
HETATM   23  C   UNL     1     -10.587  19.247  66.979  1.00  0.00    -0.470 C  
HETATM   24  O   UNL     1     -10.485  20.035  68.072  1.00  0.00    -0.396 OA 
ENDBRANCH  15  21
ENDBRANCH  14  15
ENDBRANCH  12  14
ENDBRANCH   9  10
ENDBRANCH   7   9
ENDBRANCH   6   7
ENDBRANCH   4   6
TORSDOF 7
ENDMDL
MODEL       43
REMARK 921   NORMALIZED FREE ENERGY PREDICTED BY IDOCK:   -5.05 KCAL/MOL
REMARK 922        TOTAL FREE ENERGY PREDICTED BY IDOCK:   -8.74 KCAL/MOL
REMARK 923 INTER-LIGAND FREE ENERGY PREDICTED BY IDOCK:   -7.47 KCAL/MOL
REMARK 924 INTRA-LIGAND FREE ENERGY PREDICTED BY IDOCK:   -1.27 KCAL/MOL
REMARK 927      BINDING AFFINITY PREDICTED BY RF-SCORE:    0.00 PKD
ROOT
HETATM    1  C   UNL     1      -6.170  18.881  68.452  1.00  0.00    -0.236 C  
HETATM    2  C   UNL     1      -7.356  19.511  67.716  1.00  0.00    -0.297 C  
HETATM    3  C   UNL     1      -7.042  20.960  67.369  1.00  0.00    -0.418 C  
HETATM    4  C   UNL     1      -7.690  18.708  66.468  1.00  0.00    -0.258 C  
HETATM    5  O   UNL     1      -7.094  17.690  66.132  1.00  0.00    -0.268 OA 
ENDROOT
BRANCH   4   6
HETATM    6  O   UNL     1      -8.775  19.212  65.808  1.00  0.00    -0.399 OA 
BRANCH   6   7
HETATM    7  C   UNL     1     -10.024  18.745  66.340  1.00  0.00    -0.392 C  
HETATM    8  C   UNL     1     -10.778  19.919  66.965  1.00  0.00    -0.478 C  
BRANCH   7   9
HETATM    9  O   UNL     1     -10.935  18.295  65.323  1.00  0.00    -0.571 OA 
BRANCH   9  10
HETATM   10  C   UNL     1     -10.808  17.004  64.956  1.00  0.00    -0.006 C  
HETATM   11  O   UNL     1     -11.292  16.493  63.964  1.00  0.00    -1.064 OA 
HETATM   12  N   UNL     1      -9.962  16.402  65.845  1.00  0.00    -0.335 N  
HETATM   13  H   UNL     1      -9.609  16.948  66.631  1.00  0.00     0.000 HD 
BRANCH  12  14
HETATM   14  C   UNL     1      -9.547  15.022  65.715  1.00  0.00    -0.292 C  
BRANCH  14  15
HETATM   15  C   UNL     1      -9.753  14.176  67.017  1.00  0.00    -0.258 C  
HETATM   16  C   UNL     1     -11.258  14.093  67.388  1.00  0.00    -0.334 C  
HETATM   17  C   UNL     1      -9.197  12.747  66.754  1.00  0.00    -0.225 C  
HETATM   18  C   UNL     1     -10.053  11.912  65.799  1.00  0.00    -0.272 C  
HETATM   19  C   UNL     1     -12.088  13.253  66.419  1.00  0.00    -0.454 C  
HETATM   20  C   UNL     1     -11.503  11.855  66.261  1.00  0.00    -0.367 C  
BRANCH  15  21
HETATM   21  C   UNL     1      -8.954  14.850  68.170  1.00  0.00    -0.176 C  
HETATM   22  O   UNL     1      -6.606  15.095  67.629  1.00  0.00    -0.155 OA 
HETATM   23  C   UNL     1      -7.478  14.503  68.246  1.00  0.00    -0.120 C  
HETATM   24  O   UNL     1      -7.200  13.470  69.072  1.00  0.00    -0.099 OA 
ENDBRANCH  15  21
ENDBRANCH  14  15
ENDBRANCH  12  14
ENDBRANCH   9  10
ENDBRANCH   7   9
ENDBRANCH   6   7
ENDBRANCH   4   6
TORSDOF 7
ENDMDL
MODEL       44
REMARK 921   NORMALIZED FREE ENERGY PREDICTED BY IDOCK:   -5.03 KCAL/MOL
REMARK 922        TOTAL FREE ENERGY PREDICTED BY IDOCK:   -8.72 KCAL/MOL
REMARK 923 INTER-LIGAND FREE ENERGY PREDICTED BY IDOCK:   -7.78 KCAL/MOL
REMARK 924 INTRA-LIGAND FREE ENERGY PREDICTED BY IDOCK:   -0.94 KCAL/MOL
REMARK 927      BINDING AFFINITY PREDICTED BY RF-SCORE:    0.00 PKD
ROOT
HETATM    1  C   UNL     1     -10.953   8.468  72.223  1.00  0.00    -0.426 C  
HETATM    2  C   UNL     1     -11.451   9.004  70.876  1.00  0.00    -0.347 C  
HETATM    3  C   UNL     1     -12.001  10.414  71.050  1.00  0.00    -0.481 C  
HETATM    4  C   UNL     1     -10.329   8.976  69.850  1.00  0.00    -0.207 C  
HETATM    5  O   UNL     1      -9.201   8.557  70.084  1.00  0.00    -0.151 OA 
ENDROOT
BRANCH   4   6
HETATM    6  O   UNL     1     -10.747   9.403  68.621  1.00  0.00    -0.213 OA 
BRANCH   6   7
HETATM    7  C   UNL     1      -9.963   8.870  67.544  1.00  0.00    -0.203 C  
HETATM    8  C   UNL     1     -10.589   7.562  67.061  1.00  0.00    -0.409 C  
BRANCH   7   9
HETATM    9  O   UNL     1     -10.001   9.689  66.362  1.00  0.00    -0.223 OA 
BRANCH   9  10
HETATM   10  C   UNL     1      -9.212  10.782  66.385  1.00  0.00    -0.170 C  
HETATM   11  O   UNL     1      -8.044  10.825  66.051  1.00  0.00    -0.156 OA 
HETATM   12  N   UNL     1      -9.988  11.845  66.754  1.00  0.00    -0.194 N  
HETATM   13  H   UNL     1     -10.965  11.677  66.994  1.00  0.00     0.000 HD 
BRANCH  12  14
HETATM   14  C   UNL     1      -9.478  13.198  66.818  1.00  0.00    -0.252 C  
BRANCH  14  15
HETATM   15  C   UNL     1     -10.429  14.261  66.172  1.00  0.00    -0.294 C  
HETATM   16  C   UNL     1     -11.696  14.470  67.045  1.00  0.00    -0.412 C  
HETATM   17  C   UNL     1      -9.644  15.599  66.056  1.00  0.00    -0.386 C  
HETATM   18  C   UNL     1      -9.398  16.295  67.396  1.00  0.00    -0.224 C  
HETATM   19  C   UNL     1     -11.421  15.167  68.375  1.00  0.00    -0.347 C  
HETATM   20  C   UNL     1     -10.698  16.492  68.165  1.00  0.00    -0.343 C  
BRANCH  15  21
HETATM   21  C   UNL     1     -10.833  13.760  64.754  1.00  0.00    -0.410 C  
HETATM   22  O   UNL     1     -12.715  14.990  63.855  1.00  0.00    -0.775 OA 
HETATM   23  C   UNL     1     -12.285  13.967  64.366  1.00  0.00    -0.413 C  
HETATM   24  O   UNL     1     -13.080  12.906  64.629  1.00  0.00    -0.742 OA 
ENDBRANCH  15  21
ENDBRANCH  14  15
ENDBRANCH  12  14
ENDBRANCH   9  10
ENDBRANCH   7   9
ENDBRANCH   6   7
ENDBRANCH   4   6
TORSDOF 7
ENDMDL
MODEL       45
REMARK 921   NORMALIZED FREE ENERGY PREDICTED BY IDOCK:   -5.02 KCAL/MOL
REMARK 922        TOTAL FREE ENERGY PREDICTED BY IDOCK:   -8.71 KCAL/MOL
REMARK 923 INTER-LIGAND FREE ENERGY PREDICTED BY IDOCK:   -7.52 KCAL/MOL
REMARK 924 INTRA-LIGAND FREE ENERGY PREDICTED BY IDOCK:   -1.19 KCAL/MOL
REMARK 927      BINDING AFFINITY PREDICTED BY RF-SCORE:    0.00 PKD
ROOT
HETATM    1  C   UNL     1      -7.696   9.734  65.266  1.00  0.00    -0.121 C  
HETATM    2  C   UNL     1      -8.783  10.580  65.937  1.00  0.00    -0.178 C  
HETATM    3  C   UNL     1     -10.153  10.182  65.405  1.00  0.00    -0.342 C  
HETATM    4  C   UNL     1      -8.715  10.423  67.449  1.00  0.00    -0.125 C  
HETATM    5  O   UNL     1      -7.885   9.731  68.027  1.00  0.00    -0.086 OA 
ENDROOT
BRANCH   4   6
HETATM    6  O   UNL     1      -9.640  11.200  68.087  1.00  0.00    -0.167 OA 
BRANCH   6   7
HETATM    7  C   UNL     1     -10.721  10.442  68.649  1.00  0.00    -0.218 C  
HETATM    8  C   UNL     1     -10.445  10.191  70.132  1.00  0.00    -0.311 C  
BRANCH   7   9
HETATM    9  O   UNL     1     -11.962  11.169  68.682  1.00  0.00    -0.487 OA 
BRANCH   9  10
HETATM   10  C   UNL     1     -11.853  12.511  68.613  1.00  0.00    -0.297 C  
HETATM   11  O   UNL     1     -11.618  13.256  69.545  1.00  0.00    -0.283 OA 
HETATM   12  N   UNL     1     -11.957  12.868  67.298  1.00  0.00    -0.355 N  
HETATM   13  H   UNL     1     -12.139  12.141  66.606  1.00  0.00     0.000 HD 
BRANCH  12  14
HETATM   14  C   UNL     1     -11.818  14.237  66.848  1.00  0.00    -0.433 C  
BRANCH  14  15
HETATM   15  C   UNL     1     -10.690  14.438  65.780  1.00  0.00    -0.312 C  
HETATM   16  C   UNL     1     -10.706  15.889  65.229  1.00  0.00    -0.442 C  
HETATM   17  C   UNL     1      -9.323  14.151  66.467  1.00  0.00    -0.285 C  
HETATM   18  C   UNL     1      -8.890  15.228  67.465  1.00  0.00    -0.188 C  
HETATM   19  C   UNL     1     -10.269  16.941  66.245  1.00  0.00    -0.337 C  
HETATM   20  C   UNL     1      -8.900  16.611  66.827  1.00  0.00    -0.259 C  
BRANCH  15  21
HETATM   21  C   UNL     1     -10.924  13.423  64.623  1.00  0.00    -0.388 C  
HETATM   22  O   UNL     1     -12.779  14.068  63.206  1.00  0.00    -0.750 OA 
HETATM   23  C   UNL     1     -12.342  13.343  64.087  1.00  0.00    -0.333 C  
HETATM   24  O   UNL     1     -13.094  12.383  64.668  1.00  0.00    -0.825 OA 
ENDBRANCH  15  21
ENDBRANCH  14  15
ENDBRANCH  12  14
ENDBRANCH   9  10
ENDBRANCH   7   9
ENDBRANCH   6   7
ENDBRANCH   4   6
TORSDOF 7
ENDMDL
MODEL       46
REMARK 921   NORMALIZED FREE ENERGY PREDICTED BY IDOCK:   -5.01 KCAL/MOL
REMARK 922        TOTAL FREE ENERGY PREDICTED BY IDOCK:   -8.70 KCAL/MOL
REMARK 923 INTER-LIGAND FREE ENERGY PREDICTED BY IDOCK:   -8.26 KCAL/MOL
REMARK 924 INTRA-LIGAND FREE ENERGY PREDICTED BY IDOCK:   -0.44 KCAL/MOL
REMARK 927      BINDING AFFINITY PREDICTED BY RF-SCORE:    0.00 PKD
ROOT
HETATM    1  C   UNL     1     -10.428   5.874  70.643  1.00  0.00    -0.316 C  
HETATM    2  C   UNL     1     -11.423   7.019  70.422  1.00  0.00    -0.355 C  
HETATM    3  C   UNL     1     -12.550   6.932  71.444  1.00  0.00    -0.400 C  
HETATM    4  C   UNL     1     -10.711   8.360  70.504  1.00  0.00    -0.227 C  
HETATM    5  O   UNL     1      -9.507   8.483  70.696  1.00  0.00    -0.161 OA 
ENDROOT
BRANCH   4   6
HETATM    6  O   UNL     1     -11.558   9.405  70.265  1.00  0.00    -0.233 OA 
BRANCH   6   7
HETATM    7  C   UNL     1     -11.079  10.296  69.246  1.00  0.00    -0.245 C  
HETATM    8  C   UNL     1     -10.641   9.483  68.028  1.00  0.00    -0.282 C  
BRANCH   7   9
HETATM    9  O   UNL     1     -12.111  11.139  68.704  1.00  0.00    -0.556 OA 
BRANCH   9  10
HETATM   10  C   UNL     1     -11.834  12.458  68.682  1.00  0.00    -0.302 C  
HETATM   11  O   UNL     1     -11.431  13.118  69.620  1.00  0.00    -0.256 OA 
HETATM   12  N   UNL     1     -11.995  12.893  67.397  1.00  0.00    -0.346 N  
HETATM   13  H   UNL     1     -12.325  12.232  66.694  1.00  0.00     0.000 HD 
BRANCH  12  14
HETATM   14  C   UNL     1     -11.716  14.255  66.993  1.00  0.00    -0.403 C  
BRANCH  14  15
HETATM   15  C   UNL     1     -10.676  14.367  65.828  1.00  0.00    -0.312 C  
HETATM   16  C   UNL     1     -10.764  15.756  65.141  1.00  0.00    -0.455 C  
HETATM   17  C   UNL     1      -9.255  14.169  66.433  1.00  0.00    -0.209 C  
HETATM   18  C   UNL     1      -8.773  15.344  67.287  1.00  0.00    -0.215 C  
HETATM   19  C   UNL     1     -10.276  16.909  66.015  1.00  0.00    -0.350 C  
HETATM   20  C   UNL     1      -8.860  16.658  66.520  1.00  0.00    -0.314 C  
BRANCH  15  21
HETATM   21  C   UNL     1     -10.973  13.240  64.796  1.00  0.00    -0.365 C  
HETATM   22  O   UNL     1     -12.588  13.933  63.130  1.00  0.00    -0.775 OA 
HETATM   23  C   UNL     1     -12.339  13.287  64.138  1.00  0.00    -0.341 C  
HETATM   24  O   UNL     1     -13.274  12.538  64.761  1.00  0.00    -0.839 OA 
ENDBRANCH  15  21
ENDBRANCH  14  15
ENDBRANCH  12  14
ENDBRANCH   9  10
ENDBRANCH   7   9
ENDBRANCH   6   7
ENDBRANCH   4   6
TORSDOF 7
ENDMDL
MODEL       47
REMARK 921   NORMALIZED FREE ENERGY PREDICTED BY IDOCK:   -5.01 KCAL/MOL
REMARK 922        TOTAL FREE ENERGY PREDICTED BY IDOCK:   -8.69 KCAL/MOL
REMARK 923 INTER-LIGAND FREE ENERGY PREDICTED BY IDOCK:   -7.32 KCAL/MOL
REMARK 924 INTRA-LIGAND FREE ENERGY PREDICTED BY IDOCK:   -1.37 KCAL/MOL
REMARK 927      BINDING AFFINITY PREDICTED BY RF-SCORE:    0.00 PKD
ROOT
HETATM    1  C   UNL     1     -12.520  12.118  63.366  1.00  0.00    -0.625 C  
HETATM    2  C   UNL     1     -11.281  11.475  63.997  1.00  0.00    -0.414 C  
HETATM    3  C   UNL     1     -10.019  12.050  63.365  1.00  0.00    -0.384 C  
HETATM    4  C   UNL     1     -11.285  11.686  65.503  1.00  0.00    -0.205 C  
HETATM    5  O   UNL     1     -12.177  12.270  66.107  1.00  0.00    -0.647 OA 
ENDROOT
BRANCH   4   6
HETATM    6  O   UNL     1     -10.217  11.085  66.108  1.00  0.00    -0.232 OA 
BRANCH   6   7
HETATM    7  C   UNL     1     -10.593  10.258  67.219  1.00  0.00    -0.267 C  
HETATM    8  C   UNL     1     -10.213   8.807  66.921  1.00  0.00    -0.357 C  
BRANCH   7   9
HETATM    9  O   UNL     1      -9.838  10.539  68.410  1.00  0.00    -0.152 OA 
BRANCH   9  10
HETATM   10  C   UNL     1      -9.104  11.669  68.382  1.00  0.00    -0.180 C  
HETATM   11  O   UNL     1      -7.915  11.741  68.137  1.00  0.00    -0.129 OA 
HETATM   12  N   UNL     1      -9.953  12.721  68.580  1.00  0.00    -0.391 N  
HETATM   13  H   UNL     1     -10.939  12.527  68.760  1.00  0.00     0.000 HD 
BRANCH  12  14
HETATM   14  C   UNL     1      -9.511  14.098  68.545  1.00  0.00    -0.202 C  
BRANCH  14  15
HETATM   15  C   UNL     1     -10.636  15.112  68.146  1.00  0.00    -0.246 C  
HETATM   16  C   UNL     1     -10.408  16.487  68.829  1.00  0.00    -0.286 C  
HETATM   17  C   UNL     1     -10.602  15.281  66.599  1.00  0.00    -0.304 C  
HETATM   18  C   UNL     1      -9.393  16.066  66.086  1.00  0.00    -0.377 C  
HETATM   19  C   UNL     1      -9.196  17.247  68.296  1.00  0.00    -0.265 C  
HETATM   20  C   UNL     1      -9.270  17.414  66.784  1.00  0.00    -0.274 C  
BRANCH  15  21
HETATM   21  C   UNL     1     -12.008  14.518  68.582  1.00  0.00    -0.320 C  
HETATM   22  O   UNL     1     -12.891  15.617  70.552  1.00  0.00    -0.445 OA 
HETATM   23  C   UNL     1     -12.345  14.642  70.057  1.00  0.00    -0.315 C  
HETATM   24  O   UNL     1     -11.994  13.564  70.792  1.00  0.00    -0.305 OA 
ENDBRANCH  15  21
ENDBRANCH  14  15
ENDBRANCH  12  14
ENDBRANCH   9  10
ENDBRANCH   7   9
ENDBRANCH   6   7
ENDBRANCH   4   6
TORSDOF 7
ENDMDL
MODEL       48
REMARK 921   NORMALIZED FREE ENERGY PREDICTED BY IDOCK:   -4.99 KCAL/MOL
REMARK 922        TOTAL FREE ENERGY PREDICTED BY IDOCK:   -8.66 KCAL/MOL
REMARK 923 INTER-LIGAND FREE ENERGY PREDICTED BY IDOCK:   -7.38 KCAL/MOL
REMARK 924 INTRA-LIGAND FREE ENERGY PREDICTED BY IDOCK:   -1.28 KCAL/MOL
REMARK 927      BINDING AFFINITY PREDICTED BY RF-SCORE:    0.00 PKD
ROOT
HETATM    1  C   UNL     1     -11.083  11.917  64.687  1.00  0.00    -0.373 C  
HETATM    2  C   UNL     1     -11.327  13.122  65.601  1.00  0.00    -0.328 C  
HETATM    3  C   UNL     1     -12.308  14.084  64.943  1.00  0.00    -0.447 C  
HETATM    4  C   UNL     1     -11.838  12.661  66.957  1.00  0.00    -0.345 C  
HETATM    5  O   UNL     1     -12.001  11.484  67.261  1.00  0.00    -0.605 OA 
ENDROOT
BRANCH   4   6
HETATM    6  O   UNL     1     -12.023  13.706  67.818  1.00  0.00    -0.363 OA 
BRANCH   6   7
HETATM    7  C   UNL     1     -11.399  13.499  69.095  1.00  0.00    -0.282 C  
HETATM    8  C   UNL     1     -10.414  14.636  69.367  1.00  0.00    -0.175 C  
BRANCH   7   9
HETATM    9  O   UNL     1     -12.319  13.614  70.195  1.00  0.00    -0.331 OA 
BRANCH   9  10
HETATM   10  C   UNL     1     -12.461  12.508  70.953  1.00  0.00    -0.269 C  
HETATM   11  O   UNL     1     -13.177  12.401  71.930  1.00  0.00    -0.464 OA 
HETATM   12  N   UNL     1     -11.735  11.509  70.369  1.00  0.00    -0.486 N  
HETATM   13  H   UNL     1     -11.186  11.725  69.537  1.00  0.00     0.000 HD 
BRANCH  12  14
HETATM   14  C   UNL     1     -11.714  10.156  70.884  1.00  0.00    -0.378 C  
BRANCH  14  15
HETATM   15  C   UNL     1     -10.438   9.346  70.474  1.00  0.00    -0.335 C  
HETATM   16  C   UNL     1      -9.693   8.818  71.730  1.00  0.00    -0.380 C  
HETATM   17  C   UNL     1     -10.894   8.148  69.591  1.00  0.00    -0.162 C  
HETATM   18  C   UNL     1     -11.627   7.049  70.363  1.00  0.00    -0.341 C  
HETATM   19  C   UNL     1     -10.447   7.722  72.480  1.00  0.00    -0.343 C  
HETATM   20  C   UNL     1     -10.807   6.567  71.553  1.00  0.00    -0.288 C  
BRANCH  15  21
HETATM   21  C   UNL     1      -9.505  10.283  69.653  1.00  0.00    -0.180 C  
HETATM   22  O   UNL     1      -7.645   9.083  68.670  1.00  0.00    -0.089 OA 
HETATM   23  C   UNL     1      -8.058   9.841  69.535  1.00  0.00    -0.141 C  
HETATM   24  O   UNL     1      -7.245  10.367  70.477  1.00  0.00    -0.276 OA 
ENDBRANCH  15  21
ENDBRANCH  14  15
ENDBRANCH  12  14
ENDBRANCH   9  10
ENDBRANCH   7   9
ENDBRANCH   6   7
ENDBRANCH   4   6
TORSDOF 7
ENDMDL
MODEL       49
REMARK 921   NORMALIZED FREE ENERGY PREDICTED BY IDOCK:   -4.98 KCAL/MOL
REMARK 922        TOTAL FREE ENERGY PREDICTED BY IDOCK:   -8.65 KCAL/MOL
REMARK 923 INTER-LIGAND FREE ENERGY PREDICTED BY IDOCK:   -8.00 KCAL/MOL
REMARK 924 INTRA-LIGAND FREE ENERGY PREDICTED BY IDOCK:   -0.66 KCAL/MOL
REMARK 927      BINDING AFFINITY PREDICTED BY RF-SCORE:    0.00 PKD
ROOT
HETATM    1  C   UNL     1     -10.818   9.599  71.005  1.00  0.00    -0.412 C  
HETATM    2  C   UNL     1     -11.875  10.303  70.148  1.00  0.00    -0.343 C  
HETATM    3  C   UNL     1     -12.587  11.368  70.972  1.00  0.00    -0.487 C  
HETATM    4  C   UNL     1     -11.232  10.908  68.909  1.00  0.00    -0.267 C  
HETATM    5  O   UNL     1     -10.039  10.813  68.643  1.00  0.00    -0.168 OA 
ENDROOT
BRANCH   4   6
HETATM    6  O   UNL     1     -12.152  11.505  68.094  1.00  0.00    -0.604 OA 
BRANCH   6   7
HETATM    7  C   UNL     1     -11.623  12.633  67.380  1.00  0.00    -0.360 C  
HETATM    8  C   UNL     1     -11.820  12.419  65.879  1.00  0.00    -0.467 C  
BRANCH   7   9
HETATM    9  O   UNL     1     -12.356  13.846  67.621  1.00  0.00    -0.265 OA 
BRANCH   9  10
HETATM   10  C   UNL     1     -11.832  14.668  68.552  1.00  0.00    -0.311 C  
HETATM   11  O   UNL     1     -12.129  14.692  69.731  1.00  0.00    -0.302 OA 
HETATM   12  N   UNL     1     -10.843  15.397  67.952  1.00  0.00    -0.290 N  
HETATM   13  H   UNL     1     -10.680  15.271  66.953  1.00  0.00     0.000 HD 
BRANCH  12  14
HETATM   14  C   UNL     1     -10.018  16.339  68.678  1.00  0.00    -0.233 C  
BRANCH  14  15
HETATM   15  C   UNL     1      -9.508  17.534  67.804  1.00  0.00    -0.269 C  
HETATM   16  C   UNL     1      -8.240  18.174  68.431  1.00  0.00    -0.314 C  
HETATM   17  C   UNL     1      -9.173  16.984  66.388  1.00  0.00    -0.298 C  
HETATM   18  C   UNL     1      -7.917  16.111  66.340  1.00  0.00    -0.252 C  
HETATM   19  C   UNL     1      -7.003  17.282  68.369  1.00  0.00    -0.202 C  
HETATM   20  C   UNL     1      -6.718  16.833  66.941  1.00  0.00    -0.256 C  
BRANCH  15  21
HETATM   21  C   UNL     1     -10.648  18.590  67.705  1.00  0.00    -0.450 C  
HETATM   22  O   UNL     1     -10.748  19.619  65.515  1.00  0.00    -0.473 OA 
HETATM   23  C   UNL     1     -10.436  19.701  66.694  1.00  0.00    -0.497 C  
HETATM   24  O   UNL     1      -9.871  20.814  67.212  1.00  0.00    -0.474 OA 
ENDBRANCH  15  21
ENDBRANCH  14  15
ENDBRANCH  12  14
ENDBRANCH   9  10
ENDBRANCH   7   9
ENDBRANCH   6   7
ENDBRANCH   4   6
TORSDOF 7
ENDMDL
MODEL       50
REMARK 921   NORMALIZED FREE ENERGY PREDICTED BY IDOCK:   -4.97 KCAL/MOL
REMARK 922        TOTAL FREE ENERGY PREDICTED BY IDOCK:   -8.63 KCAL/MOL
REMARK 923 INTER-LIGAND FREE ENERGY PREDICTED BY IDOCK:   -8.03 KCAL/MOL
REMARK 924 INTRA-LIGAND FREE ENERGY PREDICTED BY IDOCK:   -0.60 KCAL/MOL
REMARK 927      BINDING AFFINITY PREDICTED BY RF-SCORE:    0.00 PKD
ROOT
HETATM    1  C   UNL     1     -12.785  11.849  63.463  1.00  0.00    -0.530 C  
HETATM    2  C   UNL     1     -11.659  12.042  64.484  1.00  0.00    -0.387 C  
HETATM    3  C   UNL     1     -10.320  12.151  63.767  1.00  0.00    -0.465 C  
HETATM    4  C   UNL     1     -11.925  13.273  65.337  1.00  0.00    -0.395 C  
HETATM    5  O   UNL     1     -12.919  13.982  65.221  1.00  0.00    -0.743 OA 
ENDROOT
BRANCH   4   6
HETATM    6  O   UNL     1     -10.965  13.453  66.293  1.00  0.00    -0.286 OA 
BRANCH   6   7
HETATM    7  C   UNL     1     -11.499  13.500  67.624  1.00  0.00    -0.318 C  
HETATM    8  C   UNL     1     -11.653  12.076  68.159  1.00  0.00    -0.403 C  
BRANCH   7   9
HETATM    9  O   UNL     1     -10.595  14.093  68.572  1.00  0.00    -0.239 OA 
BRANCH   9  10
HETATM   10  C   UNL     1     -10.874  15.363  68.927  1.00  0.00    -0.251 C  
HETATM   11  O   UNL     1     -11.891  15.744  69.474  1.00  0.00    -0.354 OA 
HETATM   12  N   UNL     1      -9.771  16.122  68.652  1.00  0.00    -0.219 N  
HETATM   13  H   UNL     1      -8.970  15.676  68.205  1.00  0.00     0.000 HD 
BRANCH  12  14
HETATM   14  C   UNL     1      -9.694  17.532  68.970  1.00  0.00    -0.187 C  
BRANCH  14  15
HETATM   15  C   UNL     1      -8.786  18.350  67.992  1.00  0.00    -0.302 C  
HETATM   16  C   UNL     1      -8.849  17.761  66.557  1.00  0.00    -0.283 C  
HETATM   17  C   UNL     1      -9.296  19.820  67.980  1.00  0.00    -0.444 C  
HETATM   18  C   UNL     1     -10.635  20.008  67.262  1.00  0.00    -0.442 C  
HETATM   19  C   UNL     1     -10.195  17.963  65.866  1.00  0.00    -0.228 C  
HETATM   20  C   UNL     1     -10.592  19.434  65.852  1.00  0.00    -0.551 C  
BRANCH  15  21
HETATM   21  C   UNL     1      -7.324  18.303  68.526  1.00  0.00    -0.297 C  
HETATM   22  O   UNL     1      -6.973  19.848  70.358  1.00  0.00    -0.091 OA 
HETATM   23  C   UNL     1      -6.814  19.576  69.177  1.00  0.00    -0.346 C  
HETATM   24  O   UNL     1      -6.152  20.396  68.333  1.00  0.00    -0.266 OA 
ENDBRANCH  15  21
ENDBRANCH  14  15
ENDBRANCH  12  14
ENDBRANCH   9  10
ENDBRANCH   7   9
ENDBRANCH   6   7
ENDBRANCH   4   6
TORSDOF 7
ENDMDL
MODEL       51
REMARK 921   NORMALIZED FREE ENERGY PREDICTED BY IDOCK:   -4.96 KCAL/MOL
REMARK 922        TOTAL FREE ENERGY PREDICTED BY IDOCK:   -8.62 KCAL/MOL
REMARK 923 INTER-LIGAND FREE ENERGY PREDICTED BY IDOCK:   -7.37 KCAL/MOL
REMARK 924 INTRA-LIGAND FREE ENERGY PREDICTED BY IDOCK:   -1.25 KCAL/MOL
REMARK 927      BINDING AFFINITY PREDICTED BY RF-SCORE:    0.00 PKD
ROOT
HETATM    1  C   UNL     1     -13.780   8.894  72.357  1.00  0.00    -0.512 C  
HETATM    2  C   UNL     1     -12.320   8.441  72.256  1.00  0.00    -0.436 C  
HETATM    3  C   UNL     1     -12.244   7.086  71.564  1.00  0.00    -0.407 C  
HETATM    4  C   UNL     1     -11.494   9.481  71.515  1.00  0.00    -0.395 C  
HETATM    5  O   UNL     1     -11.949  10.537  71.090  1.00  0.00    -0.352 OA 
ENDROOT
BRANCH   4   6
HETATM    6  O   UNL     1     -10.174   9.134  71.446  1.00  0.00    -0.302 OA 
BRANCH   6   7
HETATM    7  C   UNL     1      -9.555   9.520  70.210  1.00  0.00    -0.265 C  
HETATM    8  C   UNL     1      -8.037   9.531  70.386  1.00  0.00    -0.209 C  
BRANCH   7   9
HETATM    9  O   UNL     1      -9.741   8.554  69.161  1.00  0.00    -0.165 OA 
BRANCH   9  10
HETATM   10  C   UNL     1     -10.339   9.013  68.044  1.00  0.00    -0.224 C  
HETATM   11  O   UNL     1     -10.526   8.379  67.023  1.00  0.00    -0.307 OA 
HETATM   12  N   UNL     1     -10.782  10.280  68.302  1.00  0.00    -0.220 N  
HETATM   13  H   UNL     1     -10.574  10.696  69.210  1.00  0.00     0.000 HD 
BRANCH  12  14
HETATM   14  C   UNL     1     -11.534  11.055  67.338  1.00  0.00    -0.135 C  
BRANCH  14  15
HETATM   15  C   UNL     1     -10.705  12.201  66.666  1.00  0.00    -0.281 C  
HETATM   16  C   UNL     1      -9.787  11.636  65.549  1.00  0.00    -0.264 C  
HETATM   17  C   UNL     1     -11.707  13.223  66.056  1.00  0.00    -0.408 C  
HETATM   18  C   UNL     1     -12.440  12.710  64.814  1.00  0.00    -0.555 C  
HETATM   19  C   UNL     1     -10.545  11.133  64.323  1.00  0.00    -0.425 C  
HETATM   20  C   UNL     1     -11.461  12.212  63.759  1.00  0.00    -0.548 C  
BRANCH  15  21
HETATM   21  C   UNL     1      -9.847  12.894  67.765  1.00  0.00    -0.221 C  
HETATM   22  O   UNL     1     -11.212  14.106  69.357  1.00  0.00    -0.256 OA 
HETATM   23  C   UNL     1     -10.455  14.132  68.398  1.00  0.00    -0.254 C  
HETATM   24  O   UNL     1     -10.078  15.289  67.811  1.00  0.00    -0.228 OA 
ENDBRANCH  15  21
ENDBRANCH  14  15
ENDBRANCH  12  14
ENDBRANCH   9  10
ENDBRANCH   7   9
ENDBRANCH   6   7
ENDBRANCH   4   6
TORSDOF 7
ENDMDL
MODEL       52
REMARK 921   NORMALIZED FREE ENERGY PREDICTED BY IDOCK:   -4.90 KCAL/MOL
REMARK 922        TOTAL FREE ENERGY PREDICTED BY IDOCK:   -8.54 KCAL/MOL
REMARK 923 INTER-LIGAND FREE ENERGY PREDICTED BY IDOCK:   -7.37 KCAL/MOL
REMARK 924 INTRA-LIGAND FREE ENERGY PREDICTED BY IDOCK:   -1.17 KCAL/MOL
REMARK 927      BINDING AFFINITY PREDICTED BY RF-SCORE:    0.00 PKD
ROOT
HETATM    1  C   UNL     1     -14.047  14.761  71.791  1.00  0.00    -0.598 C  
HETATM    2  C   UNL     1     -12.854  15.435  71.105  1.00  0.00    -0.520 C  
HETATM    3  C   UNL     1     -11.985  16.133  72.144  1.00  0.00    -0.623 C  
HETATM    4  C   UNL     1     -12.051  14.412  70.317  1.00  0.00    -0.331 C  
HETATM    5  O   UNL     1     -12.350  13.226  70.236  1.00  0.00    -0.315 OA 
ENDROOT
BRANCH   4   6
HETATM    6  O   UNL     1     -11.004  14.985  69.651  1.00  0.00    -0.259 OA 
BRANCH   6   7
HETATM    7  C   UNL     1     -11.409  15.705  68.478  1.00  0.00    -0.360 C  
HETATM    8  C   UNL     1     -10.713  17.066  68.454  1.00  0.00    -0.361 C  
BRANCH   7   9
HETATM    9  O   UNL     1     -10.950  15.098  67.258  1.00  0.00    -0.313 OA 
BRANCH   9  10
HETATM   10  C   UNL     1     -11.603  13.981  66.881  1.00  0.00    -0.386 C  
HETATM   11  O   UNL     1     -12.598  13.938  66.183  1.00  0.00    -0.452 OA 
HETATM   12  N   UNL     1     -10.891  12.909  67.340  1.00  0.00    -0.247 N  
HETATM   13  H   UNL     1     -10.058  13.080  67.905  1.00  0.00     0.000 HD 
BRANCH  12  14
HETATM   14  C   UNL     1     -11.270  11.541  67.059  1.00  0.00    -0.300 C  
BRANCH  14  15
HETATM   15  C   UNL     1     -10.288  10.801  66.089  1.00  0.00    -0.300 C  
HETATM   16  C   UNL     1      -8.863  11.410  66.178  1.00  0.00    -0.186 C  
HETATM   17  C   UNL     1     -10.246   9.301  66.501  1.00  0.00    -0.316 C  
HETATM   18  C   UNL     1      -9.511   9.038  67.818  1.00  0.00    -0.162 C  
HETATM   19  C   UNL     1      -8.153  11.131  67.501  1.00  0.00    -0.119 C  
HETATM   20  C   UNL     1      -8.111   9.638  67.800  1.00  0.00    -0.113 C  
BRANCH  15  21
HETATM   21  C   UNL     1     -10.838  10.936  64.638  1.00  0.00    -0.153 C  
HETATM   22  O   UNL     1      -9.065  11.245  63.018  1.00  0.00    -0.274 OA 
HETATM   23  C   UNL     1      -9.976  11.729  63.673  1.00  0.00    -0.381 C  
HETATM   24  O   UNL     1     -10.307  13.036  63.589  1.00  0.00    -0.305 OA 
ENDBRANCH  15  21
ENDBRANCH  14  15
ENDBRANCH  12  14
ENDBRANCH   9  10
ENDBRANCH   7   9
ENDBRANCH   6   7
ENDBRANCH   4   6
TORSDOF 7
ENDMDL
MODEL       53
REMARK 921   NORMALIZED FREE ENERGY PREDICTED BY IDOCK:   -4.89 KCAL/MOL
REMARK 922        TOTAL FREE ENERGY PREDICTED BY IDOCK:   -8.52 KCAL/MOL
REMARK 923 INTER-LIGAND FREE ENERGY PREDICTED BY IDOCK:   -7.38 KCAL/MOL
REMARK 924 INTRA-LIGAND FREE ENERGY PREDICTED BY IDOCK:   -1.14 KCAL/MOL
REMARK 927      BINDING AFFINITY PREDICTED BY RF-SCORE:    0.00 PKD
ROOT
HETATM    1  C   UNL     1      -9.347   8.562  66.375  1.00  0.00    -0.273 C  
HETATM    2  C   UNL     1     -10.353   9.718  66.346  1.00  0.00    -0.247 C  
HETATM    3  C   UNL     1     -10.820  10.035  67.761  1.00  0.00    -0.337 C  
HETATM    4  C   UNL     1      -9.733  10.940  65.686  1.00  0.00    -0.232 C  
HETATM    5  O   UNL     1      -8.596  10.965  65.227  1.00  0.00    -0.172 OA 
ENDROOT
BRANCH   4   6
HETATM    6  O   UNL     1     -10.617  11.978  65.598  1.00  0.00    -0.248 OA 
BRANCH   6   7
HETATM    7  C   UNL     1     -10.688  12.547  64.282  1.00  0.00    -0.369 C  
HETATM    8  C   UNL     1     -11.791  11.846  63.488  1.00  0.00    -0.560 C  
BRANCH   7   9
HETATM    9  O   UNL     1     -11.127  13.916  64.283  1.00  0.00    -0.351 OA 
BRANCH   9  10
HETATM   10  C   UNL     1     -11.968  14.257  65.280  1.00  0.00    -0.389 C  
HETATM   11  O   UNL     1     -13.166  14.048  65.306  1.00  0.00    -0.782 OA 
HETATM   12  N   UNL     1     -11.218  14.790  66.291  1.00  0.00    -0.342 N  
HETATM   13  H   UNL     1     -10.214  14.898  66.150  1.00  0.00     0.000 HD 
BRANCH  12  14
HETATM   14  C   UNL     1     -11.792  15.207  67.553  1.00  0.00    -0.094 C  
BRANCH  14  15
HETATM   15  C   UNL     1     -10.838  15.004  68.777  1.00  0.00    -0.249 C  
HETATM   16  C   UNL     1     -11.347  15.798  70.011  1.00  0.00    -0.354 C  
HETATM   17  C   UNL     1     -10.800  13.484  69.110  1.00  0.00    -0.173 C  
HETATM   18  C   UNL     1     -12.092  12.951  69.734  1.00  0.00    -0.312 C  
HETATM   19  C   UNL     1     -12.636  15.244  70.613  1.00  0.00    -0.471 C  
HETATM   20  C   UNL     1     -12.493  13.766  70.957  1.00  0.00    -0.458 C  
BRANCH  15  21
HETATM   21  C   UNL     1      -9.415  15.493  68.376  1.00  0.00    -0.196 C  
HETATM   22  O   UNL     1      -9.168  17.887  68.636  1.00  0.00    -0.288 OA 
HETATM   23  C   UNL     1      -9.319  16.928  67.894  1.00  0.00    -0.238 C  
HETATM   24  O   UNL     1      -9.407  17.064  66.553  1.00  0.00    -0.247 OA 
ENDBRANCH  15  21
ENDBRANCH  14  15
ENDBRANCH  12  14
ENDBRANCH   9  10
ENDBRANCH   7   9
ENDBRANCH   6   7
ENDBRANCH   4   6
TORSDOF 7
ENDMDL
MODEL       54
REMARK 921   NORMALIZED FREE ENERGY PREDICTED BY IDOCK:   -4.87 KCAL/MOL
REMARK 922        TOTAL FREE ENERGY PREDICTED BY IDOCK:   -8.50 KCAL/MOL
REMARK 923 INTER-LIGAND FREE ENERGY PREDICTED BY IDOCK:   -7.58 KCAL/MOL
REMARK 924 INTRA-LIGAND FREE ENERGY PREDICTED BY IDOCK:   -0.92 KCAL/MOL
REMARK 927      BINDING AFFINITY PREDICTED BY RF-SCORE:    0.00 PKD
ROOT
HETATM    1  C   UNL     1      -8.723   8.721  68.444  1.00  0.00    -0.135 C  
HETATM    2  C   UNL     1      -9.315   8.779  67.032  1.00  0.00    -0.200 C  
HETATM    3  C   UNL     1     -10.532   7.866  66.941  1.00  0.00    -0.388 C  
HETATM    4  C   UNL     1      -9.676  10.211  66.670  1.00  0.00    -0.192 C  
HETATM    5  O   UNL     1      -9.488  11.170  67.410  1.00  0.00    -0.163 OA 
ENDROOT
BRANCH   4   6
HETATM    6  O   UNL     1     -10.165  10.310  65.397  1.00  0.00    -0.297 OA 
BRANCH   6   7
HETATM    7  C   UNL     1     -10.597  11.638  65.063  1.00  0.00    -0.289 C  
HETATM    8  C   UNL     1     -10.589  11.805  63.543  1.00  0.00    -0.499 C  
BRANCH   7   9
HETATM    9  O   UNL     1     -11.974  11.882  65.397  1.00  0.00    -0.362 OA 
BRANCH   9  10
HETATM   10  C   UNL     1     -12.287  13.162  65.679  1.00  0.00    -0.461 C  
HETATM   11  O   UNL     1     -13.053  13.865  65.047  1.00  0.00    -0.749 OA 
HETATM   12  N   UNL     1     -11.668  13.492  66.851  1.00  0.00    -0.362 N  
HETATM   13  H   UNL     1     -11.060  12.803  67.294  1.00  0.00     0.000 HD 
BRANCH  12  14
HETATM   14  C   UNL     1     -11.839  14.780  67.489  1.00  0.00    -0.301 C  
BRANCH  14  15
HETATM   15  C   UNL     1     -10.980  14.961  68.786  1.00  0.00    -0.259 C  
HETATM   16  C   UNL     1      -9.566  14.346  68.600  1.00  0.00    -0.208 C  
HETATM   17  C   UNL     1     -10.857  16.485  69.071  1.00  0.00    -0.329 C  
HETATM   18  C   UNL     1      -9.951  17.232  68.088  1.00  0.00    -0.303 C  
HETATM   19  C   UNL     1      -8.685  15.111  67.616  1.00  0.00    -0.177 C  
HETATM   20  C   UNL     1      -8.576  16.581  68.000  1.00  0.00    -0.184 C  
BRANCH  15  21
HETATM   21  C   UNL     1     -11.718  14.260  69.964  1.00  0.00    -0.364 C  
HETATM   22  O   UNL     1     -13.333  15.721  71.024  1.00  0.00    -0.580 OA 
HETATM   23  C   UNL     1     -12.240  15.175  71.057  1.00  0.00    -0.334 C  
HETATM   24  O   UNL     1     -11.387  15.334  72.092  1.00  0.00    -0.442 OA 
ENDBRANCH  15  21
ENDBRANCH  14  15
ENDBRANCH  12  14
ENDBRANCH   9  10
ENDBRANCH   7   9
ENDBRANCH   6   7
ENDBRANCH   4   6
TORSDOF 7
ENDMDL
MODEL       55
REMARK 921   NORMALIZED FREE ENERGY PREDICTED BY IDOCK:   -4.86 KCAL/MOL
REMARK 922        TOTAL FREE ENERGY PREDICTED BY IDOCK:   -8.48 KCAL/MOL
REMARK 923 INTER-LIGAND FREE ENERGY PREDICTED BY IDOCK:   -7.09 KCAL/MOL
REMARK 924 INTRA-LIGAND FREE ENERGY PREDICTED BY IDOCK:   -1.39 KCAL/MOL
REMARK 927      BINDING AFFINITY PREDICTED BY RF-SCORE:    0.00 PKD
ROOT
HETATM    1  C   UNL     1     -13.797  13.917  72.316  1.00  0.00    -0.669 C  
HETATM    2  C   UNL     1     -13.096  14.576  71.123  1.00  0.00    -0.424 C  
HETATM    3  C   UNL     1     -12.245  15.745  71.602  1.00  0.00    -0.523 C  
HETATM    4  C   UNL     1     -12.253  13.554  70.376  1.00  0.00    -0.356 C  
HETATM    5  O   UNL     1     -12.179  12.371  70.688  1.00  0.00    -0.368 OA 
ENDROOT
BRANCH   4   6
HETATM    6  O   UNL     1     -11.649  14.094  69.275  1.00  0.00    -0.264 OA 
BRANCH   6   7
HETATM    7  C   UNL     1     -11.670  13.220  68.137  1.00  0.00    -0.362 C  
HETATM    8  C   UNL     1     -11.841  14.051  66.865  1.00  0.00    -0.458 C  
BRANCH   7   9
HETATM    9  O   UNL     1     -10.413  12.559  67.911  1.00  0.00    -0.208 OA 
BRANCH   9  10
HETATM   10  C   UNL     1     -10.492  11.258  67.567  1.00  0.00    -0.201 C  
HETATM   11  O   UNL     1     -10.258  10.796  66.467  1.00  0.00    -0.220 OA 
HETATM   12  N   UNL     1     -10.785  10.548  68.697  1.00  0.00    -0.200 N  
HETATM   13  H   UNL     1     -10.943  11.056  69.567  1.00  0.00     0.000 HD 
BRANCH  12  14
HETATM   14  C   UNL     1     -10.879   9.103  68.708  1.00  0.00    -0.060 C  
BRANCH  14  15
HETATM   15  C   UNL     1     -10.129   8.432  69.907  1.00  0.00    -0.195 C  
HETATM   16  C   UNL     1     -10.468   9.150  71.241  1.00  0.00    -0.398 C  
HETATM   17  C   UNL     1     -10.579   6.944  69.982  1.00  0.00    -0.254 C  
HETATM   18  C   UNL     1     -12.016   6.752  70.472  1.00  0.00    -0.385 C  
HETATM   19  C   UNL     1     -11.908   8.940  71.707  1.00  0.00    -0.429 C  
HETATM   20  C   UNL     1     -12.246   7.458  71.802  1.00  0.00    -0.359 C  
BRANCH  15  21
HETATM   21  C   UNL     1      -8.598   8.508  69.632  1.00  0.00    -0.131 C  
HETATM   22  O   UNL     1      -7.383   9.443  71.506  1.00  0.00    -0.334 OA 
HETATM   23  C   UNL     1      -7.843   9.589  70.384  1.00  0.00    -0.172 C  
HETATM   24  O   UNL     1      -7.711  10.744  69.697  1.00  0.00    -0.120 OA 
ENDBRANCH  15  21
ENDBRANCH  14  15
ENDBRANCH  12  14
ENDBRANCH   9  10
ENDBRANCH   7   9
ENDBRANCH   6   7
ENDBRANCH   4   6
TORSDOF 7
ENDMDL
MODEL       56
REMARK 921   NORMALIZED FREE ENERGY PREDICTED BY IDOCK:   -4.86 KCAL/MOL
REMARK 922        TOTAL FREE ENERGY PREDICTED BY IDOCK:   -8.48 KCAL/MOL
REMARK 923 INTER-LIGAND FREE ENERGY PREDICTED BY IDOCK:   -7.94 KCAL/MOL
REMARK 924 INTRA-LIGAND FREE ENERGY PREDICTED BY IDOCK:   -0.54 KCAL/MOL
REMARK 927      BINDING AFFINITY PREDICTED BY RF-SCORE:    0.00 PKD
ROOT
HETATM    1  C   UNL     1     -14.225  14.568  71.901  1.00  0.00    -0.622 C  
HETATM    2  C   UNL     1     -13.125  15.616  71.708  1.00  0.00    -0.546 C  
HETATM    3  C   UNL     1     -12.253  15.691  72.955  1.00  0.00    -0.563 C  
HETATM    4  C   UNL     1     -12.293  15.289  70.477  1.00  0.00    -0.387 C  
HETATM    5  O   UNL     1     -12.507  14.329  69.745  1.00  0.00    -0.323 OA 
ENDROOT
BRANCH   4   6
HETATM    6  O   UNL     1     -11.330  16.229  70.244  1.00  0.00    -0.355 OA 
BRANCH   6   7
HETATM    7  C   UNL     1     -10.476  15.897  69.139  1.00  0.00    -0.235 C  
HETATM    8  C   UNL     1      -9.558  17.081  68.835  1.00  0.00    -0.248 C  
BRANCH   7   9
HETATM    9  O   UNL     1      -9.540  14.849  69.446  1.00  0.00    -0.167 OA 
BRANCH   9  10
HETATM   10  C   UNL     1      -9.253  14.009  68.432  1.00  0.00    -0.196 C  
HETATM   11  O   UNL     1      -8.209  13.404  68.281  1.00  0.00    -0.150 OA 
HETATM   12  N   UNL     1     -10.377  13.886  67.664  1.00  0.00    -0.240 N  
HETATM   13  H   UNL     1     -11.199  14.439  67.907  1.00  0.00     0.000 HD 
BRANCH  12  14
HETATM   14  C   UNL     1     -10.447  13.004  66.519  1.00  0.00    -0.277 C  
BRANCH  14  15
HETATM   15  C   UNL     1     -10.702  13.747  65.164  1.00  0.00    -0.365 C  
HETATM   16  C   UNL     1     -10.124  12.937  63.973  1.00  0.00    -0.142 C  
HETATM   17  C   UNL     1     -12.239  13.914  64.990  1.00  0.00    -0.444 C  
HETATM   18  C   UNL     1     -12.976  12.609  64.679  1.00  0.00    -0.225 C  
HETATM   19  C   UNL     1     -10.879  11.641  63.684  1.00  0.00    -0.503 C  
HETATM   20  C   UNL     1     -12.365  11.902  63.475  1.00  0.00    -0.603 C  
BRANCH  15  21
HETATM   21  C   UNL     1     -10.024  15.147  65.239  1.00  0.00    -0.325 C  
HETATM   22  O   UNL     1     -11.383  16.755  66.435  1.00  0.00     0.383 OA 
HETATM   23  C   UNL     1     -10.962  16.332  65.369  1.00  0.00    -0.197 C  
HETATM   24  O   UNL     1     -11.296  16.899  64.189  1.00  0.00    -1.208 OA 
ENDBRANCH  15  21
ENDBRANCH  14  15
ENDBRANCH  12  14
ENDBRANCH   9  10
ENDBRANCH   7   9
ENDBRANCH   6   7
ENDBRANCH   4   6
TORSDOF 7
ENDMDL
MODEL       57
REMARK 921   NORMALIZED FREE ENERGY PREDICTED BY IDOCK:   -4.81 KCAL/MOL
REMARK 922        TOTAL FREE ENERGY PREDICTED BY IDOCK:   -8.41 KCAL/MOL
REMARK 923 INTER-LIGAND FREE ENERGY PREDICTED BY IDOCK:   -7.05 KCAL/MOL
REMARK 924 INTRA-LIGAND FREE ENERGY PREDICTED BY IDOCK:   -1.36 KCAL/MOL
REMARK 927      BINDING AFFINITY PREDICTED BY RF-SCORE:    0.00 PKD
ROOT
HETATM    1  C   UNL     1      -9.980  11.487  63.058  1.00  0.00    -0.352 C  
HETATM    2  C   UNL     1     -10.941  12.064  64.102  1.00  0.00    -0.418 C  
HETATM    3  C   UNL     1     -12.353  12.121  63.533  1.00  0.00    -0.682 C  
HETATM    4  C   UNL     1     -10.897  11.235  65.376  1.00  0.00    -0.188 C  
HETATM    5  O   UNL     1     -10.169  10.261  65.531  1.00  0.00    -0.284 OA 
ENDROOT
BRANCH   4   6
HETATM    6  O   UNL     1     -11.707  11.747  66.350  1.00  0.00    -0.511 OA 
BRANCH   6   7
HETATM    7  C   UNL     1     -11.063  12.751  67.148  1.00  0.00    -0.277 C  
HETATM    8  C   UNL     1     -11.957  13.989  67.221  1.00  0.00    -0.448 C  
BRANCH   7   9
HETATM    9  O   UNL     1     -10.935  12.376  68.530  1.00  0.00    -0.222 OA 
BRANCH   9  10
HETATM   10  C   UNL     1     -11.445  11.172  68.857  1.00  0.00    -0.295 C  
HETATM   11  O   UNL     1     -12.598  10.947  69.172  1.00  0.00    -0.361 OA 
HETATM   12  N   UNL     1     -10.461  10.241  68.674  1.00  0.00    -0.182 N  
HETATM   13  H   UNL     1      -9.534  10.559  68.390  1.00  0.00     0.000 HD 
BRANCH  12  14
HETATM   14  C   UNL     1     -10.681   8.824  68.869  1.00  0.00    -0.087 C  
BRANCH  14  15
HETATM   15  C   UNL     1      -9.899   8.226  70.087  1.00  0.00    -0.184 C  
HETATM   16  C   UNL     1     -10.236   8.999  71.391  1.00  0.00    -0.399 C  
HETATM   17  C   UNL     1     -10.315   6.735  70.239  1.00  0.00    -0.224 C  
HETATM   18  C   UNL     1     -11.741   6.535  70.759  1.00  0.00    -0.427 C  
HETATM   19  C   UNL     1     -11.663   8.782  71.887  1.00  0.00    -0.429 C  
HETATM   20  C   UNL     1     -11.967   7.298  72.058  1.00  0.00    -0.333 C  
BRANCH  15  21
HETATM   21  C   UNL     1      -8.375   8.322  69.786  1.00  0.00    -0.123 C  
HETATM   22  O   UNL     1      -7.182   9.543  71.504  1.00  0.00    -0.320 OA 
HETATM   23  C   UNL     1      -7.656   9.521  70.378  1.00  0.00    -0.159 C  
HETATM   24  O   UNL     1      -7.573  10.578  69.542  1.00  0.00    -0.138 OA 
ENDBRANCH  15  21
ENDBRANCH  14  15
ENDBRANCH  12  14
ENDBRANCH   9  10
ENDBRANCH   7   9
ENDBRANCH   6   7
ENDBRANCH   4   6
TORSDOF 7
ENDMDL
MODEL       58
REMARK 921   NORMALIZED FREE ENERGY PREDICTED BY IDOCK:   -4.81 KCAL/MOL
REMARK 922        TOTAL FREE ENERGY PREDICTED BY IDOCK:   -8.40 KCAL/MOL
REMARK 923 INTER-LIGAND FREE ENERGY PREDICTED BY IDOCK:   -7.29 KCAL/MOL
REMARK 924 INTRA-LIGAND FREE ENERGY PREDICTED BY IDOCK:   -1.12 KCAL/MOL
REMARK 927      BINDING AFFINITY PREDICTED BY RF-SCORE:    0.00 PKD
ROOT
HETATM    1  C   UNL     1     -13.128  11.052  71.823  1.00  0.00    -0.554 C  
HETATM    2  C   UNL     1     -12.870   9.585  72.182  1.00  0.00    -0.471 C  
HETATM    3  C   UNL     1     -14.004   8.714  71.656  1.00  0.00    -0.459 C  
HETATM    4  C   UNL     1     -11.529   9.133  71.625  1.00  0.00    -0.381 C  
HETATM    5  O   UNL     1     -10.768   9.864  71.001  1.00  0.00    -0.309 OA 
ENDROOT
BRANCH   4   6
HETATM    6  O   UNL     1     -11.241   7.842  71.965  1.00  0.00    -0.252 OA 
BRANCH   6   7
HETATM    7  C   UNL     1     -10.593   7.113  70.911  1.00  0.00    -0.220 C  
HETATM    8  C   UNL     1     -10.024   5.810  71.473  1.00  0.00    -0.226 C  
BRANCH   7   9
HETATM    9  O   UNL     1     -11.509   6.646  69.906  1.00  0.00    -0.358 OA 
BRANCH   9  10
HETATM   10  C   UNL     1     -11.055   6.695  68.637  1.00  0.00    -0.213 C  
HETATM   11  O   UNL     1     -10.882   5.739  67.904  1.00  0.00    -0.248 OA 
HETATM   12  N   UNL     1     -10.920   8.011  68.295  1.00  0.00    -0.428 N  
HETATM   13  H   UNL     1     -11.113   8.722  69.001  1.00  0.00     0.000 HD 
BRANCH  12  14
HETATM   14  C   UNL     1     -10.513   8.436  66.973  1.00  0.00    -0.305 C  
BRANCH  14  15
HETATM   15  C   UNL     1     -10.053   9.931  66.905  1.00  0.00    -0.285 C  
HETATM   16  C   UNL     1      -8.686  10.120  67.616  1.00  0.00    -0.121 C  
HETATM   17  C   UNL     1      -9.925  10.326  65.405  1.00  0.00    -0.371 C  
HETATM   18  C   UNL     1      -8.732   9.685  64.692  1.00  0.00    -0.227 C  
HETATM   19  C   UNL     1      -7.514   9.471  66.882  1.00  0.00    -0.094 C  
HETATM   20  C   UNL     1      -7.432   9.954  65.439  1.00  0.00    -0.132 C  
BRANCH  15  21
HETATM   21  C   UNL     1     -11.139  10.810  67.593  1.00  0.00    -0.384 C  
HETATM   22  O   UNL     1     -12.280  12.249  66.013  1.00  0.00    -0.646 OA 
HETATM   23  C   UNL     1     -11.457  12.127  66.909  1.00  0.00    -0.351 C  
HETATM   24  O   UNL     1     -10.750  13.176  67.383  1.00  0.00    -0.249 OA 
ENDBRANCH  15  21
ENDBRANCH  14  15
ENDBRANCH  12  14
ENDBRANCH   9  10
ENDBRANCH   7   9
ENDBRANCH   6   7
ENDBRANCH   4   6
TORSDOF 7
ENDMDL
MODEL       59
REMARK 921   NORMALIZED FREE ENERGY PREDICTED BY IDOCK:   -4.80 KCAL/MOL
REMARK 922        TOTAL FREE ENERGY PREDICTED BY IDOCK:   -8.40 KCAL/MOL
REMARK 923 INTER-LIGAND FREE ENERGY PREDICTED BY IDOCK:   -7.94 KCAL/MOL
REMARK 924 INTRA-LIGAND FREE ENERGY PREDICTED BY IDOCK:   -0.45 KCAL/MOL
REMARK 927      BINDING AFFINITY PREDICTED BY RF-SCORE:    0.00 PKD
ROOT
HETATM    1  C   UNL     1     -10.129   8.953  66.399  1.00  0.00    -0.333 C  
HETATM    2  C   UNL     1      -9.764  10.372  65.951  1.00  0.00    -0.272 C  
HETATM    3  C   UNL     1      -9.797  10.460  64.431  1.00  0.00    -0.395 C  
HETATM    4  C   UNL     1     -10.709  11.383  66.580  1.00  0.00    -0.277 C  
HETATM    5  O   UNL     1     -11.613  11.085  67.352  1.00  0.00    -0.525 OA 
ENDROOT
BRANCH   4   6
HETATM    6  O   UNL     1     -10.386  12.667  66.241  1.00  0.00    -0.245 OA 
BRANCH   6   7
HETATM    7  C   UNL     1     -11.535  13.486  65.978  1.00  0.00    -0.325 C  
HETATM    8  C   UNL     1     -12.494  12.732  65.057  1.00  0.00    -0.572 C  
BRANCH   7   9
HETATM    9  O   UNL     1     -12.341  13.716  67.147  1.00  0.00    -0.336 OA 
BRANCH   9  10
HETATM   10  C   UNL     1     -11.833  14.585  68.044  1.00  0.00    -0.315 C  
HETATM   11  O   UNL     1     -11.806  14.431  69.250  1.00  0.00    -0.289 OA 
HETATM   12  N   UNL     1     -11.271  15.617  67.348  1.00  0.00    -0.271 N  
HETATM   13  H   UNL     1     -11.348  15.621  66.330  1.00  0.00     0.000 HD 
BRANCH  12  14
HETATM   14  C   UNL     1     -10.570  16.706  67.996  1.00  0.00    -0.338 C  
BRANCH  14  15
HETATM   15  C   UNL     1      -9.466  17.365  67.102  1.00  0.00    -0.257 C  
HETATM   16  C   UNL     1     -10.092  18.391  66.119  1.00  0.00    -0.376 C  
HETATM   17  C   UNL     1      -8.456  18.086  68.042  1.00  0.00    -0.263 C  
HETATM   18  C   UNL     1      -9.011  19.354  68.696  1.00  0.00    -0.419 C  
HETATM   19  C   UNL     1     -10.636  19.646  66.800  1.00  0.00    -0.602 C  
HETATM   20  C   UNL     1      -9.568  20.316  67.655  1.00  0.00    -0.530 C  
BRANCH  15  21
HETATM   21  C   UNL     1      -8.739  16.239  66.310  1.00  0.00    -0.370 C  
HETATM   22  O   UNL     1      -7.997  14.443  67.754  1.00  0.00    -0.131 OA 
HETATM   23  C   UNL     1      -7.720  15.431  67.091  1.00  0.00    -0.211 C  
HETATM   24  O   UNL     1      -6.455  15.895  66.986  1.00  0.00    -0.291 OA 
ENDBRANCH  15  21
ENDBRANCH  14  15
ENDBRANCH  12  14
ENDBRANCH   9  10
ENDBRANCH   7   9
ENDBRANCH   6   7
ENDBRANCH   4   6
TORSDOF 7
ENDMDL
MODEL       60
REMARK 921   NORMALIZED FREE ENERGY PREDICTED BY IDOCK:   -4.79 KCAL/MOL
REMARK 922        TOTAL FREE ENERGY PREDICTED BY IDOCK:   -8.38 KCAL/MOL
REMARK 923 INTER-LIGAND FREE ENERGY PREDICTED BY IDOCK:   -7.26 KCAL/MOL
REMARK 924 INTRA-LIGAND FREE ENERGY PREDICTED BY IDOCK:   -1.12 KCAL/MOL
REMARK 927      BINDING AFFINITY PREDICTED BY RF-SCORE:    0.00 PKD
ROOT
HETATM    1  C   UNL     1     -13.117  11.288  71.775  1.00  0.00    -0.527 C  
HETATM    2  C   UNL     1     -12.046  10.280  71.347  1.00  0.00    -0.457 C  
HETATM    3  C   UNL     1     -12.407   8.891  71.857  1.00  0.00    -0.445 C  
HETATM    4  C   UNL     1     -11.891  10.285  69.834  1.00  0.00    -0.193 C  
HETATM    5  O   UNL     1     -12.528  11.018  69.086  1.00  0.00    -0.432 OA 
ENDROOT
BRANCH   4   6
HETATM    6  O   UNL     1     -10.910   9.431  69.416  1.00  0.00    -0.228 OA 
BRANCH   6   7
HETATM    7  C   UNL     1      -9.634  10.070  69.267  1.00  0.00    -0.216 C  
HETATM    8  C   UNL     1      -8.639   9.450  70.248  1.00  0.00    -0.249 C  
BRANCH   7   9
HETATM    9  O   UNL     1      -9.019   9.810  67.993  1.00  0.00    -0.119 OA 
BRANCH   9  10
HETATM   10  C   UNL     1      -9.428  10.595  66.977  1.00  0.00    -0.164 C  
HETATM   11  O   UNL     1     -10.045  10.227  65.995  1.00  0.00    -0.235 OA 
HETATM   12  N   UNL     1      -9.111  11.885  67.296  1.00  0.00    -0.173 N  
HETATM   13  H   UNL     1      -8.604  12.064  68.163  1.00  0.00     0.000 HD 
BRANCH  12  14
HETATM   14  C   UNL     1      -9.467  13.008  66.454  1.00  0.00    -0.224 C  
BRANCH  14  15
HETATM   15  C   UNL     1     -10.708  13.813  66.967  1.00  0.00    -0.283 C  
HETATM   16  C   UNL     1     -10.680  15.269  66.432  1.00  0.00    -0.318 C  
HETATM   17  C   UNL     1     -11.991  13.091  66.461  1.00  0.00    -0.457 C  
HETATM   18  C   UNL     1     -12.231  13.231  64.956  1.00  0.00    -0.477 C  
HETATM   19  C   UNL     1     -10.924  15.379  64.928  1.00  0.00    -0.453 C  
HETATM   20  C   UNL     1     -12.225  14.693  64.529  1.00  0.00    -0.473 C  
BRANCH  15  21
HETATM   21  C   UNL     1     -10.681  13.814  68.524  1.00  0.00    -0.274 C  
HETATM   22  O   UNL     1     -11.557  15.874  69.448  1.00  0.00    -0.337 OA 
HETATM   23  C   UNL     1     -10.589  15.177  69.184  1.00  0.00    -0.256 C  
HETATM   24  O   UNL     1      -9.326  15.563  69.470  1.00  0.00    -0.270 OA 
ENDBRANCH  15  21
ENDBRANCH  14  15
ENDBRANCH  12  14
ENDBRANCH   9  10
ENDBRANCH   7   9
ENDBRANCH   6   7
ENDBRANCH   4   6
TORSDOF 7
ENDMDL
MODEL       61
REMARK 921   NORMALIZED FREE ENERGY PREDICTED BY IDOCK:   -4.79 KCAL/MOL
REMARK 922        TOTAL FREE ENERGY PREDICTED BY IDOCK:   -8.38 KCAL/MOL
REMARK 923 INTER-LIGAND FREE ENERGY PREDICTED BY IDOCK:   -7.31 KCAL/MOL
REMARK 924 INTRA-LIGAND FREE ENERGY PREDICTED BY IDOCK:   -1.07 KCAL/MOL
REMARK 927      BINDING AFFINITY PREDICTED BY RF-SCORE:    0.00 PKD
ROOT
HETATM    1  C   UNL     1     -12.640  12.101  64.141  1.00  0.00    -0.466 C  
HETATM    2  C   UNL     1     -11.316  12.304  64.886  1.00  0.00    -0.373 C  
HETATM    3  C   UNL     1     -10.196  12.574  63.890  1.00  0.00    -0.386 C  
HETATM    4  C   UNL     1     -11.444  13.441  65.888  1.00  0.00    -0.321 C  
HETATM    5  O   UNL     1     -12.477  14.075  66.074  1.00  0.00    -0.468 OA 
ENDROOT
BRANCH   4   6
HETATM    6  O   UNL     1     -10.296  13.622  66.607  1.00  0.00    -0.268 OA 
BRANCH   6   7
HETATM    7  C   UNL     1     -10.021  12.541  67.511  1.00  0.00    -0.201 C  
HETATM    8  C   UNL     1      -8.592  12.671  68.036  1.00  0.00    -0.189 C  
BRANCH   7   9
HETATM    9  O   UNL     1     -10.803  12.603  68.716  1.00  0.00    -0.237 OA 
BRANCH   9  10
HETATM   10  C   UNL     1     -11.430  11.461  69.064  1.00  0.00    -0.300 C  
HETATM   11  O   UNL     1     -12.219  10.843  68.376  1.00  0.00    -0.540 OA 
HETATM   12  N   UNL     1     -10.944  11.076  70.282  1.00  0.00    -0.441 N  
HETATM   13  H   UNL     1     -10.268  11.678  70.752  1.00  0.00     0.000 HD 
BRANCH  12  14
HETATM   14  C   UNL     1     -11.351   9.849  70.932  1.00  0.00    -0.370 C  
BRANCH  14  15
HETATM   15  C   UNL     1     -10.271   8.717  70.874  1.00  0.00    -0.261 C  
HETATM   16  C   UNL     1      -9.875   8.258  72.303  1.00  0.00    -0.364 C  
HETATM   17  C   UNL     1     -10.874   7.518  70.086  1.00  0.00    -0.259 C  
HETATM   18  C   UNL     1     -11.963   6.758  70.846  1.00  0.00    -0.437 C  
HETATM   19  C   UNL     1     -10.980   7.502  73.037  1.00  0.00    -0.443 C  
HETATM   20  C   UNL     1     -11.474   6.316  72.219  1.00  0.00    -0.351 C  
BRANCH  15  21
HETATM   21  C   UNL     1      -9.023   9.268  70.123  1.00  0.00    -0.239 C  
HETATM   22  O   UNL     1      -9.204   8.986  67.725  1.00  0.00    -0.139 OA 
HETATM   23  C   UNL     1      -8.715   8.623  68.785  1.00  0.00    -0.135 C  
HETATM   24  O   UNL     1      -7.835   7.601  68.858  1.00  0.00    -0.117 OA 
ENDBRANCH  15  21
ENDBRANCH  14  15
ENDBRANCH  12  14
ENDBRANCH   9  10
ENDBRANCH   7   9
ENDBRANCH   6   7
ENDBRANCH   4   6
TORSDOF 7
ENDMDL
MODEL       62
REMARK 921   NORMALIZED FREE ENERGY PREDICTED BY IDOCK:   -4.78 KCAL/MOL
REMARK 922        TOTAL FREE ENERGY PREDICTED BY IDOCK:   -8.37 KCAL/MOL
REMARK 923 INTER-LIGAND FREE ENERGY PREDICTED BY IDOCK:   -7.42 KCAL/MOL
REMARK 924 INTRA-LIGAND FREE ENERGY PREDICTED BY IDOCK:   -0.95 KCAL/MOL
REMARK 927      BINDING AFFINITY PREDICTED BY RF-SCORE:    0.00 PKD
ROOT
HETATM    1  C   UNL     1     -13.011  10.530  71.455  1.00  0.00    -0.565 C  
HETATM    2  C   UNL     1     -11.694   9.972  70.907  1.00  0.00    -0.462 C  
HETATM    3  C   UNL     1     -11.623   8.471  71.154  1.00  0.00    -0.325 C  
HETATM    4  C   UNL     1     -11.562  10.290  69.425  1.00  0.00    -0.146 C  
HETATM    5  O   UNL     1     -12.394  10.925  68.787  1.00  0.00    -0.495 OA 
ENDROOT
BRANCH   4   6
HETATM    6  O   UNL     1     -10.376   9.849  68.910  1.00  0.00    -0.187 OA 
BRANCH   6   7
HETATM    7  C   UNL     1      -9.250  10.623  69.347  1.00  0.00    -0.051 C  
HETATM    8  C   UNL     1      -8.109   9.682  69.734  1.00  0.00    -0.160 C  
BRANCH   7   9
HETATM    9  O   UNL     1      -8.664  11.408  68.295  1.00  0.00    -0.147 OA 
BRANCH   9  10
HETATM   10  C   UNL     1      -9.265  12.589  68.044  1.00  0.00    -0.204 C  
HETATM   11  O   UNL     1      -8.891  13.677  68.438  1.00  0.00    -0.179 OA 
HETATM   12  N   UNL     1     -10.306  12.351  67.192  1.00  0.00    -0.219 N  
HETATM   13  H   UNL     1     -10.507  11.388  66.922  1.00  0.00     0.000 HD 
BRANCH  12  14
HETATM   14  C   UNL     1     -11.135  13.410  66.658  1.00  0.00    -0.295 C  
BRANCH  14  15
HETATM   15  C   UNL     1     -10.745  13.845  65.205  1.00  0.00    -0.371 C  
HETATM   16  C   UNL     1      -9.966  12.713  64.482  1.00  0.00    -0.186 C  
HETATM   17  C   UNL     1     -12.057  14.158  64.429  1.00  0.00    -0.486 C  
HETATM   18  C   UNL     1     -12.887  12.920  64.084  1.00  0.00    -0.139 C  
HETATM   19  C   UNL     1     -10.820  11.491  64.149  1.00  0.00    -0.435 C  
HETATM   20  C   UNL     1     -12.053  11.882  63.345  1.00  0.00    -0.539 C  
BRANCH  15  21
HETATM   21  C   UNL     1      -9.865  15.126  65.296  1.00  0.00    -0.249 C  
HETATM   22  O   UNL     1     -10.772  16.744  66.852  1.00  0.00    -0.257 OA 
HETATM   23  C   UNL     1     -10.588  16.399  65.695  1.00  0.00    -0.323 C  
HETATM   24  O   UNL     1     -11.012  17.140  64.648  1.00  0.00    -1.005 OA 
ENDBRANCH  15  21
ENDBRANCH  14  15
ENDBRANCH  12  14
ENDBRANCH   9  10
ENDBRANCH   7   9
ENDBRANCH   6   7
ENDBRANCH   4   6
TORSDOF 7
ENDMDL
MODEL       63
REMARK 921   NORMALIZED FREE ENERGY PREDICTED BY IDOCK:   -4.78 KCAL/MOL
REMARK 922        TOTAL FREE ENERGY PREDICTED BY IDOCK:   -8.37 KCAL/MOL
REMARK 923 INTER-LIGAND FREE ENERGY PREDICTED BY IDOCK:   -6.90 KCAL/MOL
REMARK 924 INTRA-LIGAND FREE ENERGY PREDICTED BY IDOCK:   -1.47 KCAL/MOL
REMARK 927      BINDING AFFINITY PREDICTED BY RF-SCORE:    0.00 PKD
ROOT
HETATM    1  C   UNL     1     -12.366  14.530  64.331  1.00  0.00    -0.437 C  
HETATM    2  C   UNL     1     -12.009  13.081  64.675  1.00  0.00    -0.445 C  
HETATM    3  C   UNL     1     -12.431  12.158  63.538  1.00  0.00    -0.666 C  
HETATM    4  C   UNL     1     -10.520  12.957  64.957  1.00  0.00    -0.318 C  
HETATM    5  O   UNL     1      -9.740  13.902  64.931  1.00  0.00    -0.094 OA 
ENDROOT
BRANCH   4   6
HETATM    6  O   UNL     1     -10.170  11.685  65.315  1.00  0.00    -0.249 OA 
BRANCH   6   7
HETATM    7  C   UNL     1     -10.105  11.499  66.737  1.00  0.00    -0.215 C  
HETATM    8  C   UNL     1     -10.574  10.086  67.084  1.00  0.00    -0.296 C  
BRANCH   7   9
HETATM    9  O   UNL     1      -8.760  11.514  67.245  1.00  0.00    -0.143 OA 
BRANCH   9  10
HETATM   10  C   UNL     1      -8.434  12.582  68.001  1.00  0.00    -0.173 C  
HETATM   11  O   UNL     1      -7.362  12.772  68.543  1.00  0.00    -0.107 OA 
HETATM   12  N   UNL     1      -9.488  13.452  67.965  1.00  0.00    -0.212 N  
HETATM   13  H   UNL     1     -10.330  13.180  67.458  1.00  0.00     0.000 HD 
BRANCH  12  14
HETATM   14  C   UNL     1      -9.456  14.743  68.618  1.00  0.00    -0.213 C  
BRANCH  14  15
HETATM   15  C   UNL     1     -10.753  15.592  68.398  1.00  0.00    -0.271 C  
HETATM   16  C   UNL     1     -12.003  14.676  68.303  1.00  0.00    -0.282 C  
HETATM   17  C   UNL     1     -10.903  16.561  69.606  1.00  0.00    -0.322 C  
HETATM   18  C   UNL     1     -11.298  15.870  70.913  1.00  0.00    -0.428 C  
HETATM   19  C   UNL     1     -12.375  14.001  69.622  1.00  0.00    -0.309 C  
HETATM   20  C   UNL     1     -12.553  15.025  70.735  1.00  0.00    -0.429 C  
BRANCH  15  21
HETATM   21  C   UNL     1     -10.588  16.409  67.083  1.00  0.00    -0.276 C  
HETATM   22  O   UNL     1      -8.761  17.994  67.219  1.00  0.00    -0.237 OA 
HETATM   23  C   UNL     1      -9.965  17.785  67.231  1.00  0.00    -0.324 C  
HETATM   24  O   UNL     1     -10.866  18.782  67.372  1.00  0.00    -0.449 OA 
ENDBRANCH  15  21
ENDBRANCH  14  15
ENDBRANCH  12  14
ENDBRANCH   9  10
ENDBRANCH   7   9
ENDBRANCH   6   7
ENDBRANCH   4   6
TORSDOF 7
ENDMDL
MODEL       64
REMARK 921   NORMALIZED FREE ENERGY PREDICTED BY IDOCK:   -4.76 KCAL/MOL
REMARK 922        TOTAL FREE ENERGY PREDICTED BY IDOCK:   -8.33 KCAL/MOL
REMARK 923 INTER-LIGAND FREE ENERGY PREDICTED BY IDOCK:   -8.04 KCAL/MOL
REMARK 924 INTRA-LIGAND FREE ENERGY PREDICTED BY IDOCK:   -0.29 KCAL/MOL
REMARK 927      BINDING AFFINITY PREDICTED BY RF-SCORE:    0.00 PKD
ROOT
HETATM    1  C   UNL     1     -11.785   6.539  70.794  1.00  0.00    -0.427 C  
HETATM    2  C   UNL     1     -11.205   7.937  71.032  1.00  0.00    -0.288 C  
HETATM    3  C   UNL     1     -10.416   8.386  69.808  1.00  0.00    -0.220 C  
HETATM    4  C   UNL     1     -12.317   8.921  71.359  1.00  0.00    -0.313 C  
HETATM    5  O   UNL     1     -13.500   8.611  71.440  1.00  0.00    -0.311 OA 
ENDROOT
BRANCH   4   6
HETATM    6  O   UNL     1     -11.833  10.171  71.624  1.00  0.00    -0.333 OA 
BRANCH   6   7
HETATM    7  C   UNL     1     -12.573  11.212  70.968  1.00  0.00    -0.403 C  
HETATM    8  C   UNL     1     -13.134  12.172  72.016  1.00  0.00    -0.462 C  
BRANCH   7   9
HETATM    9  O   UNL     1     -11.745  12.073  70.168  1.00  0.00    -0.308 OA 
BRANCH   9  10
HETATM   10  C   UNL     1     -11.992  12.053  68.843  1.00  0.00    -0.246 C  
HETATM   11  O   UNL     1     -12.341  11.084  68.197  1.00  0.00    -0.402 OA 
HETATM   12  N   UNL     1     -11.875  13.334  68.381  1.00  0.00    -0.354 N  
HETATM   13  H   UNL     1     -11.590  14.065  69.032  1.00  0.00     0.000 HD 
BRANCH  12  14
HETATM   14  C   UNL     1     -12.141  13.694  67.004  1.00  0.00    -0.380 C  
BRANCH  14  15
HETATM   15  C   UNL     1     -10.927  13.454  66.045  1.00  0.00    -0.281 C  
HETATM   16  C   UNL     1     -10.926  14.488  64.886  1.00  0.00    -0.421 C  
HETATM   17  C   UNL     1      -9.620  13.598  66.878  1.00  0.00    -0.262 C  
HETATM   18  C   UNL     1      -9.303  15.036  67.295  1.00  0.00    -0.209 C  
HETATM   19  C   UNL     1     -10.606  15.913  65.331  1.00  0.00    -0.439 C  
HETATM   20  C   UNL     1      -9.288  15.971  66.092  1.00  0.00    -0.377 C  
BRANCH  15  21
HETATM   21  C   UNL     1     -11.033  12.009  65.473  1.00  0.00    -0.345 C  
HETATM   22  O   UNL     1     -10.461  11.917  63.122  1.00  0.00    -0.389 OA 
HETATM   23  C   UNL     1     -11.323  11.904  63.988  1.00  0.00    -0.397 C  
HETATM   24  O   UNL     1     -12.636  11.785  63.693  1.00  0.00    -0.470 OA 
ENDBRANCH  15  21
ENDBRANCH  14  15
ENDBRANCH  12  14
ENDBRANCH   9  10
ENDBRANCH   7   9
ENDBRANCH   6   7
ENDBRANCH   4   6
TORSDOF 7
ENDMDL
MODEL       65
REMARK 921   NORMALIZED FREE ENERGY PREDICTED BY IDOCK:   -4.75 KCAL/MOL
REMARK 922        TOTAL FREE ENERGY PREDICTED BY IDOCK:   -8.32 KCAL/MOL
REMARK 923 INTER-LIGAND FREE ENERGY PREDICTED BY IDOCK:   -7.22 KCAL/MOL
REMARK 924 INTRA-LIGAND FREE ENERGY PREDICTED BY IDOCK:   -1.10 KCAL/MOL
REMARK 927      BINDING AFFINITY PREDICTED BY RF-SCORE:    0.00 PKD
ROOT
HETATM    1  C   UNL     1      -7.660   9.716  63.694  1.00  0.00    -0.124 C  
HETATM    2  C   UNL     1      -9.148   9.812  64.044  1.00  0.00    -0.280 C  
HETATM    3  C   UNL     1      -9.319   9.947  65.552  1.00  0.00    -0.280 C  
HETATM    4  C   UNL     1      -9.788  10.981  63.313  1.00  0.00    -0.368 C  
HETATM    5  O   UNL     1      -9.184  11.715  62.539  1.00  0.00    -0.302 OA 
ENDROOT
BRANCH   4   6
HETATM    6  O   UNL     1     -11.128  11.071  63.563  1.00  0.00    -0.193 OA 
BRANCH   6   7
HETATM    7  C   UNL     1     -11.514  12.340  64.113  1.00  0.00    -0.383 C  
HETATM    8  C   UNL     1     -12.405  13.075  63.111  1.00  0.00    -0.235 C  
BRANCH   7   9
HETATM    9  O   UNL     1     -12.371  12.219  65.261  1.00  0.00    -0.555 OA 
BRANCH   9  10
HETATM   10  C   UNL     1     -11.808  12.535  66.445  1.00  0.00    -0.381 C  
HETATM   11  O   UNL     1     -12.134  12.095  67.530  1.00  0.00    -0.534 OA 
HETATM   12  N   UNL     1     -10.746  13.358  66.192  1.00  0.00    -0.282 N  
HETATM   13  H   UNL     1     -10.567  13.643  65.229  1.00  0.00     0.000 HD 
BRANCH  12  14
HETATM   14  C   UNL     1      -9.868  13.841  67.235  1.00  0.00    -0.241 C  
BRANCH  14  15
HETATM   15  C   UNL     1      -9.884  15.398  67.401  1.00  0.00    -0.216 C  
HETATM   16  C   UNL     1     -11.312  15.902  67.745  1.00  0.00    -0.199 C  
HETATM   17  C   UNL     1      -8.905  15.768  68.553  1.00  0.00    -0.193 C  
HETATM   18  C   UNL     1      -9.409  15.382  69.946  1.00  0.00    -0.003 C  
HETATM   19  C   UNL     1     -11.788  15.503  69.140  1.00  0.00    -0.373 C  
HETATM   20  C   UNL     1     -10.798  15.950  70.209  1.00  0.00    -0.349 C  
BRANCH  15  21
HETATM   21  C   UNL     1      -9.397  16.039  66.068  1.00  0.00    -0.380 C  
HETATM   22  O   UNL     1     -10.644  18.038  65.509  1.00  0.00    -0.639 OA 
HETATM   23  C   UNL     1     -10.428  16.852  65.308  1.00  0.00    -0.081 C  
HETATM   24  O   UNL     1     -11.096  16.149  64.367  1.00  0.00    -0.628 OA 
ENDBRANCH  15  21
ENDBRANCH  14  15
ENDBRANCH  12  14
ENDBRANCH   9  10
ENDBRANCH   7   9
ENDBRANCH   6   7
ENDBRANCH   4   6
TORSDOF 7
ENDMDL
MODEL       66
REMARK 921   NORMALIZED FREE ENERGY PREDICTED BY IDOCK:   -4.74 KCAL/MOL
REMARK 922        TOTAL FREE ENERGY PREDICTED BY IDOCK:   -8.31 KCAL/MOL
REMARK 923 INTER-LIGAND FREE ENERGY PREDICTED BY IDOCK:   -7.20 KCAL/MOL
REMARK 924 INTRA-LIGAND FREE ENERGY PREDICTED BY IDOCK:   -1.10 KCAL/MOL
REMARK 927      BINDING AFFINITY PREDICTED BY RF-SCORE:    0.00 PKD
ROOT
HETATM    1  C   UNL     1     -10.461   9.524  71.271  1.00  0.00    -0.320 C  
HETATM    2  C   UNL     1     -11.549   9.862  70.246  1.00  0.00    -0.319 C  
HETATM    3  C   UNL     1     -12.858  10.172  70.960  1.00  0.00    -0.474 C  
HETATM    4  C   UNL     1     -11.109  11.029  69.376  1.00  0.00    -0.262 C  
HETATM    5  O   UNL     1     -10.024  11.589  69.482  1.00  0.00     0.194 OA 
ENDROOT
BRANCH   4   6
HETATM    6  O   UNL     1     -12.035  11.330  68.416  1.00  0.00    -0.555 OA 
BRANCH   6   7
HETATM    7  C   UNL     1     -11.446  11.637  67.144  1.00  0.00    -0.271 C  
HETATM    8  C   UNL     1     -10.942  10.348  66.494  1.00  0.00    -0.016 C  
BRANCH   7   9
HETATM    9  O   UNL     1     -12.401  12.118  66.183  1.00  0.00    -0.536 OA 
BRANCH   9  10
HETATM   10  C   UNL     1     -12.176  13.359  65.707  1.00  0.00    -0.458 C  
HETATM   11  O   UNL     1     -12.734  13.870  64.755  1.00  0.00    -0.650 OA 
HETATM   12  N   UNL     1     -11.282  13.967  66.543  1.00  0.00    -0.314 N  
HETATM   13  H   UNL     1     -10.897  13.432  67.320  1.00  0.00     0.000 HD 
BRANCH  12  14
HETATM   14  C   UNL     1     -10.861  15.341  66.369  1.00  0.00    -0.317 C  
BRANCH  14  15
HETATM   15  C   UNL     1     -10.015  15.897  67.563  1.00  0.00    -0.238 C  
HETATM   16  C   UNL     1      -8.523  16.043  67.161  1.00  0.00    -0.223 C  
HETATM   17  C   UNL     1     -10.593  17.289  67.953  1.00  0.00    -0.384 C  
HETATM   18  C   UNL     1     -10.303  18.392  66.932  1.00  0.00    -0.417 C  
HETATM   19  C   UNL     1      -8.263  17.151  66.143  1.00  0.00    -0.269 C  
HETATM   20  C   UNL     1      -8.813  18.486  66.628  1.00  0.00    -0.300 C  
BRANCH  15  21
HETATM   21  C   UNL     1     -10.153  14.913  68.762  1.00  0.00    -0.241 C  
HETATM   22  O   UNL     1     -12.465  14.362  69.226  1.00  0.00    -0.218 OA 
HETATM   23  C   UNL     1     -11.459  14.984  69.531  1.00  0.00    -0.294 C  
HETATM   24  O   UNL     1     -11.418  15.801  70.607  1.00  0.00    -0.324 OA 
ENDBRANCH  15  21
ENDBRANCH  14  15
ENDBRANCH  12  14
ENDBRANCH   9  10
ENDBRANCH   7   9
ENDBRANCH   6   7
ENDBRANCH   4   6
TORSDOF 7
ENDMDL
MODEL       67
REMARK 921   NORMALIZED FREE ENERGY PREDICTED BY IDOCK:   -4.73 KCAL/MOL
REMARK 922        TOTAL FREE ENERGY PREDICTED BY IDOCK:   -8.30 KCAL/MOL
REMARK 923 INTER-LIGAND FREE ENERGY PREDICTED BY IDOCK:   -8.44 KCAL/MOL
REMARK 924 INTRA-LIGAND FREE ENERGY PREDICTED BY IDOCK:    0.13 KCAL/MOL
REMARK 927      BINDING AFFINITY PREDICTED BY RF-SCORE:    0.00 PKD
ROOT
HETATM    1  C   UNL     1      -8.917  10.831  65.342  1.00  0.00    -0.211 C  
HETATM    2  C   UNL     1      -9.755  11.550  64.280  1.00  0.00    -0.229 C  
HETATM    3  C   UNL     1      -9.720  10.767  62.973  1.00  0.00    -0.374 C  
HETATM    4  C   UNL     1     -11.183  11.733  64.770  1.00  0.00    -0.271 C  
HETATM    5  O   UNL     1     -11.578  11.371  65.873  1.00  0.00    -0.200 OA 
ENDROOT
BRANCH   4   6
HETATM    6  O   UNL     1     -11.951  12.414  63.868  1.00  0.00    -0.404 OA 
BRANCH   6   7
HETATM    7  C   UNL     1     -12.164  13.786  64.233  1.00  0.00    -0.400 C  
HETATM    8  C   UNL     1     -12.901  13.846  65.571  1.00  0.00    -0.471 C  
BRANCH   7   9
HETATM    9  O   UNL     1     -10.942  14.488  64.518  1.00  0.00    -0.347 OA 
BRANCH   9  10
HETATM   10  C   UNL     1     -11.053  15.827  64.633  1.00  0.00    -0.361 C  
HETATM   11  O   UNL     1     -11.673  16.559  63.886  1.00  0.00    -1.148 OA 
HETATM   12  N   UNL     1     -10.427  16.196  65.791  1.00  0.00    -0.358 N  
HETATM   13  H   UNL     1      -9.954  15.479  66.341  1.00  0.00     0.000 HD 
BRANCH  12  14
HETATM   14  C   UNL     1     -10.408  17.563  66.266  1.00  0.00    -0.335 C  
BRANCH  14  15
HETATM   15  C   UNL     1      -9.515  17.777  67.535  1.00  0.00    -0.257 C  
HETATM   16  C   UNL     1      -8.055  18.118  67.130  1.00  0.00    -0.230 C  
HETATM   17  C   UNL     1     -10.121  18.952  68.356  1.00  0.00    -0.449 C  
HETATM   18  C   UNL     1      -9.934  20.325  67.708  1.00  0.00    -0.529 C  
HETATM   19  C   UNL     1      -7.898  19.495  66.488  1.00  0.00    -0.305 C  
HETATM   20  C   UNL     1      -8.470  20.589  67.381  1.00  0.00    -0.354 C  
BRANCH  15  21
HETATM   21  C   UNL     1      -9.544  16.470  68.381  1.00  0.00    -0.233 C  
HETATM   22  O   UNL     1     -11.692  15.358  68.264  1.00  0.00    -0.360 OA 
HETATM   23  C   UNL     1     -10.906  16.046  68.898  1.00  0.00    -0.286 C  
HETATM   24  O   UNL     1     -11.183  16.491  70.143  1.00  0.00    -0.323 OA 
ENDBRANCH  15  21
ENDBRANCH  14  15
ENDBRANCH  12  14
ENDBRANCH   9  10
ENDBRANCH   7   9
ENDBRANCH   6   7
ENDBRANCH   4   6
TORSDOF 7
ENDMDL
MODEL       68
REMARK 921   NORMALIZED FREE ENERGY PREDICTED BY IDOCK:   -4.73 KCAL/MOL
REMARK 922        TOTAL FREE ENERGY PREDICTED BY IDOCK:   -8.30 KCAL/MOL
REMARK 923 INTER-LIGAND FREE ENERGY PREDICTED BY IDOCK:   -7.89 KCAL/MOL
REMARK 924 INTRA-LIGAND FREE ENERGY PREDICTED BY IDOCK:   -0.41 KCAL/MOL
REMARK 927      BINDING AFFINITY PREDICTED BY RF-SCORE:    0.00 PKD
ROOT
HETATM    1  C   UNL     1     -13.356  11.727  72.058  1.00  0.00    -0.417 C  
HETATM    2  C   UNL     1     -12.496  10.485  71.801  1.00  0.00    -0.362 C  
HETATM    3  C   UNL     1     -13.266   9.230  72.192  1.00  0.00    -0.535 C  
HETATM    4  C   UNL     1     -12.068  10.433  70.343  1.00  0.00    -0.315 C  
HETATM    5  O   UNL     1     -12.361  11.287  69.514  1.00  0.00    -0.277 OA 
ENDROOT
BRANCH   4   6
HETATM    6  O   UNL     1     -11.259   9.362  70.084  1.00  0.00    -0.242 OA 
BRANCH   6   7
HETATM    7  C   UNL     1      -9.903   9.738  69.799  1.00  0.00    -0.234 C  
HETATM    8  C   UNL     1      -8.974   9.104  70.834  1.00  0.00    -0.298 C  
BRANCH   7   9
HETATM    9  O   UNL     1      -9.415   9.188  68.563  1.00  0.00    -0.145 OA 
BRANCH   9  10
HETATM   10  C   UNL     1     -10.174   9.432  67.476  1.00  0.00    -0.231 C  
HETATM   11  O   UNL     1     -10.619   8.595  66.715  1.00  0.00    -0.269 OA 
HETATM   12  N   UNL     1     -10.431  10.773  67.442  1.00  0.00    -0.211 N  
HETATM   13  H   UNL     1     -10.008  11.371  68.153  1.00  0.00     0.000 HD 
BRANCH  12  14
HETATM   14  C   UNL     1     -11.278  11.381  66.439  1.00  0.00    -0.183 C  
BRANCH  14  15
HETATM   15  C   UNL     1     -10.827  12.821  66.020  1.00  0.00    -0.301 C  
HETATM   16  C   UNL     1     -11.835  13.885  66.529  1.00  0.00    -0.440 C  
HETATM   17  C   UNL     1      -9.425  13.084  66.643  1.00  0.00    -0.256 C  
HETATM   18  C   UNL     1      -9.445  13.282  68.160  1.00  0.00    -0.222 C  
HETATM   19  C   UNL     1     -11.833  14.062  68.046  1.00  0.00    -0.403 C  
HETATM   20  C   UNL     1     -10.433  14.368  68.564  1.00  0.00    -0.254 C  
BRANCH  15  21
HETATM   21  C   UNL     1     -10.733  12.872  64.466  1.00  0.00    -0.392 C  
HETATM   22  O   UNL     1     -12.615  14.033  63.479  1.00  0.00    -0.842 OA 
HETATM   23  C   UNL     1     -12.054  12.976  63.726  1.00  0.00    -0.502 C  
HETATM   24  O   UNL     1     -12.565  11.785  63.347  1.00  0.00    -0.558 OA 
ENDBRANCH  15  21
ENDBRANCH  14  15
ENDBRANCH  12  14
ENDBRANCH   9  10
ENDBRANCH   7   9
ENDBRANCH   6   7
ENDBRANCH   4   6
TORSDOF 7
ENDMDL
MODEL       69
REMARK 921   NORMALIZED FREE ENERGY PREDICTED BY IDOCK:   -4.72 KCAL/MOL
REMARK 922        TOTAL FREE ENERGY PREDICTED BY IDOCK:   -8.28 KCAL/MOL
REMARK 923 INTER-LIGAND FREE ENERGY PREDICTED BY IDOCK:   -7.51 KCAL/MOL
REMARK 924 INTRA-LIGAND FREE ENERGY PREDICTED BY IDOCK:   -0.77 KCAL/MOL
REMARK 927      BINDING AFFINITY PREDICTED BY RF-SCORE:    0.00 PKD
ROOT
HETATM    1  C   UNL     1     -11.054   5.849  72.685  1.00  0.00    -0.322 C  
HETATM    2  C   UNL     1     -11.123   7.351  72.978  1.00  0.00    -0.390 C  
HETATM    3  C   UNL     1      -9.741   7.974  72.828  1.00  0.00    -0.348 C  
HETATM    4  C   UNL     1     -12.129   8.023  72.056  1.00  0.00    -0.331 C  
HETATM    5  O   UNL     1     -12.796   7.422  71.221  1.00  0.00    -0.351 OA 
ENDROOT
BRANCH   4   6
HETATM    6  O   UNL     1     -12.254   9.358  72.318  1.00  0.00    -0.307 OA 
BRANCH   6   7
HETATM    7  C   UNL     1     -12.353  10.158  71.131  1.00  0.00    -0.385 C  
HETATM    8  C   UNL     1     -12.916  11.533  71.492  1.00  0.00    -0.485 C  
BRANCH   7   9
HETATM    9  O   UNL     1     -11.072  10.485  70.564  1.00  0.00    -0.300 OA 
BRANCH   9  10
HETATM   10  C   UNL     1     -10.786   9.891  69.388  1.00  0.00    -0.237 C  
HETATM   11  O   UNL     1     -10.317   8.778  69.247  1.00  0.00    -0.207 OA 
HETATM   12  N   UNL     1     -11.208  10.724  68.390  1.00  0.00    -0.263 N  
HETATM   13  H   UNL     1     -11.602  11.630  68.643  1.00  0.00     0.000 HD 
BRANCH  12  14
HETATM   14  C   UNL     1     -11.118  10.371  66.989  1.00  0.00    -0.067 C  
BRANCH  14  15
HETATM   15  C   UNL     1     -10.538  11.513  66.088  1.00  0.00    -0.314 C  
HETATM   16  C   UNL     1      -9.182  12.023  66.647  1.00  0.00    -0.211 C  
HETATM   17  C   UNL     1     -10.333  10.938  64.657  1.00  0.00    -0.407 C  
HETATM   18  C   UNL     1      -9.174   9.945  64.545  1.00  0.00    -0.315 C  
HETATM   19  C   UNL     1      -8.044  11.013  66.522  1.00  0.00    -0.161 C  
HETATM   20  C   UNL     1      -7.879  10.543  65.082  1.00  0.00    -0.076 C  
BRANCH  15  21
HETATM   21  C   UNL     1     -11.572  12.677  66.047  1.00  0.00    -0.443 C  
HETATM   22  O   UNL     1     -13.292  12.309  64.383  1.00  0.00    -0.786 OA 
HETATM   23  C   UNL     1     -12.273  12.894  64.719  1.00  0.00    -0.445 C  
HETATM   24  O   UNL     1     -11.675  13.809  63.926  1.00  0.00    -0.363 OA 
ENDBRANCH  15  21
ENDBRANCH  14  15
ENDBRANCH  12  14
ENDBRANCH   9  10
ENDBRANCH   7   9
ENDBRANCH   6   7
ENDBRANCH   4   6
TORSDOF 7
ENDMDL
MODEL       70
REMARK 921   NORMALIZED FREE ENERGY PREDICTED BY IDOCK:   -4.71 KCAL/MOL
REMARK 922        TOTAL FREE ENERGY PREDICTED BY IDOCK:   -8.27 KCAL/MOL
REMARK 923 INTER-LIGAND FREE ENERGY PREDICTED BY IDOCK:   -7.08 KCAL/MOL
REMARK 924 INTRA-LIGAND FREE ENERGY PREDICTED BY IDOCK:   -1.19 KCAL/MOL
REMARK 927      BINDING AFFINITY PREDICTED BY RF-SCORE:    0.00 PKD
ROOT
HETATM    1  C   UNL     1      -9.277   9.782  62.950  1.00  0.00    -0.241 C  
HETATM    2  C   UNL     1      -9.527  10.403  64.328  1.00  0.00    -0.349 C  
HETATM    3  C   UNL     1      -8.260  10.323  65.171  1.00  0.00    -0.161 C  
HETATM    4  C   UNL     1      -9.997  11.842  64.181  1.00  0.00    -0.262 C  
HETATM    5  O   UNL     1     -10.168  12.397  63.101  1.00  0.00    -0.339 OA 
ENDROOT
BRANCH   4   6
HETATM    6  O   UNL     1     -10.276  12.417  65.389  1.00  0.00    -0.271 OA 
BRANCH   6   7
HETATM    7  C   UNL     1     -11.557  12.034  65.911  1.00  0.00    -0.300 C  
HETATM    8  C   UNL     1     -11.380  11.465  67.319  1.00  0.00    -0.347 C  
BRANCH   7   9
HETATM    9  O   UNL     1     -12.431  13.154  66.135  1.00  0.00    -0.400 OA 
BRANCH   9  10
HETATM   10  C   UNL     1     -12.038  14.320  65.584  1.00  0.00    -0.393 C  
HETATM   11  O   UNL     1     -12.463  14.799  64.550  1.00  0.00    -0.542 OA 
HETATM   12  N   UNL     1     -11.151  14.906  66.443  1.00  0.00    -0.341 N  
HETATM   13  H   UNL     1     -10.886  14.404  67.290  1.00  0.00     0.000 HD 
BRANCH  12  14
HETATM   14  C   UNL     1     -10.573  16.210  66.197  1.00  0.00    -0.283 C  
BRANCH  14  15
HETATM   15  C   UNL     1      -9.936  16.866  67.468  1.00  0.00    -0.268 C  
HETATM   16  C   UNL     1      -8.461  17.271  67.199  1.00  0.00    -0.223 C  
HETATM   17  C   UNL     1     -10.771  18.130  67.826  1.00  0.00    -0.355 C  
HETATM   18  C   UNL     1     -10.588  19.294  66.849  1.00  0.00    -0.557 C  
HETATM   19  C   UNL     1      -8.309  18.435  66.222  1.00  0.00    -0.231 C  
HETATM   20  C   UNL     1      -9.115  19.645  66.676  1.00  0.00    -0.429 C  
BRANCH  15  21
HETATM   21  C   UNL     1     -10.004  15.839  68.637  1.00  0.00    -0.208 C  
HETATM   22  O   UNL     1      -7.852  15.528  69.703  1.00  0.00    -0.213 OA 
HETATM   23  C   UNL     1      -8.715  15.103  68.949  1.00  0.00    -0.205 C  
HETATM   24  O   UNL     1      -8.597  13.913  68.320  1.00  0.00    -0.167 OA 
ENDBRANCH  15  21
ENDBRANCH  14  15
ENDBRANCH  12  14
ENDBRANCH   9  10
ENDBRANCH   7   9
ENDBRANCH   6   7
ENDBRANCH   4   6
TORSDOF 7
ENDMDL
MODEL       71
REMARK 921   NORMALIZED FREE ENERGY PREDICTED BY IDOCK:   -4.71 KCAL/MOL
REMARK 922        TOTAL FREE ENERGY PREDICTED BY IDOCK:   -8.27 KCAL/MOL
REMARK 923 INTER-LIGAND FREE ENERGY PREDICTED BY IDOCK:   -7.31 KCAL/MOL
REMARK 924 INTRA-LIGAND FREE ENERGY PREDICTED BY IDOCK:   -0.96 KCAL/MOL
REMARK 927      BINDING AFFINITY PREDICTED BY RF-SCORE:    0.00 PKD
ROOT
HETATM    1  C   UNL     1     -10.453  12.583  63.683  1.00  0.00    -0.418 C  
HETATM    2  C   UNL     1     -10.544  13.419  64.964  1.00  0.00    -0.370 C  
HETATM    3  C   UNL     1     -11.674  14.433  64.845  1.00  0.00    -0.408 C  
HETATM    4  C   UNL     1     -10.743  12.515  66.171  1.00  0.00    -0.261 C  
HETATM    5  O   UNL     1     -10.797  11.292  66.106  1.00  0.00    -0.267 OA 
ENDROOT
BRANCH   4   6
HETATM    6  O   UNL     1     -10.781  13.222  67.340  1.00  0.00    -0.254 OA 
BRANCH   6   7
HETATM    7  C   UNL     1     -11.892  12.867  68.176  1.00  0.00    -0.336 C  
HETATM    8  C   UNL     1     -11.384  12.088  69.389  1.00  0.00    -0.317 C  
BRANCH   7   9
HETATM    9  O   UNL     1     -12.528  14.006  68.781  1.00  0.00    -0.173 OA 
BRANCH   9  10
HETATM   10  C   UNL     1     -11.700  14.884  69.384  1.00  0.00    -0.319 C  
HETATM   11  O   UNL     1     -11.256  14.786  70.512  1.00  0.00    -0.229 OA 
HETATM   12  N   UNL     1     -11.376  15.844  68.468  1.00  0.00    -0.362 N  
HETATM   13  H   UNL     1     -11.807  15.805  67.544  1.00  0.00     0.000 HD 
BRANCH  12  14
HETATM   14  C   UNL     1     -10.447  16.916  68.756  1.00  0.00    -0.343 C  
BRANCH  14  15
HETATM   15  C   UNL     1      -9.553  17.321  67.535  1.00  0.00    -0.259 C  
HETATM   16  C   UNL     1     -10.374  18.129  66.495  1.00  0.00    -0.397 C  
HETATM   17  C   UNL     1      -8.378  18.191  68.068  1.00  0.00    -0.268 C  
HETATM   18  C   UNL     1      -8.797  19.591  68.522  1.00  0.00    -0.389 C  
HETATM   19  C   UNL     1     -10.777  19.522  66.973  1.00  0.00    -0.592 C  
HETATM   20  C   UNL     1      -9.562  20.322  67.426  1.00  0.00    -0.569 C  
BRANCH  15  21
HETATM   21  C   UNL     1      -8.996  16.021  66.884  1.00  0.00    -0.253 C  
HETATM   22  O   UNL     1      -7.624  14.749  68.422  1.00  0.00    -0.105 OA 
HETATM   23  C   UNL     1      -7.692  15.498  67.459  1.00  0.00    -0.171 C  
HETATM   24  O   UNL     1      -6.592  15.929  66.804  1.00  0.00    -0.254 OA 
ENDBRANCH  15  21
ENDBRANCH  14  15
ENDBRANCH  12  14
ENDBRANCH   9  10
ENDBRANCH   7   9
ENDBRANCH   6   7
ENDBRANCH   4   6
TORSDOF 7
ENDMDL
MODEL       72
REMARK 921   NORMALIZED FREE ENERGY PREDICTED BY IDOCK:   -4.70 KCAL/MOL
REMARK 922        TOTAL FREE ENERGY PREDICTED BY IDOCK:   -8.25 KCAL/MOL
REMARK 923 INTER-LIGAND FREE ENERGY PREDICTED BY IDOCK:   -7.59 KCAL/MOL
REMARK 924 INTRA-LIGAND FREE ENERGY PREDICTED BY IDOCK:   -0.67 KCAL/MOL
REMARK 927      BINDING AFFINITY PREDICTED BY RF-SCORE:    0.00 PKD
ROOT
HETATM    1  C   UNL     1     -10.751   5.513  69.760  1.00  0.00    -0.355 C  
HETATM    2  C   UNL     1     -11.400   6.437  70.796  1.00  0.00    -0.411 C  
HETATM    3  C   UNL     1     -11.508   5.720  72.136  1.00  0.00    -0.295 C  
HETATM    4  C   UNL     1     -10.603   7.725  70.926  1.00  0.00    -0.213 C  
HETATM    5  O   UNL     1      -9.600   7.977  70.268  1.00  0.00    -0.170 OA 
ENDROOT
BRANCH   4   6
HETATM    6  O   UNL     1     -11.178   8.597  71.808  1.00  0.00    -0.280 OA 
BRANCH   6   7
HETATM    7  C   UNL     1     -12.212   9.396  71.215  1.00  0.00    -0.345 C  
HETATM    8  C   UNL     1     -13.464   9.334  72.091  1.00  0.00    -0.539 C  
BRANCH   7   9
HETATM    9  O   UNL     1     -11.905  10.801  71.211  1.00  0.00    -0.268 OA 
BRANCH   9  10
HETATM   10  C   UNL     1     -11.980  11.410  70.010  1.00  0.00    -0.363 C  
HETATM   11  O   UNL     1     -12.179  10.862  68.943  1.00  0.00    -0.494 OA 
HETATM   12  N   UNL     1     -11.890  12.757  70.223  1.00  0.00    -0.537 N  
HETATM   13  H   UNL     1     -11.739  13.094  71.174  1.00  0.00     0.000 HD 
BRANCH  12  14
HETATM   14  C   UNL     1     -12.002  13.725  69.153  1.00  0.00    -0.361 C  
BRANCH  14  15
HETATM   15  C   UNL     1     -11.698  15.196  69.598  1.00  0.00    -0.353 C  
HETATM   16  C   UNL     1     -10.293  15.295  70.250  1.00  0.00    -0.162 C  
HETATM   17  C   UNL     1     -11.757  16.102  68.335  1.00  0.00    -0.126 C  
HETATM   18  C   UNL     1     -10.584  15.906  67.372  1.00  0.00    -0.315 C  
HETATM   19  C   UNL     1      -9.141  15.096  69.266  1.00  0.00    -0.201 C  
HETATM   20  C   UNL     1      -9.248  16.058  68.090  1.00  0.00    -0.195 C  
BRANCH  15  21
HETATM   21  C   UNL     1     -12.792  15.635  70.616  1.00  0.00    -0.400 C  
HETATM   22  O   UNL     1     -11.912  15.851  72.862  1.00  0.00    -0.443 OA 
HETATM   23  C   UNL     1     -12.568  15.209  72.055  1.00  0.00    -0.343 C  
HETATM   24  O   UNL     1     -13.170  14.045  72.382  1.00  0.00    -0.419 OA 
ENDBRANCH  15  21
ENDBRANCH  14  15
ENDBRANCH  12  14
ENDBRANCH   9  10
ENDBRANCH   7   9
ENDBRANCH   6   7
ENDBRANCH   4   6
TORSDOF 7
ENDMDL
MODEL       73
REMARK 921   NORMALIZED FREE ENERGY PREDICTED BY IDOCK:   -4.70 KCAL/MOL
REMARK 922        TOTAL FREE ENERGY PREDICTED BY IDOCK:   -8.25 KCAL/MOL
REMARK 923 INTER-LIGAND FREE ENERGY PREDICTED BY IDOCK:   -7.32 KCAL/MOL
REMARK 924 INTRA-LIGAND FREE ENERGY PREDICTED BY IDOCK:   -0.93 KCAL/MOL
REMARK 927      BINDING AFFINITY PREDICTED BY RF-SCORE:    0.00 PKD
ROOT
HETATM    1  C   UNL     1     -10.918   9.722  68.148  1.00  0.00    -0.228 C  
HETATM    2  C   UNL     1     -11.437  10.109  69.536  1.00  0.00    -0.227 C  
HETATM    3  C   UNL     1     -10.365   9.841  70.585  1.00  0.00    -0.330 C  
HETATM    4  C   UNL     1     -11.866  11.568  69.552  1.00  0.00    -0.351 C  
HETATM    5  O   UNL     1     -11.816  12.304  68.573  1.00  0.00    -0.316 OA 
ENDROOT
BRANCH   4   6
HETATM    6  O   UNL     1     -12.380  11.939  70.762  1.00  0.00    -0.374 OA 
BRANCH   6   7
HETATM    7  C   UNL     1     -12.630  13.349  70.859  1.00  0.00    -0.327 C  
HETATM    8  C   UNL     1     -13.568  13.617  72.036  1.00  0.00    -0.585 C  
BRANCH   7   9
HETATM    9  O   UNL     1     -11.460  14.105  71.215  1.00  0.00     0.047 OA 
BRANCH   9  10
HETATM   10  C   UNL     1     -11.437  15.382  70.783  1.00  0.00    -0.355 C  
HETATM   11  O   UNL     1     -11.559  16.372  71.479  1.00  0.00    -0.437 OA 
HETATM   12  N   UNL     1     -11.156  15.362  69.446  1.00  0.00    -0.262 N  
HETATM   13  H   UNL     1     -11.060  14.460  68.979  1.00  0.00     0.000 HD 
BRANCH  12  14
HETATM   14  C   UNL     1     -10.989  16.570  68.666  1.00  0.00    -0.344 C  
BRANCH  14  15
HETATM   15  C   UNL     1     -10.039  16.398  67.433  1.00  0.00    -0.262 C  
HETATM   16  C   UNL     1     -10.465  17.338  66.273  1.00  0.00    -0.268 C  
HETATM   17  C   UNL     1      -8.593  16.748  67.889  1.00  0.00    -0.202 C  
HETATM   18  C   UNL     1      -8.365  18.239  68.149  1.00  0.00    -0.296 C  
HETATM   19  C   UNL     1     -10.226  18.819  66.559  1.00  0.00    -0.458 C  
HETATM   20  C   UNL     1      -8.775  19.079  66.946  1.00  0.00    -0.316 C  
BRANCH  15  21
HETATM   21  C   UNL     1     -10.102  14.913  66.969  1.00  0.00    -0.244 C  
HETATM   22  O   UNL     1     -10.775  14.711  64.652  1.00  0.00    -0.393 OA 
HETATM   23  C   UNL     1     -11.065  14.613  65.835  1.00  0.00    -0.338 C  
HETATM   24  O   UNL     1     -12.289  14.215  66.245  1.00  0.00    -0.456 OA 
ENDBRANCH  15  21
ENDBRANCH  14  15
ENDBRANCH  12  14
ENDBRANCH   9  10
ENDBRANCH   7   9
ENDBRANCH   6   7
ENDBRANCH   4   6
TORSDOF 7
ENDMDL
MODEL       74
REMARK 921   NORMALIZED FREE ENERGY PREDICTED BY IDOCK:   -4.69 KCAL/MOL
REMARK 922        TOTAL FREE ENERGY PREDICTED BY IDOCK:   -8.24 KCAL/MOL
REMARK 923 INTER-LIGAND FREE ENERGY PREDICTED BY IDOCK:   -6.81 KCAL/MOL
REMARK 924 INTRA-LIGAND FREE ENERGY PREDICTED BY IDOCK:   -1.43 KCAL/MOL
REMARK 927      BINDING AFFINITY PREDICTED BY RF-SCORE:    0.00 PKD
ROOT
HETATM    1  C   UNL     1     -12.161  13.204  63.453  1.00  0.00    -0.521 C  
HETATM    2  C   UNL     1     -12.183  12.985  64.969  1.00  0.00    -0.501 C  
HETATM    3  C   UNL     1     -11.269  11.824  65.340  1.00  0.00    -0.310 C  
HETATM    4  C   UNL     1     -11.773  14.258  65.692  1.00  0.00    -0.358 C  
HETATM    5  O   UNL     1     -11.492  15.307  65.121  1.00  0.00    -0.333 OA 
ENDROOT
BRANCH   4   6
HETATM    6  O   UNL     1     -11.826  14.117  67.050  1.00  0.00    -0.388 OA 
BRANCH   6   7
HETATM    7  C   UNL     1     -11.224  15.214  67.754  1.00  0.00    -0.323 C  
HETATM    8  C   UNL     1     -12.093  15.582  68.956  1.00  0.00    -0.246 C  
BRANCH   7   9
HETATM    9  O   UNL     1      -9.971  14.868  68.369  1.00  0.00    -0.212 OA 
BRANCH   9  10
HETATM   10  C   UNL     1      -9.404  13.724  67.934  1.00  0.00    -0.211 C  
HETATM   11  O   UNL     1      -8.550  13.634  67.074  1.00  0.00    -0.209 OA 
HETATM   12  N   UNL     1      -9.891  12.703  68.700  1.00  0.00    -0.400 N  
HETATM   13  H   UNL     1     -10.598  12.913  69.405  1.00  0.00     0.000 HD 
BRANCH  12  14
HETATM   14  C   UNL     1      -9.445  11.334  68.551  1.00  0.00    -0.191 C  
BRANCH  14  15
HETATM   15  C   UNL     1     -10.534  10.272  68.920  1.00  0.00    -0.231 C  
HETATM   16  C   UNL     1     -10.514   9.089  67.915  1.00  0.00    -0.291 C  
HETATM   17  C   UNL     1     -10.229   9.749  70.354  1.00  0.00    -0.343 C  
HETATM   18  C   UNL     1      -8.993   8.850  70.438  1.00  0.00    -0.207 C  
HETATM   19  C   UNL     1      -9.270   8.209  68.023  1.00  0.00    -0.137 C  
HETATM   20  C   UNL     1      -9.077   7.698  69.445  1.00  0.00    -0.142 C  
BRANCH  15  21
HETATM   21  C   UNL     1     -11.926  10.969  68.898  1.00  0.00    -0.332 C  
HETATM   22  O   UNL     1     -12.274  12.370  70.842  1.00  0.00    -0.355 OA 
HETATM   23  C   UNL     1     -12.511  11.327  70.252  1.00  0.00    -0.250 C  
HETATM   24  O   UNL     1     -13.335  10.385  70.759  1.00  0.00    -0.322 OA 
ENDBRANCH  15  21
ENDBRANCH  14  15
ENDBRANCH  12  14
ENDBRANCH   9  10
ENDBRANCH   7   9
ENDBRANCH   6   7
ENDBRANCH   4   6
TORSDOF 7
ENDMDL
MODEL       75
REMARK 921   NORMALIZED FREE ENERGY PREDICTED BY IDOCK:   -4.69 KCAL/MOL
REMARK 922        TOTAL FREE ENERGY PREDICTED BY IDOCK:   -8.24 KCAL/MOL
REMARK 923 INTER-LIGAND FREE ENERGY PREDICTED BY IDOCK:   -7.30 KCAL/MOL
REMARK 924 INTRA-LIGAND FREE ENERGY PREDICTED BY IDOCK:   -0.94 KCAL/MOL
REMARK 927      BINDING AFFINITY PREDICTED BY RF-SCORE:    0.00 PKD
ROOT
HETATM    1  C   UNL     1      -9.982  18.079  65.977  1.00  0.00    -0.221 C  
HETATM    2  C   UNL     1      -9.980  16.550  66.069  1.00  0.00    -0.359 C  
HETATM    3  C   UNL     1     -10.416  16.112  67.462  1.00  0.00    -0.302 C  
HETATM    4  C   UNL     1     -10.885  15.956  65.000  1.00  0.00    -0.426 C  
HETATM    5  O   UNL     1     -11.500  16.625  64.177  1.00  0.00    -1.131 OA 
ENDROOT
BRANCH   4   6
HETATM    6  O   UNL     1     -10.873  14.589  65.020  1.00  0.00    -0.362 OA 
BRANCH   6   7
HETATM    7  C   UNL     1     -12.136  14.010  64.658  1.00  0.00    -0.440 C  
HETATM    8  C   UNL     1     -11.965  13.176  63.388  1.00  0.00    -0.552 C  
BRANCH   7   9
HETATM    9  O   UNL     1     -12.602  13.038  65.609  1.00  0.00    -0.505 OA 
BRANCH   9  10
HETATM   10  C   UNL     1     -11.866  12.922  66.732  1.00  0.00    -0.385 C  
HETATM   11  O   UNL     1     -12.119  13.431  67.807  1.00  0.00    -0.338 OA 
HETATM   12  N   UNL     1     -10.843  12.054  66.469  1.00  0.00    -0.265 N  
HETATM   13  H   UNL     1     -10.749  11.681  65.525  1.00  0.00     0.000 HD 
BRANCH  12  14
HETATM   14  C   UNL     1      -9.889  11.643  67.478  1.00  0.00    -0.188 C  
BRANCH  14  15
HETATM   15  C   UNL     1      -9.008  10.421  67.051  1.00  0.00    -0.150 C  
HETATM   16  C   UNL     1      -8.058   9.998  68.204  1.00  0.00    -0.108 C  
HETATM   17  C   UNL     1      -9.962   9.243  66.697  1.00  0.00    -0.333 C  
HETATM   18  C   UNL     1     -10.654   8.616  67.909  1.00  0.00    -0.223 C  
HETATM   19  C   UNL     1      -8.776   9.375  69.399  1.00  0.00    -0.157 C  
HETATM   20  C   UNL     1      -9.644   8.198  68.969  1.00  0.00    -0.156 C  
BRANCH  15  21
HETATM   21  C   UNL     1      -8.181  10.828  65.797  1.00  0.00    -0.146 C  
HETATM   22  O   UNL     1      -9.447  10.572  63.748  1.00  0.00    -0.247 OA 
HETATM   23  C   UNL     1      -8.575  10.154  64.495  1.00  0.00    -0.189 C  
HETATM   24  O   UNL     1      -7.866   9.038  64.219  1.00  0.00    -0.117 OA 
ENDBRANCH  15  21
ENDBRANCH  14  15
ENDBRANCH  12  14
ENDBRANCH   9  10
ENDBRANCH   7   9
ENDBRANCH   6   7
ENDBRANCH   4   6
TORSDOF 7
ENDMDL
MODEL       76
REMARK 921   NORMALIZED FREE ENERGY PREDICTED BY IDOCK:   -4.66 KCAL/MOL
REMARK 922        TOTAL FREE ENERGY PREDICTED BY IDOCK:   -8.19 KCAL/MOL
REMARK 923 INTER-LIGAND FREE ENERGY PREDICTED BY IDOCK:   -7.24 KCAL/MOL
REMARK 924 INTRA-LIGAND FREE ENERGY PREDICTED BY IDOCK:   -0.95 KCAL/MOL
REMARK 927      BINDING AFFINITY PREDICTED BY RF-SCORE:    0.00 PKD
ROOT
HETATM    1  C   UNL     1      -9.231  15.967  66.039  1.00  0.00    -0.372 C  
HETATM    2  C   UNL     1     -10.188  15.436  67.111  1.00  0.00    -0.251 C  
HETATM    3  C   UNL     1     -10.712  16.589  67.958  1.00  0.00    -0.343 C  
HETATM    4  C   UNL     1     -11.331  14.668  66.464  1.00  0.00    -0.353 C  
HETATM    5  O   UNL     1     -11.437  14.492  65.256  1.00  0.00    -0.334 OA 
ENDROOT
BRANCH   4   6
HETATM    6  O   UNL     1     -12.182  14.137  67.392  1.00  0.00    -0.380 OA 
BRANCH   6   7
HETATM    7  C   UNL     1     -11.591  13.076  68.156  1.00  0.00    -0.341 C  
HETATM    8  C   UNL     1     -12.057  13.178  69.609  1.00  0.00    -0.317 C  
BRANCH   7   9
HETATM    9  O   UNL     1     -12.061  11.774  67.769  1.00  0.00    -0.595 OA 
BRANCH   9  10
HETATM   10  C   UNL     1     -11.102  10.871  67.477  1.00  0.00    -0.310 C  
HETATM   11  O   UNL     1     -10.184  11.033  66.696  1.00  0.00    -0.218 OA 
HETATM   12  N   UNL     1     -11.294   9.787  68.286  1.00  0.00    -0.521 N  
HETATM   13  H   UNL     1     -12.099   9.780  68.913  1.00  0.00     0.000 HD 
BRANCH  12  14
HETATM   14  C   UNL     1     -10.403   8.647  68.288  1.00  0.00    -0.207 C  
BRANCH  14  15
HETATM   15  C   UNL     1     -10.097   8.088  69.718  1.00  0.00    -0.196 C  
HETATM   16  C   UNL     1     -11.055   6.917  70.069  1.00  0.00    -0.344 C  
HETATM   17  C   UNL     1      -8.625   7.584  69.733  1.00  0.00    -0.140 C  
HETATM   18  C   UNL     1      -8.398   6.301  68.930  1.00  0.00    -0.120 C  
HETATM   19  C   UNL     1     -10.805   5.650  69.254  1.00  0.00    -0.309 C  
HETATM   20  C   UNL     1      -9.355   5.198  69.367  1.00  0.00    -0.176 C  
BRANCH  15  21
HETATM   21  C   UNL     1     -10.270   9.246  70.744  1.00  0.00    -0.353 C  
HETATM   22  O   UNL     1     -11.618   8.586  72.645  1.00  0.00    -0.357 OA 
HETATM   23  C   UNL     1     -11.528   9.199  71.592  1.00  0.00    -0.381 C  
HETATM   24  O   UNL     1     -12.558   9.910  71.084  1.00  0.00    -0.322 OA 
ENDBRANCH  15  21
ENDBRANCH  14  15
ENDBRANCH  12  14
ENDBRANCH   9  10
ENDBRANCH   7   9
ENDBRANCH   6   7
ENDBRANCH   4   6
TORSDOF 7
ENDMDL
MODEL       77
REMARK 921   NORMALIZED FREE ENERGY PREDICTED BY IDOCK:   -4.64 KCAL/MOL
REMARK 922        TOTAL FREE ENERGY PREDICTED BY IDOCK:   -8.16 KCAL/MOL
REMARK 923 INTER-LIGAND FREE ENERGY PREDICTED BY IDOCK:   -6.94 KCAL/MOL
REMARK 924 INTRA-LIGAND FREE ENERGY PREDICTED BY IDOCK:   -1.23 KCAL/MOL
REMARK 927      BINDING AFFINITY PREDICTED BY RF-SCORE:    0.00 PKD
ROOT
HETATM    1  C   UNL     1     -12.433  12.117  63.437  1.00  0.00    -0.625 C  
HETATM    2  C   UNL     1     -11.185  11.504  64.080  1.00  0.00    -0.393 C  
HETATM    3  C   UNL     1     -10.128  11.241  63.015  1.00  0.00    -0.327 C  
HETATM    4  C   UNL     1     -10.649  12.419  65.170  1.00  0.00    -0.292 C  
HETATM    5  O   UNL     1     -11.173  13.480  65.488  1.00  0.00    -0.292 OA 
ENDROOT
BRANCH   4   6
HETATM    6  O   UNL     1      -9.562  11.883  65.801  1.00  0.00    -0.236 OA 
BRANCH   6   7
HETATM    7  C   UNL     1      -9.394  12.367  67.142  1.00  0.00    -0.199 C  
HETATM    8  C   UNL     1      -9.630  11.221  68.126  1.00  0.00    -0.186 C  
BRANCH   7   9
HETATM    9  O   UNL     1      -8.041  12.756  67.435  1.00  0.00    -0.168 OA 
BRANCH   9  10
HETATM   10  C   UNL     1      -7.782  14.076  67.345  1.00  0.00    -0.158 C  
HETATM   11  O   UNL     1      -6.679  14.588  67.346  1.00  0.00    -0.258 OA 
HETATM   12  N   UNL     1      -8.972  14.721  67.156  1.00  0.00    -0.211 N  
HETATM   13  H   UNL     1      -9.832  14.171  67.160  1.00  0.00     0.000 HD 
BRANCH  12  14
HETATM   14  C   UNL     1      -9.062  16.151  66.952  1.00  0.00    -0.218 C  
BRANCH  14  15
HETATM   15  C   UNL     1      -9.293  16.963  68.270  1.00  0.00    -0.248 C  
HETATM   16  C   UNL     1      -8.112  17.936  68.532  1.00  0.00    -0.305 C  
HETATM   17  C   UNL     1     -10.614  17.770  68.111  1.00  0.00    -0.350 C  
HETATM   18  C   UNL     1     -10.513  18.943  67.133  1.00  0.00    -0.509 C  
HETATM   19  C   UNL     1      -8.037  19.096  67.542  1.00  0.00    -0.301 C  
HETATM   20  C   UNL     1      -9.352  19.863  67.489  1.00  0.00    -0.465 C  
BRANCH  15  21
HETATM   21  C   UNL     1      -9.428  15.955  69.449  1.00  0.00    -0.248 C  
HETATM   22  O   UNL     1     -11.436  14.613  69.274  1.00  0.00    -0.260 OA 
HETATM   23  C   UNL     1     -10.843  15.539  69.807  1.00  0.00    -0.296 C  
HETATM   24  O   UNL     1     -11.403  16.283  70.785  1.00  0.00    -0.395 OA 
ENDBRANCH  15  21
ENDBRANCH  14  15
ENDBRANCH  12  14
ENDBRANCH   9  10
ENDBRANCH   7   9
ENDBRANCH   6   7
ENDBRANCH   4   6
TORSDOF 7
ENDMDL
MODEL       78
REMARK 921   NORMALIZED FREE ENERGY PREDICTED BY IDOCK:   -4.63 KCAL/MOL
REMARK 922        TOTAL FREE ENERGY PREDICTED BY IDOCK:   -8.15 KCAL/MOL
REMARK 923 INTER-LIGAND FREE ENERGY PREDICTED BY IDOCK:   -7.18 KCAL/MOL
REMARK 924 INTRA-LIGAND FREE ENERGY PREDICTED BY IDOCK:   -0.97 KCAL/MOL
REMARK 927      BINDING AFFINITY PREDICTED BY RF-SCORE:    0.00 PKD
ROOT
HETATM    1  C   UNL     1     -10.845   8.875  71.791  1.00  0.00    -0.436 C  
HETATM    2  C   UNL     1     -11.768   9.670  70.862  1.00  0.00    -0.412 C  
HETATM    3  C   UNL     1     -12.710  10.540  71.686  1.00  0.00    -0.550 C  
HETATM    4  C   UNL     1     -10.948  10.513  69.897  1.00  0.00    -0.298 C  
HETATM    5  O   UNL     1      -9.723  10.519  69.869  1.00  0.00    -0.086 OA 
ENDROOT
BRANCH   4   6
HETATM    6  O   UNL     1     -11.737  11.202  69.020  1.00  0.00    -0.287 OA 
BRANCH   6   7
HETATM    7  C   UNL     1     -11.159  11.311  67.710  1.00  0.00    -0.271 C  
HETATM    8  C   UNL     1     -10.945   9.912  67.133  1.00  0.00    -0.147 C  
BRANCH   7   9
HETATM    9  O   UNL     1     -12.048  11.911  66.752  1.00  0.00    -0.593 OA 
BRANCH   9  10
HETATM   10  C   UNL     1     -12.094  13.258  66.764  1.00  0.00    -0.345 C  
HETATM   11  O   UNL     1     -12.749  13.956  66.013  1.00  0.00    -0.463 OA 
HETATM   12  N   UNL     1     -11.354  13.690  67.828  1.00  0.00    -0.291 N  
HETATM   13  H   UNL     1     -10.862  12.998  68.395  1.00  0.00     0.000 HD 
BRANCH  12  14
HETATM   14  C   UNL     1     -11.238  15.088  68.184  1.00  0.00    -0.308 C  
BRANCH  14  15
HETATM   15  C   UNL     1      -9.822  15.695  67.905  1.00  0.00    -0.217 C  
HETATM   16  C   UNL     1      -9.561  15.807  66.379  1.00  0.00    -0.311 C  
HETATM   17  C   UNL     1      -9.770  17.109  68.553  1.00  0.00    -0.291 C  
HETATM   18  C   UNL     1     -10.617  18.157  67.828  1.00  0.00    -0.407 C  
HETATM   19  C   UNL     1     -10.419  16.862  65.682  1.00  0.00    -0.252 C  
HETATM   20  C   UNL     1     -10.266  18.224  66.347  1.00  0.00    -0.417 C  
BRANCH  15  21
HETATM   21  C   UNL     1      -8.755  14.771  68.564  1.00  0.00    -0.174 C  
HETATM   22  O   UNL     1      -6.735  14.623  67.237  1.00  0.00    -0.280 OA 
HETATM   23  C   UNL     1      -7.777  14.106  67.614  1.00  0.00    -0.174 C  
HETATM   24  O   UNL     1      -8.151  12.871  67.217  1.00  0.00    -0.176 OA 
ENDBRANCH  15  21
ENDBRANCH  14  15
ENDBRANCH  12  14
ENDBRANCH   9  10
ENDBRANCH   7   9
ENDBRANCH   6   7
ENDBRANCH   4   6
TORSDOF 7
ENDMDL
MODEL       79
REMARK 921   NORMALIZED FREE ENERGY PREDICTED BY IDOCK:   -4.60 KCAL/MOL
REMARK 922        TOTAL FREE ENERGY PREDICTED BY IDOCK:   -8.11 KCAL/MOL
REMARK 923 INTER-LIGAND FREE ENERGY PREDICTED BY IDOCK:   -6.89 KCAL/MOL
REMARK 924 INTRA-LIGAND FREE ENERGY PREDICTED BY IDOCK:   -1.22 KCAL/MOL
REMARK 927      BINDING AFFINITY PREDICTED BY RF-SCORE:    0.00 PKD
ROOT
HETATM    1  C   UNL     1     -10.915  12.615  64.257  1.00  0.00    -0.404 C  
HETATM    2  C   UNL     1     -11.006  13.752  65.279  1.00  0.00    -0.322 C  
HETATM    3  C   UNL     1     -11.628  14.983  64.633  1.00  0.00    -0.386 C  
HETATM    4  C   UNL     1     -11.806  13.307  66.494  1.00  0.00    -0.398 C  
HETATM    5  O   UNL     1     -12.280  12.185  66.624  1.00  0.00    -0.566 OA 
ENDROOT
BRANCH   4   6
HETATM    6  O   UNL     1     -11.869  14.280  67.451  1.00  0.00    -0.379 OA 
BRANCH   6   7
HETATM    7  C   UNL     1     -11.041  14.003  68.591  1.00  0.00    -0.264 C  
HETATM    8  C   UNL     1     -10.040  15.143  68.778  1.00  0.00    -0.226 C  
BRANCH   7   9
HETATM    9  O   UNL     1     -11.768  14.020  69.831  1.00  0.00    -0.281 OA 
BRANCH   9  10
HETATM   10  C   UNL     1     -12.101  12.811  70.328  1.00  0.00    -0.297 C  
HETATM   11  O   UNL     1     -12.908  12.602  71.213  1.00  0.00    -0.355 OA 
HETATM   12  N   UNL     1     -11.444  11.865  69.593  1.00  0.00    -0.420 N  
HETATM   13  H   UNL     1     -10.803  12.173  68.861  1.00  0.00     0.000 HD 
BRANCH  12  14
HETATM   14  C   UNL     1     -11.622  10.446  69.810  1.00  0.00    -0.269 C  
BRANCH  14  15
HETATM   15  C   UNL     1     -10.281   9.636  69.815  1.00  0.00    -0.262 C  
HETATM   16  C   UNL     1     -10.410   8.352  68.952  1.00  0.00    -0.231 C  
HETATM   17  C   UNL     1      -9.166  10.551  69.232  1.00  0.00    -0.164 C  
HETATM   18  C   UNL     1      -9.283  10.793  67.725  1.00  0.00    -0.155 C  
HETATM   19  C   UNL     1     -10.524   8.623  67.454  1.00  0.00    -0.351 C  
HETATM   20  C   UNL     1      -9.366   9.480  66.958  1.00  0.00    -0.183 C  
BRANCH  15  21
HETATM   21  C   UNL     1      -9.941   9.260  71.287  1.00  0.00    -0.341 C  
HETATM   22  O   UNL     1      -7.553   9.183  71.679  1.00  0.00    -0.333 OA 
HETATM   23  C   UNL     1      -8.602   8.581  71.506  1.00  0.00    -0.181 C  
HETATM   24  O   UNL     1      -8.664   7.232  71.501  1.00  0.00    -0.119 OA 
ENDBRANCH  15  21
ENDBRANCH  14  15
ENDBRANCH  12  14
ENDBRANCH   9  10
ENDBRANCH   7   9
ENDBRANCH   6   7
ENDBRANCH   4   6
TORSDOF 7
ENDMDL
MODEL       80
REMARK 921   NORMALIZED FREE ENERGY PREDICTED BY IDOCK:   -4.58 KCAL/MOL
REMARK 922        TOTAL FREE ENERGY PREDICTED BY IDOCK:   -8.08 KCAL/MOL
REMARK 923 INTER-LIGAND FREE ENERGY PREDICTED BY IDOCK:   -7.24 KCAL/MOL
REMARK 924 INTRA-LIGAND FREE ENERGY PREDICTED BY IDOCK:   -0.84 KCAL/MOL
REMARK 927      BINDING AFFINITY PREDICTED BY RF-SCORE:    0.00 PKD
ROOT
HETATM    1  C   UNL     1      -9.928  11.500  63.331  1.00  0.00    -0.445 C  
HETATM    2  C   UNL     1     -11.029  12.181  64.151  1.00  0.00    -0.416 C  
HETATM    3  C   UNL     1     -12.368  12.042  63.439  1.00  0.00    -0.635 C  
HETATM    4  C   UNL     1     -11.088  11.588  65.550  1.00  0.00    -0.191 C  
HETATM    5  O   UNL     1     -10.335  10.707  65.950  1.00  0.00    -0.255 OA 
ENDROOT
BRANCH   4   6
HETATM    6  O   UNL     1     -12.027  12.203  66.329  1.00  0.00    -0.605 OA 
BRANCH   6   7
HETATM    7  C   UNL     1     -11.591  12.406  67.681  1.00  0.00    -0.357 C  
HETATM    8  C   UNL     1     -11.996  13.808  68.138  1.00  0.00    -0.394 C  
BRANCH   7   9
HETATM    9  O   UNL     1     -12.273  11.563  68.625  1.00  0.00    -0.492 OA 
BRANCH   9  10
HETATM   10  C   UNL     1     -11.541  11.161  69.684  1.00  0.00    -0.326 C  
HETATM   11  O   UNL     1     -11.810  11.358  70.853  1.00  0.00    -0.258 OA 
HETATM   12  N   UNL     1     -10.501  10.413  69.208  1.00  0.00    -0.220 N  
HETATM   13  H   UNL     1     -10.394  10.309  68.199  1.00  0.00     0.000 HD 
BRANCH  12  14
HETATM   14  C   UNL     1      -9.545   9.763  70.079  1.00  0.00    -0.241 C  
BRANCH  14  15
HETATM   15  C   UNL     1      -9.721   8.210  70.161  1.00  0.00    -0.175 C  
HETATM   16  C   UNL     1      -8.783   7.604  71.240  1.00  0.00    -0.137 C  
HETATM   17  C   UNL     1     -11.204   7.914  70.528  1.00  0.00    -0.259 C  
HETATM   18  C   UNL     1     -11.569   8.263  71.973  1.00  0.00    -0.403 C  
HETATM   19  C   UNL     1      -9.172   7.968  72.671  1.00  0.00    -0.304 C  
HETATM   20  C   UNL     1     -10.621   7.597  72.960  1.00  0.00    -0.433 C  
BRANCH  15  21
HETATM   21  C   UNL     1      -9.392   7.605  68.764  1.00  0.00    -0.148 C  
HETATM   22  O   UNL     1     -11.372   6.783  67.638  1.00  0.00    -0.208 OA 
HETATM   23  C   UNL     1     -10.349   6.541  68.260  1.00  0.00    -0.190 C  
HETATM   24  O   UNL     1      -9.968   5.278  68.553  1.00  0.00    -0.149 OA 
ENDBRANCH  15  21
ENDBRANCH  14  15
ENDBRANCH  12  14
ENDBRANCH   9  10
ENDBRANCH   7   9
ENDBRANCH   6   7
ENDBRANCH   4   6
TORSDOF 7
ENDMDL
MODEL       81
REMARK 921   NORMALIZED FREE ENERGY PREDICTED BY IDOCK:   -4.56 KCAL/MOL
REMARK 922        TOTAL FREE ENERGY PREDICTED BY IDOCK:   -8.05 KCAL/MOL
REMARK 923 INTER-LIGAND FREE ENERGY PREDICTED BY IDOCK:   -6.70 KCAL/MOL
REMARK 924 INTRA-LIGAND FREE ENERGY PREDICTED BY IDOCK:   -1.35 KCAL/MOL
REMARK 927      BINDING AFFINITY PREDICTED BY RF-SCORE:    0.00 PKD
ROOT
HETATM    1  C   UNL     1      -9.400  12.250  67.609  1.00  0.00    -0.186 C  
HETATM    2  C   UNL     1     -10.858  12.288  68.079  1.00  0.00    -0.253 C  
HETATM    3  C   UNL     1     -11.778  12.561  66.896  1.00  0.00    -0.447 C  
HETATM    4  C   UNL     1     -11.224  10.983  68.769  1.00  0.00    -0.266 C  
HETATM    5  O   UNL     1     -10.440  10.055  68.935  1.00  0.00    -0.191 OA 
ENDROOT
BRANCH   4   6
HETATM    6  O   UNL     1     -12.505  10.996  69.245  1.00  0.00    -0.400 OA 
BRANCH   6   7
HETATM    7  C   UNL     1     -12.580  10.791  70.663  1.00  0.00    -0.357 C  
HETATM    8  C   UNL     1     -12.870  12.124  71.353  1.00  0.00    -0.378 C  
BRANCH   7   9
HETATM    9  O   UNL     1     -13.705   9.986  71.056  1.00  0.00    -0.241 OA 
BRANCH   9  10
HETATM   10  C   UNL     1     -13.417   8.720  71.421  1.00  0.00    -0.245 C  
HETATM   11  O   UNL     1     -14.109   8.005  72.120  1.00  0.00    -0.319 OA 
HETATM   12  N   UNL     1     -12.263   8.358  70.786  1.00  0.00    -0.496 N  
HETATM   13  H   UNL     1     -11.783   9.051  70.211  1.00  0.00     0.000 HD 
BRANCH  12  14
HETATM   14  C   UNL     1     -11.693   7.033  70.899  1.00  0.00    -0.343 C  
BRANCH  14  15
HETATM   15  C   UNL     1     -10.458   6.956  71.858  1.00  0.00    -0.224 C  
HETATM   16  C   UNL     1     -10.876   6.419  73.253  1.00  0.00    -0.270 C  
HETATM   17  C   UNL     1      -9.412   5.998  71.218  1.00  0.00    -0.180 C  
HETATM   18  C   UNL     1      -9.819   4.523  71.248  1.00  0.00    -0.260 C  
HETATM   19  C   UNL     1     -11.276   4.945  73.254  1.00  0.00    -0.423 C  
HETATM   20  C   UNL     1     -10.175   4.075  72.660  1.00  0.00    -0.232 C  
BRANCH  15  21
HETATM   21  C   UNL     1      -9.853   8.385  71.993  1.00  0.00    -0.354 C  
HETATM   22  O   UNL     1      -7.447   8.385  71.716  1.00  0.00    -0.089 OA 
HETATM   23  C   UNL     1      -8.412   8.453  72.463  1.00  0.00    -0.162 C  
HETATM   24  O   UNL     1      -8.277   8.605  73.798  1.00  0.00    -0.388 OA 
ENDBRANCH  15  21
ENDBRANCH  14  15
ENDBRANCH  12  14
ENDBRANCH   9  10
ENDBRANCH   7   9
ENDBRANCH   6   7
ENDBRANCH   4   6
TORSDOF 7
ENDMDL
MODEL       82
REMARK 921   NORMALIZED FREE ENERGY PREDICTED BY IDOCK:   -4.54 KCAL/MOL
REMARK 922        TOTAL FREE ENERGY PREDICTED BY IDOCK:   -8.03 KCAL/MOL
REMARK 923 INTER-LIGAND FREE ENERGY PREDICTED BY IDOCK:   -7.43 KCAL/MOL
REMARK 924 INTRA-LIGAND FREE ENERGY PREDICTED BY IDOCK:   -0.60 KCAL/MOL
REMARK 927      BINDING AFFINITY PREDICTED BY RF-SCORE:    0.00 PKD
ROOT
HETATM    1  C   UNL     1     -11.119  10.142  70.388  1.00  0.00    -0.393 C  
HETATM    2  C   UNL     1     -11.767  10.842  69.189  1.00  0.00    -0.397 C  
HETATM    3  C   UNL     1     -11.856  12.341  69.448  1.00  0.00    -0.370 C  
HETATM    4  C   UNL     1     -10.982  10.551  67.920  1.00  0.00    -0.295 C  
HETATM    5  O   UNL     1      -9.988   9.835  67.882  1.00  0.00    -0.152 OA 
ENDROOT
BRANCH   4   6
HETATM    6  O   UNL     1     -11.557  11.120  66.819  1.00  0.00    -0.381 OA 
BRANCH   6   7
HETATM    7  C   UNL     1     -10.601  11.504  65.819  1.00  0.00    -0.263 C  
HETATM    8  C   UNL     1     -10.152  10.265  65.046  1.00  0.00    -0.353 C  
BRANCH   7   9
HETATM    9  O   UNL     1     -11.168  12.328  64.786  1.00  0.00    -0.301 OA 
BRANCH   9  10
HETATM   10  C   UNL     1     -11.809  13.436  65.209  1.00  0.00    -0.348 C  
HETATM   11  O   UNL     1     -12.870  13.852  64.785  1.00  0.00    -0.679 OA 
HETATM   12  N   UNL     1     -11.103  13.947  66.262  1.00  0.00    -0.302 N  
HETATM   13  H   UNL     1     -10.230  13.492  66.532  1.00  0.00     0.000 HD 
BRANCH  12  14
HETATM   14  C   UNL     1     -11.543  15.107  67.007  1.00  0.00    -0.174 C  
BRANCH  14  15
HETATM   15  C   UNL     1     -10.428  16.188  67.207  1.00  0.00    -0.309 C  
HETATM   16  C   UNL     1     -10.490  16.786  68.638  1.00  0.00    -0.333 C  
HETATM   17  C   UNL     1      -9.049  15.503  66.983  1.00  0.00    -0.250 C  
HETATM   18  C   UNL     1      -8.642  14.543  68.103  1.00  0.00    -0.169 C  
HETATM   19  C   UNL     1     -10.077  15.807  69.735  1.00  0.00    -0.277 C  
HETATM   20  C   UNL     1      -8.696  15.225  69.463  1.00  0.00    -0.178 C  
BRANCH  15  21
HETATM   21  C   UNL     1     -10.639  17.310  66.148  1.00  0.00    -0.204 C  
HETATM   22  O   UNL     1      -8.834  18.925  66.161  1.00  0.00    -0.429 OA 
HETATM   23  C   UNL     1      -9.986  18.645  66.457  1.00  0.00    -0.380 C  
HETATM   24  O   UNL     1     -10.798  19.518  67.092  1.00  0.00    -0.491 OA 
ENDBRANCH  15  21
ENDBRANCH  14  15
ENDBRANCH  12  14
ENDBRANCH   9  10
ENDBRANCH   7   9
ENDBRANCH   6   7
ENDBRANCH   4   6
TORSDOF 7
ENDMDL
MODEL       83
REMARK 921   NORMALIZED FREE ENERGY PREDICTED BY IDOCK:   -4.53 KCAL/MOL
REMARK 922        TOTAL FREE ENERGY PREDICTED BY IDOCK:   -8.02 KCAL/MOL
REMARK 923 INTER-LIGAND FREE ENERGY PREDICTED BY IDOCK:   -6.74 KCAL/MOL
REMARK 924 INTRA-LIGAND FREE ENERGY PREDICTED BY IDOCK:   -1.28 KCAL/MOL
REMARK 927      BINDING AFFINITY PREDICTED BY RF-SCORE:    0.00 PKD
ROOT
HETATM    1  C   UNL     1      -6.885  16.948  69.117  1.00  0.00    -0.238 C  
HETATM    2  C   UNL     1      -7.608  17.609  67.939  1.00  0.00    -0.210 C  
HETATM    3  C   UNL     1      -6.829  18.831  67.471  1.00  0.00    -0.208 C  
HETATM    4  C   UNL     1      -7.795  16.611  66.806  1.00  0.00    -0.255 C  
HETATM    5  O   UNL     1      -7.431  15.442  66.861  1.00  0.00    -0.176 OA 
ENDROOT
BRANCH   4   6
HETATM    6  O   UNL     1      -8.479  17.151  65.754  1.00  0.00    -0.522 OA 
BRANCH   6   7
HETATM    7  C   UNL     1      -9.904  17.056  65.902  1.00  0.00    -0.177 C  
HETATM    8  C   UNL     1     -10.525  18.442  65.729  1.00  0.00    -0.250 C  
BRANCH   7   9
HETATM    9  O   UNL     1     -10.529  16.301  64.849  1.00  0.00    -0.624 OA 
BRANCH   9  10
HETATM   10  C   UNL     1     -11.403  15.356  65.250  1.00  0.00    -0.243 C  
HETATM   11  O   UNL     1     -12.103  14.678  64.522  1.00  0.00    -0.461 OA 
HETATM   12  N   UNL     1     -11.287  15.232  66.605  1.00  0.00    -0.236 N  
HETATM   13  H   UNL     1     -10.647  15.853  67.101  1.00  0.00     0.000 HD 
BRANCH  12  14
HETATM   14  C   UNL     1     -12.035  14.254  67.367  1.00  0.00    -0.391 C  
BRANCH  14  15
HETATM   15  C   UNL     1     -11.222  13.613  68.542  1.00  0.00    -0.310 C  
HETATM   16  C   UNL     1     -10.032  14.523  68.949  1.00  0.00    -0.206 C  
HETATM   17  C   UNL     1     -12.186  13.435  69.751  1.00  0.00    -0.307 C  
HETATM   18  C   UNL     1     -12.580  14.748  70.432  1.00  0.00    -0.399 C  
HETATM   19  C   UNL     1     -10.454  15.825  69.627  1.00  0.00    -0.289 C  
HETATM   20  C   UNL     1     -11.350  15.556  70.829  1.00  0.00    -0.384 C  
BRANCH  15  21
HETATM   21  C   UNL     1     -10.698  12.224  68.074  1.00  0.00    -0.245 C  
HETATM   22  O   UNL     1      -8.377  12.309  67.391  1.00  0.00    -0.159 OA 
HETATM   23  C   UNL     1      -9.556  12.248  67.076  1.00  0.00    -0.208 C  
HETATM   24  O   UNL     1      -9.953  12.187  65.786  1.00  0.00    -0.242 OA 
ENDBRANCH  15  21
ENDBRANCH  14  15
ENDBRANCH  12  14
ENDBRANCH   9  10
ENDBRANCH   7   9
ENDBRANCH   6   7
ENDBRANCH   4   6
TORSDOF 7
ENDMDL
MODEL       84
REMARK 921   NORMALIZED FREE ENERGY PREDICTED BY IDOCK:   -4.52 KCAL/MOL
REMARK 922        TOTAL FREE ENERGY PREDICTED BY IDOCK:   -8.01 KCAL/MOL
REMARK 923 INTER-LIGAND FREE ENERGY PREDICTED BY IDOCK:   -6.60 KCAL/MOL
REMARK 924 INTRA-LIGAND FREE ENERGY PREDICTED BY IDOCK:   -1.41 KCAL/MOL
REMARK 927      BINDING AFFINITY PREDICTED BY RF-SCORE:    0.00 PKD
ROOT
HETATM    1  C   UNL     1     -11.217  16.376  69.352  1.00  0.00    -0.267 C  
HETATM    2  C   UNL     1     -10.875  15.895  67.938  1.00  0.00    -0.327 C  
HETATM    3  C   UNL     1      -9.364  15.813  67.769  1.00  0.00    -0.206 C  
HETATM    4  C   UNL     1     -11.531  14.551  67.665  1.00  0.00    -0.353 C  
HETATM    5  O   UNL     1     -12.248  13.965  68.469  1.00  0.00    -0.342 OA 
ENDROOT
BRANCH   4   6
HETATM    6  O   UNL     1     -11.288  14.110  66.394  1.00  0.00    -0.320 OA 
BRANCH   6   7
HETATM    7  C   UNL     1     -12.457  14.119  65.562  1.00  0.00    -0.476 C  
HETATM    8  C   UNL     1     -12.243  15.086  64.398  1.00  0.00    -0.353 C  
BRANCH   7   9
HETATM    9  O   UNL     1     -12.679  12.867  64.890  1.00  0.00    -0.637 OA 
BRANCH   9  10
HETATM   10  C   UNL     1     -11.568  12.210  64.500  1.00  0.00    -0.336 C  
HETATM   11  O   UNL     1     -10.988  12.354  63.441  1.00  0.00    -0.456 OA 
HETATM   12  N   UNL     1     -11.159  11.430  65.545  1.00  0.00    -0.194 N  
HETATM   13  H   UNL     1     -11.728  11.409  66.392  1.00  0.00     0.000 HD 
BRANCH  12  14
HETATM   14  C   UNL     1      -9.952  10.633  65.500  1.00  0.00    -0.272 C  
BRANCH  14  15
HETATM   15  C   UNL     1      -9.344  10.328  66.910  1.00  0.00    -0.183 C  
HETATM   16  C   UNL     1      -7.999   9.564  66.777  1.00  0.00    -0.109 C  
HETATM   17  C   UNL     1      -9.108  11.685  67.634  1.00  0.00    -0.174 C  
HETATM   18  C   UNL     1      -7.952  12.506  67.057  1.00  0.00    -0.086 C  
HETATM   19  C   UNL     1      -6.864  10.408  66.200  1.00  0.00    -0.125 C  
HETATM   20  C   UNL     1      -6.668  11.689  67.000  1.00  0.00    -0.145 C  
BRANCH  15  21
HETATM   21  C   UNL     1     -10.369   9.473  67.711  1.00  0.00    -0.291 C  
HETATM   22  O   UNL     1     -12.240  10.793  68.497  1.00  0.00    -0.470 OA 
HETATM   23  C   UNL     1     -11.191  10.219  68.745  1.00  0.00    -0.206 C  
HETATM   24  O   UNL     1     -10.663  10.191  69.989  1.00  0.00    -0.268 OA 
ENDBRANCH  15  21
ENDBRANCH  14  15
ENDBRANCH  12  14
ENDBRANCH   9  10
ENDBRANCH   7   9
ENDBRANCH   6   7
ENDBRANCH   4   6
TORSDOF 7
ENDMDL
MODEL       85
REMARK 921   NORMALIZED FREE ENERGY PREDICTED BY IDOCK:   -4.52 KCAL/MOL
REMARK 922        TOTAL FREE ENERGY PREDICTED BY IDOCK:   -8.00 KCAL/MOL
REMARK 923 INTER-LIGAND FREE ENERGY PREDICTED BY IDOCK:   -6.77 KCAL/MOL
REMARK 924 INTRA-LIGAND FREE ENERGY PREDICTED BY IDOCK:   -1.22 KCAL/MOL
REMARK 927      BINDING AFFINITY PREDICTED BY RF-SCORE:    0.00 PKD
ROOT
HETATM    1  C   UNL     1     -10.461  14.064  65.135  1.00  0.00    -0.415 C  
HETATM    2  C   UNL     1     -11.581  13.441  65.975  1.00  0.00    -0.375 C  
HETATM    3  C   UNL     1     -12.533  12.664  65.076  1.00  0.00    -0.556 C  
HETATM    4  C   UNL     1     -10.994  12.546  67.056  1.00  0.00    -0.267 C  
HETATM    5  O   UNL     1      -9.792  12.381  67.227  1.00  0.00    -0.203 OA 
ENDROOT
BRANCH   4   6
HETATM    6  O   UNL     1     -11.962  12.009  67.858  1.00  0.00    -0.526 OA 
BRANCH   6   7
HETATM    7  C   UNL     1     -11.695  12.186  69.257  1.00  0.00    -0.328 C  
HETATM    8  C   UNL     1     -12.109  13.596  69.677  1.00  0.00    -0.378 C  
BRANCH   7   9
HETATM    9  O   UNL     1     -12.518  11.356  70.096  1.00  0.00    -0.260 OA 
BRANCH   9  10
HETATM   10  C   UNL     1     -11.864  10.419  70.810  1.00  0.00    -0.368 C  
HETATM   11  O   UNL     1     -12.309   9.809  71.764  1.00  0.00    -0.376 OA 
HETATM   12  N   UNL     1     -10.653  10.211  70.211  1.00  0.00    -0.367 N  
HETATM   13  H   UNL     1     -10.403  10.780  69.402  1.00  0.00     0.000 HD 
BRANCH  12  14
HETATM   14  C   UNL     1      -9.712   9.215  70.678  1.00  0.00    -0.256 C  
BRANCH  14  15
HETATM   15  C   UNL     1      -9.375   8.118  69.613  1.00  0.00    -0.159 C  
HETATM   16  C   UNL     1      -8.411   7.054  70.204  1.00  0.00    -0.139 C  
HETATM   17  C   UNL     1     -10.708   7.439  69.185  1.00  0.00    -0.180 C  
HETATM   18  C   UNL     1     -11.321   6.537  70.260  1.00  0.00    -0.456 C  
HETATM   19  C   UNL     1      -9.049   6.168  71.273  1.00  0.00    -0.147 C  
HETATM   20  C   UNL     1     -10.317   5.503  70.752  1.00  0.00    -0.321 C  
BRANCH  15  21
HETATM   21  C   UNL     1      -8.717   8.813  68.385  1.00  0.00    -0.135 C  
HETATM   22  O   UNL     1     -10.302   9.182  66.592  1.00  0.00    -0.259 OA 
HETATM   23  C   UNL     1      -9.367   8.537  67.041  1.00  0.00    -0.161 C  
HETATM   24  O   UNL     1      -8.813   7.507  66.365  1.00  0.00    -0.142 OA 
ENDBRANCH  15  21
ENDBRANCH  14  15
ENDBRANCH  12  14
ENDBRANCH   9  10
ENDBRANCH   7   9
ENDBRANCH   6   7
ENDBRANCH   4   6
TORSDOF 7
ENDMDL
MODEL       86
REMARK 921   NORMALIZED FREE ENERGY PREDICTED BY IDOCK:   -4.51 KCAL/MOL
REMARK 922        TOTAL FREE ENERGY PREDICTED BY IDOCK:   -7.99 KCAL/MOL
REMARK 923 INTER-LIGAND FREE ENERGY PREDICTED BY IDOCK:   -6.95 KCAL/MOL
REMARK 924 INTRA-LIGAND FREE ENERGY PREDICTED BY IDOCK:   -1.04 KCAL/MOL
REMARK 927      BINDING AFFINITY PREDICTED BY RF-SCORE:    0.00 PKD
ROOT
HETATM    1  C   UNL     1     -10.855  14.999  64.844  1.00  0.00    -0.430 C  
HETATM    2  C   UNL     1     -11.858  14.461  65.870  1.00  0.00    -0.371 C  
HETATM    3  C   UNL     1     -12.518  13.196  65.336  1.00  0.00    -0.535 C  
HETATM    4  C   UNL     1     -11.164  14.198  67.198  1.00  0.00    -0.317 C  
HETATM    5  O   UNL     1      -9.976  14.417  67.402  1.00  0.00    -0.238 OA 
ENDROOT
BRANCH   4   6
HETATM    6  O   UNL     1     -12.037  13.760  68.154  1.00  0.00    -0.364 OA 
BRANCH   6   7
HETATM    7  C   UNL     1     -11.585  12.576  68.828  1.00  0.00    -0.322 C  
HETATM    8  C   UNL     1     -12.232  12.503  70.211  1.00  0.00    -0.345 C  
BRANCH   7   9
HETATM    9  O   UNL     1     -12.045  11.364  68.204  1.00  0.00    -0.623 OA 
BRANCH   9  10
HETATM   10  C   UNL     1     -11.085  10.480  67.870  1.00  0.00    -0.304 C  
HETATM   11  O   UNL     1     -10.185  10.671  67.074  1.00  0.00    -0.202 OA 
HETATM   12  N   UNL     1     -11.249   9.373  68.655  1.00  0.00    -0.464 N  
HETATM   13  H   UNL     1     -12.040   9.343  69.298  1.00  0.00     0.000 HD 
BRANCH  12  14
HETATM   14  C   UNL     1     -10.346   8.243  68.609  1.00  0.00    -0.200 C  
BRANCH  14  15
HETATM   15  C   UNL     1      -9.919   7.720  70.022  1.00  0.00    -0.187 C  
HETATM   16  C   UNL     1      -8.805   6.645  69.898  1.00  0.00    -0.144 C  
HETATM   17  C   UNL     1      -9.392   8.932  70.843  1.00  0.00    -0.295 C  
HETATM   18  C   UNL     1      -8.034   9.459  70.373  1.00  0.00    -0.190 C  
HETATM   19  C   UNL     1      -7.462   7.200  69.429  1.00  0.00    -0.096 C  
HETATM   20  C   UNL     1      -6.996   8.345  70.319  1.00  0.00    -0.036 C  
BRANCH  15  21
HETATM   21  C   UNL     1     -11.173   7.114  70.719  1.00  0.00    -0.309 C  
HETATM   22  O   UNL     1     -12.789   8.813  71.322  1.00  0.00    -0.302 OA 
HETATM   23  C   UNL     1     -11.913   8.036  71.670  1.00  0.00    -0.298 C  
HETATM   24  O   UNL     1     -11.523   7.922  72.959  1.00  0.00    -0.383 OA 
ENDBRANCH  15  21
ENDBRANCH  14  15
ENDBRANCH  12  14
ENDBRANCH   9  10
ENDBRANCH   7   9
ENDBRANCH   6   7
ENDBRANCH   4   6
TORSDOF 7
ENDMDL
MODEL       87
REMARK 921   NORMALIZED FREE ENERGY PREDICTED BY IDOCK:   -4.51 KCAL/MOL
REMARK 922        TOTAL FREE ENERGY PREDICTED BY IDOCK:   -7.98 KCAL/MOL
REMARK 923 INTER-LIGAND FREE ENERGY PREDICTED BY IDOCK:   -6.77 KCAL/MOL
REMARK 924 INTRA-LIGAND FREE ENERGY PREDICTED BY IDOCK:   -1.21 KCAL/MOL
REMARK 927      BINDING AFFINITY PREDICTED BY RF-SCORE:    0.00 PKD
ROOT
HETATM    1  C   UNL     1     -11.063   6.308  69.471  1.00  0.00    -0.476 C  
HETATM    2  C   UNL     1     -11.280   7.369  70.555  1.00  0.00    -0.296 C  
HETATM    3  C   UNL     1     -10.414   7.057  71.768  1.00  0.00    -0.223 C  
HETATM    4  C   UNL     1     -10.976   8.754  70.006  1.00  0.00    -0.209 C  
HETATM    5  O   UNL     1     -10.630   8.969  68.850  1.00  0.00    -0.222 OA 
ENDROOT
BRANCH   4   6
HETATM    6  O   UNL     1     -11.203   9.734  70.931  1.00  0.00    -0.304 OA 
BRANCH   6   7
HETATM    7  C   UNL     1     -12.111  10.745  70.468  1.00  0.00    -0.366 C  
HETATM    8  C   UNL     1     -13.052  11.140  71.606  1.00  0.00    -0.529 C  
BRANCH   7   9
HETATM    9  O   UNL     1     -11.458  11.988  70.157  1.00  0.00    -0.192 OA 
BRANCH   9  10
HETATM   10  C   UNL     1     -11.754  12.518  68.954  1.00  0.00    -0.322 C  
HETATM   11  O   UNL     1     -12.281  13.597  68.760  1.00  0.00    -0.339 OA 
HETATM   12  N   UNL     1     -11.270  11.671  67.997  1.00  0.00    -0.242 N  
HETATM   13  H   UNL     1     -10.832  10.799  68.292  1.00  0.00     0.000 HD 
BRANCH  12  14
HETATM   14  C   UNL     1     -11.355  11.962  66.582  1.00  0.00    -0.337 C  
BRANCH  14  15
HETATM   15  C   UNL     1      -9.976  12.312  65.927  1.00  0.00    -0.272 C  
HETATM   16  C   UNL     1      -9.203  11.020  65.547  1.00  0.00    -0.235 C  
HETATM   17  C   UNL     1     -10.252  13.154  64.648  1.00  0.00    -0.327 C  
HETATM   18  C   UNL     1     -10.859  12.353  63.494  1.00  0.00    -0.487 C  
HETATM   19  C   UNL     1      -9.831  10.242  64.392  1.00  0.00    -0.374 C  
HETATM   20  C   UNL     1     -10.016  11.127  63.167  1.00  0.00    -0.393 C  
BRANCH  15  21
HETATM   21  C   UNL     1      -9.149  13.151  66.944  1.00  0.00    -0.231 C  
HETATM   22  O   UNL     1      -6.832  12.451  67.030  1.00  0.00    -0.117 OA 
HETATM   23  C   UNL     1      -7.939  12.459  67.546  1.00  0.00    -0.173 C  
HETATM   24  O   UNL     1      -8.188  11.847  68.724  1.00  0.00    -0.106 OA 
ENDBRANCH  15  21
ENDBRANCH  14  15
ENDBRANCH  12  14
ENDBRANCH   9  10
ENDBRANCH   7   9
ENDBRANCH   6   7
ENDBRANCH   4   6
TORSDOF 7
ENDMDL
MODEL       88
REMARK 921   NORMALIZED FREE ENERGY PREDICTED BY IDOCK:   -4.50 KCAL/MOL
REMARK 922        TOTAL FREE ENERGY PREDICTED BY IDOCK:   -7.98 KCAL/MOL
REMARK 923 INTER-LIGAND FREE ENERGY PREDICTED BY IDOCK:   -6.88 KCAL/MOL
REMARK 924 INTRA-LIGAND FREE ENERGY PREDICTED BY IDOCK:   -1.09 KCAL/MOL
REMARK 927      BINDING AFFINITY PREDICTED BY RF-SCORE:    0.00 PKD
ROOT
HETATM    1  C   UNL     1     -10.094   4.752  68.926  1.00  0.00    -0.149 C  
HETATM    2  C   UNL     1     -10.199   6.280  68.875  1.00  0.00    -0.219 C  
HETATM    3  C   UNL     1     -10.835   6.713  67.560  1.00  0.00    -0.417 C  
HETATM    4  C   UNL     1     -10.994   6.795  70.064  1.00  0.00    -0.295 C  
HETATM    5  O   UNL     1     -11.456   6.073  70.941  1.00  0.00    -0.284 OA 
ENDROOT
BRANCH   4   6
HETATM    6  O   UNL     1     -11.070   8.159  70.079  1.00  0.00    -0.233 OA 
BRANCH   6   7
HETATM    7  C   UNL     1     -10.892   8.718  71.390  1.00  0.00    -0.289 C  
HETATM    8  C   UNL     1      -9.417   8.627  71.783  1.00  0.00    -0.354 C  
BRANCH   7   9
HETATM    9  O   UNL     1     -11.139  10.134  71.436  1.00  0.00    -0.169 OA 
BRANCH   9  10
HETATM   10  C   UNL     1     -12.031  10.599  70.538  1.00  0.00    -0.352 C  
HETATM   11  O   UNL     1     -13.238  10.632  70.683  1.00  0.00    -0.266 OA 
HETATM   12  N   UNL     1     -11.328  11.113  69.484  1.00  0.00    -0.265 N  
HETATM   13  H   UNL     1     -10.311  11.037  69.491  1.00  0.00     0.000 HD 
BRANCH  12  14
HETATM   14  C   UNL     1     -11.970  11.761  68.360  1.00  0.00    -0.183 C  
BRANCH  14  15
HETATM   15  C   UNL     1     -11.057  12.801  67.627  1.00  0.00    -0.294 C  
HETATM   16  C   UNL     1      -9.855  12.094  66.944  1.00  0.00    -0.213 C  
HETATM   17  C   UNL     1     -11.921  13.523  66.553  1.00  0.00    -0.460 C  
HETATM   18  C   UNL     1     -12.283  12.647  65.351  1.00  0.00    -0.517 C  
HETATM   19  C   UNL     1     -10.245  11.228  65.749  1.00  0.00    -0.301 C  
HETATM   20  C   UNL     1     -11.040  12.027  64.724  1.00  0.00    -0.369 C  
BRANCH  15  21
HETATM   21  C   UNL     1     -10.547  13.831  68.677  1.00  0.00    -0.263 C  
HETATM   22  O   UNL     1     -12.137  14.162  70.474  1.00  0.00    -0.308 OA 
HETATM   23  C   UNL     1     -11.620  14.578  69.447  1.00  0.00    -0.303 C  
HETATM   24  O   UNL     1     -11.960  15.767  68.902  1.00  0.00    -0.382 OA 
ENDBRANCH  15  21
ENDBRANCH  14  15
ENDBRANCH  12  14
ENDBRANCH   9  10
ENDBRANCH   7   9
ENDBRANCH   6   7
ENDBRANCH   4   6
TORSDOF 7
ENDMDL
MODEL       89
REMARK 921   NORMALIZED FREE ENERGY PREDICTED BY IDOCK:   -4.49 KCAL/MOL
REMARK 922        TOTAL FREE ENERGY PREDICTED BY IDOCK:   -7.96 KCAL/MOL
REMARK 923 INTER-LIGAND FREE ENERGY PREDICTED BY IDOCK:   -7.11 KCAL/MOL
REMARK 924 INTRA-LIGAND FREE ENERGY PREDICTED BY IDOCK:   -0.85 KCAL/MOL
REMARK 927      BINDING AFFINITY PREDICTED BY RF-SCORE:    0.00 PKD
ROOT
HETATM    1  C   UNL     1     -10.845   5.751  67.210  1.00  0.00    -0.290 C  
HETATM    2  C   UNL     1     -11.139   6.621  68.437  1.00  0.00    -0.281 C  
HETATM    3  C   UNL     1     -10.750   5.875  69.707  1.00  0.00    -0.411 C  
HETATM    4  C   UNL     1     -10.401   7.947  68.332  1.00  0.00    -0.199 C  
HETATM    5  O   UNL     1      -9.697   8.263  67.380  1.00  0.00    -0.155 OA 
ENDROOT
BRANCH   4   6
HETATM    6  O   UNL     1     -10.676   8.771  69.387  1.00  0.00    -0.224 OA 
BRANCH   6   7
HETATM    7  C   UNL     1     -10.973  10.117  68.987  1.00  0.00    -0.226 C  
HETATM    8  C   UNL     1     -12.092  10.672  69.869  1.00  0.00    -0.372 C  
BRANCH   7   9
HETATM    9  O   UNL     1      -9.893  11.031  69.243  1.00  0.00    -0.156 OA 
BRANCH   9  10
HETATM   10  C   UNL     1      -9.526  11.806  68.202  1.00  0.00    -0.193 C  
HETATM   11  O   UNL     1      -9.017  11.416  67.168  1.00  0.00    -0.156 OA 
HETATM   12  N   UNL     1      -9.917  13.085  68.479  1.00  0.00    -0.344 N  
HETATM   13  H   UNL     1     -10.351  13.280  69.381  1.00  0.00     0.000 HD 
BRANCH  12  14
HETATM   14  C   UNL     1      -9.740  14.175  67.543  1.00  0.00    -0.234 C  
BRANCH  14  15
HETATM   15  C   UNL     1     -11.057  14.967  67.241  1.00  0.00    -0.336 C  
HETATM   16  C   UNL     1     -11.536  15.741  68.498  1.00  0.00    -0.367 C  
HETATM   17  C   UNL     1     -10.760  15.969  66.088  1.00  0.00    -0.246 C  
HETATM   18  C   UNL     1      -9.873  17.147  66.499  1.00  0.00    -0.305 C  
HETATM   19  C   UNL     1     -10.633  16.910  68.885  1.00  0.00    -0.353 C  
HETATM   20  C   UNL     1     -10.440  17.868  67.716  1.00  0.00    -0.409 C  
BRANCH  15  21
HETATM   21  C   UNL     1     -12.147  13.950  66.790  1.00  0.00    -0.476 C  
HETATM   22  O   UNL     1     -11.359  12.493  65.024  1.00  0.00    -0.296 OA 
HETATM   23  C   UNL     1     -12.038  13.451  65.361  1.00  0.00    -0.421 C  
HETATM   24  O   UNL     1     -12.772  14.159  64.476  1.00  0.00    -0.656 OA 
ENDBRANCH  15  21
ENDBRANCH  14  15
ENDBRANCH  12  14
ENDBRANCH   9  10
ENDBRANCH   7   9
ENDBRANCH   6   7
ENDBRANCH   4   6
TORSDOF 7
ENDMDL
MODEL       90
REMARK 921   NORMALIZED FREE ENERGY PREDICTED BY IDOCK:   -4.48 KCAL/MOL
REMARK 922        TOTAL FREE ENERGY PREDICTED BY IDOCK:   -7.95 KCAL/MOL
REMARK 923 INTER-LIGAND FREE ENERGY PREDICTED BY IDOCK:   -6.64 KCAL/MOL
REMARK 924 INTRA-LIGAND FREE ENERGY PREDICTED BY IDOCK:   -1.31 KCAL/MOL
REMARK 927      BINDING AFFINITY PREDICTED BY RF-SCORE:    0.00 PKD
ROOT
HETATM    1  C   UNL     1     -11.164  12.652  63.899  1.00  0.00    -0.497 C  
HETATM    2  C   UNL     1     -11.342  13.832  64.859  1.00  0.00    -0.353 C  
HETATM    3  C   UNL     1     -12.260  14.875  64.234  1.00  0.00    -0.365 C  
HETATM    4  C   UNL     1     -11.889  13.349  66.193  1.00  0.00    -0.385 C  
HETATM    5  O   UNL     1     -12.124  12.174  66.449  1.00  0.00    -0.630 OA 
ENDROOT
BRANCH   4   6
HETATM    6  O   UNL     1     -12.018  14.369  67.094  1.00  0.00    -0.405 OA 
BRANCH   6   7
HETATM    7  C   UNL     1     -11.338  14.115  68.332  1.00  0.00    -0.287 C  
HETATM    8  C   UNL     1     -10.640  15.393  68.798  1.00  0.00    -0.235 C  
BRANCH   7   9
HETATM    9  O   UNL     1     -12.235  13.835  69.420  1.00  0.00    -0.334 OA 
BRANCH   9  10
HETATM   10  C   UNL     1     -12.028  12.668  70.061  1.00  0.00    -0.306 C  
HETATM   11  O   UNL     1     -12.585  12.305  71.080  1.00  0.00    -0.361 OA 
HETATM   12  N   UNL     1     -11.156  11.931  69.310  1.00  0.00    -0.368 N  
HETATM   13  H   UNL     1     -10.770  12.346  68.462  1.00  0.00     0.000 HD 
BRANCH  12  14
HETATM   14  C   UNL     1     -10.760  10.586  69.669  1.00  0.00    -0.259 C  
BRANCH  14  15
HETATM   15  C   UNL     1      -9.773   9.926  68.648  1.00  0.00    -0.163 C  
HETATM   16  C   UNL     1      -8.936  11.007  67.913  1.00  0.00    -0.144 C  
HETATM   17  C   UNL     1      -8.827   8.977  69.440  1.00  0.00    -0.144 C  
HETATM   18  C   UNL     1      -7.803   9.706  70.313  1.00  0.00    -0.193 C  
HETATM   19  C   UNL     1      -7.922  11.716  68.808  1.00  0.00    -0.086 C  
HETATM   20  C   UNL     1      -7.004  10.717  69.502  1.00  0.00    -0.130 C  
BRANCH  15  21
HETATM   21  C   UNL     1     -10.607   9.104  67.621  1.00  0.00    -0.307 C  
HETATM   22  O   UNL     1      -9.206   7.736  66.198  1.00  0.00    -0.174 OA 
HETATM   23  C   UNL     1      -9.895   8.735  66.333  1.00  0.00    -0.282 C  
HETATM   24  O   UNL     1     -10.094   9.613  65.326  1.00  0.00    -0.237 OA 
ENDBRANCH  15  21
ENDBRANCH  14  15
ENDBRANCH  12  14
ENDBRANCH   9  10
ENDBRANCH   7   9
ENDBRANCH   6   7
ENDBRANCH   4   6
TORSDOF 7
ENDMDL
MODEL       91
REMARK 921   NORMALIZED FREE ENERGY PREDICTED BY IDOCK:   -4.48 KCAL/MOL
REMARK 922        TOTAL FREE ENERGY PREDICTED BY IDOCK:   -7.94 KCAL/MOL
REMARK 923 INTER-LIGAND FREE ENERGY PREDICTED BY IDOCK:   -6.80 KCAL/MOL
REMARK 924 INTRA-LIGAND FREE ENERGY PREDICTED BY IDOCK:   -1.14 KCAL/MOL
REMARK 927      BINDING AFFINITY PREDICTED BY RF-SCORE:    0.00 PKD
ROOT
HETATM    1  C   UNL     1      -9.310  12.428  67.894  1.00  0.00    -0.195 C  
HETATM    2  C   UNL     1     -10.801  12.318  68.230  1.00  0.00    -0.254 C  
HETATM    3  C   UNL     1     -11.614  12.196  66.948  1.00  0.00    -0.408 C  
HETATM    4  C   UNL     1     -11.048  11.134  69.152  1.00  0.00    -0.248 C  
HETATM    5  O   UNL     1     -10.161  10.400  69.572  1.00  0.00    -0.227 OA 
ENDROOT
BRANCH   4   6
HETATM    6  O   UNL     1     -12.362  11.031  69.513  1.00  0.00    -0.324 OA 
BRANCH   6   7
HETATM    7  C   UNL     1     -12.556  11.031  70.935  1.00  0.00    -0.391 C  
HETATM    8  C   UNL     1     -12.691  12.472  71.427  1.00  0.00    -0.345 C  
BRANCH   7   9
HETATM    9  O   UNL     1     -13.809  10.448  71.332  1.00  0.00     0.009 OA 
BRANCH   9  10
HETATM   10  C   UNL     1     -13.736   9.204  71.846  1.00  0.00    -0.424 C  
HETATM   11  O   UNL     1     -14.349   8.795  72.814  1.00  0.00    -0.569 OA 
HETATM   12  N   UNL     1     -12.928   8.464  71.030  1.00  0.00    -0.502 N  
HETATM   13  H   UNL     1     -12.482   8.924  70.235  1.00  0.00     0.000 HD 
BRANCH  12  14
HETATM   14  C   UNL     1     -12.679   7.055  71.247  1.00  0.00    -0.351 C  
BRANCH  14  15
HETATM   15  C   UNL     1     -11.173   6.651  71.097  1.00  0.00    -0.340 C  
HETATM   16  C   UNL     1     -10.252   7.684  71.800  1.00  0.00    -0.225 C  
HETATM   17  C   UNL     1     -10.985   5.250  71.750  1.00  0.00    -0.143 C  
HETATM   18  C   UNL     1     -11.071   5.259  73.278  1.00  0.00    -0.376 C  
HETATM   19  C   UNL     1     -10.358   7.670  73.323  1.00  0.00    -0.405 C  
HETATM   20  C   UNL     1     -10.108   6.274  73.880  1.00  0.00    -0.283 C  
BRANCH  15  21
HETATM   21  C   UNL     1     -10.834   6.576  69.579  1.00  0.00    -0.360 C  
HETATM   22  O   UNL     1      -9.827   4.459  68.974  1.00  0.00    -0.173 OA 
HETATM   23  C   UNL     1      -9.692   5.652  69.200  1.00  0.00    -0.145 C  
HETATM   24  O   UNL     1      -8.492   6.267  69.122  1.00  0.00    -0.119 OA 
ENDBRANCH  15  21
ENDBRANCH  14  15
ENDBRANCH  12  14
ENDBRANCH   9  10
ENDBRANCH   7   9
ENDBRANCH   6   7
ENDBRANCH   4   6
TORSDOF 7
ENDMDL
MODEL       92
REMARK 921   NORMALIZED FREE ENERGY PREDICTED BY IDOCK:   -4.47 KCAL/MOL
REMARK 922        TOTAL FREE ENERGY PREDICTED BY IDOCK:   -7.94 KCAL/MOL
REMARK 923 INTER-LIGAND FREE ENERGY PREDICTED BY IDOCK:   -6.86 KCAL/MOL
REMARK 924 INTRA-LIGAND FREE ENERGY PREDICTED BY IDOCK:   -1.08 KCAL/MOL
REMARK 927      BINDING AFFINITY PREDICTED BY RF-SCORE:    0.00 PKD
ROOT
HETATM    1  C   UNL     1     -13.530  10.274  71.961  1.00  0.00    -0.385 C  
HETATM    2  C   UNL     1     -12.563  11.340  71.434  1.00  0.00    -0.456 C  
HETATM    3  C   UNL     1     -12.403  11.196  69.926  1.00  0.00    -0.330 C  
HETATM    4  C   UNL     1     -13.059  12.730  71.801  1.00  0.00    -0.356 C  
HETATM    5  O   UNL     1     -14.078  12.942  72.449  1.00  0.00    -0.476 OA 
ENDROOT
BRANCH   4   6
HETATM    6  O   UNL     1     -12.198  13.708  71.389  1.00  0.00    -0.281 OA 
BRANCH   6   7
HETATM    7  C   UNL     1     -12.811  15.004  71.319  1.00  0.00    -0.367 C  
HETATM    8  C   UNL     1     -12.290  15.872  72.465  1.00  0.00    -0.575 C  
BRANCH   7   9
HETATM    9  O   UNL     1     -12.415  15.752  70.157  1.00  0.00    -0.370 OA 
BRANCH   9  10
HETATM   10  C   UNL     1     -11.672  15.078  69.256  1.00  0.00    -0.323 C  
HETATM   11  O   UNL     1     -12.092  14.511  68.266  1.00  0.00    -0.292 OA 
HETATM   12  N   UNL     1     -10.359  15.233  69.603  1.00  0.00    -0.268 N  
HETATM   13  H   UNL     1     -10.135  15.748  70.454  1.00  0.00     0.000 HD 
BRANCH  12  14
HETATM   14  C   UNL     1      -9.274  14.693  68.811  1.00  0.00    -0.184 C  
BRANCH  14  15
HETATM   15  C   UNL     1      -8.150  15.735  68.488  1.00  0.00    -0.153 C  
HETATM   16  C   UNL     1      -7.204  15.920  69.705  1.00  0.00    -0.104 C  
HETATM   17  C   UNL     1      -7.341  15.205  67.269  1.00  0.00    -0.216 C  
HETATM   18  C   UNL     1      -6.453  14.000  67.586  1.00  0.00    -0.156 C  
HETATM   19  C   UNL     1      -6.329  14.703  69.998  1.00  0.00    -0.165 C  
HETATM   20  C   UNL     1      -5.534  14.286  68.767  1.00  0.00    -0.087 C  
BRANCH  15  21
HETATM   21  C   UNL     1      -8.828  17.089  68.126  1.00  0.00    -0.227 C  
HETATM   22  O   UNL     1     -10.483  16.840  66.376  1.00  0.00    -0.314 OA 
HETATM   23  C   UNL     1      -9.366  17.204  66.712  1.00  0.00    -0.254 C  
HETATM   24  O   UNL     1      -8.497  17.758  65.838  1.00  0.00    -0.522 OA 
ENDBRANCH  15  21
ENDBRANCH  14  15
ENDBRANCH  12  14
ENDBRANCH   9  10
ENDBRANCH   7   9
ENDBRANCH   6   7
ENDBRANCH   4   6
TORSDOF 7
ENDMDL
MODEL       93
REMARK 921   NORMALIZED FREE ENERGY PREDICTED BY IDOCK:   -4.47 KCAL/MOL
REMARK 922        TOTAL FREE ENERGY PREDICTED BY IDOCK:   -7.93 KCAL/MOL
REMARK 923 INTER-LIGAND FREE ENERGY PREDICTED BY IDOCK:   -7.16 KCAL/MOL
REMARK 924 INTRA-LIGAND FREE ENERGY PREDICTED BY IDOCK:   -0.77 KCAL/MOL
REMARK 927      BINDING AFFINITY PREDICTED BY RF-SCORE:    0.00 PKD
ROOT
HETATM    1  C   UNL     1     -12.494  12.160  63.130  1.00  0.00    -0.365 C  
HETATM    2  C   UNL     1     -12.056  11.815  64.557  1.00  0.00    -0.156 C  
HETATM    3  C   UNL     1     -10.545  11.635  64.607  1.00  0.00    -0.366 C  
HETATM    4  C   UNL     1     -12.512  12.896  65.525  1.00  0.00    -0.402 C  
HETATM    5  O   UNL     1     -13.158  13.883  65.191  1.00  0.00    -0.773 OA 
ENDROOT
BRANCH   4   6
HETATM    6  O   UNL     1     -12.181  12.600  66.817  1.00  0.00    -0.506 OA 
BRANCH   6   7
HETATM    7  C   UNL     1     -11.622  13.717  67.525  1.00  0.00    -0.354 C  
HETATM    8  C   UNL     1     -11.667  13.439  69.027  1.00  0.00    -0.368 C  
BRANCH   7   9
HETATM    9  O   UNL     1     -10.215  13.890  67.282  1.00  0.00    -0.246 OA 
BRANCH   9  10
HETATM   10  C   UNL     1      -9.875  14.990  66.581  1.00  0.00    -0.254 C  
HETATM   11  O   UNL     1      -9.907  15.102  65.370  1.00  0.00    -0.328 OA 
HETATM   12  N   UNL     1      -9.583  15.979  67.477  1.00  0.00    -0.221 N  
HETATM   13  H   UNL     1      -9.608  15.760  68.473  1.00  0.00     0.000 HD 
BRANCH  12  14
HETATM   14  C   UNL     1      -9.240  17.325  67.069  1.00  0.00    -0.243 C  
BRANCH  14  15
HETATM   15  C   UNL     1      -7.952  17.885  67.762  1.00  0.00    -0.230 C  
HETATM   16  C   UNL     1      -6.756  17.898  66.773  1.00  0.00    -0.218 C  
HETATM   17  C   UNL     1      -8.255  19.334  68.240  1.00  0.00    -0.372 C  
HETATM   18  C   UNL     1      -8.367  20.354  67.104  1.00  0.00    -0.382 C  
HETATM   19  C   UNL     1      -6.894  18.925  65.651  1.00  0.00    -0.292 C  
HETATM   20  C   UNL     1      -7.135  20.322  66.208  1.00  0.00    -0.306 C  
BRANCH  15  21
HETATM   21  C   UNL     1      -7.623  16.982  68.987  1.00  0.00    -0.194 C  
HETATM   22  O   UNL     1      -5.708  17.793  70.227  1.00  0.00    -0.247 OA 
HETATM   23  C   UNL     1      -6.175  16.982  69.441  1.00  0.00    -0.232 C  
HETATM   24  O   UNL     1      -5.431  15.992  68.903  1.00  0.00    -0.106 OA 
ENDBRANCH  15  21
ENDBRANCH  14  15
ENDBRANCH  12  14
ENDBRANCH   9  10
ENDBRANCH   7   9
ENDBRANCH   6   7
ENDBRANCH   4   6
TORSDOF 7
ENDMDL
MODEL       94
REMARK 921   NORMALIZED FREE ENERGY PREDICTED BY IDOCK:   -4.47 KCAL/MOL
REMARK 922        TOTAL FREE ENERGY PREDICTED BY IDOCK:   -7.92 KCAL/MOL
REMARK 923 INTER-LIGAND FREE ENERGY PREDICTED BY IDOCK:   -6.88 KCAL/MOL
REMARK 924 INTRA-LIGAND FREE ENERGY PREDICTED BY IDOCK:   -1.05 KCAL/MOL
REMARK 927      BINDING AFFINITY PREDICTED BY RF-SCORE:    0.00 PKD
ROOT
HETATM    1  C   UNL     1     -10.212   7.806  67.026  1.00  0.00    -0.375 C  
HETATM    2  C   UNL     1     -10.587   7.472  68.474  1.00  0.00    -0.172 C  
HETATM    3  C   UNL     1     -10.789   5.970  68.625  1.00  0.00    -0.379 C  
HETATM    4  C   UNL     1      -9.517   7.980  69.427  1.00  0.00    -0.159 C  
HETATM    5  O   UNL     1      -8.516   8.590  69.066  1.00  0.00    -0.123 OA 
ENDROOT
BRANCH   4   6
HETATM    6  O   UNL     1      -9.839   7.743  70.733  1.00  0.00    -0.180 OA 
BRANCH   6   7
HETATM    7  C   UNL     1     -11.051   8.394  71.141  1.00  0.00    -0.256 C  
HETATM    8  C   UNL     1     -11.354   8.034  72.596  1.00  0.00    -0.469 C  
BRANCH   7   9
HETATM    9  O   UNL     1     -10.930   9.826  71.193  1.00  0.00    -0.348 OA 
BRANCH   9  10
HETATM   10  C   UNL     1     -11.889  10.516  70.544  1.00  0.00    -0.347 C  
HETATM   11  O   UNL     1     -13.050  10.624  70.891  1.00  0.00    -0.357 OA 
HETATM   12  N   UNL     1     -11.300  11.148  69.485  1.00  0.00    -0.265 N  
HETATM   13  H   UNL     1     -10.308  10.987  69.309  1.00  0.00     0.000 HD 
BRANCH  12  14
HETATM   14  C   UNL     1     -12.027  12.036  68.603  1.00  0.00    -0.235 C  
BRANCH  14  15
HETATM   15  C   UNL     1     -11.160  13.211  68.037  1.00  0.00    -0.290 C  
HETATM   16  C   UNL     1      -9.892  12.668  67.325  1.00  0.00    -0.206 C  
HETATM   17  C   UNL     1     -12.033  14.005  67.023  1.00  0.00    -0.472 C  
HETATM   18  C   UNL     1     -12.296  13.261  65.711  1.00  0.00    -0.505 C  
HETATM   19  C   UNL     1     -10.185  11.931  66.020  1.00  0.00    -0.262 C  
HETATM   20  C   UNL     1     -10.996  12.800  65.066  1.00  0.00    -0.319 C  
BRANCH  15  21
HETATM   21  C   UNL     1     -10.754  14.135  69.223  1.00  0.00    -0.170 C  
HETATM   22  O   UNL     1     -12.191  13.830  71.148  1.00  0.00    -0.349 OA 
HETATM   23  C   UNL     1     -11.867  14.508  70.184  1.00  0.00    -0.308 C  
HETATM   24  O   UNL     1     -12.480  15.675  69.888  1.00  0.00    -0.330 OA 
ENDBRANCH  15  21
ENDBRANCH  14  15
ENDBRANCH  12  14
ENDBRANCH   9  10
ENDBRANCH   7   9
ENDBRANCH   6   7
ENDBRANCH   4   6
TORSDOF 7
ENDMDL
MODEL       95
REMARK 921   NORMALIZED FREE ENERGY PREDICTED BY IDOCK:   -4.46 KCAL/MOL
REMARK 922        TOTAL FREE ENERGY PREDICTED BY IDOCK:   -7.92 KCAL/MOL
REMARK 923 INTER-LIGAND FREE ENERGY PREDICTED BY IDOCK:   -7.21 KCAL/MOL
REMARK 924 INTRA-LIGAND FREE ENERGY PREDICTED BY IDOCK:   -0.71 KCAL/MOL
REMARK 927      BINDING AFFINITY PREDICTED BY RF-SCORE:    0.00 PKD
ROOT
HETATM    1  C   UNL     1     -10.504  13.918  65.148  1.00  0.00    -0.409 C  
HETATM    2  C   UNL     1     -11.667  13.195  65.837  1.00  0.00    -0.427 C  
HETATM    3  C   UNL     1     -12.566  12.546  64.793  1.00  0.00    -0.493 C  
HETATM    4  C   UNL     1     -11.137  12.165  66.822  1.00  0.00    -0.300 C  
HETATM    5  O   UNL     1      -9.945  11.974  67.036  1.00  0.00    -0.202 OA 
ENDROOT
BRANCH   4   6
HETATM    6  O   UNL     1     -12.145  11.532  67.493  1.00  0.00    -0.614 OA 
BRANCH   6   7
HETATM    7  C   UNL     1     -11.924  11.465  68.910  1.00  0.00    -0.304 C  
HETATM    8  C   UNL     1     -11.863  12.882  69.479  1.00  0.00    -0.383 C  
BRANCH   7   9
HETATM    9  O   UNL     1     -13.030  10.889  69.626  1.00  0.00    -0.131 OA 
BRANCH   9  10
HETATM   10  C   UNL     1     -12.744  10.410  70.853  1.00  0.00    -0.385 C  
HETATM   11  O   UNL     1     -13.076  10.912  71.910  1.00  0.00    -0.482 OA 
HETATM   12  N   UNL     1     -12.102   9.214  70.692  1.00  0.00    -0.476 N  
HETATM   13  H   UNL     1     -11.895   8.893  69.747  1.00  0.00     0.000 HD 
BRANCH  12  14
HETATM   14  C   UNL     1     -11.704   8.386  71.810  1.00  0.00    -0.310 C  
BRANCH  14  15
HETATM   15  C   UNL     1     -10.509   7.427  71.491  1.00  0.00    -0.219 C  
HETATM   16  C   UNL     1      -9.397   7.554  72.566  1.00  0.00    -0.200 C  
HETATM   17  C   UNL     1     -11.055   5.969  71.469  1.00  0.00    -0.336 C  
HETATM   18  C   UNL     1     -11.425   5.423  72.850  1.00  0.00    -0.340 C  
HETATM   19  C   UNL     1      -9.793   7.000  73.933  1.00  0.00    -0.354 C  
HETATM   20  C   UNL     1     -10.264   5.555  73.827  1.00  0.00    -0.246 C  
BRANCH  15  21
HETATM   21  C   UNL     1      -9.943   7.800  70.089  1.00  0.00    -0.186 C  
HETATM   22  O   UNL     1      -7.575   8.303  70.167  1.00  0.00    -0.072 OA 
HETATM   23  C   UNL     1      -8.726   8.706  70.085  1.00  0.00    -0.143 C  
HETATM   24  O   UNL     1      -9.021  10.020  69.973  1.00  0.00    -0.195 OA 
ENDBRANCH  15  21
ENDBRANCH  14  15
ENDBRANCH  12  14
ENDBRANCH   9  10
ENDBRANCH   7   9
ENDBRANCH   6   7
ENDBRANCH   4   6
TORSDOF 7
ENDMDL
MODEL       96
REMARK 921   NORMALIZED FREE ENERGY PREDICTED BY IDOCK:   -4.46 KCAL/MOL
REMARK 922        TOTAL FREE ENERGY PREDICTED BY IDOCK:   -7.91 KCAL/MOL
REMARK 923 INTER-LIGAND FREE ENERGY PREDICTED BY IDOCK:   -7.14 KCAL/MOL
REMARK 924 INTRA-LIGAND FREE ENERGY PREDICTED BY IDOCK:   -0.77 KCAL/MOL
REMARK 927      BINDING AFFINITY PREDICTED BY RF-SCORE:    0.00 PKD
ROOT
HETATM    1  C   UNL     1      -9.760   5.569  71.908  1.00  0.00    -0.197 C  
HETATM    2  C   UNL     1      -9.828   5.537  70.378  1.00  0.00    -0.259 C  
HETATM    3  C   UNL     1      -9.703   4.102  69.882  1.00  0.00    -0.280 C  
HETATM    4  C   UNL     1     -11.122   6.172  69.894  1.00  0.00    -0.410 C  
HETATM    5  O   UNL     1     -11.965   6.657  70.640  1.00  0.00    -0.395 OA 
ENDROOT
BRANCH   4   6
HETATM    6  O   UNL     1     -11.198   6.206  68.530  1.00  0.00    -0.341 OA 
BRANCH   6   7
HETATM    7  C   UNL     1     -10.245   7.099  67.935  1.00  0.00    -0.187 C  
HETATM    8  C   UNL     1      -9.730   6.493  66.629  1.00  0.00    -0.201 C  
BRANCH   7   9
HETATM    9  O   UNL     1     -10.833   8.336  67.494  1.00  0.00    -0.192 OA 
BRANCH   9  10
HETATM   10  C   UNL     1     -10.450   9.437  68.172  1.00  0.00    -0.220 C  
HETATM   11  O   UNL     1      -9.387   9.589  68.743  1.00  0.00    -0.143 OA 
HETATM   12  N   UNL     1     -11.427  10.379  68.016  1.00  0.00    -0.484 N  
HETATM   13  H   UNL     1     -12.269  10.131  67.496  1.00  0.00     0.000 HD 
BRANCH  12  14
HETATM   14  C   UNL     1     -11.315  11.717  68.559  1.00  0.00    -0.274 C  
BRANCH  14  15
HETATM   15  C   UNL     1     -11.140  12.827  67.469  1.00  0.00    -0.300 C  
HETATM   16  C   UNL     1     -11.707  14.183  67.968  1.00  0.00    -0.394 C  
HETATM   17  C   UNL     1      -9.620  12.971  67.170  1.00  0.00    -0.230 C  
HETATM   18  C   UNL     1      -8.823  13.629  68.299  1.00  0.00    -0.179 C  
HETATM   19  C   UNL     1     -10.892  14.817  69.093  1.00  0.00    -0.267 C  
HETATM   20  C   UNL     1      -9.429  14.969  68.696  1.00  0.00    -0.212 C  
BRANCH  15  21
HETATM   21  C   UNL     1     -11.891  12.373  66.182  1.00  0.00    -0.442 C  
HETATM   22  O   UNL     1     -11.230  13.661  64.241  1.00  0.00    -0.379 OA 
HETATM   23  C   UNL     1     -12.061  13.430  65.107  1.00  0.00    -0.409 C  
HETATM   24  O   UNL     1     -13.230  14.103  65.179  1.00  0.00    -0.743 OA 
ENDBRANCH  15  21
ENDBRANCH  14  15
ENDBRANCH  12  14
ENDBRANCH   9  10
ENDBRANCH   7   9
ENDBRANCH   6   7
ENDBRANCH   4   6
TORSDOF 7
ENDMDL
MODEL       97
REMARK 921   NORMALIZED FREE ENERGY PREDICTED BY IDOCK:   -4.44 KCAL/MOL
REMARK 922        TOTAL FREE ENERGY PREDICTED BY IDOCK:   -7.89 KCAL/MOL
REMARK 923 INTER-LIGAND FREE ENERGY PREDICTED BY IDOCK:   -6.72 KCAL/MOL
REMARK 924 INTRA-LIGAND FREE ENERGY PREDICTED BY IDOCK:   -1.18 KCAL/MOL
REMARK 927      BINDING AFFINITY PREDICTED BY RF-SCORE:    0.00 PKD
ROOT
HETATM    1  C   UNL     1     -13.178  14.037  72.396  1.00  0.00    -0.585 C  
HETATM    2  C   UNL     1     -12.910  14.846  71.123  1.00  0.00    -0.426 C  
HETATM    3  C   UNL     1     -11.962  15.999  71.430  1.00  0.00    -0.507 C  
HETATM    4  C   UNL     1     -12.344  13.947  70.035  1.00  0.00    -0.316 C  
HETATM    5  O   UNL     1     -12.160  12.743  70.172  1.00  0.00    -0.342 OA 
ENDROOT
BRANCH   4   6
HETATM    6  O   UNL     1     -12.136  14.624  68.866  1.00  0.00    -0.286 OA 
BRANCH   6   7
HETATM    7  C   UNL     1     -11.372  13.875  67.910  1.00  0.00    -0.292 C  
HETATM    8  C   UNL     1     -11.704  14.365  66.501  1.00  0.00    -0.404 C  
BRANCH   7   9
HETATM    9  O   UNL     1      -9.958  14.124  68.001  1.00  0.00    -0.216 OA 
BRANCH   9  10
HETATM   10  C   UNL     1      -9.167  13.039  67.884  1.00  0.00    -0.208 C  
HETATM   11  O   UNL     1      -8.207  12.932  67.145  1.00  0.00    -0.182 OA 
HETATM   12  N   UNL     1      -9.577  12.124  68.812  1.00  0.00    -0.405 N  
HETATM   13  H   UNL     1     -10.392  12.342  69.387  1.00  0.00     0.000 HD 
BRANCH  12  14
HETATM   14  C   UNL     1      -8.904  10.859  69.013  1.00  0.00    -0.096 C  
BRANCH  14  15
HETATM   15  C   UNL     1      -9.871   9.628  69.044  1.00  0.00    -0.183 C  
HETATM   16  C   UNL     1     -10.873   9.683  67.860  1.00  0.00    -0.272 C  
HETATM   17  C   UNL     1      -9.008   8.337  68.942  1.00  0.00    -0.144 C  
HETATM   18  C   UNL     1      -8.390   8.109  67.561  1.00  0.00    -0.123 C  
HETATM   19  C   UNL     1     -10.229   9.451  66.495  1.00  0.00    -0.308 C  
HETATM   20  C   UNL     1      -9.450   8.143  66.468  1.00  0.00    -0.286 C  
BRANCH  15  21
HETATM   21  C   UNL     1     -10.640   9.644  70.398  1.00  0.00    -0.354 C  
HETATM   22  O   UNL     1      -9.320   8.720  72.206  1.00  0.00    -0.314 OA 
HETATM   23  C   UNL     1     -10.232   8.584  71.405  1.00  0.00    -0.235 C  
HETATM   24  O   UNL     1     -10.977   7.459  71.349  1.00  0.00    -0.233 OA 
ENDBRANCH  15  21
ENDBRANCH  14  15
ENDBRANCH  12  14
ENDBRANCH   9  10
ENDBRANCH   7   9
ENDBRANCH   6   7
ENDBRANCH   4   6
TORSDOF 7
ENDMDL
MODEL       98
REMARK 921   NORMALIZED FREE ENERGY PREDICTED BY IDOCK:   -4.44 KCAL/MOL
REMARK 922        TOTAL FREE ENERGY PREDICTED BY IDOCK:   -7.89 KCAL/MOL
REMARK 923 INTER-LIGAND FREE ENERGY PREDICTED BY IDOCK:   -6.56 KCAL/MOL
REMARK 924 INTRA-LIGAND FREE ENERGY PREDICTED BY IDOCK:   -1.33 KCAL/MOL
REMARK 927      BINDING AFFINITY PREDICTED BY RF-SCORE:    0.00 PKD
ROOT
HETATM    1  C   UNL     1      -8.374   7.547  65.626  1.00  0.00    -0.144 C  
HETATM    2  C   UNL     1      -8.163   8.667  66.650  1.00  0.00    -0.107 C  
HETATM    3  C   UNL     1      -7.506   9.867  65.979  1.00  0.00    -0.106 C  
HETATM    4  C   UNL     1      -9.487   9.054  67.289  1.00  0.00    -0.149 C  
HETATM    5  O   UNL     1     -10.556   8.515  67.025  1.00  0.00    -0.306 OA 
ENDROOT
BRANCH   4   6
HETATM    6  O   UNL     1      -9.333  10.019  68.244  1.00  0.00    -0.131 OA 
BRANCH   6   7
HETATM    7  C   UNL     1      -9.840   9.626  69.528  1.00  0.00    -0.206 C  
HETATM    8  C   UNL     1      -8.672   9.423  70.493  1.00  0.00    -0.276 C  
BRANCH   7   9
HETATM    9  O   UNL     1     -10.601  10.662  70.174  1.00  0.00    -0.199 OA 
BRANCH   9  10
HETATM   10  C   UNL     1     -11.446  11.347  69.378  1.00  0.00    -0.310 C  
HETATM   11  O   UNL     1     -12.557  10.986  69.039  1.00  0.00    -0.378 OA 
HETATM   12  N   UNL     1     -10.870  12.555  69.103  1.00  0.00    -0.424 N  
HETATM   13  H   UNL     1      -9.934  12.743  69.463  1.00  0.00     0.000 HD 
BRANCH  12  14
HETATM   14  C   UNL     1     -11.534  13.577  68.323  1.00  0.00    -0.310 C  
BRANCH  14  15
HETATM   15  C   UNL     1     -10.756  13.986  67.027  1.00  0.00    -0.284 C  
HETATM   16  C   UNL     1     -10.139  12.739  66.338  1.00  0.00    -0.266 C  
HETATM   17  C   UNL     1     -11.763  14.676  66.061  1.00  0.00    -0.306 C  
HETATM   18  C   UNL     1     -12.776  13.718  65.429  1.00  0.00    -0.513 C  
HETATM   19  C   UNL     1     -11.172  11.802  65.716  1.00  0.00    -0.337 C  
HETATM   20  C   UNL     1     -12.079  12.548  64.746  1.00  0.00    -0.497 C  
BRANCH  15  21
HETATM   21  C   UNL     1      -9.634  14.989  67.425  1.00  0.00    -0.205 C  
HETATM   22  O   UNL     1     -10.449  17.266  67.548  1.00  0.00    -0.345 OA 
HETATM   23  C   UNL     1      -9.816  16.415  66.940  1.00  0.00    -0.261 C  
HETATM   24  O   UNL     1      -9.206  16.677  65.764  1.00  0.00    -0.502 OA 
ENDBRANCH  15  21
ENDBRANCH  14  15
ENDBRANCH  12  14
ENDBRANCH   9  10
ENDBRANCH   7   9
ENDBRANCH   6   7
ENDBRANCH   4   6
TORSDOF 7
ENDMDL
MODEL       99
REMARK 921   NORMALIZED FREE ENERGY PREDICTED BY IDOCK:   -4.44 KCAL/MOL
REMARK 922        TOTAL FREE ENERGY PREDICTED BY IDOCK:   -7.88 KCAL/MOL
REMARK 923 INTER-LIGAND FREE ENERGY PREDICTED BY IDOCK:   -7.16 KCAL/MOL
REMARK 924 INTRA-LIGAND FREE ENERGY PREDICTED BY IDOCK:   -0.72 KCAL/MOL
REMARK 927      BINDING AFFINITY PREDICTED BY RF-SCORE:    0.00 PKD
ROOT
HETATM    1  C   UNL     1     -10.549   8.407  72.293  1.00  0.00    -0.412 C  
HETATM    2  C   UNL     1     -11.546   8.903  71.241  1.00  0.00    -0.371 C  
HETATM    3  C   UNL     1     -12.653   9.707  71.912  1.00  0.00    -0.481 C  
HETATM    4  C   UNL     1     -10.831   9.731  70.185  1.00  0.00    -0.291 C  
HETATM    5  O   UNL     1      -9.622   9.939  70.184  1.00  0.00    -0.245 OA 
ENDROOT
BRANCH   4   6
HETATM    6  O   UNL     1     -11.680  10.153  69.201  1.00  0.00    -0.108 OA 
BRANCH   6   7
HETATM    7  C   UNL     1     -10.995  10.655  68.043  1.00  0.00    -0.282 C  
HETATM    8  C   UNL     1     -10.666   9.492  67.107  1.00  0.00    -0.252 C  
BRANCH   7   9
HETATM    9  O   UNL     1     -11.823  11.494  67.220  1.00  0.00    -0.609 OA 
BRANCH   9  10
HETATM   10  C   UNL     1     -11.298  12.692  66.894  1.00  0.00    -0.320 C  
HETATM   11  O   UNL     1     -10.514  12.905  65.989  1.00  0.00    -0.267 OA 
HETATM   12  N   UNL     1     -11.878  13.631  67.699  1.00  0.00    -0.361 N  
HETATM   13  H   UNL     1     -12.538  13.323  68.414  1.00  0.00     0.000 HD 
BRANCH  12  14
HETATM   14  C   UNL     1     -11.596  15.046  67.578  1.00  0.00    -0.301 C  
BRANCH  14  15
HETATM   15  C   UNL     1     -11.184  15.724  68.927  1.00  0.00    -0.332 C  
HETATM   16  C   UNL     1      -9.986  14.981  69.576  1.00  0.00    -0.152 C  
HETATM   17  C   UNL     1     -10.786  17.197  68.622  1.00  0.00    -0.306 C  
HETATM   18  C   UNL     1      -9.456  17.340  67.878  1.00  0.00    -0.266 C  
HETATM   19  C   UNL     1      -8.673  15.142  68.813  1.00  0.00    -0.194 C  
HETATM   20  C   UNL     1      -8.333  16.612  68.605  1.00  0.00    -0.246 C  
BRANCH  15  21
HETATM   21  C   UNL     1     -12.413  15.697  69.884  1.00  0.00    -0.192 C  
HETATM   22  O   UNL     1     -11.875  16.560  72.082  1.00  0.00    -0.501 OA 
HETATM   23  C   UNL     1     -12.098  15.596  71.365  1.00  0.00    -0.418 C  
HETATM   24  O   UNL     1     -12.091  14.331  71.839  1.00  0.00    -0.253 OA 
ENDBRANCH  15  21
ENDBRANCH  14  15
ENDBRANCH  12  14
ENDBRANCH   9  10
ENDBRANCH   7   9
ENDBRANCH   6   7
ENDBRANCH   4   6
TORSDOF 7
ENDMDL
MODEL      100
REMARK 921   NORMALIZED FREE ENERGY PREDICTED BY IDOCK:   -4.44 KCAL/MOL
REMARK 922        TOTAL FREE ENERGY PREDICTED BY IDOCK:   -7.88 KCAL/MOL
REMARK 923 INTER-LIGAND FREE ENERGY PREDICTED BY IDOCK:   -7.09 KCAL/MOL
REMARK 924 INTRA-LIGAND FREE ENERGY PREDICTED BY IDOCK:   -0.79 KCAL/MOL
REMARK 927      BINDING AFFINITY PREDICTED BY RF-SCORE:    0.00 PKD
ROOT
HETATM    1  C   UNL     1      -7.747   9.760  63.265  1.00  0.00    -0.138 C  
HETATM    2  C   UNL     1      -9.171   9.819  63.826  1.00  0.00    -0.237 C  
HETATM    3  C   UNL     1      -9.135   9.711  65.345  1.00  0.00    -0.265 C  
HETATM    4  C   UNL     1      -9.860  11.100  63.384  1.00  0.00    -0.361 C  
HETATM    5  O   UNL     1      -9.338  11.941  62.660  1.00  0.00    -0.225 OA 
ENDROOT
BRANCH   4   6
HETATM    6  O   UNL     1     -11.151  11.168  63.827  1.00  0.00    -0.329 OA 
BRANCH   6   7
HETATM    7  C   UNL     1     -11.524  12.479  64.275  1.00  0.00    -0.362 C  
HETATM    8  C   UNL     1     -12.382  13.155  63.205  1.00  0.00    -0.366 C  
BRANCH   7   9
HETATM    9  O   UNL     1     -12.405  12.456  65.412  1.00  0.00    -0.596 OA 
BRANCH   9  10
HETATM   10  C   UNL     1     -11.803  12.507  66.617  1.00  0.00    -0.352 C  
HETATM   11  O   UNL     1     -11.916  11.686  67.507  1.00  0.00    -0.622 OA 
HETATM   12  N   UNL     1     -10.971  13.592  66.619  1.00  0.00    -0.286 N  
HETATM   13  H   UNL     1     -10.955  14.198  65.798  1.00  0.00     0.000 HD 
BRANCH  12  14
HETATM   14  C   UNL     1     -10.112  13.915  67.738  1.00  0.00    -0.241 C  
BRANCH  14  15
HETATM   15  C   UNL     1     -10.440  15.291  68.408  1.00  0.00    -0.236 C  
HETATM   16  C   UNL     1      -9.527  15.537  69.639  1.00  0.00    -0.244 C  
HETATM   17  C   UNL     1     -10.207  16.408  67.349  1.00  0.00    -0.281 C  
HETATM   18  C   UNL     1      -8.733  16.657  67.022  1.00  0.00    -0.223 C  
HETATM   19  C   UNL     1      -8.063  15.783  69.283  1.00  0.00    -0.241 C  
HETATM   20  C   UNL     1      -7.923  16.925  68.284  1.00  0.00    -0.211 C  
BRANCH  15  21
HETATM   21  C   UNL     1     -11.935  15.280  68.844  1.00  0.00    -0.292 C  
HETATM   22  O   UNL     1     -12.187  15.541  71.238  1.00  0.00    -0.323 OA 
HETATM   23  C   UNL     1     -12.209  14.809  70.260  1.00  0.00    -0.338 C  
HETATM   24  O   UNL     1     -12.493  13.492  70.354  1.00  0.00    -0.321 OA 
ENDBRANCH  15  21
ENDBRANCH  14  15
ENDBRANCH  12  14
ENDBRANCH   9  10
ENDBRANCH   7   9
ENDBRANCH   6   7
ENDBRANCH   4   6
TORSDOF 7
ENDMDL
MODEL      101
REMARK 921   NORMALIZED FREE ENERGY PREDICTED BY IDOCK:   -4.43 KCAL/MOL
REMARK 922        TOTAL FREE ENERGY PREDICTED BY IDOCK:   -7.88 KCAL/MOL
REMARK 923 INTER-LIGAND FREE ENERGY PREDICTED BY IDOCK:   -7.27 KCAL/MOL
REMARK 924 INTRA-LIGAND FREE ENERGY PREDICTED BY IDOCK:   -0.61 KCAL/MOL
REMARK 927      BINDING AFFINITY PREDICTED BY RF-SCORE:    0.00 PKD
ROOT
HETATM    1  C   UNL     1      -9.882   4.177  69.847  1.00  0.00    -0.233 C  
HETATM    2  C   UNL     1      -9.460   5.590  70.262  1.00  0.00    -0.211 C  
HETATM    3  C   UNL     1      -8.069   5.896  69.723  1.00  0.00    -0.105 C  
HETATM    4  C   UNL     1     -10.476   6.610  69.770  1.00  0.00    -0.211 C  
HETATM    5  O   UNL     1     -11.492   6.317  69.152  1.00  0.00    -0.394 OA 
ENDROOT
BRANCH   4   6
HETATM    6  O   UNL     1     -10.158   7.880  70.163  1.00  0.00    -0.190 OA 
BRANCH   6   7
HETATM    7  C   UNL     1     -11.172   8.487  70.978  1.00  0.00    -0.268 C  
HETATM    8  C   UNL     1     -11.040   7.977  72.413  1.00  0.00    -0.416 C  
BRANCH   7   9
HETATM    9  O   UNL     1     -10.994   9.905  71.133  1.00  0.00    -0.333 OA 
BRANCH   9  10
HETATM   10  C   UNL     1     -11.919  10.678  70.528  1.00  0.00    -0.352 C  
HETATM   11  O   UNL     1     -13.120  10.626  70.709  1.00  0.00    -0.341 OA 
HETATM   12  N   UNL     1     -11.256  11.589  69.755  1.00  0.00    -0.455 N  
HETATM   13  H   UNL     1     -10.239  11.536  69.700  1.00  0.00     0.000 HD 
BRANCH  12  14
HETATM   14  C   UNL     1     -11.940  12.625  69.010  1.00  0.00    -0.236 C  
BRANCH  14  15
HETATM   15  C   UNL     1     -11.191  13.063  67.706  1.00  0.00    -0.313 C  
HETATM   16  C   UNL     1     -11.738  14.420  67.186  1.00  0.00    -0.424 C  
HETATM   17  C   UNL     1      -9.679  13.201  68.045  1.00  0.00    -0.224 C  
HETATM   18  C   UNL     1      -9.344  14.412  68.920  1.00  0.00    -0.096 C  
HETATM   19  C   UNL     1     -11.389  15.609  68.078  1.00  0.00    -0.324 C  
HETATM   20  C   UNL     1      -9.886  15.700  68.313  1.00  0.00    -0.209 C  
BRANCH  15  21
HETATM   21  C   UNL     1     -11.393  11.956  66.630  1.00  0.00    -0.400 C  
HETATM   22  O   UNL     1     -10.784  12.719  64.414  1.00  0.00    -0.329 OA 
HETATM   23  C   UNL     1     -11.662  12.445  65.219  1.00  0.00    -0.390 C  
HETATM   24  O   UNL     1     -12.974  12.547  64.914  1.00  0.00    -0.821 OA 
ENDBRANCH  15  21
ENDBRANCH  14  15
ENDBRANCH  12  14
ENDBRANCH   9  10
ENDBRANCH   7   9
ENDBRANCH   6   7
ENDBRANCH   4   6
TORSDOF 7
ENDMDL
MODEL      102
REMARK 921   NORMALIZED FREE ENERGY PREDICTED BY IDOCK:   -4.43 KCAL/MOL
REMARK 922        TOTAL FREE ENERGY PREDICTED BY IDOCK:   -7.88 KCAL/MOL
REMARK 923 INTER-LIGAND FREE ENERGY PREDICTED BY IDOCK:   -7.53 KCAL/MOL
REMARK 924 INTRA-LIGAND FREE ENERGY PREDICTED BY IDOCK:   -0.34 KCAL/MOL
REMARK 927      BINDING AFFINITY PREDICTED BY RF-SCORE:    0.00 PKD
ROOT
HETATM    1  C   UNL     1     -10.617   7.097  73.429  1.00  0.00    -0.424 C  
HETATM    2  C   UNL     1     -10.527   7.310  71.914  1.00  0.00    -0.224 C  
HETATM    3  C   UNL     1     -10.951   6.041  71.186  1.00  0.00    -0.341 C  
HETATM    4  C   UNL     1     -11.385   8.495  71.496  1.00  0.00    -0.283 C  
HETATM    5  O   UNL     1     -12.029   9.182  72.281  1.00  0.00    -0.321 OA 
ENDROOT
BRANCH   4   6
HETATM    6  O   UNL     1     -11.294   8.746  70.156  1.00  0.00    -0.209 OA 
BRANCH   6   7
HETATM    7  C   UNL     1     -10.983  10.116  69.861  1.00  0.00    -0.293 C  
HETATM    8  C   UNL     1      -9.666  10.180  69.087  1.00  0.00    -0.225 C  
BRANCH   7   9
HETATM    9  O   UNL     1     -11.913  10.719  68.944  1.00  0.00    -0.373 OA 
BRANCH   9  10
HETATM   10  C   UNL     1     -11.863  12.064  68.864  1.00  0.00    -0.299 C  
HETATM   11  O   UNL     1     -11.748  12.830  69.801  1.00  0.00    -0.308 OA 
HETATM   12  N   UNL     1     -11.867  12.401  67.540  1.00  0.00    -0.339 N  
HETATM   13  H   UNL     1     -11.953  11.657  66.846  1.00  0.00     0.000 HD 
BRANCH  12  14
HETATM   14  C   UNL     1     -11.756  13.769  67.082  1.00  0.00    -0.385 C  
BRANCH  14  15
HETATM   15  C   UNL     1     -10.686  13.972  65.957  1.00  0.00    -0.294 C  
HETATM   16  C   UNL     1     -10.336  12.620  65.279  1.00  0.00    -0.309 C  
HETATM   17  C   UNL     1     -11.278  14.951  64.903  1.00  0.00    -0.415 C  
HETATM   18  C   UNL     1     -12.397  14.347  64.051  1.00  0.00    -0.243 C  
HETATM   19  C   UNL     1     -11.469  12.041  64.435  1.00  0.00    -0.413 C  
HETATM   20  C   UNL     1     -11.952  13.045  63.396  1.00  0.00    -0.592 C  
BRANCH  15  21
HETATM   21  C   UNL     1      -9.411  14.595  66.599  1.00  0.00    -0.297 C  
HETATM   22  O   UNL     1      -9.879  16.709  67.684  1.00  0.00    -0.248 OA 
HETATM   23  C   UNL     1      -9.407  16.107  66.732  1.00  0.00    -0.234 C  
HETATM   24  O   UNL     1      -8.821  16.746  65.696  1.00  0.00    -0.461 OA 
ENDBRANCH  15  21
ENDBRANCH  14  15
ENDBRANCH  12  14
ENDBRANCH   9  10
ENDBRANCH   7   9
ENDBRANCH   6   7
ENDBRANCH   4   6
TORSDOF 7
ENDMDL
MODEL      103
REMARK 921   NORMALIZED FREE ENERGY PREDICTED BY IDOCK:   -4.41 KCAL/MOL
REMARK 922        TOTAL FREE ENERGY PREDICTED BY IDOCK:   -7.85 KCAL/MOL
REMARK 923 INTER-LIGAND FREE ENERGY PREDICTED BY IDOCK:   -7.04 KCAL/MOL
REMARK 924 INTRA-LIGAND FREE ENERGY PREDICTED BY IDOCK:   -0.81 KCAL/MOL
REMARK 927      BINDING AFFINITY PREDICTED BY RF-SCORE:    0.00 PKD
ROOT
HETATM    1  C   UNL     1     -12.308  12.178  63.263  1.00  0.00    -0.547 C  
HETATM    2  C   UNL     1     -12.025  12.097  64.766  1.00  0.00    -0.377 C  
HETATM    3  C   UNL     1     -10.555  11.773  65.001  1.00  0.00    -0.338 C  
HETATM    4  C   UNL     1     -12.415  13.400  65.447  1.00  0.00    -0.494 C  
HETATM    5  O   UNL     1     -12.907  14.356  64.860  1.00  0.00    -0.645 OA 
ENDROOT
BRANCH   4   6
HETATM    6  O   UNL     1     -12.221  13.349  66.799  1.00  0.00    -0.377 OA 
BRANCH   6   7
HETATM    7  C   UNL     1     -11.031  14.032  67.222  1.00  0.00    -0.295 C  
HETATM    8  C   UNL     1     -11.385  15.463  67.626  1.00  0.00    -0.292 C  
BRANCH   7   9
HETATM    9  O   UNL     1     -10.475  13.495  68.435  1.00  0.00    -0.236 OA 
BRANCH   9  10
HETATM   10  C   UNL     1     -11.103  12.411  68.934  1.00  0.00    -0.258 C  
HETATM   11  O   UNL     1     -11.979  12.420  69.777  1.00  0.00    -0.312 OA 
HETATM   12  N   UNL     1     -10.648  11.318  68.253  1.00  0.00    -0.187 N  
HETATM   13  H   UNL     1      -9.918  11.447  67.552  1.00  0.00     0.000 HD 
BRANCH  12  14
HETATM   14  C   UNL     1     -11.160   9.984  68.485  1.00  0.00    -0.167 C  
BRANCH  14  15
HETATM   15  C   UNL     1     -10.080   8.975  69.001  1.00  0.00    -0.204 C  
HETATM   16  C   UNL     1     -10.581   7.512  68.860  1.00  0.00    -0.184 C  
HETATM   17  C   UNL     1      -8.793   9.174  68.150  1.00  0.00    -0.129 C  
HETATM   18  C   UNL     1      -8.913   8.667  66.711  1.00  0.00    -0.167 C  
HETATM   19  C   UNL     1     -10.690   7.033  67.414  1.00  0.00    -0.383 C  
HETATM   20  C   UNL     1      -9.372   7.215  66.671  1.00  0.00    -0.207 C  
BRANCH  15  21
HETATM   21  C   UNL     1      -9.782   9.297  70.495  1.00  0.00    -0.316 C  
HETATM   22  O   UNL     1     -10.874   7.743  71.997  1.00  0.00    -0.225 OA 
HETATM   23  C   UNL     1     -10.837   8.855  71.492  1.00  0.00    -0.326 C  
HETATM   24  O   UNL     1     -11.745   9.810  71.788  1.00  0.00    -0.369 OA 
ENDBRANCH  15  21
ENDBRANCH  14  15
ENDBRANCH  12  14
ENDBRANCH   9  10
ENDBRANCH   7   9
ENDBRANCH   6   7
ENDBRANCH   4   6
TORSDOF 7
ENDMDL
MODEL      104
REMARK 921   NORMALIZED FREE ENERGY PREDICTED BY IDOCK:   -4.40 KCAL/MOL
REMARK 922        TOTAL FREE ENERGY PREDICTED BY IDOCK:   -7.84 KCAL/MOL
REMARK 923 INTER-LIGAND FREE ENERGY PREDICTED BY IDOCK:   -6.90 KCAL/MOL
REMARK 924 INTRA-LIGAND FREE ENERGY PREDICTED BY IDOCK:   -0.94 KCAL/MOL
REMARK 927      BINDING AFFINITY PREDICTED BY RF-SCORE:    0.00 PKD
ROOT
HETATM    1  C   UNL     1     -10.667   5.746  68.519  1.00  0.00    -0.288 C  
HETATM    2  C   UNL     1     -11.233   6.215  69.864  1.00  0.00    -0.484 C  
HETATM    3  C   UNL     1     -10.535   5.485  71.004  1.00  0.00    -0.314 C  
HETATM    4  C   UNL     1     -11.081   7.722  70.003  1.00  0.00    -0.175 C  
HETATM    5  O   UNL     1     -10.594   8.441  69.139  1.00  0.00    -0.217 OA 
ENDROOT
BRANCH   4   6
HETATM    6  O   UNL     1     -11.618   8.185  71.171  1.00  0.00    -0.273 OA 
BRANCH   6   7
HETATM    7  C   UNL     1     -12.409   9.370  70.996  1.00  0.00    -0.258 C  
HETATM    8  C   UNL     1     -13.407   9.487  72.148  1.00  0.00    -0.545 C  
BRANCH   7   9
HETATM    9  O   UNL     1     -11.644  10.581  71.122  1.00  0.00    -0.307 OA 
BRANCH   9  10
HETATM   10  C   UNL     1     -12.051  11.610  70.351  1.00  0.00    -0.373 C  
HETATM   11  O   UNL     1     -12.526  12.656  70.751  1.00  0.00    -0.348 OA 
HETATM   12  N   UNL     1     -11.742  11.305  69.055  1.00  0.00    -0.314 N  
HETATM   13  H   UNL     1     -11.328  10.395  68.852  1.00  0.00     0.000 HD 
BRANCH  12  14
HETATM   14  C   UNL     1     -11.979  12.221  67.960  1.00  0.00    -0.187 C  
BRANCH  14  15
HETATM   15  C   UNL     1     -10.803  12.288  66.929  1.00  0.00    -0.290 C  
HETATM   16  C   UNL     1     -11.279  11.843  65.520  1.00  0.00    -0.353 C  
HETATM   17  C   UNL     1     -10.298  13.759  66.872  1.00  0.00    -0.266 C  
HETATM   18  C   UNL     1     -11.266  14.723  66.181  1.00  0.00    -0.337 C  
HETATM   19  C   UNL     1     -12.242  12.824  64.854  1.00  0.00    -0.519 C  
HETATM   20  C   UNL     1     -11.648  14.225  64.793  1.00  0.00    -0.404 C  
BRANCH  15  21
HETATM   21  C   UNL     1      -9.660  11.356  67.427  1.00  0.00    -0.185 C  
HETATM   22  O   UNL     1      -7.468  12.278  66.969  1.00  0.00    -0.140 OA 
HETATM   23  C   UNL     1      -8.340  11.471  66.687  1.00  0.00    -0.167 C  
HETATM   24  O   UNL     1      -8.201  10.587  65.675  1.00  0.00    -0.154 OA 
ENDBRANCH  15  21
ENDBRANCH  14  15
ENDBRANCH  12  14
ENDBRANCH   9  10
ENDBRANCH   7   9
ENDBRANCH   6   7
ENDBRANCH   4   6
TORSDOF 7
ENDMDL
MODEL      105
REMARK 921   NORMALIZED FREE ENERGY PREDICTED BY IDOCK:   -4.40 KCAL/MOL
REMARK 922        TOTAL FREE ENERGY PREDICTED BY IDOCK:   -7.83 KCAL/MOL
REMARK 923 INTER-LIGAND FREE ENERGY PREDICTED BY IDOCK:   -6.66 KCAL/MOL
REMARK 924 INTRA-LIGAND FREE ENERGY PREDICTED BY IDOCK:   -1.17 KCAL/MOL
REMARK 927      BINDING AFFINITY PREDICTED BY RF-SCORE:    0.00 PKD
ROOT
HETATM    1  C   UNL     1     -10.327  11.491  63.219  1.00  0.00    -0.435 C  
HETATM    2  C   UNL     1     -10.534  12.149  64.588  1.00  0.00    -0.336 C  
HETATM    3  C   UNL     1     -11.951  12.696  64.692  1.00  0.00    -0.463 C  
HETATM    4  C   UNL     1     -10.247  11.152  65.701  1.00  0.00    -0.256 C  
HETATM    5  O   UNL     1      -9.880   9.999  65.506  1.00  0.00    -0.268 OA 
ENDROOT
BRANCH   4   6
HETATM    6  O   UNL     1     -10.375  11.716  66.939  1.00  0.00    -0.210 OA 
BRANCH   6   7
HETATM    7  C   UNL     1     -11.102  10.890  67.861  1.00  0.00    -0.302 C  
HETATM    8  C   UNL     1     -10.246  10.642  69.102  1.00  0.00    -0.238 C  
BRANCH   7   9
HETATM    9  O   UNL     1     -12.261  11.543  68.407  1.00  0.00    -0.540 OA 
BRANCH   9  10
HETATM   10  C   UNL     1     -12.029  12.711  69.039  1.00  0.00    -0.236 C  
HETATM   11  O   UNL     1     -11.912  12.861  70.240  1.00  0.00    -0.341 OA 
HETATM   12  N   UNL     1     -11.853  13.671  68.083  1.00  0.00    -0.361 N  
HETATM   13  H   UNL     1     -11.963  13.412  67.102  1.00  0.00     0.000 HD 
BRANCH  12  14
HETATM   14  C   UNL     1     -11.518  15.042  68.406  1.00  0.00    -0.323 C  
BRANCH  14  15
HETATM   15  C   UNL     1     -10.076  15.460  67.961  1.00  0.00    -0.226 C  
HETATM   16  C   UNL     1      -9.923  15.356  66.420  1.00  0.00    -0.295 C  
HETATM   17  C   UNL     1      -9.841  16.929  68.415  1.00  0.00    -0.266 C  
HETATM   18  C   UNL     1     -10.637  17.963  67.616  1.00  0.00    -0.398 C  
HETATM   19  C   UNL     1     -10.728  16.400  65.648  1.00  0.00    -0.280 C  
HETATM   20  C   UNL     1     -10.397  17.811  66.119  1.00  0.00    -0.340 C  
BRANCH  15  21
HETATM   21  C   UNL     1      -9.054  14.519  68.665  1.00  0.00    -0.187 C  
HETATM   22  O   UNL     1      -6.763  15.139  68.182  1.00  0.00    -0.110 OA 
HETATM   23  C   UNL     1      -7.703  14.382  67.987  1.00  0.00    -0.138 C  
HETATM   24  O   UNL     1      -7.617  13.333  67.141  1.00  0.00    -0.107 OA 
ENDBRANCH  15  21
ENDBRANCH  14  15
ENDBRANCH  12  14
ENDBRANCH   9  10
ENDBRANCH   7   9
ENDBRANCH   6   7
ENDBRANCH   4   6
TORSDOF 7
ENDMDL
MODEL      106
REMARK 921   NORMALIZED FREE ENERGY PREDICTED BY IDOCK:   -4.39 KCAL/MOL
REMARK 922        TOTAL FREE ENERGY PREDICTED BY IDOCK:   -7.82 KCAL/MOL
REMARK 923 INTER-LIGAND FREE ENERGY PREDICTED BY IDOCK:   -7.00 KCAL/MOL
REMARK 924 INTRA-LIGAND FREE ENERGY PREDICTED BY IDOCK:   -0.82 KCAL/MOL
REMARK 927      BINDING AFFINITY PREDICTED BY RF-SCORE:    0.00 PKD
ROOT
HETATM    1  C   UNL     1      -9.859  11.468  63.164  1.00  0.00    -0.413 C  
HETATM    2  C   UNL     1     -10.919  12.078  64.087  1.00  0.00    -0.418 C  
HETATM    3  C   UNL     1     -12.294  11.971  63.441  1.00  0.00    -0.635 C  
HETATM    4  C   UNL     1     -10.896  11.390  65.444  1.00  0.00    -0.229 C  
HETATM    5  O   UNL     1     -10.115  10.494  65.741  1.00  0.00    -0.247 OA 
ENDROOT
BRANCH   4   6
HETATM    6  O   UNL     1     -11.797  11.939  66.312  1.00  0.00    -0.546 OA 
BRANCH   6   7
HETATM    7  C   UNL     1     -11.176  12.581  67.436  1.00  0.00    -0.293 C  
HETATM    8  C   UNL     1     -11.830  13.944  67.666  1.00  0.00    -0.422 C  
BRANCH   7   9
HETATM    9  O   UNL     1     -11.423  11.903  68.679  1.00  0.00    -0.242 OA 
BRANCH   9  10
HETATM   10  C   UNL     1     -10.492  10.999  69.046  1.00  0.00    -0.216 C  
HETATM   11  O   UNL     1      -9.290  11.118  68.906  1.00  0.00    -0.175 OA 
HETATM   12  N   UNL     1     -11.135   9.978  69.686  1.00  0.00    -0.252 N  
HETATM   13  H   UNL     1     -12.153  10.005  69.751  1.00  0.00     0.000 HD 
BRANCH  12  14
HETATM   14  C   UNL     1     -10.431   8.859  70.275  1.00  0.00    -0.210 C  
BRANCH  14  15
HETATM   15  C   UNL     1     -11.168   8.224  71.501  1.00  0.00    -0.316 C  
HETATM   16  C   UNL     1     -12.111   7.078  71.045  1.00  0.00    -0.413 C  
HETATM   17  C   UNL     1     -10.090   7.662  72.472  1.00  0.00    -0.284 C  
HETATM   18  C   UNL     1      -9.380   6.408  71.955  1.00  0.00    -0.154 C  
HETATM   19  C   UNL     1     -11.377   5.840  70.535  1.00  0.00    -0.088 C  
HETATM   20  C   UNL     1     -10.381   5.326  71.567  1.00  0.00    -0.287 C  
BRANCH  15  21
HETATM   21  C   UNL     1     -11.988   9.341  72.212  1.00  0.00    -0.204 C  
HETATM   22  O   UNL     1     -14.273   8.662  72.637  1.00  0.00    -0.462 OA 
HETATM   23  C   UNL     1     -13.486   9.318  71.972  1.00  0.00    -0.451 C  
HETATM   24  O   UNL     1     -13.889  10.103  70.948  1.00  0.00    -0.041 OA 
ENDBRANCH  15  21
ENDBRANCH  14  15
ENDBRANCH  12  14
ENDBRANCH   9  10
ENDBRANCH   7   9
ENDBRANCH   6   7
ENDBRANCH   4   6
TORSDOF 7
ENDMDL
MODEL      107
REMARK 921   NORMALIZED FREE ENERGY PREDICTED BY IDOCK:   -4.38 KCAL/MOL
REMARK 922        TOTAL FREE ENERGY PREDICTED BY IDOCK:   -7.80 KCAL/MOL
REMARK 923 INTER-LIGAND FREE ENERGY PREDICTED BY IDOCK:   -6.97 KCAL/MOL
REMARK 924 INTRA-LIGAND FREE ENERGY PREDICTED BY IDOCK:   -0.84 KCAL/MOL
REMARK 927      BINDING AFFINITY PREDICTED BY RF-SCORE:    0.00 PKD
ROOT
HETATM    1  C   UNL     1      -8.193   7.645  69.306  1.00  0.00    -0.133 C  
HETATM    2  C   UNL     1      -8.648   9.006  69.843  1.00  0.00    -0.143 C  
HETATM    3  C   UNL     1      -8.661  10.031  68.717  1.00  0.00    -0.131 C  
HETATM    4  C   UNL     1     -10.019   8.886  70.490  1.00  0.00    -0.201 C  
HETATM    5  O   UNL     1     -10.642   7.833  70.579  1.00  0.00    -0.218 OA 
ENDROOT
BRANCH   4   6
HETATM    6  O   UNL     1     -10.439  10.071  71.025  1.00  0.00    -0.166 OA 
BRANCH   6   7
HETATM    7  C   UNL     1     -11.616  10.589  70.387  1.00  0.00    -0.342 C  
HETATM    8  C   UNL     1     -12.677  10.887  71.447  1.00  0.00    -0.539 C  
BRANCH   7   9
HETATM    9  O   UNL     1     -11.408  11.878  69.785  1.00  0.00    -0.235 OA 
BRANCH   9  10
HETATM   10  C   UNL     1     -11.816  11.997  68.505  1.00  0.00    -0.311 C  
HETATM   11  O   UNL     1     -12.152  11.083  67.777  1.00  0.00    -0.534 OA 
HETATM   12  N   UNL     1     -11.875  13.330  68.210  1.00  0.00    -0.351 N  
HETATM   13  H   UNL     1     -11.579  14.001  68.919  1.00  0.00     0.000 HD 
BRANCH  12  14
HETATM   14  C   UNL     1     -12.342  13.827  66.933  1.00  0.00    -0.285 C  
BRANCH  14  15
HETATM   15  C   UNL     1     -11.197  14.365  66.010  1.00  0.00    -0.333 C  
HETATM   16  C   UNL     1     -10.073  13.306  65.852  1.00  0.00    -0.296 C  
HETATM   17  C   UNL     1     -11.815  14.687  64.619  1.00  0.00    -0.459 C  
HETATM   18  C   UNL     1     -12.202  13.449  63.807  1.00  0.00    -0.482 C  
HETATM   19  C   UNL     1     -10.487  12.082  65.037  1.00  0.00    -0.327 C  
HETATM   20  C   UNL     1     -11.030  12.486  63.672  1.00  0.00    -0.507 C  
BRANCH  15  21
HETATM   21  C   UNL     1     -10.623  15.664  66.648  1.00  0.00    -0.307 C  
HETATM   22  O   UNL     1      -8.206  15.747  66.525  1.00  0.00    -0.273 OA 
HETATM   23  C   UNL     1      -9.211  15.566  67.196  1.00  0.00    -0.214 C  
HETATM   24  O   UNL     1      -9.153  15.264  68.511  1.00  0.00    -0.178 OA 
ENDBRANCH  15  21
ENDBRANCH  14  15
ENDBRANCH  12  14
ENDBRANCH   9  10
ENDBRANCH   7   9
ENDBRANCH   6   7
ENDBRANCH   4   6
TORSDOF 7
ENDMDL
MODEL      108
REMARK 921   NORMALIZED FREE ENERGY PREDICTED BY IDOCK:   -4.36 KCAL/MOL
REMARK 922        TOTAL FREE ENERGY PREDICTED BY IDOCK:   -7.78 KCAL/MOL
REMARK 923 INTER-LIGAND FREE ENERGY PREDICTED BY IDOCK:   -7.24 KCAL/MOL
REMARK 924 INTRA-LIGAND FREE ENERGY PREDICTED BY IDOCK:   -0.54 KCAL/MOL
REMARK 927      BINDING AFFINITY PREDICTED BY RF-SCORE:    0.00 PKD
ROOT
HETATM    1  C   UNL     1     -10.385   7.467  73.538  1.00  0.00    -0.405 C  
HETATM    2  C   UNL     1     -10.365   7.366  72.010  1.00  0.00    -0.223 C  
HETATM    3  C   UNL     1     -10.781   5.966  71.576  1.00  0.00    -0.313 C  
HETATM    4  C   UNL     1     -11.274   8.421  71.399  1.00  0.00    -0.261 C  
HETATM    5  O   UNL     1     -11.905   9.241  72.056  1.00  0.00    -0.363 OA 
ENDROOT
BRANCH   4   6
HETATM    6  O   UNL     1     -11.246   8.394  70.033  1.00  0.00    -0.206 OA 
BRANCH   6   7
HETATM    7  C   UNL     1     -10.464   9.455  69.465  1.00  0.00    -0.218 C  
HETATM    8  C   UNL     1      -9.077   8.922  69.102  1.00  0.00    -0.141 C  
BRANCH   7   9
HETATM    9  O   UNL     1     -10.966   9.907  68.196  1.00  0.00    -0.251 OA 
BRANCH   9  10
HETATM   10  C   UNL     1     -11.738  11.011  68.235  1.00  0.00    -0.229 C  
HETATM   11  O   UNL     1     -12.616  11.240  69.044  1.00  0.00    -0.332 OA 
HETATM   12  N   UNL     1     -11.290  11.864  67.265  1.00  0.00    -0.315 N  
HETATM   13  H   UNL     1     -10.530  11.558  66.657  1.00  0.00     0.000 HD 
BRANCH  12  14
HETATM   14  C   UNL     1     -11.852  13.184  67.067  1.00  0.00    -0.379 C  
BRANCH  14  15
HETATM   15  C   UNL     1     -10.787  14.274  66.707  1.00  0.00    -0.298 C  
HETATM   16  C   UNL     1     -11.246  15.675  67.193  1.00  0.00    -0.152 C  
HETATM   17  C   UNL     1      -9.451  13.888  67.406  1.00  0.00    -0.226 C  
HETATM   18  C   UNL     1      -9.466  14.073  68.925  1.00  0.00     0.007 C  
HETATM   19  C   UNL     1     -11.251  15.831  68.712  1.00  0.00    -0.342 C  
HETATM   20  C   UNL     1      -9.892  15.485  69.307  1.00  0.00    -0.270 C  
BRANCH  15  21
HETATM   21  C   UNL     1     -10.593  14.280  65.162  1.00  0.00    -0.423 C  
HETATM   22  O   UNL     1     -11.570  16.240  64.130  1.00  0.00    -0.838 OA 
HETATM   23  C   UNL     1     -11.636  15.043  64.367  1.00  0.00    -0.276 C  
HETATM   24  O   UNL     1     -12.658  14.278  63.926  1.00  0.00    -0.787 OA 
ENDBRANCH  15  21
ENDBRANCH  14  15
ENDBRANCH  12  14
ENDBRANCH   9  10
ENDBRANCH   7   9
ENDBRANCH   6   7
ENDBRANCH   4   6
TORSDOF 7
ENDMDL
MODEL      109
REMARK 921   NORMALIZED FREE ENERGY PREDICTED BY IDOCK:   -4.35 KCAL/MOL
REMARK 922        TOTAL FREE ENERGY PREDICTED BY IDOCK:   -7.77 KCAL/MOL
REMARK 923 INTER-LIGAND FREE ENERGY PREDICTED BY IDOCK:   -6.98 KCAL/MOL
REMARK 924 INTRA-LIGAND FREE ENERGY PREDICTED BY IDOCK:   -0.78 KCAL/MOL
REMARK 927      BINDING AFFINITY PREDICTED BY RF-SCORE:    0.00 PKD
ROOT
HETATM    1  C   UNL     1     -12.717  11.865  63.538  1.00  0.00    -0.530 C  
HETATM    2  C   UNL     1     -11.461  12.398  64.235  1.00  0.00    -0.427 C  
HETATM    3  C   UNL     1     -10.219  11.982  63.457  1.00  0.00    -0.477 C  
HETATM    4  C   UNL     1     -11.538  13.910  64.378  1.00  0.00    -0.382 C  
HETATM    5  O   UNL     1     -12.491  14.583  64.003  1.00  0.00    -0.778 OA 
ENDROOT
BRANCH   4   6
HETATM    6  O   UNL     1     -10.455  14.418  65.039  1.00  0.00    -0.388 OA 
BRANCH   6   7
HETATM    7  C   UNL     1     -10.604  14.390  66.467  1.00  0.00    -0.296 C  
HETATM    8  C   UNL     1     -10.695  15.822  66.994  1.00  0.00    -0.306 C  
BRANCH   7   9
HETATM    9  O   UNL     1     -11.854  13.822  66.891  1.00  0.00    -0.366 OA 
BRANCH   9  10
HETATM   10  C   UNL     1     -11.791  13.011  67.967  1.00  0.00    -0.347 C  
HETATM   11  O   UNL     1     -12.129  13.300  69.099  1.00  0.00    -0.306 OA 
HETATM   12  N   UNL     1     -11.372  11.784  67.537  1.00  0.00    -0.296 N  
HETATM   13  H   UNL     1     -11.133  11.665  66.552  1.00  0.00     0.000 HD 
BRANCH  12  14
HETATM   14  C   UNL     1     -11.254  10.645  68.422  1.00  0.00    -0.288 C  
BRANCH  14  15
HETATM   15  C   UNL     1      -9.986   9.766  68.154  1.00  0.00    -0.179 C  
HETATM   16  C   UNL     1      -8.907  10.009  69.243  1.00  0.00    -0.184 C  
HETATM   17  C   UNL     1     -10.425   8.273  68.172  1.00  0.00    -0.226 C  
HETATM   18  C   UNL     1     -10.781   7.745  69.564  1.00  0.00    -0.200 C  
HETATM   19  C   UNL     1      -9.288   9.471  70.621  1.00  0.00    -0.263 C  
HETATM   20  C   UNL     1      -9.651   7.993  70.555  1.00  0.00    -0.170 C  
BRANCH  15  21
HETATM   21  C   UNL     1      -9.423  10.135  66.750  1.00  0.00    -0.205 C  
HETATM   22  O   UNL     1      -7.002  10.168  66.721  1.00  0.00    -0.086 OA 
HETATM   23  C   UNL     1      -8.054  10.789  66.737  1.00  0.00    -0.137 C  
HETATM   24  O   UNL     1      -8.091  12.139  66.735  1.00  0.00    -0.147 OA 
ENDBRANCH  15  21
ENDBRANCH  14  15
ENDBRANCH  12  14
ENDBRANCH   9  10
ENDBRANCH   7   9
ENDBRANCH   6   7
ENDBRANCH   4   6
TORSDOF 7
ENDMDL
MODEL      110
REMARK 921   NORMALIZED FREE ENERGY PREDICTED BY IDOCK:   -4.35 KCAL/MOL
REMARK 922        TOTAL FREE ENERGY PREDICTED BY IDOCK:   -7.77 KCAL/MOL
REMARK 923 INTER-LIGAND FREE ENERGY PREDICTED BY IDOCK:   -6.46 KCAL/MOL
REMARK 924 INTRA-LIGAND FREE ENERGY PREDICTED BY IDOCK:   -1.31 KCAL/MOL
REMARK 927      BINDING AFFINITY PREDICTED BY RF-SCORE:    0.00 PKD
ROOT
HETATM    1  C   UNL     1     -11.561   7.493  72.499  1.00  0.00    -0.352 C  
HETATM    2  C   UNL     1     -11.003   8.395  71.393  1.00  0.00    -0.311 C  
HETATM    3  C   UNL     1      -9.578   8.811  71.732  1.00  0.00    -0.371 C  
HETATM    4  C   UNL     1     -11.062   7.681  70.051  1.00  0.00    -0.191 C  
HETATM    5  O   UNL     1     -11.517   6.554  69.897  1.00  0.00    -0.390 OA 
ENDROOT
BRANCH   4   6
HETATM    6  O   UNL     1     -10.616   8.473  69.030  1.00  0.00    -0.216 OA 
BRANCH   6   7
HETATM    7  C   UNL     1      -9.580   7.856  68.251  1.00  0.00    -0.156 C  
HETATM    8  C   UNL     1     -10.174   7.328  66.945  1.00  0.00    -0.340 C  
BRANCH   7   9
HETATM    9  O   UNL     1      -8.591   8.792  67.788  1.00  0.00    -0.128 OA 
BRANCH   9  10
HETATM   10  C   UNL     1      -8.702  10.044  68.274  1.00  0.00    -0.119 C  
HETATM   11  O   UNL     1      -8.093  10.498  69.223  1.00  0.00    -0.146 OA 
HETATM   12  N   UNL     1      -9.545  10.735  67.449  1.00  0.00    -0.158 N  
HETATM   13  H   UNL     1      -9.983  10.241  66.671  1.00  0.00     0.000 HD 
BRANCH  12  14
HETATM   14  C   UNL     1      -9.841  12.140  67.635  1.00  0.00    -0.194 C  
BRANCH  14  15
HETATM   15  C   UNL     1     -11.372  12.469  67.621  1.00  0.00    -0.362 C  
HETATM   16  C   UNL     1     -12.153  11.494  68.543  1.00  0.00    -0.159 C  
HETATM   17  C   UNL     1     -11.553  13.929  68.127  1.00  0.00    -0.370 C  
HETATM   18  C   UNL     1     -11.293  14.106  69.625  1.00  0.00    -0.289 C  
HETATM   19  C   UNL     1     -11.875  11.694  70.031  1.00  0.00    -0.435 C  
HETATM   20  C   UNL     1     -12.128  13.136  70.450  1.00  0.00    -0.392 C  
BRANCH  15  21
HETATM   21  C   UNL     1     -11.886  12.349  66.156  1.00  0.00    -0.442 C  
HETATM   22  O   UNL     1     -10.071  12.094  64.573  1.00  0.00    -0.279 OA 
HETATM   23  C   UNL     1     -10.924  12.810  65.077  1.00  0.00    -0.289 C  
HETATM   24  O   UNL     1     -11.094  14.097  64.704  1.00  0.00    -0.374 OA 
ENDBRANCH  15  21
ENDBRANCH  14  15
ENDBRANCH  12  14
ENDBRANCH   9  10
ENDBRANCH   7   9
ENDBRANCH   6   7
ENDBRANCH   4   6
TORSDOF 7
ENDMDL
MODEL      111
REMARK 921   NORMALIZED FREE ENERGY PREDICTED BY IDOCK:   -4.34 KCAL/MOL
REMARK 922        TOTAL FREE ENERGY PREDICTED BY IDOCK:   -7.74 KCAL/MOL
REMARK 923 INTER-LIGAND FREE ENERGY PREDICTED BY IDOCK:   -7.34 KCAL/MOL
REMARK 924 INTRA-LIGAND FREE ENERGY PREDICTED BY IDOCK:   -0.40 KCAL/MOL
REMARK 927      BINDING AFFINITY PREDICTED BY RF-SCORE:    0.00 PKD
ROOT
HETATM    1  C   UNL     1     -10.010  11.737  63.307  1.00  0.00    -0.435 C  
HETATM    2  C   UNL     1     -11.096  12.247  64.259  1.00  0.00    -0.401 C  
HETATM    3  C   UNL     1     -12.472  12.016  63.649  1.00  0.00    -0.637 C  
HETATM    4  C   UNL     1     -10.974  11.564  65.613  1.00  0.00    -0.236 C  
HETATM    5  O   UNL     1     -10.107  10.743  65.887  1.00  0.00    -0.237 OA 
ENDROOT
BRANCH   4   6
HETATM    6  O   UNL     1     -11.898  12.029  66.506  1.00  0.00    -0.585 OA 
BRANCH   6   7
HETATM    7  C   UNL     1     -11.488  11.871  67.873  1.00  0.00    -0.316 C  
HETATM    8  C   UNL     1     -12.022  13.041  68.699  1.00  0.00    -0.298 C  
BRANCH   7   9
HETATM    9  O   UNL     1     -12.092  10.735  68.514  1.00  0.00    -0.493 OA 
BRANCH   9  10
HETATM   10  C   UNL     1     -11.369  10.170  69.502  1.00  0.00    -0.206 C  
HETATM   11  O   UNL     1     -11.287  10.575  70.646  1.00  0.00    -0.322 OA 
HETATM   12  N   UNL     1     -10.830   9.014  69.013  1.00  0.00    -0.410 N  
HETATM   13  H   UNL     1     -10.988   8.777  68.033  1.00  0.00     0.000 HD 
BRANCH  12  14
HETATM   14  C   UNL     1     -10.043   8.114  69.828  1.00  0.00    -0.197 C  
BRANCH  14  15
HETATM   15  C   UNL     1     -10.454   6.610  69.683  1.00  0.00    -0.249 C  
HETATM   16  C   UNL     1     -11.336   6.399  68.423  1.00  0.00    -0.145 C  
HETATM   17  C   UNL     1      -9.152   5.766  69.560  1.00  0.00    -0.143 C  
HETATM   18  C   UNL     1      -8.424   5.936  68.225  1.00  0.00    -0.114 C  
HETATM   19  C   UNL     1     -10.584   6.573  67.106  1.00  0.00    -0.398 C  
HETATM   20  C   UNL     1      -9.356   5.673  67.049  1.00  0.00    -0.119 C  
BRANCH  15  21
HETATM   21  C   UNL     1     -11.237   6.190  70.962  1.00  0.00    -0.361 C  
HETATM   22  O   UNL     1     -13.401   7.270  71.099  1.00  0.00    -0.331 OA 
HETATM   23  C   UNL     1     -12.243   7.199  71.484  1.00  0.00    -0.360 C  
HETATM   24  O   UNL     1     -11.749   8.025  72.432  1.00  0.00    -0.343 OA 
ENDBRANCH  15  21
ENDBRANCH  14  15
ENDBRANCH  12  14
ENDBRANCH   9  10
ENDBRANCH   7   9
ENDBRANCH   6   7
ENDBRANCH   4   6
TORSDOF 7
ENDMDL
MODEL      112
REMARK 921   NORMALIZED FREE ENERGY PREDICTED BY IDOCK:   -4.33 KCAL/MOL
REMARK 922        TOTAL FREE ENERGY PREDICTED BY IDOCK:   -7.74 KCAL/MOL
REMARK 923 INTER-LIGAND FREE ENERGY PREDICTED BY IDOCK:   -6.79 KCAL/MOL
REMARK 924 INTRA-LIGAND FREE ENERGY PREDICTED BY IDOCK:   -0.95 KCAL/MOL
REMARK 927      BINDING AFFINITY PREDICTED BY RF-SCORE:    0.00 PKD
ROOT
HETATM    1  C   UNL     1      -7.712   8.542  65.952  1.00  0.00    -0.097 C  
HETATM    2  C   UNL     1      -9.205   8.859  65.817  1.00  0.00    -0.283 C  
HETATM    3  C   UNL     1      -9.846   8.940  67.197  1.00  0.00    -0.267 C  
HETATM    4  C   UNL     1      -9.403  10.154  65.044  1.00  0.00    -0.243 C  
HETATM    5  O   UNL     1      -8.483  10.820  64.583  1.00  0.00    -0.133 OA 
ENDROOT
BRANCH   4   6
HETATM    6  O   UNL     1     -10.725  10.446  64.862  1.00  0.00    -0.079 OA 
BRANCH   6   7
HETATM    7  C   UNL     1     -10.993  11.856  64.849  1.00  0.00    -0.313 C  
HETATM    8  C   UNL     1     -11.373  12.286  63.432  1.00  0.00    -0.508 C  
BRANCH   7   9
HETATM    9  O   UNL     1     -12.162  12.213  65.607  1.00  0.00    -0.571 OA 
BRANCH   9  10
HETATM   10  C   UNL     1     -12.267  13.516  65.936  1.00  0.00    -0.460 C  
HETATM   11  O   UNL     1     -12.977  14.336  65.384  1.00  0.00    -0.654 OA 
HETATM   12  N   UNL     1     -11.512  13.724  67.055  1.00  0.00    -0.329 N  
HETATM   13  H   UNL     1     -10.972  12.945  67.432  1.00  0.00     0.000 HD 
BRANCH  12  14
HETATM   14  C   UNL     1     -11.447  15.004  67.727  1.00  0.00    -0.334 C  
BRANCH  14  15
HETATM   15  C   UNL     1     -10.032  15.673  67.674  1.00  0.00    -0.237 C  
HETATM   16  C   UNL     1      -9.578  15.887  66.204  1.00  0.00    -0.365 C  
HETATM   17  C   UNL     1     -10.122  17.046  68.401  1.00  0.00    -0.302 C  
HETATM   18  C   UNL     1     -10.909  18.108  67.630  1.00  0.00    -0.260 C  
HETATM   19  C   UNL     1     -10.379  16.954  65.460  1.00  0.00    -0.196 C  
HETATM   20  C   UNL     1     -10.371  18.277  66.215  1.00  0.00    -0.422 C  
BRANCH  15  21
HETATM   21  C   UNL     1      -9.024  14.747  68.415  1.00  0.00    -0.187 C  
HETATM   22  O   UNL     1      -6.972  14.447  67.164  1.00  0.00    -0.173 OA 
HETATM   23  C   UNL     1      -8.045  13.993  67.535  1.00  0.00    -0.186 C  
HETATM   24  O   UNL     1      -8.457  12.753  67.193  1.00  0.00    -0.185 OA 
ENDBRANCH  15  21
ENDBRANCH  14  15
ENDBRANCH  12  14
ENDBRANCH   9  10
ENDBRANCH   7   9
ENDBRANCH   6   7
ENDBRANCH   4   6
TORSDOF 7
ENDMDL
MODEL      113
REMARK 921   NORMALIZED FREE ENERGY PREDICTED BY IDOCK:   -4.31 KCAL/MOL
REMARK 922        TOTAL FREE ENERGY PREDICTED BY IDOCK:   -7.70 KCAL/MOL
REMARK 923 INTER-LIGAND FREE ENERGY PREDICTED BY IDOCK:   -7.17 KCAL/MOL
REMARK 924 INTRA-LIGAND FREE ENERGY PREDICTED BY IDOCK:   -0.53 KCAL/MOL
REMARK 927      BINDING AFFINITY PREDICTED BY RF-SCORE:    0.00 PKD
ROOT
HETATM    1  C   UNL     1     -11.211  14.642  65.202  1.00  0.00    -0.374 C  
HETATM    2  C   UNL     1     -12.072  13.535  65.820  1.00  0.00    -0.473 C  
HETATM    3  C   UNL     1     -12.603  12.619  64.726  1.00  0.00    -0.530 C  
HETATM    4  C   UNL     1     -11.268  12.754  66.848  1.00  0.00    -0.296 C  
HETATM    5  O   UNL     1     -10.105  13.007  67.141  1.00  0.00    -0.239 OA 
ENDROOT
BRANCH   4   6
HETATM    6  O   UNL     1     -12.017  11.786  67.456  1.00  0.00    -0.607 OA 
BRANCH   6   7
HETATM    7  C   UNL     1     -11.781  11.698  68.869  1.00  0.00    -0.334 C  
HETATM    8  C   UNL     1     -12.015  13.067  69.508  1.00  0.00    -0.350 C  
BRANCH   7   9
HETATM    9  O   UNL     1     -12.740  10.870  69.549  1.00  0.00    -0.267 OA 
BRANCH   9  10
HETATM   10  C   UNL     1     -12.404  10.496  70.800  1.00  0.00    -0.378 C  
HETATM   11  O   UNL     1     -13.037  10.736  71.811  1.00  0.00    -0.458 OA 
HETATM   12  N   UNL     1     -11.283   9.719  70.714  1.00  0.00    -0.320 N  
HETATM   13  H   UNL     1     -10.854   9.580  69.799  1.00  0.00     0.000 HD 
BRANCH  12  14
HETATM   14  C   UNL     1     -10.680   9.088  71.868  1.00  0.00    -0.331 C  
BRANCH  14  15
HETATM   15  C   UNL     1      -9.875   7.789  71.527  1.00  0.00    -0.200 C  
HETATM   16  C   UNL     1      -8.750   8.091  70.501  1.00  0.00    -0.135 C  
HETATM   17  C   UNL     1      -9.251   7.251  72.848  1.00  0.00    -0.185 C  
HETATM   18  C   UNL     1      -8.098   8.103  73.384  1.00  0.00    -0.253 C  
HETATM   19  C   UNL     1      -7.613   8.942  71.064  1.00  0.00    -0.136 C  
HETATM   20  C   UNL     1      -7.026   8.315  72.323  1.00  0.00    -0.104 C  
BRANCH  15  21
HETATM   21  C   UNL     1     -10.864   6.738  70.943  1.00  0.00    -0.289 C  
HETATM   22  O   UNL     1     -13.152   7.173  71.608  1.00  0.00    -0.372 OA 
HETATM   23  C   UNL     1     -12.134   6.509  71.741  1.00  0.00    -0.342 C  
HETATM   24  O   UNL     1     -12.053   5.487  72.620  1.00  0.00    -0.199 OA 
ENDBRANCH  15  21
ENDBRANCH  14  15
ENDBRANCH  12  14
ENDBRANCH   9  10
ENDBRANCH   7   9
ENDBRANCH   6   7
ENDBRANCH   4   6
TORSDOF 7
ENDMDL
MODEL      114
REMARK 921   NORMALIZED FREE ENERGY PREDICTED BY IDOCK:   -4.30 KCAL/MOL
REMARK 922        TOTAL FREE ENERGY PREDICTED BY IDOCK:   -7.69 KCAL/MOL
REMARK 923 INTER-LIGAND FREE ENERGY PREDICTED BY IDOCK:   -6.46 KCAL/MOL
REMARK 924 INTRA-LIGAND FREE ENERGY PREDICTED BY IDOCK:   -1.23 KCAL/MOL
REMARK 927      BINDING AFFINITY PREDICTED BY RF-SCORE:    0.00 PKD
ROOT
HETATM    1  C   UNL     1     -11.346   6.007  72.821  1.00  0.00    -0.282 C  
HETATM    2  C   UNL     1     -11.004   7.499  72.873  1.00  0.00    -0.434 C  
HETATM    3  C   UNL     1      -9.496   7.691  72.781  1.00  0.00    -0.243 C  
HETATM    4  C   UNL     1     -11.720   8.244  71.757  1.00  0.00    -0.302 C  
HETATM    5  O   UNL     1     -12.478   7.709  70.956  1.00  0.00    -0.274 OA 
ENDROOT
BRANCH   4   6
HETATM    6  O   UNL     1     -11.478   9.588  71.800  1.00  0.00    -0.384 OA 
BRANCH   6   7
HETATM    7  C   UNL     1     -12.395  10.351  71.002  1.00  0.00    -0.387 C  
HETATM    8  C   UNL     1     -13.182  11.301  71.904  1.00  0.00    -0.491 C  
BRANCH   7   9
HETATM    9  O   UNL     1     -11.737  11.255  70.097  1.00  0.00    -0.309 OA 
BRANCH   9  10
HETATM   10  C   UNL     1     -11.684  10.856  68.810  1.00  0.00    -0.286 C  
HETATM   11  O   UNL     1     -12.133  11.463  67.857  1.00  0.00    -0.646 OA 
HETATM   12  N   UNL     1     -10.954   9.701  68.764  1.00  0.00    -0.411 N  
HETATM   13  H   UNL     1     -10.618   9.299  69.639  1.00  0.00     0.000 HD 
BRANCH  12  14
HETATM   14  C   UNL     1     -10.640   9.026  67.523  1.00  0.00    -0.237 C  
BRANCH  14  15
HETATM   15  C   UNL     1      -9.373   8.110  67.607  1.00  0.00    -0.160 C  
HETATM   16  C   UNL     1      -9.337   7.342  68.956  1.00  0.00    -0.148 C  
HETATM   17  C   UNL     1      -9.434   7.097  66.427  1.00  0.00    -0.177 C  
HETATM   18  C   UNL     1     -10.509   6.020  66.587  1.00  0.00    -0.291 C  
HETATM   19  C   UNL     1     -10.420   6.273  69.087  1.00  0.00    -0.291 C  
HETATM   20  C   UNL     1     -10.373   5.295  67.920  1.00  0.00    -0.189 C  
BRANCH  15  21
HETATM   21  C   UNL     1      -8.108   9.008  67.468  1.00  0.00    -0.108 C  
HETATM   22  O   UNL     1      -8.601  11.344  67.874  1.00  0.00    -0.131 OA 
HETATM   23  C   UNL     1      -8.360  10.451  67.075  1.00  0.00    -0.127 C  
HETATM   24  O   UNL     1      -8.288  10.678  65.745  1.00  0.00    -0.156 OA 
ENDBRANCH  15  21
ENDBRANCH  14  15
ENDBRANCH  12  14
ENDBRANCH   9  10
ENDBRANCH   7   9
ENDBRANCH   6   7
ENDBRANCH   4   6
TORSDOF 7
ENDMDL
MODEL      115
REMARK 921   NORMALIZED FREE ENERGY PREDICTED BY IDOCK:   -4.29 KCAL/MOL
REMARK 922        TOTAL FREE ENERGY PREDICTED BY IDOCK:   -7.68 KCAL/MOL
REMARK 923 INTER-LIGAND FREE ENERGY PREDICTED BY IDOCK:   -6.81 KCAL/MOL
REMARK 924 INTRA-LIGAND FREE ENERGY PREDICTED BY IDOCK:   -0.87 KCAL/MOL
REMARK 927      BINDING AFFINITY PREDICTED BY RF-SCORE:    0.00 PKD
ROOT
HETATM    1  C   UNL     1     -12.486  12.148  63.825  1.00  0.00    -0.620 C  
HETATM    2  C   UNL     1     -11.615  13.170  64.563  1.00  0.00    -0.406 C  
HETATM    3  C   UNL     1     -12.152  14.576  64.327  1.00  0.00    -0.448 C  
HETATM    4  C   UNL     1     -11.565  12.845  66.048  1.00  0.00    -0.375 C  
HETATM    5  O   UNL     1     -12.129  11.882  66.555  1.00  0.00    -0.568 OA 
ENDROOT
BRANCH   4   6
HETATM    6  O   UNL     1     -10.758  13.708  66.735  1.00  0.00    -0.271 OA 
BRANCH   6   7
HETATM    7  C   UNL     1      -9.429  13.202  66.928  1.00  0.00    -0.244 C  
HETATM    8  C   UNL     1      -8.445  14.372  66.979  1.00  0.00    -0.206 C  
BRANCH   7   9
HETATM    9  O   UNL     1      -9.244  12.583  68.212  1.00  0.00    -0.201 OA 
BRANCH   9  10
HETATM   10  C   UNL     1      -9.130  11.240  68.201  1.00  0.00    -0.166 C  
HETATM   11  O   UNL     1      -8.173  10.608  67.795  1.00  0.00    -0.110 OA 
HETATM   12  N   UNL     1     -10.238  10.725  68.813  1.00  0.00    -0.184 N  
HETATM   13  H   UNL     1     -10.967  11.366  69.126  1.00  0.00     0.000 HD 
BRANCH  12  14
HETATM   14  C   UNL     1     -10.418   9.306  69.036  1.00  0.00    -0.216 C  
BRANCH  14  15
HETATM   15  C   UNL     1     -10.239   8.875  70.531  1.00  0.00    -0.247 C  
HETATM   16  C   UNL     1     -11.255   9.614  71.443  1.00  0.00    -0.426 C  
HETATM   17  C   UNL     1     -10.473   7.339  70.619  1.00  0.00    -0.226 C  
HETATM   18  C   UNL     1     -11.933   6.920  70.432  1.00  0.00    -0.312 C  
HETATM   19  C   UNL     1     -12.703   9.175  71.236  1.00  0.00    -0.340 C  
HETATM   20  C   UNL     1     -12.851   7.667  71.392  1.00  0.00    -0.354 C  
BRANCH  15  21
HETATM   21  C   UNL     1      -8.783   9.214  70.968  1.00  0.00    -0.251 C  
HETATM   22  O   UNL     1      -7.557   7.242  71.657  1.00  0.00    -0.084 OA 
HETATM   23  C   UNL     1      -8.153   8.263  71.969  1.00  0.00    -0.141 C  
HETATM   24  O   UNL     1      -8.299   8.646  73.256  1.00  0.00    -0.408 OA 
ENDBRANCH  15  21
ENDBRANCH  14  15
ENDBRANCH  12  14
ENDBRANCH   9  10
ENDBRANCH   7   9
ENDBRANCH   6   7
ENDBRANCH   4   6
TORSDOF 7
ENDMDL
MODEL      116
REMARK 921   NORMALIZED FREE ENERGY PREDICTED BY IDOCK:   -4.28 KCAL/MOL
REMARK 922        TOTAL FREE ENERGY PREDICTED BY IDOCK:   -7.67 KCAL/MOL
REMARK 923 INTER-LIGAND FREE ENERGY PREDICTED BY IDOCK:   -6.61 KCAL/MOL
REMARK 924 INTRA-LIGAND FREE ENERGY PREDICTED BY IDOCK:   -1.06 KCAL/MOL
REMARK 927      BINDING AFFINITY PREDICTED BY RF-SCORE:    0.00 PKD
ROOT
HETATM    1  C   UNL     1     -11.107   4.934  72.878  1.00  0.00    -0.329 C  
HETATM    2  C   UNL     1     -10.966   6.431  73.174  1.00  0.00    -0.249 C  
HETATM    3  C   UNL     1      -9.537   6.882  72.900  1.00  0.00    -0.170 C  
HETATM    4  C   UNL     1     -11.960   7.228  72.345  1.00  0.00    -0.163 C  
HETATM    5  O   UNL     1     -12.768   6.722  71.574  1.00  0.00    -0.355 OA 
ENDROOT
BRANCH   4   6
HETATM    6  O   UNL     1     -11.898   8.566  72.616  1.00  0.00    -0.369 OA 
BRANCH   6   7
HETATM    7  C   UNL     1     -12.096   9.386  71.454  1.00  0.00    -0.363 C  
HETATM    8  C   UNL     1     -13.076  10.510  71.789  1.00  0.00    -0.570 C  
BRANCH   7   9
HETATM    9  O   UNL     1     -10.915  10.108  71.066  1.00  0.00    -0.291 OA 
BRANCH   9  10
HETATM   10  C   UNL     1     -10.208   9.568  70.052  1.00  0.00    -0.244 C  
HETATM   11  O   UNL     1     -10.317   8.431  69.633  1.00  0.00    -0.209 OA 
HETATM   12  N   UNL     1      -9.425  10.554  69.522  1.00  0.00    -0.399 N  
HETATM   13  H   UNL     1      -9.437  11.476  69.958  1.00  0.00     0.000 HD 
BRANCH  12  14
HETATM   14  C   UNL     1      -8.578  10.342  68.367  1.00  0.00    -0.128 C  
BRANCH  14  15
HETATM   15  C   UNL     1      -9.193  10.875  67.029  1.00  0.00    -0.165 C  
HETATM   16  C   UNL     1      -8.076  11.204  66.002  1.00  0.00    -0.064 C  
HETATM   17  C   UNL     1     -10.126   9.769  66.456  1.00  0.00    -0.307 C  
HETATM   18  C   UNL     1      -9.381   8.554  65.899  1.00  0.00    -0.231 C  
HETATM   19  C   UNL     1      -7.351   9.973  65.463  1.00  0.00    -0.137 C  
HETATM   20  C   UNL     1      -8.333   8.968  64.874  1.00  0.00    -0.178 C  
BRANCH  15  21
HETATM   21  C   UNL     1     -10.022  12.154  67.346  1.00  0.00    -0.206 C  
HETATM   22  O   UNL     1     -12.212  11.623  68.234  1.00  0.00    -0.525 OA 
HETATM   23  C   UNL     1     -11.531  11.997  67.291  1.00  0.00    -0.335 C  
HETATM   24  O   UNL     1     -12.072  12.317  66.095  1.00  0.00    -0.625 OA 
ENDBRANCH  15  21
ENDBRANCH  14  15
ENDBRANCH  12  14
ENDBRANCH   9  10
ENDBRANCH   7   9
ENDBRANCH   6   7
ENDBRANCH   4   6
TORSDOF 7
ENDMDL
MODEL      117
REMARK 921   NORMALIZED FREE ENERGY PREDICTED BY IDOCK:   -4.28 KCAL/MOL
REMARK 922        TOTAL FREE ENERGY PREDICTED BY IDOCK:   -7.66 KCAL/MOL
REMARK 923 INTER-LIGAND FREE ENERGY PREDICTED BY IDOCK:   -6.92 KCAL/MOL
REMARK 924 INTRA-LIGAND FREE ENERGY PREDICTED BY IDOCK:   -0.74 KCAL/MOL
REMARK 927      BINDING AFFINITY PREDICTED BY RF-SCORE:    0.00 PKD
ROOT
HETATM    1  C   UNL     1     -11.004  14.613  64.736  1.00  0.00    -0.399 C  
HETATM    2  C   UNL     1     -11.926  13.675  65.523  1.00  0.00    -0.409 C  
HETATM    3  C   UNL     1     -12.650  12.736  64.567  1.00  0.00    -0.463 C  
HETATM    4  C   UNL     1     -11.128  12.897  66.557  1.00  0.00    -0.286 C  
HETATM    5  O   UNL     1      -9.923  13.034  66.734  1.00  0.00    -0.234 OA 
ENDROOT
BRANCH   4   6
HETATM    6  O   UNL     1     -11.924  12.083  67.313  1.00  0.00    -0.591 OA 
BRANCH   6   7
HETATM    7  C   UNL     1     -11.643  12.167  68.718  1.00  0.00    -0.327 C  
HETATM    8  C   UNL     1     -12.156  13.502  69.258  1.00  0.00    -0.335 C  
BRANCH   7   9
HETATM    9  O   UNL     1     -12.381  11.210  69.498  1.00  0.00    -0.301 OA 
BRANCH   9  10
HETATM   10  C   UNL     1     -11.646  10.239  70.076  1.00  0.00    -0.276 C  
HETATM   11  O   UNL     1     -11.722   9.882  71.236  1.00  0.00    -0.354 OA 
HETATM   12  N   UNL     1     -10.876   9.667  69.103  1.00  0.00    -0.296 N  
HETATM   13  H   UNL     1     -10.916  10.051  68.158  1.00  0.00     0.000 HD 
BRANCH  12  14
HETATM   14  C   UNL     1     -10.007   8.538  69.358  1.00  0.00    -0.194 C  
BRANCH  14  15
HETATM   15  C   UNL     1     -10.125   7.397  68.292  1.00  0.00    -0.201 C  
HETATM   16  C   UNL     1     -10.653   7.955  66.943  1.00  0.00    -0.333 C  
HETATM   17  C   UNL     1      -8.710   6.782  68.089  1.00  0.00    -0.122 C  
HETATM   18  C   UNL     1      -7.736   7.695  67.341  1.00  0.00    -0.117 C  
HETATM   19  C   UNL     1      -9.660   8.862  66.219  1.00  0.00    -0.328 C  
HETATM   20  C   UNL     1      -8.322   8.163  66.015  1.00  0.00    -0.132 C  
BRANCH  15  21
HETATM   21  C   UNL     1     -11.099   6.313  68.841  1.00  0.00    -0.434 C  
HETATM   22  O   UNL     1     -10.780   5.918  71.209  1.00  0.00    -0.244 OA 
HETATM   23  C   UNL     1     -10.617   5.544  70.057  1.00  0.00    -0.314 C  
HETATM   24  O   UNL     1      -9.988   4.386  69.759  1.00  0.00    -0.225 OA 
ENDBRANCH  15  21
ENDBRANCH  14  15
ENDBRANCH  12  14
ENDBRANCH   9  10
ENDBRANCH   7   9
ENDBRANCH   6   7
ENDBRANCH   4   6
TORSDOF 7
ENDMDL
MODEL      118
REMARK 921   NORMALIZED FREE ENERGY PREDICTED BY IDOCK:   -4.27 KCAL/MOL
REMARK 922        TOTAL FREE ENERGY PREDICTED BY IDOCK:   -7.65 KCAL/MOL
REMARK 923 INTER-LIGAND FREE ENERGY PREDICTED BY IDOCK:   -6.80 KCAL/MOL
REMARK 924 INTRA-LIGAND FREE ENERGY PREDICTED BY IDOCK:   -0.85 KCAL/MOL
REMARK 927      BINDING AFFINITY PREDICTED BY RF-SCORE:    0.00 PKD
ROOT
HETATM    1  C   UNL     1      -5.176  19.250  66.665  1.00  0.00    -0.165 C  
HETATM    2  C   UNL     1      -6.670  19.248  67.002  1.00  0.00    -0.204 C  
HETATM    3  C   UNL     1      -6.955  20.255  68.108  1.00  0.00    -0.314 C  
HETATM    4  C   UNL     1      -7.491  19.552  65.758  1.00  0.00    -0.259 C  
HETATM    5  O   UNL     1      -7.005  19.745  64.650  1.00  0.00    -0.273 OA 
ENDROOT
BRANCH   4   6
HETATM    6  O   UNL     1      -8.834  19.512  66.008  1.00  0.00    -0.393 OA 
BRANCH   6   7
HETATM    7  C   UNL     1      -9.243  18.322  66.699  1.00  0.00    -0.295 C  
HETATM    8  C   UNL     1     -10.608  18.557  67.347  1.00  0.00    -0.463 C  
BRANCH   7   9
HETATM    9  O   UNL     1      -9.504  17.220  65.813  1.00  0.00    -0.527 OA 
BRANCH   9  10
HETATM   10  C   UNL     1      -8.918  16.053  66.147  1.00  0.00    -0.345 C  
HETATM   11  O   UNL     1      -7.799  15.922  66.606  1.00  0.00    -0.243 OA 
HETATM   12  N   UNL     1      -9.839  15.060  65.969  1.00  0.00    -0.299 N  
HETATM   13  H   UNL     1     -10.754  15.304  65.590  1.00  0.00     0.000 HD 
BRANCH  12  14
HETATM   14  C   UNL     1      -9.569  13.676  66.297  1.00  0.00    -0.239 C  
BRANCH  14  15
HETATM   15  C   UNL     1     -10.794  12.925  66.920  1.00  0.00    -0.278 C  
HETATM   16  C   UNL     1     -11.510  12.056  65.852  1.00  0.00    -0.392 C  
HETATM   17  C   UNL     1     -10.266  12.017  68.069  1.00  0.00    -0.203 C  
HETATM   18  C   UNL     1      -9.472  10.801  67.585  1.00  0.00    -0.166 C  
HETATM   19  C   UNL     1     -10.695  10.850  65.389  1.00  0.00    -0.189 C  
HETATM   20  C   UNL     1     -10.265   9.989  66.570  1.00  0.00    -0.291 C  
BRANCH  15  21
HETATM   21  C   UNL     1     -11.778  13.986  67.495  1.00  0.00    -0.421 C  
HETATM   22  O   UNL     1     -10.728  15.393  69.163  1.00  0.00    -0.224 OA 
HETATM   23  C   UNL     1     -11.483  14.469  68.903  1.00  0.00    -0.300 C  
HETATM   24  O   UNL     1     -12.142  13.788  69.866  1.00  0.00    -0.317 OA 
ENDBRANCH  15  21
ENDBRANCH  14  15
ENDBRANCH  12  14
ENDBRANCH   9  10
ENDBRANCH   7   9
ENDBRANCH   6   7
ENDBRANCH   4   6
TORSDOF 7
ENDMDL
MODEL      119
REMARK 921   NORMALIZED FREE ENERGY PREDICTED BY IDOCK:   -4.27 KCAL/MOL
REMARK 922        TOTAL FREE ENERGY PREDICTED BY IDOCK:   -7.65 KCAL/MOL
REMARK 923 INTER-LIGAND FREE ENERGY PREDICTED BY IDOCK:   -7.03 KCAL/MOL
REMARK 924 INTRA-LIGAND FREE ENERGY PREDICTED BY IDOCK:   -0.61 KCAL/MOL
REMARK 927      BINDING AFFINITY PREDICTED BY RF-SCORE:    0.00 PKD
ROOT
HETATM    1  C   UNL     1     -11.003  11.211  69.245  1.00  0.00    -0.300 C  
HETATM    2  C   UNL     1     -10.287  12.168  68.287  1.00  0.00    -0.218 C  
HETATM    3  C   UNL     1      -8.901  11.630  67.955  1.00  0.00    -0.155 C  
HETATM    4  C   UNL     1     -11.113  12.370  67.027  1.00  0.00    -0.278 C  
HETATM    5  O   UNL     1     -12.207  11.849  66.837  1.00  0.00    -0.493 OA 
ENDROOT
BRANCH   4   6
HETATM    6  O   UNL     1     -10.529  13.257  66.167  1.00  0.00    -0.283 OA 
BRANCH   6   7
HETATM    7  C   UNL     1     -11.232  14.505  66.081  1.00  0.00    -0.339 C  
HETATM    8  C   UNL     1     -12.315  14.403  65.007  1.00  0.00    -0.401 C  
BRANCH   7   9
HETATM    9  O   UNL     1     -11.994  14.804  67.264  1.00  0.00    -0.362 OA 
BRANCH   9  10
HETATM   10  C   UNL     1     -11.421  15.672  68.122  1.00  0.00    -0.322 C  
HETATM   11  O   UNL     1     -11.569  15.683  69.329  1.00  0.00    -0.319 OA 
HETATM   12  N   UNL     1     -10.575  16.468  67.403  1.00  0.00    -0.317 N  
HETATM   13  H   UNL     1     -10.530  16.347  66.392  1.00  0.00     0.000 HD 
BRANCH  12  14
HETATM   14  C   UNL     1      -9.740  17.477  68.020  1.00  0.00    -0.287 C  
BRANCH  14  15
HETATM   15  C   UNL     1      -8.347  17.653  67.326  1.00  0.00    -0.225 C  
HETATM   16  C   UNL     1      -7.242  17.948  68.375  1.00  0.00    -0.256 C  
HETATM   17  C   UNL     1      -8.017  16.333  66.571  1.00  0.00    -0.326 C  
HETATM   18  C   UNL     1      -7.668  15.160  67.491  1.00  0.00    -0.205 C  
HETATM   19  C   UNL     1      -6.914  16.761  69.278  1.00  0.00    -0.216 C  
HETATM   20  C   UNL     1      -6.551  15.529  68.459  1.00  0.00    -0.109 C  
BRANCH  15  21
HETATM   21  C   UNL     1      -8.451  18.830  66.312  1.00  0.00    -0.256 C  
HETATM   22  O   UNL     1      -9.562  20.759  67.266  1.00  0.00    -0.457 OA 
HETATM   23  C   UNL     1      -9.608  19.789  66.525  1.00  0.00    -0.406 C  
HETATM   24  O   UNL     1     -10.713  19.483  65.810  1.00  0.00    -0.503 OA 
ENDBRANCH  15  21
ENDBRANCH  14  15
ENDBRANCH  12  14
ENDBRANCH   9  10
ENDBRANCH   7   9
ENDBRANCH   6   7
ENDBRANCH   4   6
TORSDOF 7
ENDMDL
MODEL      120
REMARK 921   NORMALIZED FREE ENERGY PREDICTED BY IDOCK:   -4.27 KCAL/MOL
REMARK 922        TOTAL FREE ENERGY PREDICTED BY IDOCK:   -7.64 KCAL/MOL
REMARK 923 INTER-LIGAND FREE ENERGY PREDICTED BY IDOCK:   -6.35 KCAL/MOL
REMARK 924 INTRA-LIGAND FREE ENERGY PREDICTED BY IDOCK:   -1.29 KCAL/MOL
REMARK 927      BINDING AFFINITY PREDICTED BY RF-SCORE:    0.00 PKD
ROOT
HETATM    1  C   UNL     1     -12.514  13.548  66.045  1.00  0.00    -0.456 C  
HETATM    2  C   UNL     1     -11.264  14.390  65.775  1.00  0.00    -0.326 C  
HETATM    3  C   UNL     1     -11.454  15.210  64.505  1.00  0.00    -0.319 C  
HETATM    4  C   UNL     1     -10.963  15.287  66.966  1.00  0.00    -0.324 C  
HETATM    5  O   UNL     1     -11.628  15.298  67.996  1.00  0.00    -0.339 OA 
ENDROOT
BRANCH   4   6
HETATM    6  O   UNL     1      -9.825  16.021  66.782  1.00  0.00    -0.236 OA 
BRANCH   6   7
HETATM    7  C   UNL     1      -8.627  15.241  66.907  1.00  0.00    -0.257 C  
HETATM    8  C   UNL     1      -7.413  16.171  66.881  1.00  0.00    -0.266 C  
BRANCH   7   9
HETATM    9  O   UNL     1      -8.502  14.602  68.189  1.00  0.00    -0.144 OA 
BRANCH   9  10
HETATM   10  C   UNL     1      -8.210  13.286  68.158  1.00  0.00    -0.160 C  
HETATM   11  O   UNL     1      -7.119  12.803  67.920  1.00  0.00    -0.091 OA 
HETATM   12  N   UNL     1      -9.332  12.603  68.536  1.00  0.00    -0.381 N  
HETATM   13  H   UNL     1     -10.185  13.130  68.725  1.00  0.00     0.000 HD 
BRANCH  12  14
HETATM   14  C   UNL     1      -9.358  11.163  68.679  1.00  0.00    -0.184 C  
BRANCH  14  15
HETATM   15  C   UNL     1     -10.760  10.527  68.395  1.00  0.00    -0.262 C  
HETATM   16  C   UNL     1     -10.906   9.165  69.126  1.00  0.00    -0.131 C  
HETATM   17  C   UNL     1     -11.848  11.516  68.904  1.00  0.00    -0.406 C  
HETATM   18  C   UNL     1     -11.941  11.608  70.429  1.00  0.00    -0.448 C  
HETATM   19  C   UNL     1     -10.998   9.287  70.646  1.00  0.00    -0.336 C  
HETATM   20  C   UNL     1     -12.121  10.232  71.056  1.00  0.00    -0.487 C  
BRANCH  15  21
HETATM   21  C   UNL     1     -10.905  10.327  66.857  1.00  0.00    -0.205 C  
HETATM   22  O   UNL     1      -9.078   9.036  65.931  1.00  0.00    -0.182 OA 
HETATM   23  C   UNL     1      -9.612  10.123  66.090  1.00  0.00    -0.203 C  
HETATM   24  O   UNL     1      -9.091  11.261  65.581  1.00  0.00    -0.209 OA 
ENDBRANCH  15  21
ENDBRANCH  14  15
ENDBRANCH  12  14
ENDBRANCH   9  10
ENDBRANCH   7   9
ENDBRANCH   6   7
ENDBRANCH   4   6
TORSDOF 7
ENDMDL
MODEL      121
REMARK 921   NORMALIZED FREE ENERGY PREDICTED BY IDOCK:   -4.26 KCAL/MOL
REMARK 922        TOTAL FREE ENERGY PREDICTED BY IDOCK:   -7.64 KCAL/MOL
REMARK 923 INTER-LIGAND FREE ENERGY PREDICTED BY IDOCK:   -6.65 KCAL/MOL
REMARK 924 INTRA-LIGAND FREE ENERGY PREDICTED BY IDOCK:   -0.98 KCAL/MOL
REMARK 927      BINDING AFFINITY PREDICTED BY RF-SCORE:    0.00 PKD
ROOT
HETATM    1  C   UNL     1      -9.924   4.770  68.054  1.00  0.00    -0.154 C  
HETATM    2  C   UNL     1     -10.099   6.275  68.284  1.00  0.00    -0.172 C  
HETATM    3  C   UNL     1     -10.858   6.894  67.116  1.00  0.00    -0.447 C  
HETATM    4  C   UNL     1     -10.818   6.528  69.600  1.00  0.00    -0.304 C  
HETATM    5  O   UNL     1     -11.175   5.639  70.364  1.00  0.00    -0.231 OA 
ENDROOT
BRANCH   4   6
HETATM    6  O   UNL     1     -10.951   7.863  69.863  1.00  0.00    -0.243 OA 
BRANCH   6   7
HETATM    7  C   UNL     1     -10.743   8.187  71.246  1.00  0.00    -0.227 C  
HETATM    8  C   UNL     1      -9.261   8.025  71.586  1.00  0.00    -0.196 C  
BRANCH   7   9
HETATM    9  O   UNL     1     -10.980   9.574  71.540  1.00  0.00    -0.364 OA 
BRANCH   9  10
HETATM   10  C   UNL     1     -11.837  10.207  70.714  1.00  0.00    -0.351 C  
HETATM   11  O   UNL     1     -13.048  10.095  70.720  1.00  0.00    -0.369 OA 
HETATM   12  N   UNL     1     -11.108  11.066  69.940  1.00  0.00    -0.420 N  
HETATM   13  H   UNL     1     -10.093  11.077  70.044  1.00  0.00     0.000 HD 
BRANCH  12  14
HETATM   14  C   UNL     1     -11.718  11.960  68.980  1.00  0.00    -0.331 C  
BRANCH  14  15
HETATM   15  C   UNL     1     -11.006  11.968  67.585  1.00  0.00    -0.287 C  
HETATM   16  C   UNL     1     -11.901  12.647  66.513  1.00  0.00    -0.463 C  
HETATM   17  C   UNL     1      -9.672  12.756  67.732  1.00  0.00    -0.207 C  
HETATM   18  C   UNL     1      -9.856  14.265  67.905  1.00  0.00    -0.226 C  
HETATM   19  C   UNL     1     -12.066  14.153  66.710  1.00  0.00    -0.474 C  
HETATM   20  C   UNL     1     -10.714  14.850  66.790  1.00  0.00    -0.312 C  
BRANCH  15  21
HETATM   21  C   UNL     1     -10.708  10.495  67.178  1.00  0.00    -0.323 C  
HETATM   22  O   UNL     1      -8.342  10.105  66.839  1.00  0.00    -0.121 OA 
HETATM   23  C   UNL     1      -9.452  10.275  66.356  1.00  0.00    -0.174 C  
HETATM   24  O   UNL     1      -9.663  10.275  65.022  1.00  0.00    -0.259 OA 
ENDBRANCH  15  21
ENDBRANCH  14  15
ENDBRANCH  12  14
ENDBRANCH   9  10
ENDBRANCH   7   9
ENDBRANCH   6   7
ENDBRANCH   4   6
TORSDOF 7
ENDMDL
MODEL      122
REMARK 921   NORMALIZED FREE ENERGY PREDICTED BY IDOCK:   -4.25 KCAL/MOL
REMARK 922        TOTAL FREE ENERGY PREDICTED BY IDOCK:   -7.62 KCAL/MOL
REMARK 923 INTER-LIGAND FREE ENERGY PREDICTED BY IDOCK:   -6.96 KCAL/MOL
REMARK 924 INTRA-LIGAND FREE ENERGY PREDICTED BY IDOCK:   -0.66 KCAL/MOL
REMARK 927      BINDING AFFINITY PREDICTED BY RF-SCORE:    0.00 PKD
ROOT
HETATM    1  C   UNL     1     -10.876   7.258  70.059  1.00  0.00    -0.271 C  
HETATM    2  C   UNL     1     -10.639   8.648  69.460  1.00  0.00    -0.218 C  
HETATM    3  C   UNL     1      -9.962   9.548  70.486  1.00  0.00    -0.335 C  
HETATM    4  C   UNL     1      -9.806   8.541  68.192  1.00  0.00    -0.165 C  
HETATM    5  O   UNL     1      -9.413   7.479  67.722  1.00  0.00    -0.140 OA 
ENDROOT
BRANCH   4   6
HETATM    6  O   UNL     1      -9.612   9.757  67.601  1.00  0.00    -0.142 OA 
BRANCH   6   7
HETATM    7  C   UNL     1      -8.897   9.672  66.359  1.00  0.00    -0.150 C  
HETATM    8  C   UNL     1      -9.866   9.902  65.200  1.00  0.00    -0.348 C  
BRANCH   7   9
HETATM    9  O   UNL     1      -7.945  10.736  66.185  1.00  0.00    -0.150 OA 
BRANCH   9  10
HETATM   10  C   UNL     1      -8.046  11.758  67.058  1.00  0.00    -0.169 C  
HETATM   11  O   UNL     1      -7.494  11.830  68.139  1.00  0.00    -0.085 OA 
HETATM   12  N   UNL     1      -8.798  12.735  66.467  1.00  0.00    -0.418 N  
HETATM   13  H   UNL     1      -9.193  12.557  65.544  1.00  0.00     0.000 HD 
BRANCH  12  14
HETATM   14  C   UNL     1      -9.055  14.011  67.099  1.00  0.00    -0.232 C  
BRANCH  14  15
HETATM   15  C   UNL     1     -10.256  14.795  66.470  1.00  0.00    -0.281 C  
HETATM   16  C   UNL     1     -11.390  14.995  67.512  1.00  0.00    -0.340 C  
HETATM   17  C   UNL     1      -9.728  16.180  65.995  1.00  0.00    -0.376 C  
HETATM   18  C   UNL     1      -9.396  17.144  67.137  1.00  0.00    -0.249 C  
HETATM   19  C   UNL     1     -11.031  15.962  68.638  1.00  0.00    -0.320 C  
HETATM   20  C   UNL     1     -10.576  17.308  68.085  1.00  0.00    -0.386 C  
BRANCH  15  21
HETATM   21  C   UNL     1     -10.785  13.985  65.251  1.00  0.00    -0.367 C  
HETATM   22  O   UNL     1     -13.203  14.024  65.112  1.00  0.00    -0.768 OA 
HETATM   23  C   UNL     1     -12.183  13.411  65.393  1.00  0.00    -0.452 C  
HETATM   24  O   UNL     1     -12.211  12.142  65.855  1.00  0.00    -0.604 OA 
ENDBRANCH  15  21
ENDBRANCH  14  15
ENDBRANCH  12  14
ENDBRANCH   9  10
ENDBRANCH   7   9
ENDBRANCH   6   7
ENDBRANCH   4   6
TORSDOF 7
ENDMDL
MODEL      123
REMARK 921   NORMALIZED FREE ENERGY PREDICTED BY IDOCK:   -4.25 KCAL/MOL
REMARK 922        TOTAL FREE ENERGY PREDICTED BY IDOCK:   -7.62 KCAL/MOL
REMARK 923 INTER-LIGAND FREE ENERGY PREDICTED BY IDOCK:   -6.89 KCAL/MOL
REMARK 924 INTRA-LIGAND FREE ENERGY PREDICTED BY IDOCK:   -0.73 KCAL/MOL
REMARK 927      BINDING AFFINITY PREDICTED BY RF-SCORE:    0.00 PKD
ROOT
HETATM    1  C   UNL     1     -10.390   7.056  73.588  1.00  0.00    -0.412 C  
HETATM    2  C   UNL     1     -10.441   7.397  72.095  1.00  0.00    -0.243 C  
HETATM    3  C   UNL     1     -10.447   6.118  71.269  1.00  0.00    -0.274 C  
HETATM    4  C   UNL     1     -11.662   8.252  71.790  1.00  0.00    -0.302 C  
HETATM    5  O   UNL     1     -12.464   8.622  72.640  1.00  0.00    -0.375 OA 
ENDROOT
BRANCH   4   6
HETATM    6  O   UNL     1     -11.717   8.617  70.475  1.00  0.00    -0.212 OA 
BRANCH   6   7
HETATM    7  C   UNL     1     -11.291   9.969  70.249  1.00  0.00    -0.308 C  
HETATM    8  C   UNL     1      -9.904   9.962  69.606  1.00  0.00    -0.255 C  
BRANCH   7   9
HETATM    9  O   UNL     1     -12.087  10.653  69.265  1.00  0.00    -0.259 OA 
BRANCH   9  10
HETATM   10  C   UNL     1     -11.850  11.974  69.139  1.00  0.00    -0.311 C  
HETATM   11  O   UNL     1     -11.773  12.775  70.050  1.00  0.00    -0.288 OA 
HETATM   12  N   UNL     1     -11.616  12.228  67.816  1.00  0.00    -0.335 N  
HETATM   13  H   UNL     1     -11.695  11.461  67.149  1.00  0.00     0.000 HD 
BRANCH  12  14
HETATM   14  C   UNL     1     -11.259  13.543  67.326  1.00  0.00    -0.298 C  
BRANCH  14  15
HETATM   15  C   UNL     1     -10.435  13.516  65.994  1.00  0.00    -0.299 C  
HETATM   16  C   UNL     1     -11.372  13.334  64.770  1.00  0.00    -0.350 C  
HETATM   17  C   UNL     1      -9.672  14.867  65.876  1.00  0.00    -0.366 C  
HETATM   18  C   UNL     1     -10.572  16.066  65.567  1.00  0.00    -0.415 C  
HETATM   19  C   UNL     1     -12.257  14.546  64.484  1.00  0.00    -0.483 C  
HETATM   20  C   UNL     1     -11.425  15.813  64.330  1.00  0.00    -0.268 C  
BRANCH  15  21
HETATM   21  C   UNL     1      -9.419  12.339  66.070  1.00  0.00    -0.194 C  
HETATM   22  O   UNL     1      -9.358  11.055  64.018  1.00  0.00    -0.215 OA 
HETATM   23  C   UNL     1      -9.719  11.146  65.182  1.00  0.00    -0.250 C  
HETATM   24  O   UNL     1     -10.423  10.170  65.794  1.00  0.00    -0.183 OA 
ENDBRANCH  15  21
ENDBRANCH  14  15
ENDBRANCH  12  14
ENDBRANCH   9  10
ENDBRANCH   7   9
ENDBRANCH   6   7
ENDBRANCH   4   6
TORSDOF 7
ENDMDL
MODEL      124
REMARK 921   NORMALIZED FREE ENERGY PREDICTED BY IDOCK:   -4.24 KCAL/MOL
REMARK 922        TOTAL FREE ENERGY PREDICTED BY IDOCK:   -7.61 KCAL/MOL
REMARK 923 INTER-LIGAND FREE ENERGY PREDICTED BY IDOCK:   -7.37 KCAL/MOL
REMARK 924 INTRA-LIGAND FREE ENERGY PREDICTED BY IDOCK:   -0.24 KCAL/MOL
REMARK 927      BINDING AFFINITY PREDICTED BY RF-SCORE:    0.00 PKD
ROOT
HETATM    1  C   UNL     1     -10.496   5.245  66.698  1.00  0.00    -0.345 C  
HETATM    2  C   UNL     1     -10.899   6.531  67.428  1.00  0.00    -0.449 C  
HETATM    3  C   UNL     1     -10.730   6.350  68.931  1.00  0.00    -0.339 C  
HETATM    4  C   UNL     1     -10.077   7.705  66.921  1.00  0.00    -0.278 C  
HETATM    5  O   UNL     1      -9.233   7.616  66.037  1.00  0.00    -0.150 OA 
ENDROOT
BRANCH   4   6
HETATM    6  O   UNL     1     -10.441   8.881  67.516  1.00  0.00    -0.252 OA 
BRANCH   6   7
HETATM    7  C   UNL     1      -9.556   9.273  68.576  1.00  0.00    -0.147 C  
HETATM    8  C   UNL     1      -8.279   9.863  67.977  1.00  0.00    -0.113 C  
BRANCH   7   9
HETATM    9  O   UNL     1     -10.066  10.365  69.360  1.00  0.00    -0.218 OA 
BRANCH   9  10
HETATM   10  C   UNL     1     -11.219  10.909  68.921  1.00  0.00    -0.267 C  
HETATM   11  O   UNL     1     -12.325  10.707  69.384  1.00  0.00    -0.277 OA 
HETATM   12  N   UNL     1     -10.907  11.797  67.930  1.00  0.00    -0.201 N  
HETATM   13  H   UNL     1      -9.933  11.887  67.642  1.00  0.00     0.000 HD 
BRANCH  12  14
HETATM   14  C   UNL     1     -11.904  12.616  67.274  1.00  0.00    -0.328 C  
BRANCH  14  15
HETATM   15  C   UNL     1     -11.341  13.463  66.084  1.00  0.00    -0.324 C  
HETATM   16  C   UNL     1     -10.104  12.770  65.451  1.00  0.00    -0.274 C  
HETATM   17  C   UNL     1     -12.467  13.602  65.019  1.00  0.00    -0.454 C  
HETATM   18  C   UNL     1     -12.769  12.308  64.259  1.00  0.00    -0.413 C  
HETATM   19  C   UNL     1     -10.435  11.482  64.699  1.00  0.00    -0.356 C  
HETATM   20  C   UNL     1     -11.506  11.721  63.642  1.00  0.00    -0.524 C  
BRANCH  15  21
HETATM   21  C   UNL     1     -10.948  14.869  66.625  1.00  0.00    -0.325 C  
HETATM   22  O   UNL     1     -10.640  16.478  64.841  1.00  0.00    -0.689 OA 
HETATM   23  C   UNL     1     -10.143  15.742  65.680  1.00  0.00    -0.371 C  
HETATM   24  O   UNL     1      -8.806  15.645  65.849  1.00  0.00    -0.279 OA 
ENDBRANCH  15  21
ENDBRANCH  14  15
ENDBRANCH  12  14
ENDBRANCH   9  10
ENDBRANCH   7   9
ENDBRANCH   6   7
ENDBRANCH   4   6
TORSDOF 7
ENDMDL
MODEL      125
REMARK 921   NORMALIZED FREE ENERGY PREDICTED BY IDOCK:   -4.24 KCAL/MOL
REMARK 922        TOTAL FREE ENERGY PREDICTED BY IDOCK:   -7.60 KCAL/MOL
REMARK 923 INTER-LIGAND FREE ENERGY PREDICTED BY IDOCK:   -6.64 KCAL/MOL
REMARK 924 INTRA-LIGAND FREE ENERGY PREDICTED BY IDOCK:   -0.96 KCAL/MOL
REMARK 927      BINDING AFFINITY PREDICTED BY RF-SCORE:    0.00 PKD
ROOT
HETATM    1  C   UNL     1      -9.561   4.367  69.173  1.00  0.00    -0.252 C  
HETATM    2  C   UNL     1     -10.186   4.858  70.483  1.00  0.00    -0.288 C  
HETATM    3  C   UNL     1      -9.093   5.312  71.442  1.00  0.00    -0.167 C  
HETATM    4  C   UNL     1     -11.174   5.981  70.207  1.00  0.00    -0.322 C  
HETATM    5  O   UNL     1     -11.436   6.400  69.086  1.00  0.00    -0.364 OA 
ENDROOT
BRANCH   4   6
HETATM    6  O   UNL     1     -11.789   6.414  71.348  1.00  0.00    -0.317 OA 
BRANCH   6   7
HETATM    7  C   UNL     1     -12.371   7.719  71.213  1.00  0.00    -0.293 C  
HETATM    8  C   UNL     1     -13.802   7.694  71.751  1.00  0.00    -0.432 C  
BRANCH   7   9
HETATM    9  O   UNL     1     -11.741   8.706  72.048  1.00  0.00    -0.322 OA 
BRANCH   9  10
HETATM   10  C   UNL     1     -10.563   9.183  71.599  1.00  0.00    -0.357 C  
HETATM   11  O   UNL     1      -9.494   9.097  72.173  1.00  0.00    -0.291 OA 
HETATM   12  N   UNL     1     -10.770   9.689  70.347  1.00  0.00    -0.274 N  
HETATM   13  H   UNL     1     -11.718   9.687  69.969  1.00  0.00     0.000 HD 
BRANCH  12  14
HETATM   14  C   UNL     1      -9.699  10.228  69.536  1.00  0.00    -0.211 C  
BRANCH  14  15
HETATM   15  C   UNL     1     -10.144  10.622  68.087  1.00  0.00    -0.179 C  
HETATM   16  C   UNL     1      -9.059  11.491  67.395  1.00  0.00    -0.166 C  
HETATM   17  C   UNL     1     -10.361   9.310  67.278  1.00  0.00    -0.332 C  
HETATM   18  C   UNL     1      -9.066   8.572  66.929  1.00  0.00    -0.177 C  
HETATM   19  C   UNL     1      -7.779  10.729  67.058  1.00  0.00    -0.121 C  
HETATM   20  C   UNL     1      -8.079   9.491  66.221  1.00  0.00    -0.111 C  
BRANCH  15  21
HETATM   21  C   UNL     1     -11.482  11.412  68.182  1.00  0.00    -0.375 C  
HETATM   22  O   UNL     1     -12.164  12.311  66.040  1.00  0.00    -0.646 OA 
HETATM   23  C   UNL     1     -11.683  12.502  67.147  1.00  0.00    -0.355 C  
HETATM   24  O   UNL     1     -11.289  13.728  67.557  1.00  0.00    -0.284 OA 
ENDBRANCH  15  21
ENDBRANCH  14  15
ENDBRANCH  12  14
ENDBRANCH   9  10
ENDBRANCH   7   9
ENDBRANCH   6   7
ENDBRANCH   4   6
TORSDOF 7
ENDMDL
MODEL      126
REMARK 921   NORMALIZED FREE ENERGY PREDICTED BY IDOCK:   -4.22 KCAL/MOL
REMARK 922        TOTAL FREE ENERGY PREDICTED BY IDOCK:   -7.58 KCAL/MOL
REMARK 923 INTER-LIGAND FREE ENERGY PREDICTED BY IDOCK:   -6.50 KCAL/MOL
REMARK 924 INTRA-LIGAND FREE ENERGY PREDICTED BY IDOCK:   -1.08 KCAL/MOL
REMARK 927      BINDING AFFINITY PREDICTED BY RF-SCORE:    0.00 PKD
ROOT
HETATM    1  C   UNL     1      -9.611   6.721  70.120  1.00  0.00    -0.165 C  
HETATM    2  C   UNL     1      -9.977   7.954  69.287  1.00  0.00    -0.190 C  
HETATM    3  C   UNL     1     -10.824   8.909  70.118  1.00  0.00    -0.251 C  
HETATM    4  C   UNL     1      -8.719   8.639  68.776  1.00  0.00    -0.135 C  
HETATM    5  O   UNL     1      -7.584   8.231  68.993  1.00  0.00    -0.086 OA 
ENDROOT
BRANCH   4   6
HETATM    6  O   UNL     1      -9.007   9.717  67.988  1.00  0.00    -0.119 OA 
BRANCH   6   7
HETATM    7  C   UNL     1      -8.378   9.656  66.699  1.00  0.00    -0.123 C  
HETATM    8  C   UNL     1      -9.409   9.235  65.652  1.00  0.00    -0.308 C  
BRANCH   7   9
HETATM    9  O   UNL     1      -7.953  10.943  66.219  1.00  0.00    -0.155 OA 
BRANCH   9  10
HETATM   10  C   UNL     1      -8.201  11.983  67.040  1.00  0.00    -0.169 C  
HETATM   11  O   UNL     1      -7.570  12.268  68.040  1.00  0.00    -0.106 OA 
HETATM   12  N   UNL     1      -9.221  12.709  66.493  1.00  0.00    -0.317 N  
HETATM   13  H   UNL     1      -9.658  12.370  65.636  1.00  0.00     0.000 HD 
BRANCH  12  14
HETATM   14  C   UNL     1      -9.705  13.940  67.081  1.00  0.00    -0.244 C  
BRANCH  14  15
HETATM   15  C   UNL     1     -11.266  14.027  67.164  1.00  0.00    -0.327 C  
HETATM   16  C   UNL     1     -11.874  12.660  67.578  1.00  0.00    -0.396 C  
HETATM   17  C   UNL     1     -11.631  15.107  68.223  1.00  0.00    -0.357 C  
HETATM   18  C   UNL     1     -11.347  14.684  69.666  1.00  0.00    -0.317 C  
HETATM   19  C   UNL     1     -11.575  12.264  69.023  1.00  0.00    -0.368 C  
HETATM   20  C   UNL     1     -12.012  13.353  69.994  1.00  0.00    -0.407 C  
BRANCH  15  21
HETATM   21  C   UNL     1     -11.808  14.453  65.767  1.00  0.00    -0.365 C  
HETATM   22  O   UNL     1     -13.283  12.783  64.816  1.00  0.00    -0.812 OA 
HETATM   23  C   UNL     1     -12.185  13.320  64.830  1.00  0.00    -0.417 C  
HETATM   24  O   UNL     1     -11.194  12.952  63.989  1.00  0.00    -0.367 OA 
ENDBRANCH  15  21
ENDBRANCH  14  15
ENDBRANCH  12  14
ENDBRANCH   9  10
ENDBRANCH   7   9
ENDBRANCH   6   7
ENDBRANCH   4   6
TORSDOF 7
ENDMDL
MODEL      127
REMARK 921   NORMALIZED FREE ENERGY PREDICTED BY IDOCK:   -4.21 KCAL/MOL
REMARK 922        TOTAL FREE ENERGY PREDICTED BY IDOCK:   -7.57 KCAL/MOL
REMARK 923 INTER-LIGAND FREE ENERGY PREDICTED BY IDOCK:   -6.70 KCAL/MOL
REMARK 924 INTRA-LIGAND FREE ENERGY PREDICTED BY IDOCK:   -0.87 KCAL/MOL
REMARK 927      BINDING AFFINITY PREDICTED BY RF-SCORE:    0.00 PKD
ROOT
HETATM    1  C   UNL     1      -7.353   7.702  67.325  1.00  0.00    -0.091 C  
HETATM    2  C   UNL     1      -7.603   8.737  68.427  1.00  0.00    -0.095 C  
HETATM    3  C   UNL     1      -7.074  10.098  67.990  1.00  0.00    -0.084 C  
HETATM    4  C   UNL     1      -9.085   8.807  68.759  1.00  0.00    -0.138 C  
HETATM    5  O   UNL     1      -9.938   8.106  68.226  1.00  0.00    -0.174 OA 
ENDROOT
BRANCH   4   6
HETATM    6  O   UNL     1      -9.343   9.687  69.772  1.00  0.00    -0.188 OA 
BRANCH   6   7
HETATM    7  C   UNL     1     -10.686   9.594  70.270  1.00  0.00    -0.281 C  
HETATM    8  C   UNL     1     -10.666   8.982  71.670  1.00  0.00    -0.441 C  
BRANCH   7   9
HETATM    9  O   UNL     1     -11.291  10.879  70.500  1.00  0.00    -0.290 OA 
BRANCH   9  10
HETATM   10  C   UNL     1     -11.716  11.529  69.398  1.00  0.00    -0.346 C  
HETATM   11  O   UNL     1     -12.391  11.052  68.506  1.00  0.00    -0.536 OA 
HETATM   12  N   UNL     1     -11.336  12.836  69.515  1.00  0.00    -0.448 N  
HETATM   13  H   UNL     1     -10.783  13.114  70.326  1.00  0.00     0.000 HD 
BRANCH  12  14
HETATM   14  C   UNL     1     -11.687  13.842  68.535  1.00  0.00    -0.356 C  
BRANCH  14  15
HETATM   15  C   UNL     1     -10.501  14.251  67.599  1.00  0.00    -0.248 C  
HETATM   16  C   UNL     1     -10.766  15.634  66.945  1.00  0.00    -0.307 C  
HETATM   17  C   UNL     1      -9.209  14.318  68.464  1.00  0.00    -0.197 C  
HETATM   18  C   UNL     1      -9.164  15.508  69.426  1.00  0.00    -0.280 C  
HETATM   19  C   UNL     1     -10.715  16.802  67.928  1.00  0.00    -0.347 C  
HETATM   20  C   UNL     1      -9.397  16.822  68.692  1.00  0.00    -0.252 C  
BRANCH  15  21
HETATM   21  C   UNL     1     -10.345  13.160  66.500  1.00  0.00    -0.284 C  
HETATM   22  O   UNL     1     -11.150  13.917  64.345  1.00  0.00    -0.376 OA 
HETATM   23  C   UNL     1     -11.326  13.237  65.345  1.00  0.00    -0.295 C  
HETATM   24  O   UNL     1     -12.429  12.474  65.510  1.00  0.00    -0.646 OA 
ENDBRANCH  15  21
ENDBRANCH  14  15
ENDBRANCH  12  14
ENDBRANCH   9  10
ENDBRANCH   7   9
ENDBRANCH   6   7
ENDBRANCH   4   6
TORSDOF 7
ENDMDL
MODEL      128
REMARK 921   NORMALIZED FREE ENERGY PREDICTED BY IDOCK:   -4.21 KCAL/MOL
REMARK 922        TOTAL FREE ENERGY PREDICTED BY IDOCK:   -7.56 KCAL/MOL
REMARK 923 INTER-LIGAND FREE ENERGY PREDICTED BY IDOCK:   -7.13 KCAL/MOL
REMARK 924 INTRA-LIGAND FREE ENERGY PREDICTED BY IDOCK:   -0.43 KCAL/MOL
REMARK 927      BINDING AFFINITY PREDICTED BY RF-SCORE:    0.00 PKD
ROOT
HETATM    1  C   UNL     1      -9.747   4.989  68.102  1.00  0.00    -0.199 C  
HETATM    2  C   UNL     1      -9.286   6.424  68.375  1.00  0.00    -0.120 C  
HETATM    3  C   UNL     1      -7.827   6.587  67.968  1.00  0.00    -0.105 C  
HETATM    4  C   UNL     1     -10.175   7.413  67.638  1.00  0.00    -0.201 C  
HETATM    5  O   UNL     1     -11.134   7.086  66.948  1.00  0.00    -0.359 OA 
ENDROOT
BRANCH   4   6
HETATM    6  O   UNL     1      -9.824   8.709  67.895  1.00  0.00    -0.160 OA 
BRANCH   6   7
HETATM    7  C   UNL     1     -10.407   9.220  69.102  1.00  0.00    -0.211 C  
HETATM    8  C   UNL     1      -9.296   9.568  70.093  1.00  0.00    -0.286 C  
BRANCH   7   9
HETATM    9  O   UNL     1     -11.066  10.485  68.917  1.00  0.00    -0.230 OA 
BRANCH   9  10
HETATM   10  C   UNL     1     -11.806  10.915  69.958  1.00  0.00    -0.347 C  
HETATM   11  O   UNL     1     -12.403  10.209  70.748  1.00  0.00    -0.299 OA 
HETATM   12  N   UNL     1     -11.684  12.275  70.020  1.00  0.00    -0.503 N  
HETATM   13  H   UNL     1     -11.138  12.750  69.302  1.00  0.00     0.000 HD 
BRANCH  12  14
HETATM   14  C   UNL     1     -12.298  13.066  71.065  1.00  0.00    -0.244 C  
BRANCH  14  15
HETATM   15  C   UNL     1     -12.140  14.611  70.861  1.00  0.00    -0.393 C  
HETATM   16  C   UNL     1     -13.525  15.311  70.855  1.00  0.00    -0.441 C  
HETATM   17  C   UNL     1     -11.276  15.163  72.032  1.00  0.00    -0.232 C  
HETATM   18  C   UNL     1     -11.997  15.182  73.382  1.00  0.00    -0.497 C  
HETATM   19  C   UNL     1     -14.220  15.316  72.215  1.00  0.00    -0.642 C  
HETATM   20  C   UNL     1     -13.326  15.921  73.290  1.00  0.00    -0.660 C  
BRANCH  15  21
HETATM   21  C   UNL     1     -11.411  14.854  69.506  1.00  0.00    -0.325 C  
HETATM   22  O   UNL     1      -9.256  15.916  69.809  1.00  0.00    -0.181 OA 
HETATM   23  C   UNL     1     -10.429  16.010  69.480  1.00  0.00    -0.286 C  
HETATM   24  O   UNL     1     -10.963  17.173  69.047  1.00  0.00    -0.209 OA 
ENDBRANCH  15  21
ENDBRANCH  14  15
ENDBRANCH  12  14
ENDBRANCH   9  10
ENDBRANCH   7   9
ENDBRANCH   6   7
ENDBRANCH   4   6
TORSDOF 7
ENDMDL
MODEL      129
REMARK 921   NORMALIZED FREE ENERGY PREDICTED BY IDOCK:   -4.20 KCAL/MOL
REMARK 922        TOTAL FREE ENERGY PREDICTED BY IDOCK:   -7.54 KCAL/MOL
REMARK 923 INTER-LIGAND FREE ENERGY PREDICTED BY IDOCK:   -6.37 KCAL/MOL
REMARK 924 INTRA-LIGAND FREE ENERGY PREDICTED BY IDOCK:   -1.17 KCAL/MOL
REMARK 927      BINDING AFFINITY PREDICTED BY RF-SCORE:    0.00 PKD
ROOT
HETATM    1  C   UNL     1     -10.412  14.372  65.191  1.00  0.00    -0.437 C  
HETATM    2  C   UNL     1     -11.490  13.888  66.165  1.00  0.00    -0.351 C  
HETATM    3  C   UNL     1     -12.848  13.881  65.475  1.00  0.00    -0.471 C  
HETATM    4  C   UNL     1     -11.139  12.508  66.698  1.00  0.00    -0.283 C  
HETATM    5  O   UNL     1     -10.119  11.899  66.395  1.00  0.00    -0.207 OA 
ENDROOT
BRANCH   4   6
HETATM    6  O   UNL     1     -12.055  12.061  67.608  1.00  0.00    -0.547 OA 
BRANCH   6   7
HETATM    7  C   UNL     1     -11.566  12.088  68.958  1.00  0.00    -0.313 C  
HETATM    8  C   UNL     1     -11.800  13.476  69.553  1.00  0.00    -0.392 C  
BRANCH   7   9
HETATM    9  O   UNL     1     -12.314  11.238  69.844  1.00  0.00    -0.284 OA 
BRANCH   9  10
HETATM   10  C   UNL     1     -11.642  10.182  70.345  1.00  0.00    -0.316 C  
HETATM   11  O   UNL     1     -11.606   9.848  71.513  1.00  0.00    -0.373 OA 
HETATM   12  N   UNL     1     -11.094   9.503  69.293  1.00  0.00    -0.417 N  
HETATM   13  H   UNL     1     -11.211   9.881  68.352  1.00  0.00     0.000 HD 
BRANCH  12  14
HETATM   14  C   UNL     1     -10.355   8.270  69.459  1.00  0.00    -0.219 C  
BRANCH  14  15
HETATM   15  C   UNL     1      -9.434   7.918  68.243  1.00  0.00    -0.149 C  
HETATM   16  C   UNL     1      -8.597   6.644  68.536  1.00  0.00    -0.124 C  
HETATM   17  C   UNL     1     -10.346   7.675  67.005  1.00  0.00    -0.400 C  
HETATM   18  C   UNL     1     -11.149   6.374  67.070  1.00  0.00    -0.405 C  
HETATM   19  C   UNL     1      -9.424   5.362  68.593  1.00  0.00    -0.159 C  
HETATM   20  C   UNL     1     -10.243   5.176  67.322  1.00  0.00    -0.239 C  
BRANCH  15  21
HETATM   21  C   UNL     1      -8.491   9.129  67.975  1.00  0.00    -0.121 C  
HETATM   22  O   UNL     1      -6.564   9.123  69.442  1.00  0.00    -0.043 OA 
HETATM   23  C   UNL     1      -7.656   9.591  69.155  1.00  0.00    -0.075 C  
HETATM   24  O   UNL     1      -8.222  10.587  69.871  1.00  0.00    -0.047 OA 
ENDBRANCH  15  21
ENDBRANCH  14  15
ENDBRANCH  12  14
ENDBRANCH   9  10
ENDBRANCH   7   9
ENDBRANCH   6   7
ENDBRANCH   4   6
TORSDOF 7
ENDMDL
MODEL      130
REMARK 921   NORMALIZED FREE ENERGY PREDICTED BY IDOCK:   -4.19 KCAL/MOL
REMARK 922        TOTAL FREE ENERGY PREDICTED BY IDOCK:   -7.54 KCAL/MOL
REMARK 923 INTER-LIGAND FREE ENERGY PREDICTED BY IDOCK:   -6.37 KCAL/MOL
REMARK 924 INTRA-LIGAND FREE ENERGY PREDICTED BY IDOCK:   -1.17 KCAL/MOL
REMARK 927      BINDING AFFINITY PREDICTED BY RF-SCORE:    0.00 PKD
ROOT
HETATM    1  C   UNL     1     -10.609  17.125  68.242  1.00  0.00    -0.375 C  
HETATM    2  C   UNL     1     -10.676  16.107  67.099  1.00  0.00    -0.262 C  
HETATM    3  C   UNL     1      -9.606  16.421  66.061  1.00  0.00    -0.352 C  
HETATM    4  C   UNL     1     -10.516  14.694  67.640  1.00  0.00    -0.243 C  
HETATM    5  O   UNL     1     -10.379  14.431  68.829  1.00  0.00    -0.234 OA 
ENDROOT
BRANCH   4   6
HETATM    6  O   UNL     1     -10.617  13.753  66.655  1.00  0.00    -0.272 OA 
BRANCH   6   7
HETATM    7  C   UNL     1     -11.964  13.304  66.442  1.00  0.00    -0.410 C  
HETATM    8  C   UNL     1     -12.271  13.316  64.945  1.00  0.00    -0.466 C  
BRANCH   7   9
HETATM    9  O   UNL     1     -12.157  11.922  66.788  1.00  0.00    -0.593 OA 
BRANCH   9  10
HETATM   10  C   UNL     1     -11.034  11.224  67.050  1.00  0.00    -0.294 C  
HETATM   11  O   UNL     1     -10.308  10.704  66.224  1.00  0.00    -0.242 OA 
HETATM   12  N   UNL     1     -10.809  11.290  68.396  1.00  0.00    -0.191 N  
HETATM   13  H   UNL     1     -11.489  11.774  68.983  1.00  0.00     0.000 HD 
BRANCH  12  14
HETATM   14  C   UNL     1      -9.644  10.703  69.023  1.00  0.00    -0.195 C  
BRANCH  14  15
HETATM   15  C   UNL     1      -9.919   9.312  69.687  1.00  0.00    -0.201 C  
HETATM   16  C   UNL     1      -9.882   8.178  68.628  1.00  0.00    -0.191 C  
HETATM   17  C   UNL     1      -8.818   9.066  70.759  1.00  0.00    -0.281 C  
HETATM   18  C   UNL     1      -7.434   8.772  70.174  1.00  0.00    -0.056 C  
HETATM   19  C   UNL     1      -8.490   7.906  68.063  1.00  0.00    -0.123 C  
HETATM   20  C   UNL     1      -7.488   7.623  69.175  1.00  0.00    -0.095 C  
BRANCH  15  21
HETATM   21  C   UNL     1     -11.318   9.363  70.369  1.00  0.00    -0.295 C  
HETATM   22  O   UNL     1     -11.306   8.315  72.552  1.00  0.00    -0.375 OA 
HETATM   23  C   UNL     1     -11.608   8.260  71.370  1.00  0.00    -0.280 C  
HETATM   24  O   UNL     1     -12.248   7.194  70.841  1.00  0.00    -0.344 OA 
ENDBRANCH  15  21
ENDBRANCH  14  15
ENDBRANCH  12  14
ENDBRANCH   9  10
ENDBRANCH   7   9
ENDBRANCH   6   7
ENDBRANCH   4   6
TORSDOF 7
ENDMDL
MODEL      131
REMARK 921   NORMALIZED FREE ENERGY PREDICTED BY IDOCK:   -4.19 KCAL/MOL
REMARK 922        TOTAL FREE ENERGY PREDICTED BY IDOCK:   -7.53 KCAL/MOL
REMARK 923 INTER-LIGAND FREE ENERGY PREDICTED BY IDOCK:   -6.03 KCAL/MOL
REMARK 924 INTRA-LIGAND FREE ENERGY PREDICTED BY IDOCK:   -1.50 KCAL/MOL
REMARK 927      BINDING AFFINITY PREDICTED BY RF-SCORE:    0.00 PKD
ROOT
HETATM    1  C   UNL     1      -6.799   9.823  66.589  1.00  0.00    -0.084 C  
HETATM    2  C   UNL     1      -8.270   9.734  66.171  1.00  0.00    -0.120 C  
HETATM    3  C   UNL     1      -8.686   8.274  66.044  1.00  0.00    -0.181 C  
HETATM    4  C   UNL     1      -9.148  10.470  67.171  1.00  0.00    -0.143 C  
HETATM    5  O   UNL     1      -8.716  11.063  68.152  1.00  0.00    -0.130 OA 
ENDROOT
BRANCH   4   6
HETATM    6  O   UNL     1     -10.465  10.453  66.806  1.00  0.00    -0.234 OA 
BRANCH   6   7
HETATM    7  C   UNL     1     -11.155  11.668  67.134  1.00  0.00    -0.299 C  
HETATM    8  C   UNL     1     -11.830  12.222  65.879  1.00  0.00    -0.420 C  
BRANCH   7   9
HETATM    9  O   UNL     1     -12.268  11.461  68.021  1.00  0.00    -0.607 OA 
BRANCH   9  10
HETATM   10  C   UNL     1     -11.971  11.443  69.336  1.00  0.00    -0.339 C  
HETATM   11  O   UNL     1     -12.153  12.353  70.121  1.00  0.00    -0.335 OA 
HETATM   12  N   UNL     1     -11.523  10.188  69.641  1.00  0.00    -0.373 N  
HETATM   13  H   UNL     1     -11.430   9.505  68.890  1.00  0.00     0.000 HD 
BRANCH  12  14
HETATM   14  C   UNL     1     -11.174   9.791  70.989  1.00  0.00    -0.381 C  
BRANCH  14  15
HETATM   15  C   UNL     1     -11.076   8.241  71.183  1.00  0.00    -0.289 C  
HETATM   16  C   UNL     1     -10.398   7.572  69.957  1.00  0.00    -0.222 C  
HETATM   17  C   UNL     1     -10.232   7.970  72.463  1.00  0.00    -0.361 C  
HETATM   18  C   UNL     1      -8.741   8.276  72.302  1.00  0.00    -0.264 C  
HETATM   19  C   UNL     1      -8.911   7.895  69.822  1.00  0.00    -0.146 C  
HETATM   20  C   UNL     1      -8.154   7.550  71.098  1.00  0.00    -0.100 C  
BRANCH  15  21
HETATM   21  C   UNL     1     -12.516   7.679  71.371  1.00  0.00    -0.359 C  
HETATM   22  O   UNL     1     -14.208   9.375  71.021  1.00  0.00    -0.064 OA 
HETATM   23  C   UNL     1     -13.569   8.684  71.799  1.00  0.00    -0.403 C  
HETATM   24  O   UNL     1     -13.753   8.749  73.136  1.00  0.00    -0.179 OA 
ENDBRANCH  15  21
ENDBRANCH  14  15
ENDBRANCH  12  14
ENDBRANCH   9  10
ENDBRANCH   7   9
ENDBRANCH   6   7
ENDBRANCH   4   6
TORSDOF 7
ENDMDL
MODEL      132
REMARK 921   NORMALIZED FREE ENERGY PREDICTED BY IDOCK:   -4.19 KCAL/MOL
REMARK 922        TOTAL FREE ENERGY PREDICTED BY IDOCK:   -7.53 KCAL/MOL
REMARK 923 INTER-LIGAND FREE ENERGY PREDICTED BY IDOCK:   -6.30 KCAL/MOL
REMARK 924 INTRA-LIGAND FREE ENERGY PREDICTED BY IDOCK:   -1.23 KCAL/MOL
REMARK 927      BINDING AFFINITY PREDICTED BY RF-SCORE:    0.00 PKD
ROOT
HETATM    1  C   UNL     1     -10.824  15.821  68.031  1.00  0.00    -0.309 C  
HETATM    2  C   UNL     1     -11.310  15.492  66.616  1.00  0.00    -0.034 C  
HETATM    3  C   UNL     1     -10.158  15.617  65.627  1.00  0.00    -0.395 C  
HETATM    4  C   UNL     1     -11.917  14.098  66.577  1.00  0.00    -0.442 C  
HETATM    5  O   UNL     1     -12.013  13.368  67.557  1.00  0.00    -0.361 OA 
ENDROOT
BRANCH   4   6
HETATM    6  O   UNL     1     -12.406  13.786  65.340  1.00  0.00    -0.417 OA 
BRANCH   6   7
HETATM    7  C   UNL     1     -12.074  12.453  64.923  1.00  0.00    -0.407 C  
HETATM    8  C   UNL     1     -12.342  12.309  63.425  1.00  0.00    -0.624 C  
BRANCH   7   9
HETATM    9  O   UNL     1     -10.668  12.168  65.017  1.00  0.00    -0.277 OA 
BRANCH   9  10
HETATM   10  C   UNL     1     -10.350  10.896  65.329  1.00  0.00    -0.268 C  
HETATM   11  O   UNL     1      -9.728  10.123  64.625  1.00  0.00    -0.297 OA 
HETATM   12  N   UNL     1     -10.765  10.667  66.610  1.00  0.00    -0.217 N  
HETATM   13  H   UNL     1     -11.265  11.408  67.102  1.00  0.00     0.000 HD 
BRANCH  12  14
HETATM   14  C   UNL     1     -10.525   9.416  67.297  1.00  0.00    -0.264 C  
BRANCH  14  15
HETATM   15  C   UNL     1      -9.750   9.577  68.647  1.00  0.00    -0.163 C  
HETATM   16  C   UNL     1      -9.908   8.309  69.529  1.00  0.00    -0.181 C  
HETATM   17  C   UNL     1      -8.246   9.800  68.314  1.00  0.00    -0.105 C  
HETATM   18  C   UNL     1      -7.534   8.552  67.786  1.00  0.00    -0.097 C  
HETATM   19  C   UNL     1      -9.187   7.080  68.979  1.00  0.00    -0.137 C  
HETATM   20  C   UNL     1      -7.712   7.371  68.732  1.00  0.00    -0.119 C  
BRANCH  15  21
HETATM   21  C   UNL     1     -10.316  10.821  69.392  1.00  0.00    -0.207 C  
HETATM   22  O   UNL     1     -11.713  10.200  71.270  1.00  0.00    -0.366 OA 
HETATM   23  C   UNL     1     -11.629  10.615  70.124  1.00  0.00    -0.330 C  
HETATM   24  O   UNL     1     -12.720  10.940  69.396  1.00  0.00    -0.284 OA 
ENDBRANCH  15  21
ENDBRANCH  14  15
ENDBRANCH  12  14
ENDBRANCH   9  10
ENDBRANCH   7   9
ENDBRANCH   6   7
ENDBRANCH   4   6
TORSDOF 7
ENDMDL
MODEL      133
REMARK 921   NORMALIZED FREE ENERGY PREDICTED BY IDOCK:   -4.18 KCAL/MOL
REMARK 922        TOTAL FREE ENERGY PREDICTED BY IDOCK:   -7.52 KCAL/MOL
REMARK 923 INTER-LIGAND FREE ENERGY PREDICTED BY IDOCK:   -5.90 KCAL/MOL
REMARK 924 INTRA-LIGAND FREE ENERGY PREDICTED BY IDOCK:   -1.62 KCAL/MOL
REMARK 927      BINDING AFFINITY PREDICTED BY RF-SCORE:    0.00 PKD
ROOT
HETATM    1  C   UNL     1     -12.095  13.958  69.401  1.00  0.00    -0.384 C  
HETATM    2  C   UNL     1     -11.460  14.268  68.041  1.00  0.00    -0.342 C  
HETATM    3  C   UNL     1      -9.964  14.500  68.207  1.00  0.00    -0.229 C  
HETATM    4  C   UNL     1     -11.734  13.137  67.062  1.00  0.00    -0.377 C  
HETATM    5  O   UNL     1     -12.393  12.140  67.337  1.00  0.00    -0.344 OA 
ENDROOT
BRANCH   4   6
HETATM    6  O   UNL     1     -11.223  13.398  65.821  1.00  0.00    -0.289 OA 
BRANCH   6   7
HETATM    7  C   UNL     1     -11.360  12.295  64.913  1.00  0.00    -0.325 C  
HETATM    8  C   UNL     1     -11.959  12.793  63.598  1.00  0.00    -0.616 C  
BRANCH   7   9
HETATM    9  O   UNL     1     -10.096  11.752  64.494  1.00  0.00    -0.257 OA 
BRANCH   9  10
HETATM   10  C   UNL     1      -9.877  10.463  64.825  1.00  0.00    -0.340 C  
HETATM   11  O   UNL     1      -9.410   9.609  64.096  1.00  0.00    -0.236 OA 
HETATM   12  N   UNL     1     -10.183  10.318  66.149  1.00  0.00    -0.234 N  
HETATM   13  H   UNL     1     -10.554  11.121  66.656  1.00  0.00     0.000 HD 
BRANCH  12  14
HETATM   14  C   UNL     1     -10.000   9.070  66.859  1.00  0.00    -0.246 C  
BRANCH  14  15
HETATM   15  C   UNL     1      -9.093   9.194  68.129  1.00  0.00    -0.134 C  
HETATM   16  C   UNL     1      -9.414  10.497  68.910  1.00  0.00    -0.199 C  
HETATM   17  C   UNL     1      -9.364   7.958  69.035  1.00  0.00    -0.151 C  
HETATM   18  C   UNL     1     -10.730   7.979  69.725  1.00  0.00    -0.231 C  
HETATM   19  C   UNL     1     -10.782  10.489  69.589  1.00  0.00    -0.302 C  
HETATM   20  C   UNL     1     -10.942   9.276  70.496  1.00  0.00    -0.318 C  
BRANCH  15  21
HETATM   21  C   UNL     1      -7.605   9.197  67.670  1.00  0.00    -0.085 C  
HETATM   22  O   UNL     1      -6.381  11.085  68.566  1.00  0.00    -0.049 OA 
HETATM   23  C   UNL     1      -6.933  10.556  67.613  1.00  0.00    -0.079 C  
HETATM   24  O   UNL     1      -6.986  11.144  66.397  1.00  0.00    -0.135 OA 
ENDBRANCH  15  21
ENDBRANCH  14  15
ENDBRANCH  12  14
ENDBRANCH   9  10
ENDBRANCH   7   9
ENDBRANCH   6   7
ENDBRANCH   4   6
TORSDOF 7
ENDMDL
MODEL      134
REMARK 921   NORMALIZED FREE ENERGY PREDICTED BY IDOCK:   -4.17 KCAL/MOL
REMARK 922        TOTAL FREE ENERGY PREDICTED BY IDOCK:   -7.51 KCAL/MOL
REMARK 923 INTER-LIGAND FREE ENERGY PREDICTED BY IDOCK:   -6.75 KCAL/MOL
REMARK 924 INTRA-LIGAND FREE ENERGY PREDICTED BY IDOCK:   -0.76 KCAL/MOL
REMARK 927      BINDING AFFINITY PREDICTED BY RF-SCORE:    0.00 PKD
ROOT
HETATM    1  C   UNL     1      -9.705  11.000  63.018  1.00  0.00    -0.381 C  
HETATM    2  C   UNL     1     -10.034  11.704  64.339  1.00  0.00    -0.298 C  
HETATM    3  C   UNL     1     -11.390  12.389  64.238  1.00  0.00    -0.420 C  
HETATM    4  C   UNL     1     -10.005  10.709  65.488  1.00  0.00    -0.272 C  
HETATM    5  O   UNL     1      -9.732   9.521  65.356  1.00  0.00    -0.294 OA 
ENDROOT
BRANCH   4   6
HETATM    6  O   UNL     1     -10.247  11.309  66.692  1.00  0.00    -0.214 OA 
BRANCH   6   7
HETATM    7  C   UNL     1     -11.247  10.631  67.468  1.00  0.00    -0.253 C  
HETATM    8  C   UNL     1     -10.599  10.031  68.715  1.00  0.00    -0.241 C  
BRANCH   7   9
HETATM    9  O   UNL     1     -12.227  11.524  68.025  1.00  0.00    -0.582 OA 
BRANCH   9  10
HETATM   10  C   UNL     1     -11.757  12.429  68.907  1.00  0.00    -0.324 C  
HETATM   11  O   UNL     1     -11.797  12.331  70.119  1.00  0.00    -0.328 OA 
HETATM   12  N   UNL     1     -11.145  13.422  68.195  1.00  0.00    -0.247 N  
HETATM   13  H   UNL     1     -11.167  13.379  67.176  1.00  0.00     0.000 HD 
BRANCH  12  14
HETATM   14  C   UNL     1     -10.466  14.532  68.829  1.00  0.00    -0.246 C  
BRANCH  14  15
HETATM   15  C   UNL     1      -9.572  15.366  67.851  1.00  0.00    -0.206 C  
HETATM   16  C   UNL     1      -8.690  16.374  68.635  1.00  0.00    -0.234 C  
HETATM   17  C   UNL     1      -8.666  14.374  67.066  1.00  0.00    -0.244 C  
HETATM   18  C   UNL     1      -7.557  13.743  67.910  1.00  0.00    -0.157 C  
HETATM   19  C   UNL     1      -7.591  15.717  69.467  1.00  0.00    -0.187 C  
HETATM   20  C   UNL     1      -6.721  14.806  68.610  1.00  0.00    -0.088 C  
BRANCH  15  21
HETATM   21  C   UNL     1     -10.505  16.126  66.863  1.00  0.00    -0.300 C  
HETATM   22  O   UNL     1      -9.355  17.934  65.733  1.00  0.00    -0.507 OA 
HETATM   23  C   UNL     1     -10.145  17.576  66.594  1.00  0.00    -0.328 C  
HETATM   24  O   UNL     1     -10.787  18.457  67.392  1.00  0.00    -0.403 OA 
ENDBRANCH  15  21
ENDBRANCH  14  15
ENDBRANCH  12  14
ENDBRANCH   9  10
ENDBRANCH   7   9
ENDBRANCH   6   7
ENDBRANCH   4   6
TORSDOF 7
ENDMDL
MODEL      135
REMARK 921   NORMALIZED FREE ENERGY PREDICTED BY IDOCK:   -4.16 KCAL/MOL
REMARK 922        TOTAL FREE ENERGY PREDICTED BY IDOCK:   -7.50 KCAL/MOL
REMARK 923 INTER-LIGAND FREE ENERGY PREDICTED BY IDOCK:   -6.85 KCAL/MOL
REMARK 924 INTRA-LIGAND FREE ENERGY PREDICTED BY IDOCK:   -0.65 KCAL/MOL
REMARK 927      BINDING AFFINITY PREDICTED BY RF-SCORE:    0.00 PKD
ROOT
HETATM    1  C   UNL     1      -5.439  17.137  67.106  1.00  0.00    -0.184 C  
HETATM    2  C   UNL     1      -6.538  18.118  67.528  1.00  0.00    -0.197 C  
HETATM    3  C   UNL     1      -5.927  19.281  68.299  1.00  0.00    -0.238 C  
HETATM    4  C   UNL     1      -7.303  18.609  66.310  1.00  0.00    -0.258 C  
HETATM    5  O   UNL     1      -7.072  18.240  65.164  1.00  0.00    -0.433 OA 
ENDROOT
BRANCH   4   6
HETATM    6  O   UNL     1      -8.324  19.451  66.651  1.00  0.00    -0.280 OA 
BRANCH   6   7
HETATM    7  C   UNL     1      -9.473  18.762  67.167  1.00  0.00    -0.305 C  
HETATM    8  C   UNL     1     -10.139  19.624  68.240  1.00  0.00    -0.560 C  
BRANCH   7   9
HETATM    9  O   UNL     1     -10.521  18.608  66.195  1.00  0.00    -0.433 OA 
BRANCH   9  10
HETATM   10  C   UNL     1     -10.667  17.368  65.687  1.00  0.00    -0.111 C  
HETATM   11  O   UNL     1     -11.038  17.098  64.560  1.00  0.00    -1.105 OA 
HETATM   12  N   UNL     1     -10.231  16.480  66.629  1.00  0.00    -0.292 N  
HETATM   13  H   UNL     1      -9.928  16.837  67.535  1.00  0.00     0.000 HD 
BRANCH  12  14
HETATM   14  C   UNL     1     -10.183  15.052  66.394  1.00  0.00    -0.277 C  
BRANCH  14  15
HETATM   15  C   UNL     1      -9.640  14.231  67.611  1.00  0.00    -0.219 C  
HETATM   16  C   UNL     1      -9.032  15.172  68.685  1.00  0.00    -0.191 C  
HETATM   17  C   UNL     1     -10.829  13.435  68.222  1.00  0.00    -0.275 C  
HETATM   18  C   UNL     1     -11.843  14.306  68.967  1.00  0.00    -0.370 C  
HETATM   19  C   UNL     1     -10.066  16.028  69.412  1.00  0.00    -0.271 C  
HETATM   20  C   UNL     1     -11.163  15.166  70.024  1.00  0.00    -0.301 C  
BRANCH  15  21
HETATM   21  C   UNL     1      -8.555  13.242  67.089  1.00  0.00    -0.197 C  
HETATM   22  O   UNL     1      -7.856  11.674  68.797  1.00  0.00    -0.136 OA 
HETATM   23  C   UNL     1      -7.616  12.675  68.138  1.00  0.00    -0.132 C  
HETATM   24  O   UNL     1      -6.469  13.373  68.282  1.00  0.00    -0.080 OA 
ENDBRANCH  15  21
ENDBRANCH  14  15
ENDBRANCH  12  14
ENDBRANCH   9  10
ENDBRANCH   7   9
ENDBRANCH   6   7
ENDBRANCH   4   6
TORSDOF 7
ENDMDL
MODEL      136
REMARK 921   NORMALIZED FREE ENERGY PREDICTED BY IDOCK:   -4.16 KCAL/MOL
REMARK 922        TOTAL FREE ENERGY PREDICTED BY IDOCK:   -7.49 KCAL/MOL
REMARK 923 INTER-LIGAND FREE ENERGY PREDICTED BY IDOCK:   -7.18 KCAL/MOL
REMARK 924 INTRA-LIGAND FREE ENERGY PREDICTED BY IDOCK:   -0.31 KCAL/MOL
REMARK 927      BINDING AFFINITY PREDICTED BY RF-SCORE:    0.00 PKD
ROOT
HETATM    1  C   UNL     1     -12.199  16.303  72.997  1.00  0.00    -0.619 C  
HETATM    2  C   UNL     1     -12.833  15.162  72.195  1.00  0.00    -0.426 C  
HETATM    3  C   UNL     1     -14.328  15.405  72.039  1.00  0.00    -0.653 C  
HETATM    4  C   UNL     1     -12.155  15.029  70.840  1.00  0.00    -0.324 C  
HETATM    5  O   UNL     1     -11.219  15.731  70.474  1.00  0.00    -0.314 OA 
ENDROOT
BRANCH   4   6
HETATM    6  O   UNL     1     -12.662  13.989  70.113  1.00  0.00    -0.302 OA 
BRANCH   6   7
HETATM    7  C   UNL     1     -12.034  12.734  70.412  1.00  0.00    -0.249 C  
HETATM    8  C   UNL     1     -13.012  11.850  71.186  1.00  0.00    -0.266 C  
BRANCH   7   9
HETATM    9  O   UNL     1     -11.763  11.947  69.239  1.00  0.00    -0.281 OA 
BRANCH   9  10
HETATM   10  C   UNL     1     -10.554  11.352  69.202  1.00  0.00    -0.160 C  
HETATM   11  O   UNL     1      -9.612  11.694  68.512  1.00  0.00    -0.196 OA 
HETATM   12  N   UNL     1     -10.548  10.364  70.146  1.00  0.00    -0.436 N  
HETATM   13  H   UNL     1     -11.403  10.187  70.674  1.00  0.00     0.000 HD 
BRANCH  12  14
HETATM   14  C   UNL     1      -9.378   9.560  70.427  1.00  0.00    -0.257 C  
BRANCH  14  15
HETATM   15  C   UNL     1      -9.674   8.025  70.515  1.00  0.00    -0.179 C  
HETATM   16  C   UNL     1      -8.811   7.359  71.620  1.00  0.00    -0.125 C  
HETATM   17  C   UNL     1     -11.184   7.846  70.848  1.00  0.00    -0.284 C  
HETATM   18  C   UNL     1     -11.555   8.235  72.281  1.00  0.00    -0.449 C  
HETATM   19  C   UNL     1      -9.204   7.764  73.039  1.00  0.00    -0.285 C  
HETATM   20  C   UNL     1     -10.684   7.506  73.296  1.00  0.00    -0.437 C  
BRANCH  15  21
HETATM   21  C   UNL     1      -9.359   7.385  69.131  1.00  0.00    -0.146 C  
HETATM   22  O   UNL     1     -10.729   8.317  67.364  1.00  0.00    -0.270 OA 
HETATM   23  C   UNL     1     -10.495   7.389  68.125  1.00  0.00    -0.193 C  
HETATM   24  O   UNL     1     -11.237   6.260  68.131  1.00  0.00    -0.327 OA 
ENDBRANCH  15  21
ENDBRANCH  14  15
ENDBRANCH  12  14
ENDBRANCH   9  10
ENDBRANCH   7   9
ENDBRANCH   6   7
ENDBRANCH   4   6
TORSDOF 7
ENDMDL
MODEL      137
REMARK 921   NORMALIZED FREE ENERGY PREDICTED BY IDOCK:   -4.16 KCAL/MOL
REMARK 922        TOTAL FREE ENERGY PREDICTED BY IDOCK:   -7.49 KCAL/MOL
REMARK 923 INTER-LIGAND FREE ENERGY PREDICTED BY IDOCK:   -6.99 KCAL/MOL
REMARK 924 INTRA-LIGAND FREE ENERGY PREDICTED BY IDOCK:   -0.50 KCAL/MOL
REMARK 927      BINDING AFFINITY PREDICTED BY RF-SCORE:    0.00 PKD
ROOT
HETATM    1  C   UNL     1     -10.383  16.685  66.299  1.00  0.00    -0.323 C  
HETATM    2  C   UNL     1     -10.370  15.468  67.230  1.00  0.00    -0.267 C  
HETATM    3  C   UNL     1     -11.262  15.727  68.437  1.00  0.00    -0.362 C  
HETATM    4  C   UNL     1     -10.815  14.224  66.477  1.00  0.00    -0.304 C  
HETATM    5  O   UNL     1     -11.113  14.216  65.288  1.00  0.00    -0.307 OA 
ENDROOT
BRANCH   4   6
HETATM    6  O   UNL     1     -10.771  13.106  67.262  1.00  0.00    -0.251 OA 
BRANCH   6   7
HETATM    7  C   UNL     1     -11.473  11.991  66.692  1.00  0.00    -0.346 C  
HETATM    8  C   UNL     1     -10.462  10.959  66.192  1.00  0.00    -0.290 C  
BRANCH   7   9
HETATM    9  O   UNL     1     -12.225  11.244  67.664  1.00  0.00    -0.423 OA 
BRANCH   9  10
HETATM   10  C   UNL     1     -11.760  11.297  68.928  1.00  0.00    -0.341 C  
HETATM   11  O   UNL     1     -11.797  12.266  69.662  1.00  0.00    -0.312 OA 
HETATM   12  N   UNL     1     -11.331  10.044  69.265  1.00  0.00    -0.414 N  
HETATM   13  H   UNL     1     -11.367   9.308  68.559  1.00  0.00     0.000 HD 
BRANCH  12  14
HETATM   14  C   UNL     1     -10.826   9.719  70.582  1.00  0.00    -0.329 C  
BRANCH  14  15
HETATM   15  C   UNL     1     -10.017   8.379  70.634  1.00  0.00    -0.212 C  
HETATM   16  C   UNL     1      -9.690   7.989  72.101  1.00  0.00    -0.283 C  
HETATM   17  C   UNL     1     -10.885   7.268  69.976  1.00  0.00    -0.271 C  
HETATM   18  C   UNL     1     -12.091   6.841  70.815  1.00  0.00    -0.402 C  
HETATM   19  C   UNL     1     -10.912   7.567  72.914  1.00  0.00    -0.434 C  
HETATM   20  C   UNL     1     -11.672   6.441  72.224  1.00  0.00    -0.333 C  
BRANCH  15  21
HETATM   21  C   UNL     1      -8.700   8.571  69.825  1.00  0.00    -0.132 C  
HETATM   22  O   UNL     1      -7.139  10.032  70.961  1.00  0.00    -0.325 OA 
HETATM   23  C   UNL     1      -7.957   9.871  70.067  1.00  0.00    -0.180 C  
HETATM   24  O   UNL     1      -8.271  10.853  69.195  1.00  0.00    -0.146 OA 
ENDBRANCH  15  21
ENDBRANCH  14  15
ENDBRANCH  12  14
ENDBRANCH   9  10
ENDBRANCH   7   9
ENDBRANCH   6   7
ENDBRANCH   4   6
TORSDOF 7
ENDMDL
MODEL      138
REMARK 921   NORMALIZED FREE ENERGY PREDICTED BY IDOCK:   -4.14 KCAL/MOL
REMARK 922        TOTAL FREE ENERGY PREDICTED BY IDOCK:   -7.46 KCAL/MOL
REMARK 923 INTER-LIGAND FREE ENERGY PREDICTED BY IDOCK:   -6.68 KCAL/MOL
REMARK 924 INTRA-LIGAND FREE ENERGY PREDICTED BY IDOCK:   -0.78 KCAL/MOL
REMARK 927      BINDING AFFINITY PREDICTED BY RF-SCORE:    0.00 PKD
ROOT
HETATM    1  C   UNL     1      -9.422   8.461  66.565  1.00  0.00    -0.284 C  
HETATM    2  C   UNL     1     -10.239   9.737  66.341  1.00  0.00    -0.288 C  
HETATM    3  C   UNL     1     -10.804  10.233  67.666  1.00  0.00    -0.363 C  
HETATM    4  C   UNL     1      -9.382  10.804  65.677  1.00  0.00    -0.207 C  
HETATM    5  O   UNL     1      -8.211  10.635  65.355  1.00  0.00    -0.160 OA 
ENDROOT
BRANCH   4   6
HETATM    6  O   UNL     1     -10.090  11.943  65.417  1.00  0.00    -0.240 OA 
BRANCH   6   7
HETATM    7  C   UNL     1     -10.149  12.262  64.018  1.00  0.00    -0.325 C  
HETATM    8  C   UNL     1     -10.208  10.968  63.206  1.00  0.00    -0.360 C  
BRANCH   7   9
HETATM    9  O   UNL     1     -11.370  12.922  63.643  1.00  0.00    -0.428 OA 
BRANCH   9  10
HETATM   10  C   UNL     1     -11.772  13.913  64.463  1.00  0.00    -0.410 C  
HETATM   11  O   UNL     1     -12.908  14.095  64.858  1.00  0.00    -0.687 OA 
HETATM   12  N   UNL     1     -10.662  14.613  64.844  1.00  0.00    -0.469 N  
HETATM   13  H   UNL     1      -9.759  14.349  64.451  1.00  0.00     0.000 HD 
BRANCH  12  14
HETATM   14  C   UNL     1     -10.717  15.713  65.783  1.00  0.00    -0.341 C  
BRANCH  14  15
HETATM   15  C   UNL     1      -9.901  15.464  67.095  1.00  0.00    -0.221 C  
HETATM   16  C   UNL     1     -10.051  16.659  68.074  1.00  0.00    -0.262 C  
HETATM   17  C   UNL     1     -10.448  14.168  67.761  1.00  0.00    -0.246 C  
HETATM   18  C   UNL     1     -11.838  14.325  68.381  1.00  0.00    -0.373 C  
HETATM   19  C   UNL     1     -11.448  16.791  68.678  1.00  0.00     0.069 C  
HETATM   20  C   UNL     1     -11.881  15.497  69.354  1.00  0.00    -0.392 C  
BRANCH  15  21
HETATM   21  C   UNL     1      -8.404  15.270  66.712  1.00  0.00    -0.258 C  
HETATM   22  O   UNL     1      -7.566  13.099  67.383  1.00  0.00    -0.155 OA 
HETATM   23  C   UNL     1      -7.618  14.304  67.579  1.00  0.00    -0.184 C  
HETATM   24  O   UNL     1      -6.960  14.895  68.600  1.00  0.00    -0.100 OA 
ENDBRANCH  15  21
ENDBRANCH  14  15
ENDBRANCH  12  14
ENDBRANCH   9  10
ENDBRANCH   7   9
ENDBRANCH   6   7
ENDBRANCH   4   6
TORSDOF 7
ENDMDL
MODEL      139
REMARK 921   NORMALIZED FREE ENERGY PREDICTED BY IDOCK:   -4.13 KCAL/MOL
REMARK 922        TOTAL FREE ENERGY PREDICTED BY IDOCK:   -7.45 KCAL/MOL
REMARK 923 INTER-LIGAND FREE ENERGY PREDICTED BY IDOCK:   -6.53 KCAL/MOL
REMARK 924 INTRA-LIGAND FREE ENERGY PREDICTED BY IDOCK:   -0.92 KCAL/MOL
REMARK 927      BINDING AFFINITY PREDICTED BY RF-SCORE:    0.00 PKD
ROOT
HETATM    1  C   UNL     1     -10.768   5.785  66.648  1.00  0.00    -0.333 C  
HETATM    2  C   UNL     1     -11.063   6.553  67.941  1.00  0.00    -0.352 C  
HETATM    3  C   UNL     1     -10.697   5.699  69.148  1.00  0.00    -0.325 C  
HETATM    4  C   UNL     1     -10.308   7.873  67.954  1.00  0.00    -0.221 C  
HETATM    5  O   UNL     1      -9.590   8.258  67.038  1.00  0.00    -0.163 OA 
ENDROOT
BRANCH   4   6
HETATM    6  O   UNL     1     -10.582   8.610  69.072  1.00  0.00    -0.217 OA 
BRANCH   6   7
HETATM    7  C   UNL     1     -10.813   9.998  68.788  1.00  0.00    -0.219 C  
HETATM    8  C   UNL     1     -11.968  10.506  69.652  1.00  0.00    -0.279 C  
BRANCH   7   9
HETATM    9  O   UNL     1      -9.724  10.844  69.195  1.00  0.00    -0.193 OA 
BRANCH   9  10
HETATM   10  C   UNL     1      -9.286  11.718  68.267  1.00  0.00    -0.193 C  
HETATM   11  O   UNL     1      -8.689  11.435  67.246  1.00  0.00    -0.141 OA 
HETATM   12  N   UNL     1      -9.719  12.962  68.632  1.00  0.00    -0.404 N  
HETATM   13  H   UNL     1     -10.228  13.065  69.510  1.00  0.00     0.000 HD 
BRANCH  12  14
HETATM   14  C   UNL     1      -9.484  14.139  67.823  1.00  0.00    -0.207 C  
BRANCH  14  15
HETATM   15  C   UNL     1     -10.746  15.050  67.655  1.00  0.00    -0.274 C  
HETATM   16  C   UNL     1     -10.610  15.955  66.400  1.00  0.00    -0.298 C  
HETATM   17  C   UNL     1     -11.989  14.126  67.504  1.00  0.00    -0.419 C  
HETATM   18  C   UNL     1     -12.057  13.389  66.164  1.00  0.00    -0.481 C  
HETATM   19  C   UNL     1     -10.683  15.193  65.079  1.00  0.00    -0.451 C  
HETATM   20  C   UNL     1     -11.954  14.358  64.993  1.00  0.00    -0.413 C  
BRANCH  15  21
HETATM   21  C   UNL     1     -10.891  15.927  68.934  1.00  0.00    -0.274 C  
HETATM   22  O   UNL     1     -11.345  14.594  70.904  1.00  0.00    -0.219 OA 
HETATM   23  C   UNL     1     -11.758  15.350  70.038  1.00  0.00    -0.326 C  
HETATM   24  O   UNL     1     -13.047  15.753  69.990  1.00  0.00    -0.129 OA 
ENDBRANCH  15  21
ENDBRANCH  14  15
ENDBRANCH  12  14
ENDBRANCH   9  10
ENDBRANCH   7   9
ENDBRANCH   6   7
ENDBRANCH   4   6
TORSDOF 7
ENDMDL
MODEL      140
REMARK 921   NORMALIZED FREE ENERGY PREDICTED BY IDOCK:   -4.10 KCAL/MOL
REMARK 922        TOTAL FREE ENERGY PREDICTED BY IDOCK:   -7.41 KCAL/MOL
REMARK 923 INTER-LIGAND FREE ENERGY PREDICTED BY IDOCK:   -5.90 KCAL/MOL
REMARK 924 INTRA-LIGAND FREE ENERGY PREDICTED BY IDOCK:   -1.51 KCAL/MOL
REMARK 927      BINDING AFFINITY PREDICTED BY RF-SCORE:    0.00 PKD
ROOT
HETATM    1  C   UNL     1     -10.375  14.995  65.167  1.00  0.00    -0.422 C  
HETATM    2  C   UNL     1     -11.481  14.885  66.221  1.00  0.00    -0.269 C  
HETATM    3  C   UNL     1     -12.093  13.490  66.188  1.00  0.00    -0.482 C  
HETATM    4  C   UNL     1     -10.930  15.209  67.601  1.00  0.00    -0.308 C  
HETATM    5  O   UNL     1      -9.767  15.534  67.812  1.00  0.00    -0.211 OA 
ENDROOT
BRANCH   4   6
HETATM    6  O   UNL     1     -11.899  15.167  68.563  1.00  0.00    -0.329 OA 
BRANCH   6   7
HETATM    7  C   UNL     1     -11.542  14.348  69.686  1.00  0.00    -0.292 C  
HETATM    8  C   UNL     1     -11.868  15.093  70.980  1.00  0.00    -0.382 C  
BRANCH   7   9
HETATM    9  O   UNL     1     -12.349  13.162  69.797  1.00  0.00    -0.222 OA 
BRANCH   9  10
HETATM   10  C   UNL     1     -11.670  12.004  69.916  1.00  0.00    -0.299 C  
HETATM   11  O   UNL     1     -12.048  11.013  70.511  1.00  0.00    -0.318 OA 
HETATM   12  N   UNL     1     -10.531  12.112  69.169  1.00  0.00    -0.429 N  
HETATM   13  H   UNL     1     -10.335  12.998  68.701  1.00  0.00     0.000 HD 
BRANCH  12  14
HETATM   14  C   UNL     1      -9.592  11.022  69.014  1.00  0.00    -0.121 C  
BRANCH  14  15
HETATM   15  C   UNL     1      -8.956  10.936  67.586  1.00  0.00    -0.140 C  
HETATM   16  C   UNL     1      -7.744   9.965  67.579  1.00  0.00    -0.091 C  
HETATM   17  C   UNL     1     -10.048  10.420  66.604  1.00  0.00    -0.279 C  
HETATM   18  C   UNL     1     -10.402   8.942  66.788  1.00  0.00    -0.317 C  
HETATM   19  C   UNL     1      -8.127   8.498  67.764  1.00  0.00    -0.115 C  
HETATM   20  C   UNL     1      -9.159   8.063  66.730  1.00  0.00    -0.189 C  
BRANCH  15  21
HETATM   21  C   UNL     1      -8.500  12.364  67.165  1.00  0.00    -0.185 C  
HETATM   22  O   UNL     1      -6.090  12.538  66.998  1.00  0.00    -0.259 OA 
HETATM   23  C   UNL     1      -7.113  12.778  67.622  1.00  0.00    -0.145 C  
HETATM   24  O   UNL     1      -7.100  13.454  68.791  1.00  0.00    -0.099 OA 
ENDBRANCH  15  21
ENDBRANCH  14  15
ENDBRANCH  12  14
ENDBRANCH   9  10
ENDBRANCH   7   9
ENDBRANCH   6   7
ENDBRANCH   4   6
TORSDOF 7
ENDMDL
MODEL      141
REMARK 921   NORMALIZED FREE ENERGY PREDICTED BY IDOCK:   -4.10 KCAL/MOL
REMARK 922        TOTAL FREE ENERGY PREDICTED BY IDOCK:   -7.41 KCAL/MOL
REMARK 923 INTER-LIGAND FREE ENERGY PREDICTED BY IDOCK:   -6.71 KCAL/MOL
REMARK 924 INTRA-LIGAND FREE ENERGY PREDICTED BY IDOCK:   -0.70 KCAL/MOL
REMARK 927      BINDING AFFINITY PREDICTED BY RF-SCORE:    0.00 PKD
ROOT
HETATM    1  C   UNL     1      -9.053   5.468  72.350  1.00  0.00    -0.147 C  
HETATM    2  C   UNL     1     -10.458   6.074  72.291  1.00  0.00    -0.241 C  
HETATM    3  C   UNL     1     -11.449   5.161  73.002  1.00  0.00    -0.349 C  
HETATM    4  C   UNL     1     -10.459   7.466  72.903  1.00  0.00    -0.295 C  
HETATM    5  O   UNL     1      -9.459   8.015  73.353  1.00  0.00    -0.279 OA 
ENDROOT
BRANCH   4   6
HETATM    6  O   UNL     1     -11.687   8.060  72.825  1.00  0.00    -0.396 OA 
BRANCH   6   7
HETATM    7  C   UNL     1     -12.092   8.342  71.477  1.00  0.00    -0.299 C  
HETATM    8  C   UNL     1     -13.618   8.343  71.396  1.00  0.00    -0.263 C  
BRANCH   7   9
HETATM    9  O   UNL     1     -11.757   9.675  71.056  1.00  0.00    -0.299 OA 
BRANCH   9  10
HETATM   10  C   UNL     1     -10.873   9.762  70.042  1.00  0.00    -0.278 C  
HETATM   11  O   UNL     1     -10.479   8.836  69.358  1.00  0.00    -0.218 OA 
HETATM   12  N   UNL     1     -10.577  11.084  69.861  1.00  0.00    -0.443 N  
HETATM   13  H   UNL     1     -10.988  11.768  70.496  1.00  0.00     0.000 HD 
BRANCH  12  14
HETATM   14  C   UNL     1      -9.704  11.551  68.806  1.00  0.00    -0.126 C  
BRANCH  14  15
HETATM   15  C   UNL     1     -10.432  12.416  67.722  1.00  0.00    -0.231 C  
HETATM   16  C   UNL     1     -11.509  13.324  68.374  1.00  0.00    -0.349 C  
HETATM   17  C   UNL     1      -9.363  13.295  67.012  1.00  0.00    -0.242 C  
HETATM   18  C   UNL     1      -8.813  14.429  67.880  1.00  0.00    -0.179 C  
HETATM   19  C   UNL     1     -10.932  14.447  69.234  1.00  0.00    -0.281 C  
HETATM   20  C   UNL     1      -9.937  15.289  68.446  1.00  0.00    -0.220 C  
BRANCH  15  21
HETATM   21  C   UNL     1     -11.095  11.454  66.692  1.00  0.00    -0.333 C  
HETATM   22  O   UNL     1     -10.603  12.089  64.407  1.00  0.00    -0.279 OA 
HETATM   23  C   UNL     1     -11.402  12.051  65.331  1.00  0.00    -0.321 C  
HETATM   24  O   UNL     1     -12.657  12.539  65.217  1.00  0.00    -0.645 OA 
ENDBRANCH  15  21
ENDBRANCH  14  15
ENDBRANCH  12  14
ENDBRANCH   9  10
ENDBRANCH   7   9
ENDBRANCH   6   7
ENDBRANCH   4   6
TORSDOF 7
ENDMDL
MODEL      142
REMARK 921   NORMALIZED FREE ENERGY PREDICTED BY IDOCK:   -4.10 KCAL/MOL
REMARK 922        TOTAL FREE ENERGY PREDICTED BY IDOCK:   -7.40 KCAL/MOL
REMARK 923 INTER-LIGAND FREE ENERGY PREDICTED BY IDOCK:   -6.87 KCAL/MOL
REMARK 924 INTRA-LIGAND FREE ENERGY PREDICTED BY IDOCK:   -0.54 KCAL/MOL
REMARK 927      BINDING AFFINITY PREDICTED BY RF-SCORE:    0.00 PKD
ROOT
HETATM    1  C   UNL     1     -11.958  16.126  73.196  1.00  0.00    -0.576 C  
HETATM    2  C   UNL     1     -12.758  15.086  72.405  1.00  0.00    -0.426 C  
HETATM    3  C   UNL     1     -14.157  15.616  72.116  1.00  0.00    -0.546 C  
HETATM    4  C   UNL     1     -12.031  14.727  71.119  1.00  0.00    -0.335 C  
HETATM    5  O   UNL     1     -10.948  15.199  70.793  1.00  0.00    -0.283 OA 
ENDROOT
BRANCH   4   6
HETATM    6  O   UNL     1     -12.692  13.765  70.407  1.00  0.00    -0.276 OA 
BRANCH   6   7
HETATM    7  C   UNL     1     -12.416  12.435  70.870  1.00  0.00    -0.274 C  
HETATM    8  C   UNL     1     -13.339  12.106  72.044  1.00  0.00    -0.470 C  
BRANCH   7   9
HETATM    9  O   UNL     1     -12.762  11.422  69.909  1.00  0.00    -0.084 OA 
BRANCH   9  10
HETATM   10  C   UNL     1     -11.723  10.831  69.286  1.00  0.00    -0.303 C  
HETATM   11  O   UNL     1     -11.557  10.765  68.083  1.00  0.00    -0.441 OA 
HETATM   12  N   UNL     1     -10.848  10.410  70.247  1.00  0.00    -0.411 N  
HETATM   13  H   UNL     1     -11.098  10.540  71.228  1.00  0.00     0.000 HD 
BRANCH  12  14
HETATM   14  C   UNL     1      -9.580   9.787  69.930  1.00  0.00    -0.235 C  
BRANCH  14  15
HETATM   15  C   UNL     1      -9.459   8.311  70.437  1.00  0.00    -0.172 C  
HETATM   16  C   UNL     1     -10.437   7.382  69.669  1.00  0.00    -0.237 C  
HETATM   17  C   UNL     1      -7.994   7.841  70.202  1.00  0.00    -0.112 C  
HETATM   18  C   UNL     1      -7.643   7.609  68.731  1.00  0.00    -0.102 C  
HETATM   19  C   UNL     1     -10.062   7.167  68.204  1.00  0.00    -0.195 C  
HETATM   20  C   UNL     1      -8.632   6.658  68.070  1.00  0.00    -0.118 C  
BRANCH  15  21
HETATM   21  C   UNL     1      -9.784   8.287  71.960  1.00  0.00    -0.322 C  
HETATM   22  O   UNL     1     -11.282   6.476  72.544  1.00  0.00    -0.248 OA 
HETATM   23  C   UNL     1     -11.116   7.670  72.344  1.00  0.00    -0.310 C  
HETATM   24  O   UNL     1     -12.122   8.565  72.458  1.00  0.00    -0.389 OA 
ENDBRANCH  15  21
ENDBRANCH  14  15
ENDBRANCH  12  14
ENDBRANCH   9  10
ENDBRANCH   7   9
ENDBRANCH   6   7
ENDBRANCH   4   6
TORSDOF 7
ENDMDL
MODEL      143
REMARK 921   NORMALIZED FREE ENERGY PREDICTED BY IDOCK:   -4.09 KCAL/MOL
REMARK 922        TOTAL FREE ENERGY PREDICTED BY IDOCK:   -7.40 KCAL/MOL
REMARK 923 INTER-LIGAND FREE ENERGY PREDICTED BY IDOCK:   -6.61 KCAL/MOL
REMARK 924 INTRA-LIGAND FREE ENERGY PREDICTED BY IDOCK:   -0.79 KCAL/MOL
REMARK 927      BINDING AFFINITY PREDICTED BY RF-SCORE:    0.00 PKD
ROOT
HETATM    1  C   UNL     1     -11.250   8.773  70.636  1.00  0.00    -0.294 C  
HETATM    2  C   UNL     1     -10.317   8.988  69.440  1.00  0.00    -0.217 C  
HETATM    3  C   UNL     1     -10.891  10.055  68.518  1.00  0.00    -0.270 C  
HETATM    4  C   UNL     1      -8.925   9.370  69.920  1.00  0.00    -0.200 C  
HETATM    5  O   UNL     1      -8.612   9.462  71.102  1.00  0.00    -0.297 OA 
ENDROOT
BRANCH   4   6
HETATM    6  O   UNL     1      -8.049   9.524  68.883  1.00  0.00    -0.092 OA 
BRANCH   6   7
HETATM    7  C   UNL     1      -7.347  10.776  68.921  1.00  0.00    -0.104 C  
HETATM    8  C   UNL     1      -5.909  10.535  69.381  1.00  0.00    -0.038 C  
BRANCH   7   9
HETATM    9  O   UNL     1      -7.165  11.358  67.619  1.00  0.00    -0.088 OA 
BRANCH   9  10
HETATM   10  C   UNL     1      -7.133  12.706  67.582  1.00  0.00    -0.139 C  
HETATM   11  O   UNL     1      -6.154  13.391  67.359  1.00  0.00    -0.315 OA 
HETATM   12  N   UNL     1      -8.414  13.154  67.743  1.00  0.00    -0.171 N  
HETATM   13  H   UNL     1      -9.155  12.472  67.908  1.00  0.00     0.000 HD 
BRANCH  12  14
HETATM   14  C   UNL     1      -8.762  14.558  67.690  1.00  0.00    -0.183 C  
BRANCH  14  15
HETATM   15  C   UNL     1     -10.176  14.835  67.076  1.00  0.00    -0.253 C  
HETATM   16  C   UNL     1     -11.217  13.813  67.606  1.00  0.00    -0.316 C  
HETATM   17  C   UNL     1     -10.601  16.276  67.480  1.00  0.00    -0.310 C  
HETATM   18  C   UNL     1     -10.959  16.427  68.960  1.00  0.00    -0.325 C  
HETATM   19  C   UNL     1     -11.556  13.988  69.085  1.00  0.00    -0.356 C  
HETATM   20  C   UNL     1     -12.012  15.410  69.382  1.00  0.00    -0.351 C  
BRANCH  15  21
HETATM   21  C   UNL     1     -10.065  14.731  65.526  1.00  0.00    -0.409 C  
HETATM   22  O   UNL     1     -11.044  16.647  64.414  1.00  0.00    -0.985 OA 
HETATM   23  C   UNL     1     -11.128  15.471  64.735  1.00  0.00    -0.407 C  
HETATM   24  O   UNL     1     -12.193  14.709  64.401  1.00  0.00    -0.487 OA 
ENDBRANCH  15  21
ENDBRANCH  14  15
ENDBRANCH  12  14
ENDBRANCH   9  10
ENDBRANCH   7   9
ENDBRANCH   6   7
ENDBRANCH   4   6
TORSDOF 7
ENDMDL
MODEL      144
REMARK 921   NORMALIZED FREE ENERGY PREDICTED BY IDOCK:   -4.09 KCAL/MOL
REMARK 922        TOTAL FREE ENERGY PREDICTED BY IDOCK:   -7.39 KCAL/MOL
REMARK 923 INTER-LIGAND FREE ENERGY PREDICTED BY IDOCK:   -6.14 KCAL/MOL
REMARK 924 INTRA-LIGAND FREE ENERGY PREDICTED BY IDOCK:   -1.26 KCAL/MOL
REMARK 927      BINDING AFFINITY PREDICTED BY RF-SCORE:    0.00 PKD
ROOT
HETATM    1  C   UNL     1      -7.153  10.773  66.274  1.00  0.00    -0.134 C  
HETATM    2  C   UNL     1      -8.411  10.245  66.970  1.00  0.00    -0.126 C  
HETATM    3  C   UNL     1      -8.131   8.878  67.581  1.00  0.00    -0.106 C  
HETATM    4  C   UNL     1      -8.882  11.231  68.028  1.00  0.00    -0.148 C  
HETATM    5  O   UNL     1      -8.330  12.302  68.256  1.00  0.00    -0.167 OA 
ENDROOT
BRANCH   4   6
HETATM    6  O   UNL     1     -10.031  10.817  68.640  1.00  0.00    -0.167 OA 
BRANCH   6   7
HETATM    7  C   UNL     1     -11.128  11.724  68.450  1.00  0.00    -0.237 C  
HETATM    8  C   UNL     1     -11.368  11.921  66.954  1.00  0.00    -0.392 C  
BRANCH   7   9
HETATM    9  O   UNL     1     -12.384  11.188  68.900  1.00  0.00    -0.512 OA 
BRANCH   9  10
HETATM   10  C   UNL     1     -12.402  10.728  70.167  1.00  0.00    -0.325 C  
HETATM   11  O   UNL     1     -12.712  11.369  71.153  1.00  0.00    -0.392 OA 
HETATM   12  N   UNL     1     -12.106   9.395  70.129  1.00  0.00    -0.445 N  
HETATM   13  H   UNL     1     -11.879   8.970  69.230  1.00  0.00     0.000 HD 
BRANCH  12  14
HETATM   14  C   UNL     1     -12.103   8.562  71.312  1.00  0.00    -0.286 C  
BRANCH  14  15
HETATM   15  C   UNL     1     -11.135   7.335  71.216  1.00  0.00    -0.270 C  
HETATM   16  C   UNL     1      -9.685   7.798  70.912  1.00  0.00    -0.174 C  
HETATM   17  C   UNL     1     -11.172   6.586  72.580  1.00  0.00    -0.284 C  
HETATM   18  C   UNL     1     -10.481   7.337  73.721  1.00  0.00    -0.335 C  
HETATM   19  C   UNL     1      -9.019   8.542  72.068  1.00  0.00    -0.301 C  
HETATM   20  C   UNL     1      -9.054   7.717  73.348  1.00  0.00    -0.336 C  
BRANCH  15  21
HETATM   21  C   UNL     1     -11.646   6.395  70.084  1.00  0.00    -0.449 C  
HETATM   22  O   UNL     1      -9.838   5.573  68.699  1.00  0.00    -0.130 OA 
HETATM   23  C   UNL     1     -10.785   6.333  68.836  1.00  0.00    -0.299 C  
HETATM   24  O   UNL     1     -11.160   7.195  67.867  1.00  0.00    -0.118 OA 
ENDBRANCH  15  21
ENDBRANCH  14  15
ENDBRANCH  12  14
ENDBRANCH   9  10
ENDBRANCH   7   9
ENDBRANCH   6   7
ENDBRANCH   4   6
TORSDOF 7
ENDMDL
MODEL      145
REMARK 921   NORMALIZED FREE ENERGY PREDICTED BY IDOCK:   -4.09 KCAL/MOL
REMARK 922        TOTAL FREE ENERGY PREDICTED BY IDOCK:   -7.39 KCAL/MOL
REMARK 923 INTER-LIGAND FREE ENERGY PREDICTED BY IDOCK:   -6.49 KCAL/MOL
REMARK 924 INTRA-LIGAND FREE ENERGY PREDICTED BY IDOCK:   -0.91 KCAL/MOL
REMARK 927      BINDING AFFINITY PREDICTED BY RF-SCORE:    0.00 PKD
ROOT
HETATM    1  C   UNL     1      -9.330  17.709  66.194  1.00  0.00    -0.159 C  
HETATM    2  C   UNL     1      -9.466  16.183  66.212  1.00  0.00    -0.347 C  
HETATM    3  C   UNL     1      -9.733  15.702  67.633  1.00  0.00    -0.225 C  
HETATM    4  C   UNL     1     -10.572  15.740  65.267  1.00  0.00    -0.423 C  
HETATM    5  O   UNL     1     -11.232  16.512  64.580  1.00  0.00    -0.775 OA 
ENDROOT
BRANCH   4   6
HETATM    6  O   UNL     1     -10.693  14.380  65.219  1.00  0.00    -0.327 OA 
BRANCH   6   7
HETATM    7  C   UNL     1     -12.035  13.943  64.957  1.00  0.00    -0.390 C  
HETATM    8  C   UNL     1     -12.095  13.296  63.574  1.00  0.00    -0.550 C  
BRANCH   7   9
HETATM    9  O   UNL     1     -12.457  12.873  65.821  1.00  0.00    -0.531 OA 
BRANCH   9  10
HETATM   10  C   UNL     1     -11.898  12.859  67.047  1.00  0.00    -0.374 C  
HETATM   11  O   UNL     1     -12.236  13.546  67.993  1.00  0.00    -0.308 OA 
HETATM   12  N   UNL     1     -10.955  11.870  67.063  1.00  0.00    -0.262 N  
HETATM   13  H   UNL     1     -10.777  11.351  66.203  1.00  0.00     0.000 HD 
BRANCH  12  14
HETATM   14  C   UNL     1     -10.201  11.529  68.250  1.00  0.00    -0.196 C  
BRANCH  14  15
HETATM   15  C   UNL     1      -9.496  10.133  68.169  1.00  0.00    -0.151 C  
HETATM   16  C   UNL     1      -8.825   9.933  66.784  1.00  0.00    -0.147 C  
HETATM   17  C   UNL     1      -8.418  10.075  69.290  1.00  0.00    -0.165 C  
HETATM   18  C   UNL     1      -7.199  10.963  69.027  1.00  0.00    -0.101 C  
HETATM   19  C   UNL     1      -7.612  10.831  66.550  1.00  0.00    -0.139 C  
HETATM   20  C   UNL     1      -6.585  10.671  67.664  1.00  0.00    -0.061 C  
BRANCH  15  21
HETATM   21  C   UNL     1     -10.568   9.029  68.410  1.00  0.00    -0.200 C  
HETATM   22  O   UNL     1     -11.709   9.313  70.527  1.00  0.00    -0.257 OA 
HETATM   23  C   UNL     1     -10.879   8.712  69.861  1.00  0.00    -0.208 C  
HETATM   24  O   UNL     1     -10.158   7.687  70.365  1.00  0.00    -0.189 OA 
ENDBRANCH  15  21
ENDBRANCH  14  15
ENDBRANCH  12  14
ENDBRANCH   9  10
ENDBRANCH   7   9
ENDBRANCH   6   7
ENDBRANCH   4   6
TORSDOF 7
ENDMDL
MODEL      146
REMARK 921   NORMALIZED FREE ENERGY PREDICTED BY IDOCK:   -4.08 KCAL/MOL
REMARK 922        TOTAL FREE ENERGY PREDICTED BY IDOCK:   -7.38 KCAL/MOL
REMARK 923 INTER-LIGAND FREE ENERGY PREDICTED BY IDOCK:   -6.15 KCAL/MOL
REMARK 924 INTRA-LIGAND FREE ENERGY PREDICTED BY IDOCK:   -1.23 KCAL/MOL
REMARK 927      BINDING AFFINITY PREDICTED BY RF-SCORE:    0.00 PKD
ROOT
HETATM    1  C   UNL     1     -12.026  13.286  69.269  1.00  0.00    -0.354 C  
HETATM    2  C   UNL     1     -12.046  11.757  69.360  1.00  0.00    -0.301 C  
HETATM    3  C   UNL     1     -10.646  11.204  69.125  1.00  0.00    -0.238 C  
HETATM    4  C   UNL     1     -12.591  11.315  70.709  1.00  0.00    -0.332 C  
HETATM    5  O   UNL     1     -12.976  12.091  71.577  1.00  0.00    -0.397 OA 
ENDROOT
BRANCH   4   6
HETATM    6  O   UNL     1     -12.669   9.955  70.810  1.00  0.00    -0.292 OA 
BRANCH   6   7
HETATM    7  C   UNL     1     -12.941   9.505  72.146  1.00  0.00    -0.412 C  
HETATM    8  C   UNL     1     -14.216   8.662  72.147  1.00  0.00    -0.520 C  
BRANCH   7   9
HETATM    9  O   UNL     1     -11.956   8.580  72.639  1.00  0.00    -0.373 OA 
BRANCH   9  10
HETATM   10  C   UNL     1     -10.780   8.574  71.980  1.00  0.00    -0.340 C  
HETATM   11  O   UNL     1      -9.767   9.152  72.324  1.00  0.00    -0.186 OA 
HETATM   12  N   UNL     1     -10.906   7.727  70.916  1.00  0.00    -0.233 N  
HETATM   13  H   UNL     1     -11.811   7.288  70.744  1.00  0.00     0.000 HD 
BRANCH  12  14
HETATM   14  C   UNL     1      -9.807   7.427  70.022  1.00  0.00    -0.179 C  
BRANCH  14  15
HETATM   15  C   UNL     1      -9.911   6.019  69.345  1.00  0.00    -0.220 C  
HETATM   16  C   UNL     1     -11.090   5.979  68.336  1.00  0.00    -0.271 C  
HETATM   17  C   UNL     1      -8.572   5.745  68.601  1.00  0.00    -0.109 C  
HETATM   18  C   UNL     1      -8.375   6.592  67.342  1.00  0.00    -0.121 C  
HETATM   19  C   UNL     1     -10.865   6.832  67.089  1.00  0.00    -0.462 C  
HETATM   20  C   UNL     1      -9.561   6.462  66.395  1.00  0.00    -0.156 C  
BRANCH  15  21
HETATM   21  C   UNL     1     -10.124   4.954  70.460  1.00  0.00    -0.312 C  
HETATM   22  O   UNL     1      -9.063   5.590  72.542  1.00  0.00    -0.136 OA 
HETATM   23  C   UNL     1      -9.055   4.897  71.536  1.00  0.00    -0.139 C  
HETATM   24  O   UNL     1      -8.079   3.996  71.291  1.00  0.00    -0.069 OA 
ENDBRANCH  15  21
ENDBRANCH  14  15
ENDBRANCH  12  14
ENDBRANCH   9  10
ENDBRANCH   7   9
ENDBRANCH   6   7
ENDBRANCH   4   6
TORSDOF 7
ENDMDL
MODEL      147
REMARK 921   NORMALIZED FREE ENERGY PREDICTED BY IDOCK:   -4.08 KCAL/MOL
REMARK 922        TOTAL FREE ENERGY PREDICTED BY IDOCK:   -7.38 KCAL/MOL
REMARK 923 INTER-LIGAND FREE ENERGY PREDICTED BY IDOCK:   -7.44 KCAL/MOL
REMARK 924 INTRA-LIGAND FREE ENERGY PREDICTED BY IDOCK:    0.06 KCAL/MOL
REMARK 927      BINDING AFFINITY PREDICTED BY RF-SCORE:    0.00 PKD
ROOT
HETATM    1  C   UNL     1     -10.391  11.469  63.215  1.00  0.00    -0.435 C  
HETATM    2  C   UNL     1     -10.604  12.740  64.043  1.00  0.00    -0.446 C  
HETATM    3  C   UNL     1     -12.056  13.189  63.943  1.00  0.00    -0.536 C  
HETATM    4  C   UNL     1     -10.203  12.501  65.491  1.00  0.00    -0.275 C  
HETATM    5  O   UNL     1      -9.753  11.439  65.908  1.00  0.00    -0.211 OA 
ENDROOT
BRANCH   4   6
HETATM    6  O   UNL     1     -10.334  13.628  66.253  1.00  0.00    -0.281 OA 
BRANCH   6   7
HETATM    7  C   UNL     1     -11.310  13.492  67.296  1.00  0.00    -0.315 C  
HETATM    8  C   UNL     1     -10.598  13.262  68.629  1.00  0.00    -0.264 C  
BRANCH   7   9
HETATM    9  O   UNL     1     -12.045  14.703  67.540  1.00  0.00    -0.340 OA 
BRANCH   9  10
HETATM   10  C   UNL     1     -11.462  15.580  68.381  1.00  0.00    -0.363 C  
HETATM   11  O   UNL     1     -11.703  15.698  69.567  1.00  0.00    -0.328 OA 
HETATM   12  N   UNL     1     -10.488  16.238  67.684  1.00  0.00    -0.289 N  
HETATM   13  H   UNL     1     -10.375  16.035  66.691  1.00  0.00     0.000 HD 
BRANCH  12  14
HETATM   14  C   UNL     1      -9.611  17.212  68.298  1.00  0.00    -0.280 C  
BRANCH  14  15
HETATM   15  C   UNL     1      -8.377  17.596  67.414  1.00  0.00    -0.217 C  
HETATM   16  C   UNL     1      -7.133  17.880  68.298  1.00  0.00    -0.232 C  
HETATM   17  C   UNL     1      -8.082  16.403  66.459  1.00  0.00    -0.345 C  
HETATM   18  C   UNL     1      -7.492  15.176  67.158  1.00  0.00    -0.176 C  
HETATM   19  C   UNL     1      -6.565  16.638  68.982  1.00  0.00    -0.198 C  
HETATM   20  C   UNL     1      -6.256  15.543  67.969  1.00  0.00    -0.153 C  
BRANCH  15  21
HETATM   21  C   UNL     1      -8.744  18.861  66.583  1.00  0.00    -0.315 C  
HETATM   22  O   UNL     1     -10.848  19.833  67.286  1.00  0.00    -0.444 OA 
HETATM   23  C   UNL     1     -10.225  19.172  66.469  1.00  0.00    -0.429 C  
HETATM   24  O   UNL     1     -10.809  18.657  65.365  1.00  0.00    -0.569 OA 
ENDBRANCH  15  21
ENDBRANCH  14  15
ENDBRANCH  12  14
ENDBRANCH   9  10
ENDBRANCH   7   9
ENDBRANCH   6   7
ENDBRANCH   4   6
TORSDOF 7
ENDMDL
MODEL      148
REMARK 921   NORMALIZED FREE ENERGY PREDICTED BY IDOCK:   -4.08 KCAL/MOL
REMARK 922        TOTAL FREE ENERGY PREDICTED BY IDOCK:   -7.37 KCAL/MOL
REMARK 923 INTER-LIGAND FREE ENERGY PREDICTED BY IDOCK:   -6.33 KCAL/MOL
REMARK 924 INTRA-LIGAND FREE ENERGY PREDICTED BY IDOCK:   -1.04 KCAL/MOL
REMARK 927      BINDING AFFINITY PREDICTED BY RF-SCORE:    0.00 PKD
ROOT
HETATM    1  C   UNL     1      -9.924  13.566  67.946  1.00  0.00    -0.245 C  
HETATM    2  C   UNL     1     -11.261  12.875  68.236  1.00  0.00    -0.304 C  
HETATM    3  C   UNL     1     -12.016  12.638  66.935  1.00  0.00    -0.345 C  
HETATM    4  C   UNL     1     -11.029  11.569  68.981  1.00  0.00    -0.234 C  
HETATM    5  O   UNL     1      -9.922  11.160  69.312  1.00  0.00    -0.139 OA 
ENDROOT
BRANCH   4   6
HETATM    6  O   UNL     1     -12.202  10.945  69.300  1.00  0.00    -0.364 OA 
BRANCH   6   7
HETATM    7  C   UNL     1     -12.366  10.743  70.712  1.00  0.00    -0.383 C  
HETATM    8  C   UNL     1     -12.583  12.093  71.394  1.00  0.00    -0.314 C  
BRANCH   7   9
HETATM    9  O   UNL     1     -13.570  10.030  71.042  1.00  0.00    -0.317 OA 
BRANCH   9  10
HETATM   10  C   UNL     1     -13.415   8.717  71.309  1.00  0.00    -0.151 C  
HETATM   11  O   UNL     1     -14.134   8.045  72.024  1.00  0.00    -0.363 OA 
HETATM   12  N   UNL     1     -12.368   8.262  70.559  1.00  0.00    -0.394 N  
HETATM   13  H   UNL     1     -11.852   8.928  69.984  1.00  0.00     0.000 HD 
BRANCH  12  14
HETATM   14  C   UNL     1     -11.962   6.873  70.547  1.00  0.00    -0.305 C  
BRANCH  14  15
HETATM   15  C   UNL     1     -10.441   6.663  70.239  1.00  0.00    -0.247 C  
HETATM   16  C   UNL     1     -10.221   5.376  69.398  1.00  0.00    -0.334 C  
HETATM   17  C   UNL     1      -9.937   7.903  69.443  1.00  0.00    -0.189 C  
HETATM   18  C   UNL     1     -10.457   7.973  68.006  1.00  0.00    -0.243 C  
HETATM   19  C   UNL     1     -10.748   5.475  67.968  1.00  0.00    -0.165 C  
HETATM   20  C   UNL     1     -10.164   6.684  67.248  1.00  0.00    -0.256 C  
BRANCH  15  21
HETATM   21  C   UNL     1      -9.677   6.557  71.591  1.00  0.00    -0.174 C  
HETATM   22  O   UNL     1     -10.906   5.268  73.232  1.00  0.00    -0.247 OA 
HETATM   23  C   UNL     1     -10.538   6.359  72.825  1.00  0.00    -0.229 C  
HETATM   24  O   UNL     1     -10.865   7.509  73.455  1.00  0.00    -0.394 OA 
ENDBRANCH  15  21
ENDBRANCH  14  15
ENDBRANCH  12  14
ENDBRANCH   9  10
ENDBRANCH   7   9
ENDBRANCH   6   7
ENDBRANCH   4   6
TORSDOF 7
ENDMDL
MODEL      149
REMARK 921   NORMALIZED FREE ENERGY PREDICTED BY IDOCK:   -4.07 KCAL/MOL
REMARK 922        TOTAL FREE ENERGY PREDICTED BY IDOCK:   -7.37 KCAL/MOL
REMARK 923 INTER-LIGAND FREE ENERGY PREDICTED BY IDOCK:   -6.88 KCAL/MOL
REMARK 924 INTRA-LIGAND FREE ENERGY PREDICTED BY IDOCK:   -0.49 KCAL/MOL
REMARK 927      BINDING AFFINITY PREDICTED BY RF-SCORE:    0.00 PKD
ROOT
HETATM    1  C   UNL     1     -11.215  14.670  67.172  1.00  0.00    -0.349 C  
HETATM    2  C   UNL     1     -11.878  13.296  67.034  1.00  0.00    -0.442 C  
HETATM    3  C   UNL     1     -12.206  13.022  65.572  1.00  0.00    -0.521 C  
HETATM    4  C   UNL     1     -10.975  12.214  67.605  1.00  0.00    -0.243 C  
HETATM    5  O   UNL     1      -9.885  12.436  68.121  1.00  0.00    -0.203 OA 
ENDROOT
BRANCH   4   6
HETATM    6  O   UNL     1     -11.554  10.977  67.543  1.00  0.00    -0.529 OA 
BRANCH   6   7
HETATM    7  C   UNL     1     -10.651   9.956  67.092  1.00  0.00    -0.228 C  
HETATM    8  C   UNL     1     -10.277  10.220  65.634  1.00  0.00    -0.301 C  
BRANCH   7   9
HETATM    9  O   UNL     1      -9.376  10.000  67.754  1.00  0.00    -0.140 OA 
BRANCH   9  10
HETATM   10  C   UNL     1      -9.202   9.102  68.745  1.00  0.00    -0.136 C  
HETATM   11  O   UNL     1      -8.494   8.115  68.697  1.00  0.00    -0.125 OA 
HETATM   12  N   UNL     1      -9.887   9.554  69.838  1.00  0.00    -0.210 N  
HETATM   13  H   UNL     1     -10.434  10.411  69.753  1.00  0.00     0.000 HD 
BRANCH  12  14
HETATM   14  C   UNL     1      -9.865   8.866  71.112  1.00  0.00    -0.275 C  
BRANCH  14  15
HETATM   15  C   UNL     1     -11.144   8.005  71.384  1.00  0.00    -0.278 C  
HETATM   16  C   UNL     1     -11.001   6.592  70.756  1.00  0.00    -0.318 C  
HETATM   17  C   UNL     1     -11.319   7.880  72.925  1.00  0.00    -0.399 C  
HETATM   18  C   UNL     1     -10.284   6.975  73.598  1.00  0.00    -0.396 C  
HETATM   19  C   UNL     1      -9.963   5.711  71.448  1.00  0.00    -0.237 C  
HETATM   20  C   UNL     1     -10.240   5.601  72.942  1.00  0.00    -0.212 C  
BRANCH  15  21
HETATM   21  C   UNL     1     -12.371   8.742  70.771  1.00  0.00     0.002 C  
HETATM   22  O   UNL     1     -12.925  10.759  71.991  1.00  0.00    -0.463 OA 
HETATM   23  C   UNL     1     -13.181   9.593  71.731  1.00  0.00    -0.430 C  
HETATM   24  O   UNL     1     -14.234   8.949  72.281  1.00  0.00    -0.447 OA 
ENDBRANCH  15  21
ENDBRANCH  14  15
ENDBRANCH  12  14
ENDBRANCH   9  10
ENDBRANCH   7   9
ENDBRANCH   6   7
ENDBRANCH   4   6
TORSDOF 7
ENDMDL
MODEL      150
REMARK 921   NORMALIZED FREE ENERGY PREDICTED BY IDOCK:   -4.07 KCAL/MOL
REMARK 922        TOTAL FREE ENERGY PREDICTED BY IDOCK:   -7.36 KCAL/MOL
REMARK 923 INTER-LIGAND FREE ENERGY PREDICTED BY IDOCK:   -7.17 KCAL/MOL
REMARK 924 INTRA-LIGAND FREE ENERGY PREDICTED BY IDOCK:   -0.19 KCAL/MOL
REMARK 927      BINDING AFFINITY PREDICTED BY RF-SCORE:    0.00 PKD
ROOT
HETATM    1  C   UNL     1     -11.171  15.277  64.919  1.00  0.00    -0.422 C  
HETATM    2  C   UNL     1     -11.967  14.003  65.218  1.00  0.00    -0.384 C  
HETATM    3  C   UNL     1     -11.955  13.086  64.002  1.00  0.00    -0.523 C  
HETATM    4  C   UNL     1     -11.399  13.300  66.440  1.00  0.00    -0.312 C  
HETATM    5  O   UNL     1     -10.452  13.725  67.093  1.00  0.00    -0.269 OA 
ENDROOT
BRANCH   4   6
HETATM    6  O   UNL     1     -12.113  12.182  66.768  1.00  0.00    -0.609 OA 
BRANCH   6   7
HETATM    7  C   UNL     1     -11.281  11.064  67.114  1.00  0.00    -0.217 C  
HETATM    8  C   UNL     1     -10.166  10.924  66.078  1.00  0.00    -0.311 C  
BRANCH   7   9
HETATM    9  O   UNL     1     -10.550  11.265  68.335  1.00  0.00    -0.179 OA 
BRANCH   9  10
HETATM   10  C   UNL     1     -11.153  10.820  69.456  1.00  0.00    -0.278 C  
HETATM   11  O   UNL     1     -11.764  11.503  70.256  1.00  0.00    -0.327 OA 
HETATM   12  N   UNL     1     -11.036   9.459  69.477  1.00  0.00    -0.404 N  
HETATM   13  H   UNL     1     -10.509   9.001  68.734  1.00  0.00     0.000 HD 
BRANCH  12  14
HETATM   14  C   UNL     1     -11.632   8.641  70.513  1.00  0.00    -0.139 C  
BRANCH  14  15
HETATM   15  C   UNL     1     -10.892   7.280  70.744  1.00  0.00    -0.260 C  
HETATM   16  C   UNL     1      -9.353   7.480  70.732  1.00  0.00    -0.162 C  
HETATM   17  C   UNL     1     -11.338   6.720  72.126  1.00  0.00    -0.307 C  
HETATM   18  C   UNL     1     -10.777   7.494  73.321  1.00  0.00    -0.437 C  
HETATM   19  C   UNL     1      -8.821   8.254  71.936  1.00  0.00    -0.238 C  
HETATM   20  C   UNL     1      -9.260   7.608  73.244  1.00  0.00    -0.285 C  
BRANCH  15  21
HETATM   21  C   UNL     1     -11.313   6.295  69.614  1.00  0.00    -0.492 C  
HETATM   22  O   UNL     1      -9.433   5.630  68.239  1.00  0.00    -0.110 OA 
HETATM   23  C   UNL     1     -10.444   6.304  68.369  1.00  0.00    -0.227 C  
HETATM   24  O   UNL     1     -10.890   7.126  67.395  1.00  0.00    -0.282 OA 
ENDBRANCH  15  21
ENDBRANCH  14  15
ENDBRANCH  12  14
ENDBRANCH   9  10
ENDBRANCH   7   9
ENDBRANCH   6   7
ENDBRANCH   4   6
TORSDOF 7
ENDMDL
MODEL      151
REMARK 921   NORMALIZED FREE ENERGY PREDICTED BY IDOCK:   -4.02 KCAL/MOL
REMARK 922        TOTAL FREE ENERGY PREDICTED BY IDOCK:   -7.30 KCAL/MOL
REMARK 923 INTER-LIGAND FREE ENERGY PREDICTED BY IDOCK:   -6.22 KCAL/MOL
REMARK 924 INTRA-LIGAND FREE ENERGY PREDICTED BY IDOCK:   -1.08 KCAL/MOL
REMARK 927      BINDING AFFINITY PREDICTED BY RF-SCORE:    0.00 PKD
ROOT
HETATM    1  C   UNL     1     -13.782  10.202  72.216  1.00  0.00    -0.132 C  
HETATM    2  C   UNL     1     -12.702  11.142  71.670  1.00  0.00    -0.466 C  
HETATM    3  C   UNL     1     -12.428  10.823  70.206  1.00  0.00    -0.395 C  
HETATM    4  C   UNL     1     -13.126  12.592  71.844  1.00  0.00    -0.368 C  
HETATM    5  O   UNL     1     -14.177  12.936  72.372  1.00  0.00    -0.442 OA 
ENDROOT
BRANCH   4   6
HETATM    6  O   UNL     1     -12.166  13.463  71.411  1.00  0.00    -0.218 OA 
BRANCH   6   7
HETATM    7  C   UNL     1     -12.706  14.706  70.939  1.00  0.00    -0.348 C  
HETATM    8  C   UNL     1     -12.137  15.854  71.772  1.00  0.00    -0.567 C  
BRANCH   7   9
HETATM    9  O   UNL     1     -12.270  15.040  69.610  1.00  0.00    -0.300 OA 
BRANCH   9  10
HETATM   10  C   UNL     1     -11.895  13.998  68.841  1.00  0.00    -0.355 C  
HETATM   11  O   UNL     1     -12.603  13.402  68.052  1.00  0.00     0.170 OA 
HETATM   12  N   UNL     1     -10.557  13.800  69.037  1.00  0.00    -0.379 N  
HETATM   13  H   UNL     1     -10.071  14.381  69.719  1.00  0.00     0.000 HD 
BRANCH  12  14
HETATM   14  C   UNL     1      -9.803  12.797  68.315  1.00  0.00    -0.224 C  
BRANCH  14  15
HETATM   15  C   UNL     1      -9.054  13.355  67.058  1.00  0.00    -0.245 C  
HETATM   16  C   UNL     1      -7.949  12.369  66.591  1.00  0.00     0.144 C  
HETATM   17  C   UNL     1     -10.101  13.548  65.922  1.00  0.00    -0.311 C  
HETATM   18  C   UNL     1     -10.615  12.238  65.321  1.00  0.00    -0.322 C  
HETATM   19  C   UNL     1      -8.492  11.072  65.995  1.00  0.00    -0.158 C  
HETATM   20  C   UNL     1      -9.466  11.352  64.858  1.00  0.00    -0.194 C  
BRANCH  15  21
HETATM   21  C   UNL     1      -8.422  14.728  67.433  1.00  0.00    -0.218 C  
HETATM   22  O   UNL     1     -10.061  16.511  67.445  1.00  0.00    -0.265 OA 
HETATM   23  C   UNL     1      -9.129  15.954  66.885  1.00  0.00    -0.231 C  
HETATM   24  O   UNL     1      -8.630  16.395  65.710  1.00  0.00    -0.398 OA 
ENDBRANCH  15  21
ENDBRANCH  14  15
ENDBRANCH  12  14
ENDBRANCH   9  10
ENDBRANCH   7   9
ENDBRANCH   6   7
ENDBRANCH   4   6
TORSDOF 7
ENDMDL
MODEL      152
REMARK 921   NORMALIZED FREE ENERGY PREDICTED BY IDOCK:   -3.99 KCAL/MOL
REMARK 922        TOTAL FREE ENERGY PREDICTED BY IDOCK:   -7.26 KCAL/MOL
REMARK 923 INTER-LIGAND FREE ENERGY PREDICTED BY IDOCK:   -6.34 KCAL/MOL
REMARK 924 INTRA-LIGAND FREE ENERGY PREDICTED BY IDOCK:   -0.92 KCAL/MOL
REMARK 927      BINDING AFFINITY PREDICTED BY RF-SCORE:    0.00 PKD
ROOT
HETATM    1  C   UNL     1     -11.816  16.178  72.062  1.00  0.00    -0.615 C  
HETATM    2  C   UNL     1     -12.656  14.898  72.123  1.00  0.00    -0.403 C  
HETATM    3  C   UNL     1     -14.112  15.245  72.405  1.00  0.00    -0.622 C  
HETATM    4  C   UNL     1     -12.521  14.116  70.825  1.00  0.00    -0.366 C  
HETATM    5  O   UNL     1     -11.815  14.468  69.887  1.00  0.00    -0.280 OA 
ENDROOT
BRANCH   4   6
HETATM    6  O   UNL     1     -13.220  12.942  70.859  1.00  0.00     0.003 OA 
BRANCH   6   7
HETATM    7  C   UNL     1     -12.391  11.788  70.654  1.00  0.00    -0.328 C  
HETATM    8  C   UNL     1     -12.780  10.702  71.657  1.00  0.00    -0.531 C  
BRANCH   7   9
HETATM    9  O   UNL     1     -12.626  11.144  69.390  1.00  0.00    -0.297 OA 
BRANCH   9  10
HETATM   10  C   UNL     1     -11.645  11.281  68.475  1.00  0.00    -0.315 C  
HETATM   11  O   UNL     1     -11.801  11.482  67.286  1.00  0.00    -0.609 OA 
HETATM   12  N   UNL     1     -10.451  11.249  69.140  1.00  0.00    -0.344 N  
HETATM   13  H   UNL     1     -10.456  11.088  70.147  1.00  0.00     0.000 HD 
BRANCH  12  14
HETATM   14  C   UNL     1      -9.180  11.435  68.472  1.00  0.00    -0.174 C  
BRANCH  14  15
HETATM   15  C   UNL     1      -8.256  10.172  68.514  1.00  0.00    -0.111 C  
HETATM   16  C   UNL     1      -9.032   8.905  68.065  1.00  0.00    -0.140 C  
HETATM   17  C   UNL     1      -7.058  10.423  67.552  1.00  0.00    -0.086 C  
HETATM   18  C   UNL     1      -7.432  10.386  66.069  1.00  0.00    -0.134 C  
HETATM   19  C   UNL     1      -9.391   8.895  66.580  1.00  0.00    -0.237 C  
HETATM   20  C   UNL     1      -8.155   9.093  65.712  1.00  0.00    -0.112 C  
BRANCH  15  21
HETATM   21  C   UNL     1      -7.736   9.994  69.971  1.00  0.00    -0.181 C  
HETATM   22  O   UNL     1      -7.586   7.661  70.604  1.00  0.00    -0.077 OA 
HETATM   23  C   UNL     1      -8.177   8.728  70.681  1.00  0.00    -0.144 C  
HETATM   24  O   UNL     1      -9.293   8.878  71.427  1.00  0.00    -0.234 OA 
ENDBRANCH  15  21
ENDBRANCH  14  15
ENDBRANCH  12  14
ENDBRANCH   9  10
ENDBRANCH   7   9
ENDBRANCH   6   7
ENDBRANCH   4   6
TORSDOF 7
ENDMDL
MODEL      153
REMARK 921   NORMALIZED FREE ENERGY PREDICTED BY IDOCK:   -3.97 KCAL/MOL
REMARK 922        TOTAL FREE ENERGY PREDICTED BY IDOCK:   -7.23 KCAL/MOL
REMARK 923 INTER-LIGAND FREE ENERGY PREDICTED BY IDOCK:   -6.84 KCAL/MOL
REMARK 924 INTRA-LIGAND FREE ENERGY PREDICTED BY IDOCK:   -0.38 KCAL/MOL
REMARK 927      BINDING AFFINITY PREDICTED BY RF-SCORE:    0.00 PKD
ROOT
HETATM    1  C   UNL     1     -10.622   8.186  67.084  1.00  0.00    -0.355 C  
HETATM    2  C   UNL     1      -9.902   9.439  66.577  1.00  0.00    -0.325 C  
HETATM    3  C   UNL     1      -9.344  10.229  67.754  1.00  0.00    -0.156 C  
HETATM    4  C   UNL     1      -8.800   9.057  65.602  1.00  0.00    -0.185 C  
HETATM    5  O   UNL     1      -8.557   7.903  65.265  1.00  0.00    -0.139 OA 
ENDROOT
BRANCH   4   6
HETATM    6  O   UNL     1      -8.164  10.153  65.090  1.00  0.00    -0.140 OA 
BRANCH   6   7
HETATM    7  C   UNL     1      -8.802  10.677  63.916  1.00  0.00    -0.163 C  
HETATM    8  C   UNL     1      -8.809   9.607  62.824  1.00  0.00    -0.251 C  
BRANCH   7   9
HETATM    9  O   UNL     1     -10.204  10.937  64.106  1.00  0.00    -0.317 OA 
BRANCH   9  10
HETATM   10  C   UNL     1     -10.580  12.225  63.973  1.00  0.00    -0.400 C  
HETATM   11  O   UNL     1     -11.409  12.648  63.190  1.00  0.00    -0.397 OA 
HETATM   12  N   UNL     1      -9.937  12.947  64.938  1.00  0.00    -0.511 N  
HETATM   13  H   UNL     1      -9.273  12.468  65.547  1.00  0.00     0.000 HD 
BRANCH  12  14
HETATM   14  C   UNL     1     -10.159  14.364  65.131  1.00  0.00    -0.326 C  
BRANCH  14  15
HETATM   15  C   UNL     1     -10.160  14.803  66.634  1.00  0.00    -0.269 C  
HETATM   16  C   UNL     1      -9.149  13.959  67.456  1.00  0.00    -0.201 C  
HETATM   17  C   UNL     1      -9.763  16.306  66.695  1.00  0.00    -0.266 C  
HETATM   18  C   UNL     1      -8.290  16.574  66.378  1.00  0.00    -0.358 C  
HETATM   19  C   UNL     1      -7.687  14.248  67.119  1.00  0.00    -0.046 C  
HETATM   20  C   UNL     1      -7.373  15.732  67.256  1.00  0.00    -0.257 C  
BRANCH  15  21
HETATM   21  C   UNL     1     -11.599  14.613  67.199  1.00  0.00    -0.394 C  
HETATM   22  O   UNL     1     -12.358  12.322  67.004  1.00  0.00    -0.393 OA 
HETATM   23  C   UNL     1     -12.402  13.474  66.599  1.00  0.00    -0.297 C  
HETATM   24  O   UNL     1     -13.189  13.842  65.565  1.00  0.00    -0.698 OA 
ENDBRANCH  15  21
ENDBRANCH  14  15
ENDBRANCH  12  14
ENDBRANCH   9  10
ENDBRANCH   7   9
ENDBRANCH   6   7
ENDBRANCH   4   6
TORSDOF 7
ENDMDL
MODEL      154
REMARK 921   NORMALIZED FREE ENERGY PREDICTED BY IDOCK:   -3.97 KCAL/MOL
REMARK 922        TOTAL FREE ENERGY PREDICTED BY IDOCK:   -7.22 KCAL/MOL
REMARK 923 INTER-LIGAND FREE ENERGY PREDICTED BY IDOCK:   -6.56 KCAL/MOL
REMARK 924 INTRA-LIGAND FREE ENERGY PREDICTED BY IDOCK:   -0.66 KCAL/MOL
REMARK 927      BINDING AFFINITY PREDICTED BY RF-SCORE:    0.00 PKD
ROOT
HETATM    1  C   UNL     1      -9.403   3.472  67.873  1.00  0.00    -0.238 C  
HETATM    2  C   UNL     1      -8.615   4.642  67.276  1.00  0.00    -0.104 C  
HETATM    3  C   UNL     1      -7.438   4.116  66.465  1.00  0.00    -0.084 C  
HETATM    4  C   UNL     1      -9.526   5.510  66.421  1.00  0.00    -0.155 C  
HETATM    5  O   UNL     1     -10.723   5.297  66.266  1.00  0.00    -0.294 OA 
ENDROOT
BRANCH   4   6
HETATM    6  O   UNL     1      -8.869   6.593  65.909  1.00  0.00    -0.154 OA 
BRANCH   6   7
HETATM    7  C   UNL     1      -8.983   7.763  66.733  1.00  0.00    -0.139 C  
HETATM    8  C   UNL     1      -7.587   8.303  67.041  1.00  0.00    -0.092 C  
BRANCH   7   9
HETATM    9  O   UNL     1      -9.603   8.870  66.056  1.00  0.00    -0.245 OA 
BRANCH   9  10
HETATM   10  C   UNL     1     -10.357   9.677  66.829  1.00  0.00    -0.222 C  
HETATM   11  O   UNL     1     -10.836   9.387  67.909  1.00  0.00    -0.236 OA 
HETATM   12  N   UNL     1     -10.401  10.904  66.228  1.00  0.00    -0.246 N  
HETATM   13  H   UNL     1      -9.941  11.023  65.325  1.00  0.00     0.000 HD 
BRANCH  12  14
HETATM   14  C   UNL     1     -11.074  12.040  66.821  1.00  0.00    -0.305 C  
BRANCH  14  15
HETATM   15  C   UNL     1     -10.807  13.390  66.075  1.00  0.00    -0.281 C  
HETATM   16  C   UNL     1     -11.854  14.462  66.482  1.00  0.00    -0.406 C  
HETATM   17  C   UNL     1      -9.379  13.877  66.459  1.00  0.00    -0.264 C  
HETATM   18  C   UNL     1      -9.261  14.382  67.899  1.00  0.00    -0.195 C  
HETATM   19  C   UNL     1     -11.711  14.948  67.923  1.00  0.00    -0.344 C  
HETATM   20  C   UNL     1     -10.300  15.455  68.197  1.00  0.00    -0.239 C  
BRANCH  15  21
HETATM   21  C   UNL     1     -10.880  13.126  64.542  1.00  0.00    -0.400 C  
HETATM   22  O   UNL     1     -12.678  14.361  63.490  1.00  0.00    -0.742 OA 
HETATM   23  C   UNL     1     -12.247  13.295  63.905  1.00  0.00    -0.425 C  
HETATM   24  O   UNL     1     -12.960  12.151  63.824  1.00  0.00    -0.753 OA 
ENDBRANCH  15  21
ENDBRANCH  14  15
ENDBRANCH  12  14
ENDBRANCH   9  10
ENDBRANCH   7   9
ENDBRANCH   6   7
ENDBRANCH   4   6
TORSDOF 7
ENDMDL
MODEL      155
REMARK 921   NORMALIZED FREE ENERGY PREDICTED BY IDOCK:   -3.96 KCAL/MOL
REMARK 922        TOTAL FREE ENERGY PREDICTED BY IDOCK:   -7.21 KCAL/MOL
REMARK 923 INTER-LIGAND FREE ENERGY PREDICTED BY IDOCK:   -6.51 KCAL/MOL
REMARK 924 INTRA-LIGAND FREE ENERGY PREDICTED BY IDOCK:   -0.70 KCAL/MOL
REMARK 927      BINDING AFFINITY PREDICTED BY RF-SCORE:    0.00 PKD
ROOT
HETATM    1  C   UNL     1     -10.463   4.786  71.882  1.00  0.00    -0.201 C  
HETATM    2  C   UNL     1      -9.652   5.836  71.114  1.00  0.00    -0.201 C  
HETATM    3  C   UNL     1      -8.475   5.171  70.412  1.00  0.00    -0.112 C  
HETATM    4  C   UNL     1     -10.541   6.566  70.120  1.00  0.00    -0.227 C  
HETATM    5  O   UNL     1     -11.740   6.346  69.987  1.00  0.00    -0.429 OA 
ENDROOT
BRANCH   4   6
HETATM    6  O   UNL     1      -9.864   7.545  69.449  1.00  0.00    -0.163 OA 
BRANCH   6   7
HETATM    7  C   UNL     1     -10.330   8.866  69.758  1.00  0.00    -0.207 C  
HETATM    8  C   UNL     1     -10.219   9.103  71.264  1.00  0.00    -0.400 C  
BRANCH   7   9
HETATM    9  O   UNL     1      -9.491   9.901  69.217  1.00  0.00    -0.184 OA 
BRANCH   9  10
HETATM   10  C   UNL     1      -9.915  10.452  68.063  1.00  0.00    -0.155 C  
HETATM   11  O   UNL     1     -10.730   9.970  67.299  1.00  0.00    -0.262 OA 
HETATM   12  N   UNL     1      -9.340  11.687  67.957  1.00  0.00    -0.172 N  
HETATM   13  H   UNL     1      -8.681  11.983  68.677  1.00  0.00     0.000 HD 
BRANCH  12  14
HETATM   14  C   UNL     1      -9.628  12.591  66.864  1.00  0.00    -0.229 C  
BRANCH  14  15
HETATM   15  C   UNL     1     -10.640  13.727  67.235  1.00  0.00    -0.275 C  
HETATM   16  C   UNL     1     -10.326  15.026  66.446  1.00  0.00    -0.293 C  
HETATM   17  C   UNL     1     -12.071  13.229  66.880  1.00  0.00    -0.389 C  
HETATM   18  C   UNL     1     -12.349  13.155  65.377  1.00  0.00    -0.532 C  
HETATM   19  C   UNL     1     -10.614  14.924  64.949  1.00  0.00    -0.417 C  
HETATM   20  C   UNL     1     -12.049  14.482  64.692  1.00  0.00    -0.486 C  
BRANCH  15  21
HETATM   21  C   UNL     1     -10.538  13.993  68.766  1.00  0.00    -0.260 C  
HETATM   22  O   UNL     1     -11.795  12.375  70.057  1.00  0.00    -0.326 OA 
HETATM   23  C   UNL     1     -11.706  13.506  69.603  1.00  0.00    -0.314 C  
HETATM   24  O   UNL     1     -12.656  14.443  69.817  1.00  0.00    -0.280 OA 
ENDBRANCH  15  21
ENDBRANCH  14  15
ENDBRANCH  12  14
ENDBRANCH   9  10
ENDBRANCH   7   9
ENDBRANCH   6   7
ENDBRANCH   4   6
TORSDOF 7
ENDMDL
MODEL      156
REMARK 921   NORMALIZED FREE ENERGY PREDICTED BY IDOCK:   -3.92 KCAL/MOL
REMARK 922        TOTAL FREE ENERGY PREDICTED BY IDOCK:   -7.16 KCAL/MOL
REMARK 923 INTER-LIGAND FREE ENERGY PREDICTED BY IDOCK:   -5.65 KCAL/MOL
REMARK 924 INTRA-LIGAND FREE ENERGY PREDICTED BY IDOCK:   -1.51 KCAL/MOL
REMARK 927      BINDING AFFINITY PREDICTED BY RF-SCORE:    0.00 PKD
ROOT
HETATM    1  C   UNL     1      -9.829  12.468  67.809  1.00  0.00    -0.204 C  
HETATM    2  C   UNL     1     -11.048  12.579  68.730  1.00  0.00    -0.314 C  
HETATM    3  C   UNL     1     -11.872  13.805  68.357  1.00  0.00    -0.411 C  
HETATM    4  C   UNL     1     -11.886  11.312  68.651  1.00  0.00    -0.300 C  
HETATM    5  O   UNL     1     -11.594  10.343  67.959  1.00  0.00    -0.392 OA 
ENDROOT
BRANCH   4   6
HETATM    6  O   UNL     1     -12.959  11.353  69.496  1.00  0.00     0.139 OA 
BRANCH   6   7
HETATM    7  C   UNL     1     -12.654  10.878  70.816  1.00  0.00    -0.377 C  
HETATM    8  C   UNL     1     -13.157  11.889  71.846  1.00  0.00    -0.474 C  
BRANCH   7   9
HETATM    9  O   UNL     1     -13.381   9.687  71.167  1.00  0.00    -0.360 OA 
BRANCH   9  10
HETATM   10  C   UNL     1     -12.627   8.623  71.508  1.00  0.00    -0.322 C  
HETATM   11  O   UNL     1     -12.858   7.847  72.415  1.00  0.00    -0.180 OA 
HETATM   12  N   UNL     1     -11.616   8.521  70.594  1.00  0.00    -0.406 N  
HETATM   13  H   UNL     1     -11.541   9.232  69.866  1.00  0.00     0.000 HD 
BRANCH  12  14
HETATM   14  C   UNL     1     -10.649   7.445  70.616  1.00  0.00    -0.223 C  
BRANCH  14  15
HETATM   15  C   UNL     1      -9.224   7.888  71.092  1.00  0.00    -0.165 C  
HETATM   16  C   UNL     1      -8.175   6.783  70.793  1.00  0.00    -0.123 C  
HETATM   17  C   UNL     1      -8.847   9.191  70.330  1.00  0.00    -0.238 C  
HETATM   18  C   UNL     1      -8.539   8.977  68.846  1.00  0.00    -0.131 C  
HETATM   19  C   UNL     1      -7.886   6.593  69.305  1.00  0.00    -0.110 C  
HETATM   20  C   UNL     1      -7.474   7.905  68.651  1.00  0.00    -0.099 C  
BRANCH  15  21
HETATM   21  C   UNL     1      -9.284   8.168  72.622  1.00  0.00    -0.332 C  
HETATM   22  O   UNL     1      -7.132   8.838  73.510  1.00  0.00    -0.347 OA 
HETATM   23  C   UNL     1      -7.985   7.973  73.383  1.00  0.00    -0.183 C  
HETATM   24  O   UNL     1      -7.849   6.744  73.928  1.00  0.00    -0.098 OA 
ENDBRANCH  15  21
ENDBRANCH  14  15
ENDBRANCH  12  14
ENDBRANCH   9  10
ENDBRANCH   7   9
ENDBRANCH   6   7
ENDBRANCH   4   6
TORSDOF 7
ENDMDL
MODEL      157
REMARK 921   NORMALIZED FREE ENERGY PREDICTED BY IDOCK:   -3.92 KCAL/MOL
REMARK 922        TOTAL FREE ENERGY PREDICTED BY IDOCK:   -7.16 KCAL/MOL
REMARK 923 INTER-LIGAND FREE ENERGY PREDICTED BY IDOCK:   -6.45 KCAL/MOL
REMARK 924 INTRA-LIGAND FREE ENERGY PREDICTED BY IDOCK:   -0.70 KCAL/MOL
REMARK 927      BINDING AFFINITY PREDICTED BY RF-SCORE:    0.00 PKD
ROOT
HETATM    1  C   UNL     1      -9.799  16.317  66.228  1.00  0.00    -0.334 C  
HETATM    2  C   UNL     1      -9.483  14.915  66.760  1.00  0.00    -0.269 C  
HETATM    3  C   UNL     1     -10.072  14.744  68.154  1.00  0.00    -0.221 C  
HETATM    4  C   UNL     1     -10.015  13.857  65.806  1.00  0.00    -0.284 C  
HETATM    5  O   UNL     1     -10.590  14.114  64.754  1.00  0.00    -0.407 OA 
ENDROOT
BRANCH   4   6
HETATM    6  O   UNL     1      -9.711  12.592  66.223  1.00  0.00    -0.247 OA 
BRANCH   6   7
HETATM    7  C   UNL     1     -10.415  11.575  65.494  1.00  0.00    -0.275 C  
HETATM    8  C   UNL     1      -9.440  10.849  64.567  1.00  0.00    -0.284 C  
BRANCH   7   9
HETATM    9  O   UNL     1     -10.896  10.512  66.334  1.00  0.00    -0.146 OA 
BRANCH   9  10
HETATM   10  C   UNL     1     -11.220  10.866  67.594  1.00  0.00    -0.309 C  
HETATM   11  O   UNL     1     -12.147  11.583  67.918  1.00  0.00    -0.630 OA 
HETATM   12  N   UNL     1     -10.381  10.197  68.441  1.00  0.00    -0.174 N  
HETATM   13  H   UNL     1      -9.649   9.609  68.041  1.00  0.00     0.000 HD 
BRANCH  12  14
HETATM   14  C   UNL     1     -10.489  10.290  69.881  1.00  0.00    -0.256 C  
BRANCH  14  15
HETATM   15  C   UNL     1     -11.231   9.077  70.537  1.00  0.00    -0.301 C  
HETATM   16  C   UNL     1     -10.998   7.779  69.718  1.00  0.00    -0.162 C  
HETATM   17  C   UNL     1     -10.675   8.896  71.979  1.00  0.00    -0.389 C  
HETATM   18  C   UNL     1      -9.247   8.347  72.030  1.00  0.00    -0.304 C  
HETATM   19  C   UNL     1      -9.566   7.254  69.789  1.00  0.00    -0.162 C  
HETATM   20  C   UNL     1      -9.122   7.056  71.232  1.00  0.00    -0.152 C  
BRANCH  15  21
HETATM   21  C   UNL     1     -12.752   9.408  70.595  1.00  0.00     0.042 C  
HETATM   22  O   UNL     1     -13.670   9.085  72.813  1.00  0.00    -0.434 OA 
HETATM   23  C   UNL     1     -13.547   8.683  71.666  1.00  0.00    -0.371 C  
HETATM   24  O   UNL     1     -14.127   7.540  71.239  1.00  0.00    -0.382 OA 
ENDBRANCH  15  21
ENDBRANCH  14  15
ENDBRANCH  12  14
ENDBRANCH   9  10
ENDBRANCH   7   9
ENDBRANCH   6   7
ENDBRANCH   4   6
TORSDOF 7
ENDMDL
MODEL      158
REMARK 921   NORMALIZED FREE ENERGY PREDICTED BY IDOCK:   -3.90 KCAL/MOL
REMARK 922        TOTAL FREE ENERGY PREDICTED BY IDOCK:   -7.12 KCAL/MOL
REMARK 923 INTER-LIGAND FREE ENERGY PREDICTED BY IDOCK:   -6.30 KCAL/MOL
REMARK 924 INTRA-LIGAND FREE ENERGY PREDICTED BY IDOCK:   -0.82 KCAL/MOL
REMARK 927      BINDING AFFINITY PREDICTED BY RF-SCORE:    0.00 PKD
ROOT
HETATM    1  C   UNL     1     -13.821  15.436  72.545  1.00  0.00    -0.651 C  
HETATM    2  C   UNL     1     -12.774  14.405  72.112  1.00  0.00    -0.401 C  
HETATM    3  C   UNL     1     -13.365  13.002  72.187  1.00  0.00    -0.622 C  
HETATM    4  C   UNL     1     -12.276  14.715  70.709  1.00  0.00    -0.324 C  
HETATM    5  O   UNL     1     -12.655  15.675  70.047  1.00  0.00    -0.334 OA 
ENDROOT
BRANCH   4   6
HETATM    6  O   UNL     1     -11.304  13.843  70.305  1.00  0.00    -0.117 OA 
BRANCH   6   7
HETATM    7  C   UNL     1     -11.048  13.901  68.894  1.00  0.00    -0.266 C  
HETATM    8  C   UNL     1      -9.785  14.725  68.643  1.00  0.00    -0.225 C  
BRANCH   7   9
HETATM    9  O   UNL     1     -10.704  12.623  68.332  1.00  0.00    -0.227 OA 
BRANCH   9  10
HETATM   10  C   UNL     1     -11.151  11.548  69.011  1.00  0.00    -0.245 C  
HETATM   11  O   UNL     1     -12.274  11.083  68.952  1.00  0.00    -0.519 OA 
HETATM   12  N   UNL     1     -10.094  11.021  69.698  1.00  0.00    -0.429 N  
HETATM   13  H   UNL     1      -9.194  11.500  69.653  1.00  0.00     0.000 HD 
BRANCH  12  14
HETATM   14  C   UNL     1     -10.199   9.813  70.488  1.00  0.00    -0.255 C  
BRANCH  14  15
HETATM   15  C   UNL     1      -9.537   8.562  69.817  1.00  0.00    -0.170 C  
HETATM   16  C   UNL     1      -8.303   8.978  68.972  1.00  0.00    -0.124 C  
HETATM   17  C   UNL     1      -9.096   7.589  70.949  1.00  0.00    -0.153 C  
HETATM   18  C   UNL     1      -7.894   8.080  71.758  1.00  0.00    -0.127 C  
HETATM   19  C   UNL     1      -7.119   9.462  69.806  1.00  0.00    -0.068 C  
HETATM   20  C   UNL     1      -6.720   8.428  70.852  1.00  0.00    -0.042 C  
BRANCH  15  21
HETATM   21  C   UNL     1     -10.599   7.872  68.911  1.00  0.00    -0.165 C  
HETATM   22  O   UNL     1     -12.038   6.383  70.165  1.00  0.00    -0.266 OA 
HETATM   23  C   UNL     1     -11.104   6.524  69.390  1.00  0.00    -0.348 C  
HETATM   24  O   UNL     1     -10.432   5.472  68.874  1.00  0.00    -0.223 OA 
ENDBRANCH  15  21
ENDBRANCH  14  15
ENDBRANCH  12  14
ENDBRANCH   9  10
ENDBRANCH   7   9
ENDBRANCH   6   7
ENDBRANCH   4   6
TORSDOF 7
ENDMDL
MODEL      159
REMARK 921   NORMALIZED FREE ENERGY PREDICTED BY IDOCK:   -3.89 KCAL/MOL
REMARK 922        TOTAL FREE ENERGY PREDICTED BY IDOCK:   -7.12 KCAL/MOL
REMARK 923 INTER-LIGAND FREE ENERGY PREDICTED BY IDOCK:   -6.00 KCAL/MOL
REMARK 924 INTRA-LIGAND FREE ENERGY PREDICTED BY IDOCK:   -1.12 KCAL/MOL
REMARK 927      BINDING AFFINITY PREDICTED BY RF-SCORE:    0.00 PKD
ROOT
HETATM    1  C   UNL     1     -11.796   8.250  72.464  1.00  0.00    -0.439 C  
HETATM    2  C   UNL     1     -11.074   8.677  71.182  1.00  0.00    -0.324 C  
HETATM    3  C   UNL     1      -9.601   8.934  71.476  1.00  0.00    -0.362 C  
HETATM    4  C   UNL     1     -11.240   7.617  70.104  1.00  0.00    -0.180 C  
HETATM    5  O   UNL     1     -11.886   6.586  70.255  1.00  0.00    -0.413 OA 
ENDROOT
BRANCH   4   6
HETATM    6  O   UNL     1     -10.649   7.984  68.928  1.00  0.00    -0.210 OA 
BRANCH   6   7
HETATM    7  C   UNL     1     -10.048   6.881  68.232  1.00  0.00    -0.167 C  
HETATM    8  C   UNL     1     -10.968   6.441  67.093  1.00  0.00    -0.476 C  
BRANCH   7   9
HETATM    9  O   UNL     1      -8.843   7.243  67.538  1.00  0.00    -0.120 OA 
BRANCH   9  10
HETATM   10  C   UNL     1      -8.494   8.543  67.615  1.00  0.00    -0.129 C  
HETATM   11  O   UNL     1      -7.740   9.032  68.434  1.00  0.00    -0.096 OA 
HETATM   12  N   UNL     1      -9.061   9.188  66.552  1.00  0.00    -0.148 N  
HETATM   13  H   UNL     1      -9.665   8.658  65.923  1.00  0.00     0.000 HD 
BRANCH  12  14
HETATM   14  C   UNL     1      -8.840  10.593  66.282  1.00  0.00    -0.161 C  
BRANCH  14  15
HETATM   15  C   UNL     1     -10.155  11.394  65.994  1.00  0.00    -0.275 C  
HETATM   16  C   UNL     1     -11.197  11.169  67.123  1.00  0.00    -0.320 C  
HETATM   17  C   UNL     1      -9.788  12.904  65.911  1.00  0.00    -0.239 C  
HETATM   18  C   UNL     1      -9.426  13.532  67.259  1.00  0.00    -0.230 C  
HETATM   19  C   UNL     1     -10.811  11.807  68.455  1.00  0.00    -0.261 C  
HETATM   20  C   UNL     1     -10.521  13.294  68.292  1.00  0.00    -0.257 C  
BRANCH  15  21
HETATM   21  C   UNL     1     -10.731  10.914  64.629  1.00  0.00    -0.254 C  
HETATM   22  O   UNL     1      -9.115   9.636  63.357  1.00  0.00    -0.248 OA 
HETATM   23  C   UNL     1      -9.717  10.686  63.524  1.00  0.00    -0.339 C  
HETATM   24  O   UNL     1      -9.533  11.755  62.719  1.00  0.00    -0.347 OA 
ENDBRANCH  15  21
ENDBRANCH  14  15
ENDBRANCH  12  14
ENDBRANCH   9  10
ENDBRANCH   7   9
ENDBRANCH   6   7
ENDBRANCH   4   6
TORSDOF 7
ENDMDL
MODEL      160
REMARK 921   NORMALIZED FREE ENERGY PREDICTED BY IDOCK:   -3.89 KCAL/MOL
REMARK 922        TOTAL FREE ENERGY PREDICTED BY IDOCK:   -7.12 KCAL/MOL
REMARK 923 INTER-LIGAND FREE ENERGY PREDICTED BY IDOCK:   -6.44 KCAL/MOL
REMARK 924 INTRA-LIGAND FREE ENERGY PREDICTED BY IDOCK:   -0.68 KCAL/MOL
REMARK 927      BINDING AFFINITY PREDICTED BY RF-SCORE:    0.00 PKD
ROOT
HETATM    1  C   UNL     1      -8.944   5.736  72.369  1.00  0.00    -0.141 C  
HETATM    2  C   UNL     1     -10.400   6.212  72.359  1.00  0.00    -0.219 C  
HETATM    3  C   UNL     1     -11.267   5.248  73.159  1.00  0.00    -0.382 C  
HETATM    4  C   UNL     1     -10.497   7.625  72.913  1.00  0.00    -0.336 C  
HETATM    5  O   UNL     1      -9.531   8.280  73.286  1.00  0.00    -0.246 OA 
ENDROOT
BRANCH   4   6
HETATM    6  O   UNL     1     -11.777   8.103  72.877  1.00  0.00    -0.373 OA 
BRANCH   6   7
HETATM    7  C   UNL     1     -12.274   8.278  71.542  1.00  0.00    -0.301 C  
HETATM    8  C   UNL     1     -13.796   8.135  71.546  1.00  0.00    -0.389 C  
BRANCH   7   9
HETATM    9  O   UNL     1     -12.089   9.614  71.043  1.00  0.00    -0.304 OA 
BRANCH   9  10
HETATM   10  C   UNL     1     -11.050   9.783  70.202  1.00  0.00    -0.285 C  
HETATM   11  O   UNL     1     -10.347   8.900  69.750  1.00  0.00    -0.196 OA 
HETATM   12  N   UNL     1     -10.993  11.109  69.874  1.00  0.00    -0.466 N  
HETATM   13  H   UNL     1     -11.654  11.750  70.312  1.00  0.00     0.000 HD 
BRANCH  12  14
HETATM   14  C   UNL     1     -10.031  11.639  68.931  1.00  0.00    -0.066 C  
BRANCH  14  15
HETATM   15  C   UNL     1     -10.660  12.062  67.560  1.00  0.00    -0.250 C  
HETATM   16  C   UNL     1      -9.569  12.599  66.595  1.00  0.00    -0.249 C  
HETATM   17  C   UNL     1     -11.342  10.809  66.938  1.00  0.00     0.017 C  
HETATM   18  C   UNL     1     -10.357   9.755  66.425  1.00  0.00    -0.247 C  
HETATM   19  C   UNL     1      -8.602  11.526  66.099  1.00  0.00    -0.094 C  
HETATM   20  C   UNL     1      -9.350  10.363  65.458  1.00  0.00    -0.244 C  
BRANCH  15  21
HETATM   21  C   UNL     1     -11.726  13.164  67.830  1.00  0.00    -0.401 C  
HETATM   22  O   UNL     1     -12.665  14.044  65.778  1.00  0.00    -0.516 OA 
HETATM   23  C   UNL     1     -11.911  14.191  66.728  1.00  0.00    -0.425 C  
HETATM   24  O   UNL     1     -11.166  15.307  66.888  1.00  0.00    -0.322 OA 
ENDBRANCH  15  21
ENDBRANCH  14  15
ENDBRANCH  12  14
ENDBRANCH   9  10
ENDBRANCH   7   9
ENDBRANCH   6   7
ENDBRANCH   4   6
TORSDOF 7
ENDMDL
MODEL      161
REMARK 921   NORMALIZED FREE ENERGY PREDICTED BY IDOCK:   -3.89 KCAL/MOL
REMARK 922        TOTAL FREE ENERGY PREDICTED BY IDOCK:   -7.11 KCAL/MOL
REMARK 923 INTER-LIGAND FREE ENERGY PREDICTED BY IDOCK:   -6.84 KCAL/MOL
REMARK 924 INTRA-LIGAND FREE ENERGY PREDICTED BY IDOCK:   -0.27 KCAL/MOL
REMARK 927      BINDING AFFINITY PREDICTED BY RF-SCORE:    0.00 PKD
ROOT
HETATM    1  C   UNL     1     -10.853   7.088  67.177  1.00  0.00    -0.427 C  
HETATM    2  C   UNL     1      -9.865   8.254  67.277  1.00  0.00    -0.258 C  
HETATM    3  C   UNL     1      -9.339   8.369  68.702  1.00  0.00    -0.143 C  
HETATM    4  C   UNL     1      -8.727   8.068  66.286  1.00  0.00    -0.153 C  
HETATM    5  O   UNL     1      -8.646   7.122  65.510  1.00  0.00    -0.146 OA 
ENDROOT
BRANCH   4   6
HETATM    6  O   UNL     1      -7.848   9.114  66.311  1.00  0.00    -0.101 OA 
BRANCH   6   7
HETATM    7  C   UNL     1      -8.074  10.064  65.259  1.00  0.00    -0.145 C  
HETATM    8  C   UNL     1      -7.076   9.813  64.128  1.00  0.00    -0.126 C  
BRANCH   7   9
HETATM    9  O   UNL     1      -9.341   9.887  64.603  1.00  0.00    -0.249 OA 
BRANCH   9  10
HETATM   10  C   UNL     1      -9.955  11.019  64.206  1.00  0.00    -0.317 C  
HETATM   11  O   UNL     1     -10.660  11.141  63.222  1.00  0.00    -0.343 OA 
HETATM   12  N   UNL     1      -9.724  11.972  65.158  1.00  0.00    -0.391 N  
HETATM   13  H   UNL     1      -9.124  11.737  65.949  1.00  0.00     0.000 HD 
BRANCH  12  14
HETATM   14  C   UNL     1     -10.294  13.300  65.088  1.00  0.00    -0.323 C  
BRANCH  14  15
HETATM   15  C   UNL     1     -11.352  13.592  66.204  1.00  0.00    -0.325 C  
HETATM   16  C   UNL     1     -11.664  12.306  67.018  1.00  0.00    -0.399 C  
HETATM   17  C   UNL     1     -10.767  14.681  67.148  1.00  0.00    -0.292 C  
HETATM   18  C   UNL     1      -9.624  14.186  68.037  1.00  0.00    -0.218 C  
HETATM   19  C   UNL     1     -10.507  11.836  67.896  1.00  0.00    -0.219 C  
HETATM   20  C   UNL     1     -10.032  12.947  68.824  1.00  0.00    -0.010 C  
BRANCH  15  21
HETATM   21  C   UNL     1     -12.649  14.122  65.524  1.00  0.00    -0.501 C  
HETATM   22  O   UNL     1     -12.603  13.826  63.121  1.00  0.00    -0.793 OA 
HETATM   23  C   UNL     1     -12.504  14.574  64.083  1.00  0.00    -0.180 C  
HETATM   24  O   UNL     1     -12.260  15.895  63.944  1.00  0.00    -0.785 OA 
ENDBRANCH  15  21
ENDBRANCH  14  15
ENDBRANCH  12  14
ENDBRANCH   9  10
ENDBRANCH   7   9
ENDBRANCH   6   7
ENDBRANCH   4   6
TORSDOF 7
ENDMDL
MODEL      162
REMARK 921   NORMALIZED FREE ENERGY PREDICTED BY IDOCK:   -3.87 KCAL/MOL
REMARK 922        TOTAL FREE ENERGY PREDICTED BY IDOCK:   -7.08 KCAL/MOL
REMARK 923 INTER-LIGAND FREE ENERGY PREDICTED BY IDOCK:   -6.16 KCAL/MOL
REMARK 924 INTRA-LIGAND FREE ENERGY PREDICTED BY IDOCK:   -0.92 KCAL/MOL
REMARK 927      BINDING AFFINITY PREDICTED BY RF-SCORE:    0.00 PKD
ROOT
HETATM    1  C   UNL     1      -7.372   7.273  71.761  1.00  0.00    -0.080 C  
HETATM    2  C   UNL     1      -8.799   7.036  72.266  1.00  0.00    -0.143 C  
HETATM    3  C   UNL     1      -9.053   7.870  73.515  1.00  0.00    -0.346 C  
HETATM    4  C   UNL     1      -9.806   7.364  71.174  1.00  0.00    -0.174 C  
HETATM    5  O   UNL     1      -9.495   7.740  70.049  1.00  0.00    -0.161 OA 
ENDROOT
BRANCH   4   6
HETATM    6  O   UNL     1     -11.091   7.120  71.571  1.00  0.00    -0.235 OA 
BRANCH   6   7
HETATM    7  C   UNL     1     -12.025   8.095  71.084  1.00  0.00    -0.273 C  
HETATM    8  C   UNL     1     -13.438   7.701  71.513  1.00  0.00    -0.394 C  
BRANCH   7   9
HETATM    9  O   UNL     1     -11.862   9.386  71.698  1.00  0.00    -0.351 OA 
BRANCH   9  10
HETATM   10  C   UNL     1     -12.424  10.419  71.040  1.00  0.00    -0.388 C  
HETATM   11  O   UNL     1     -13.218  11.214  71.505  1.00  0.00    -0.388 OA 
HETATM   12  N   UNL     1     -11.868  10.469  69.792  1.00  0.00    -0.377 N  
HETATM   13  H   UNL     1     -11.196   9.748  69.527  1.00  0.00     0.000 HD 
BRANCH  12  14
HETATM   14  C   UNL     1     -12.193  11.502  68.833  1.00  0.00    -0.064 C  
BRANCH  14  15
HETATM   15  C   UNL     1     -11.087  11.726  67.747  1.00  0.00    -0.302 C  
HETATM   16  C   UNL     1     -11.722  12.114  66.385  1.00  0.00    -0.394 C  
HETATM   17  C   UNL     1     -10.157  12.872  68.239  1.00  0.00    -0.242 C  
HETATM   18  C   UNL     1     -10.803  14.259  68.198  1.00  0.00    -0.253 C  
HETATM   19  C   UNL     1     -12.358  13.502  66.373  1.00  0.00    -0.413 C  
HETATM   20  C   UNL     1     -11.364  14.568  66.816  1.00  0.00    -0.358 C  
BRANCH  15  21
HETATM   21  C   UNL     1     -10.270  10.408  67.601  1.00  0.00    -0.240 C  
HETATM   22  O   UNL     1      -8.307  10.702  66.215  1.00  0.00    -0.143 OA 
HETATM   23  C   UNL     1      -9.446  10.276  66.334  1.00  0.00    -0.174 C  
HETATM   24  O   UNL     1     -10.080   9.630  65.332  1.00  0.00    -0.272 OA 
ENDBRANCH  15  21
ENDBRANCH  14  15
ENDBRANCH  12  14
ENDBRANCH   9  10
ENDBRANCH   7   9
ENDBRANCH   6   7
ENDBRANCH   4   6
TORSDOF 7
ENDMDL
MODEL      163
REMARK 921   NORMALIZED FREE ENERGY PREDICTED BY IDOCK:   -3.86 KCAL/MOL
REMARK 922        TOTAL FREE ENERGY PREDICTED BY IDOCK:   -7.07 KCAL/MOL
REMARK 923 INTER-LIGAND FREE ENERGY PREDICTED BY IDOCK:   -5.82 KCAL/MOL
REMARK 924 INTRA-LIGAND FREE ENERGY PREDICTED BY IDOCK:   -1.25 KCAL/MOL
REMARK 927      BINDING AFFINITY PREDICTED BY RF-SCORE:    0.00 PKD
ROOT
HETATM    1  C   UNL     1      -8.734   6.744  65.821  1.00  0.00    -0.122 C  
HETATM    2  C   UNL     1      -9.164   7.982  66.616  1.00  0.00    -0.225 C  
HETATM    3  C   UNL     1     -10.640   7.879  66.978  1.00  0.00    -0.381 C  
HETATM    4  C   UNL     1      -8.303   8.134  67.861  1.00  0.00    -0.129 C  
HETATM    5  O   UNL     1      -7.385   7.375  68.153  1.00  0.00    -0.094 OA 
ENDROOT
BRANCH   4   6
HETATM    6  O   UNL     1      -8.625   9.255  68.573  1.00  0.00    -0.126 OA 
BRANCH   6   7
HETATM    7  C   UNL     1      -8.656   9.031  69.991  1.00  0.00    -0.151 C  
HETATM    8  C   UNL     1      -7.370   9.573  70.616  1.00  0.00    -0.133 C  
BRANCH   7   9
HETATM    9  O   UNL     1      -9.674   9.796  70.659  1.00  0.00    -0.228 OA 
BRANCH   9  10
HETATM   10  C   UNL     1     -10.744  10.123  69.908  1.00  0.00    -0.295 C  
HETATM   11  O   UNL     1     -11.805   9.528  69.881  1.00  0.00    -0.019 OA 
HETATM   12  N   UNL     1     -10.457  11.293  69.263  1.00  0.00    -0.391 N  
HETATM   13  H   UNL     1      -9.530  11.703  69.383  1.00  0.00     0.000 HD 
BRANCH  12  14
HETATM   14  C   UNL     1     -11.414  11.973  68.417  1.00  0.00    -0.301 C  
BRANCH  14  15
HETATM   15  C   UNL     1     -10.777  13.074  67.503  1.00  0.00    -0.248 C  
HETATM   16  C   UNL     1      -9.581  12.498  66.698  1.00  0.00    -0.239 C  
HETATM   17  C   UNL     1     -11.875  13.579  66.523  1.00  0.00    -0.441 C  
HETATM   18  C   UNL     1     -12.254  12.569  65.438  1.00  0.00    -0.475 C  
HETATM   19  C   UNL     1      -9.988  11.494  65.621  1.00  0.00    -0.275 C  
HETATM   20  C   UNL     1     -11.025  12.088  64.676  1.00  0.00    -0.367 C  
BRANCH  15  21
HETATM   21  C   UNL     1     -10.297  14.245  68.409  1.00  0.00    -0.247 C  
HETATM   22  O   UNL     1     -11.645  14.460  70.410  1.00  0.00    -0.270 OA 
HETATM   23  C   UNL     1     -11.356  14.873  69.297  1.00  0.00    -0.296 C  
HETATM   24  O   UNL     1     -11.960  15.951  68.752  1.00  0.00    -0.368 OA 
ENDBRANCH  15  21
ENDBRANCH  14  15
ENDBRANCH  12  14
ENDBRANCH   9  10
ENDBRANCH   7   9
ENDBRANCH   6   7
ENDBRANCH   4   6
TORSDOF 7
ENDMDL
MODEL      164
REMARK 921   NORMALIZED FREE ENERGY PREDICTED BY IDOCK:   -3.85 KCAL/MOL
REMARK 922        TOTAL FREE ENERGY PREDICTED BY IDOCK:   -7.06 KCAL/MOL
REMARK 923 INTER-LIGAND FREE ENERGY PREDICTED BY IDOCK:   -6.64 KCAL/MOL
REMARK 924 INTRA-LIGAND FREE ENERGY PREDICTED BY IDOCK:   -0.41 KCAL/MOL
REMARK 927      BINDING AFFINITY PREDICTED BY RF-SCORE:    0.00 PKD
ROOT
HETATM    1  C   UNL     1      -7.922   6.026  69.159  1.00  0.00    -0.103 C  
HETATM    2  C   UNL     1      -9.263   6.704  68.864  1.00  0.00    -0.130 C  
HETATM    3  C   UNL     1     -10.143   5.777  68.035  1.00  0.00    -0.198 C  
HETATM    4  C   UNL     1      -9.952   7.099  70.161  1.00  0.00    -0.186 C  
HETATM    5  O   UNL     1      -9.471   6.912  71.273  1.00  0.00    -0.165 OA 
ENDROOT
BRANCH   4   6
HETATM    6  O   UNL     1     -11.132   7.750  69.938  1.00  0.00    -0.230 OA 
BRANCH   6   7
HETATM    7  C   UNL     1     -11.025   9.174  70.085  1.00  0.00    -0.239 C  
HETATM    8  C   UNL     1     -11.330   9.558  71.532  1.00  0.00    -0.456 C  
BRANCH   7   9
HETATM    9  O   UNL     1      -9.682   9.658  69.910  1.00  0.00    -0.202 OA 
BRANCH   9  10
HETATM   10  C   UNL     1      -9.477  10.427  68.822  1.00  0.00    -0.175 C  
HETATM   11  O   UNL     1      -9.179  10.028  67.712  1.00  0.00    -0.134 OA 
HETATM   12  N   UNL     1      -9.759  11.719  69.167  1.00  0.00    -0.395 N  
HETATM   13  H   UNL     1     -10.015  11.922  70.134  1.00  0.00     0.000 HD 
BRANCH  12  14
HETATM   14  C   UNL     1      -9.708  12.810  68.218  1.00  0.00    -0.216 C  
BRANCH  14  15
HETATM   15  C   UNL     1     -11.114  13.397  67.856  1.00  0.00    -0.289 C  
HETATM   16  C   UNL     1     -12.022  13.467  69.114  1.00  0.00    -0.378 C  
HETATM   17  C   UNL     1     -10.903  14.827  67.280  1.00  0.00    -0.309 C  
HETATM   18  C   UNL     1     -10.482  15.863  68.324  1.00  0.00    -0.257 C  
HETATM   19  C   UNL     1     -11.579  14.510  70.138  1.00  0.00    -0.334 C  
HETATM   20  C   UNL     1     -11.449  15.888  69.501  1.00  0.00    -0.342 C  
BRANCH  15  21
HETATM   21  C   UNL     1     -11.765  12.482  66.777  1.00  0.00    -0.453 C  
HETATM   22  O   UNL     1     -11.144  13.141  64.531  1.00  0.00    -0.323 OA 
HETATM   23  C   UNL     1     -11.986  13.117  65.416  1.00  0.00    -0.406 C  
HETATM   24  O   UNL     1     -13.214  13.656  65.255  1.00  0.00    -0.724 OA 
ENDBRANCH  15  21
ENDBRANCH  14  15
ENDBRANCH  12  14
ENDBRANCH   9  10
ENDBRANCH   7   9
ENDBRANCH   6   7
ENDBRANCH   4   6
TORSDOF 7
ENDMDL
MODEL      165
REMARK 921   NORMALIZED FREE ENERGY PREDICTED BY IDOCK:   -3.84 KCAL/MOL
REMARK 922        TOTAL FREE ENERGY PREDICTED BY IDOCK:   -7.04 KCAL/MOL
REMARK 923 INTER-LIGAND FREE ENERGY PREDICTED BY IDOCK:   -5.90 KCAL/MOL
REMARK 924 INTRA-LIGAND FREE ENERGY PREDICTED BY IDOCK:   -1.14 KCAL/MOL
REMARK 927      BINDING AFFINITY PREDICTED BY RF-SCORE:    0.00 PKD
ROOT
HETATM    1  C   UNL     1     -13.459   9.574  72.282  1.00  0.00    -0.521 C  
HETATM    2  C   UNL     1     -12.827  10.321  71.103  1.00  0.00    -0.504 C  
HETATM    3  C   UNL     1     -13.013  11.822  71.279  1.00  0.00    -0.353 C  
HETATM    4  C   UNL     1     -11.355   9.961  70.979  1.00  0.00    -0.386 C  
HETATM    5  O   UNL     1     -10.782   9.166  71.716  1.00  0.00    -0.355 OA 
ENDROOT
BRANCH   4   6
HETATM    6  O   UNL     1     -10.766  10.572  69.908  1.00  0.00    -0.267 OA 
BRANCH   6   7
HETATM    7  C   UNL     1     -10.350   9.647  68.892  1.00  0.00    -0.203 C  
HETATM    8  C   UNL     1     -10.603  10.260  67.515  1.00  0.00    -0.320 C  
BRANCH   7   9
HETATM    9  O   UNL     1      -8.929   9.427  68.879  1.00  0.00    -0.132 OA 
BRANCH   9  10
HETATM   10  C   UNL     1      -8.539   8.138  68.840  1.00  0.00    -0.130 C  
HETATM   11  O   UNL     1      -7.848   7.627  67.979  1.00  0.00    -0.116 OA 
HETATM   12  N   UNL     1      -8.976   7.538  69.988  1.00  0.00    -0.144 N  
HETATM   13  H   UNL     1      -9.536   8.083  70.642  1.00  0.00     0.000 HD 
BRANCH  12  14
HETATM   14  C   UNL     1      -8.675   6.159  70.311  1.00  0.00    -0.145 C  
BRANCH  14  15
HETATM   15  C   UNL     1      -9.888   5.188  70.120  1.00  0.00    -0.300 C  
HETATM   16  C   UNL     1      -9.683   3.882  70.934  1.00  0.00    -0.253 C  
HETATM   17  C   UNL     1     -11.170   5.919  70.614  1.00  0.00    -0.284 C  
HETATM   18  C   UNL     1     -11.245   6.085  72.134  1.00  0.00    -0.341 C  
HETATM   19  C   UNL     1      -9.764   4.078  72.446  1.00  0.00    -0.210 C  
HETATM   20  C   UNL     1     -11.071   4.750  72.846  1.00  0.00    -0.301 C  
BRANCH  15  21
HETATM   21  C   UNL     1     -10.019   4.859  68.604  1.00  0.00    -0.195 C  
HETATM   22  O   UNL     1      -9.442   2.557  68.119  1.00  0.00    -0.211 OA 
HETATM   23  C   UNL     1      -9.133   3.739  68.090  1.00  0.00    -0.144 C  
HETATM   24  O   UNL     1      -7.955   4.161  67.581  1.00  0.00    -0.090 OA 
ENDBRANCH  15  21
ENDBRANCH  14  15
ENDBRANCH  12  14
ENDBRANCH   9  10
ENDBRANCH   7   9
ENDBRANCH   6   7
ENDBRANCH   4   6
TORSDOF 7
ENDMDL
MODEL      166
REMARK 921   NORMALIZED FREE ENERGY PREDICTED BY IDOCK:   -3.84 KCAL/MOL
REMARK 922        TOTAL FREE ENERGY PREDICTED BY IDOCK:   -7.04 KCAL/MOL
REMARK 923 INTER-LIGAND FREE ENERGY PREDICTED BY IDOCK:   -6.04 KCAL/MOL
REMARK 924 INTRA-LIGAND FREE ENERGY PREDICTED BY IDOCK:   -1.00 KCAL/MOL
REMARK 927      BINDING AFFINITY PREDICTED BY RF-SCORE:    0.00 PKD
ROOT
HETATM    1  C   UNL     1      -8.837   8.077  73.753  1.00  0.00    -0.313 C  
HETATM    2  C   UNL     1      -9.387   6.887  72.960  1.00  0.00    -0.162 C  
HETATM    3  C   UNL     1      -9.440   5.651  73.849  1.00  0.00    -0.137 C  
HETATM    4  C   UNL     1     -10.761   7.217  72.398  1.00  0.00    -0.241 C  
HETATM    5  O   UNL     1     -11.319   8.298  72.550  1.00  0.00    -0.375 OA 
ENDROOT
BRANCH   4   6
HETATM    6  O   UNL     1     -11.265   6.195  71.643  1.00  0.00    -0.269 OA 
BRANCH   6   7
HETATM    7  C   UNL     1     -10.617   6.063  70.370  1.00  0.00    -0.268 C  
HETATM    8  C   UNL     1     -10.010   4.665  70.253  1.00  0.00    -0.309 C  
BRANCH   7   9
HETATM    9  O   UNL     1     -11.536   6.098  69.264  1.00  0.00    -0.404 OA 
BRANCH   9  10
HETATM   10  C   UNL     1     -11.133   6.811  68.194  1.00  0.00    -0.144 C  
HETATM   11  O   UNL     1     -11.051   6.399  67.052  1.00  0.00    -0.384 OA 
HETATM   12  N   UNL     1     -10.932   8.098  68.605  1.00  0.00    -0.415 N  
HETATM   13  H   UNL     1     -11.051   8.320  69.594  1.00  0.00     0.000 HD 
BRANCH  12  14
HETATM   14  C   UNL     1     -10.555   9.159  67.695  1.00  0.00    -0.242 C  
BRANCH  14  15
HETATM   15  C   UNL     1      -9.823  10.356  68.390  1.00  0.00    -0.173 C  
HETATM   16  C   UNL     1      -9.907  11.636  67.517  1.00  0.00    -0.199 C  
HETATM   17  C   UNL     1     -10.513  10.609  69.762  1.00  0.00    -0.189 C  
HETATM   18  C   UNL     1     -11.909  11.226  69.652  1.00  0.00    -0.430 C  
HETATM   19  C   UNL     1     -11.311  12.231  67.426  1.00  0.00    -0.389 C  
HETATM   20  C   UNL     1     -11.888  12.496  68.811  1.00  0.00    -0.347 C  
BRANCH  15  21
HETATM   21  C   UNL     1      -8.334   9.957  68.613  1.00  0.00    -0.110 C  
HETATM   22  O   UNL     1      -8.122   7.798  69.691  1.00  0.00    -0.117 OA 
HETATM   23  C   UNL     1      -8.066   9.016  69.773  1.00  0.00    -0.109 C  
HETATM   24  O   UNL     1      -7.748   9.645  70.926  1.00  0.00    -0.314 OA 
ENDBRANCH  15  21
ENDBRANCH  14  15
ENDBRANCH  12  14
ENDBRANCH   9  10
ENDBRANCH   7   9
ENDBRANCH   6   7
ENDBRANCH   4   6
TORSDOF 7
ENDMDL
MODEL      167
REMARK 921   NORMALIZED FREE ENERGY PREDICTED BY IDOCK:   -3.84 KCAL/MOL
REMARK 922        TOTAL FREE ENERGY PREDICTED BY IDOCK:   -7.04 KCAL/MOL
REMARK 923 INTER-LIGAND FREE ENERGY PREDICTED BY IDOCK:   -6.19 KCAL/MOL
REMARK 924 INTRA-LIGAND FREE ENERGY PREDICTED BY IDOCK:   -0.85 KCAL/MOL
REMARK 927      BINDING AFFINITY PREDICTED BY RF-SCORE:    0.00 PKD
ROOT
HETATM    1  C   UNL     1      -6.677   5.689  66.457  1.00  0.00    -0.058 C  
HETATM    2  C   UNL     1      -7.928   6.433  65.979  1.00  0.00    -0.115 C  
HETATM    3  C   UNL     1      -8.642   5.615  64.910  1.00  0.00    -0.086 C  
HETATM    4  C   UNL     1      -8.849   6.724  67.153  1.00  0.00    -0.119 C  
HETATM    5  O   UNL     1      -8.595   6.419  68.312  1.00  0.00    -0.115 OA 
ENDROOT
BRANCH   4   6
HETATM    6  O   UNL     1      -9.956   7.430  66.773  1.00  0.00    -0.217 OA 
BRANCH   6   7
HETATM    7  C   UNL     1      -9.807   8.847  66.947  1.00  0.00    -0.223 C  
HETATM    8  C   UNL     1      -9.642   9.511  65.580  1.00  0.00    -0.346 C  
BRANCH   7   9
HETATM    9  O   UNL     1     -10.994   9.478  67.459  1.00  0.00    -0.241 OA 
BRANCH   9  10
HETATM   10  C   UNL     1     -10.792  10.598  68.182  1.00  0.00    -0.245 C  
HETATM   11  O   UNL     1      -9.996  10.726  69.092  1.00  0.00    -0.208 OA 
HETATM   12  N   UNL     1     -11.571  11.584  67.644  1.00  0.00    -0.275 N  
HETATM   13  H   UNL     1     -12.189  11.351  66.866  1.00  0.00     0.000 HD 
BRANCH  12  14
HETATM   14  C   UNL     1     -11.555  12.946  68.134  1.00  0.00    -0.336 C  
BRANCH  14  15
HETATM   15  C   UNL     1     -11.422  14.021  67.003  1.00  0.00    -0.370 C  
HETATM   16  C   UNL     1     -11.138  15.424  67.606  1.00  0.00    -0.316 C  
HETATM   17  C   UNL     1     -10.246  13.600  66.076  1.00  0.00    -0.312 C  
HETATM   18  C   UNL     1      -8.863  13.762  66.712  1.00  0.00    -0.156 C  
HETATM   19  C   UNL     1      -9.752  15.557  68.233  1.00  0.00    -0.201 C  
HETATM   20  C   UNL     1      -8.660  15.176  67.241  1.00  0.00    -0.218 C  
BRANCH  15  21
HETATM   21  C   UNL     1     -12.751  14.046  66.193  1.00  0.00    -0.309 C  
HETATM   22  O   UNL     1     -12.871  12.240  64.584  1.00  0.00    -0.665 OA 
HETATM   23  C   UNL     1     -12.695  13.429  64.808  1.00  0.00    -0.250 C  
HETATM   24  O   UNL     1     -12.437  14.315  63.822  1.00  0.00    -0.810 OA 
ENDBRANCH  15  21
ENDBRANCH  14  15
ENDBRANCH  12  14
ENDBRANCH   9  10
ENDBRANCH   7   9
ENDBRANCH   6   7
ENDBRANCH   4   6
TORSDOF 7
ENDMDL
MODEL      168
REMARK 921   NORMALIZED FREE ENERGY PREDICTED BY IDOCK:   -3.83 KCAL/MOL
REMARK 922        TOTAL FREE ENERGY PREDICTED BY IDOCK:   -7.03 KCAL/MOL
REMARK 923 INTER-LIGAND FREE ENERGY PREDICTED BY IDOCK:   -6.16 KCAL/MOL
REMARK 924 INTRA-LIGAND FREE ENERGY PREDICTED BY IDOCK:   -0.87 KCAL/MOL
REMARK 927      BINDING AFFINITY PREDICTED BY RF-SCORE:    0.00 PKD
ROOT
HETATM    1  C   UNL     1      -6.101  20.463  65.181  1.00  0.00    -0.288 C  
HETATM    2  C   UNL     1      -7.143  19.382  65.489  1.00  0.00    -0.238 C  
HETATM    3  C   UNL     1      -6.479  18.011  65.506  1.00  0.00    -0.187 C  
HETATM    4  C   UNL     1      -7.831  19.674  66.813  1.00  0.00    -0.282 C  
HETATM    5  O   UNL     1      -7.588  20.655  67.507  1.00  0.00    -0.328 OA 
ENDROOT
BRANCH   4   6
HETATM    6  O   UNL     1      -8.802  18.756  67.099  1.00  0.00    -0.270 OA 
BRANCH   6   7
HETATM    7  C   UNL     1     -10.106  19.341  67.240  1.00  0.00    -0.384 C  
HETATM    8  C   UNL     1     -10.582  19.848  65.879  1.00  0.00    -0.523 C  
BRANCH   7   9
HETATM    9  O   UNL     1     -11.119  18.381  67.587  1.00  0.00    -0.243 OA 
BRANCH   9  10
HETATM   10  C   UNL     1     -10.714  17.366  68.376  1.00  0.00    -0.301 C  
HETATM   11  O   UNL     1     -10.412  17.453  69.551  1.00  0.00    -0.248 OA 
HETATM   12  N   UNL     1     -10.799  16.214  67.646  1.00  0.00    -0.317 N  
HETATM   13  H   UNL     1     -11.083  16.274  66.669  1.00  0.00     0.000 HD 
BRANCH  12  14
HETATM   14  C   UNL     1     -10.502  14.912  68.205  1.00  0.00    -0.239 C  
BRANCH  14  15
HETATM   15  C   UNL     1      -9.779  13.947  67.206  1.00  0.00    -0.245 C  
HETATM   16  C   UNL     1      -8.736  14.718  66.352  1.00  0.00    -0.062 C  
HETATM   17  C   UNL     1      -9.065  12.843  68.038  1.00  0.00    -0.211 C  
HETATM   18  C   UNL     1      -7.838  13.338  68.807  1.00  0.00     0.008 C  
HETATM   19  C   UNL     1      -7.523  15.199  67.146  1.00  0.00    -0.176 C  
HETATM   20  C   UNL     1      -6.855  14.047  67.885  1.00  0.00    -0.172 C  
BRANCH  15  21
HETATM   21  C   UNL     1     -10.854  13.302  66.283  1.00  0.00    -0.293 C  
HETATM   22  O   UNL     1     -11.964  11.431  67.348  1.00  0.00    -0.606 OA 
HETATM   23  C   UNL     1     -11.148  11.834  66.533  1.00  0.00    -0.310 C  
HETATM   24  O   UNL     1     -10.426  10.992  65.762  1.00  0.00    -0.249 OA 
ENDBRANCH  15  21
ENDBRANCH  14  15
ENDBRANCH  12  14
ENDBRANCH   9  10
ENDBRANCH   7   9
ENDBRANCH   6   7
ENDBRANCH   4   6
TORSDOF 7
ENDMDL
MODEL      169
REMARK 921   NORMALIZED FREE ENERGY PREDICTED BY IDOCK:   -3.83 KCAL/MOL
REMARK 922        TOTAL FREE ENERGY PREDICTED BY IDOCK:   -7.03 KCAL/MOL
REMARK 923 INTER-LIGAND FREE ENERGY PREDICTED BY IDOCK:   -5.88 KCAL/MOL
REMARK 924 INTRA-LIGAND FREE ENERGY PREDICTED BY IDOCK:   -1.15 KCAL/MOL
REMARK 927      BINDING AFFINITY PREDICTED BY RF-SCORE:    0.00 PKD
ROOT
HETATM    1  C   UNL     1     -12.764  13.577  64.917  1.00  0.00    -0.342 C  
HETATM    2  C   UNL     1     -11.750  12.441  65.087  1.00  0.00    -0.430 C  
HETATM    3  C   UNL     1     -10.425  12.827  64.443  1.00  0.00    -0.410 C  
HETATM    4  C   UNL     1     -11.568  12.112  66.560  1.00  0.00    -0.359 C  
HETATM    5  O   UNL     1     -12.176  12.673  67.465  1.00  0.00    -0.389 OA 
ENDROOT
BRANCH   4   6
HETATM    6  O   UNL     1     -10.706  11.069  66.750  1.00  0.00    -0.256 OA 
BRANCH   6   7
HETATM    7  C   UNL     1     -10.753  10.534  68.081  1.00  0.00    -0.233 C  
HETATM    8  C   UNL     1     -10.577   9.017  68.024  1.00  0.00    -0.242 C  
BRANCH   7   9
HETATM    9  O   UNL     1      -9.641  10.947  68.894  1.00  0.00    -0.192 OA 
BRANCH   9  10
HETATM   10  C   UNL     1      -8.662  11.612  68.247  1.00  0.00    -0.163 C  
HETATM   11  O   UNL     1      -7.649  11.120  67.788  1.00  0.00    -0.095 OA 
HETATM   12  N   UNL     1      -9.060  12.913  68.118  1.00  0.00    -0.205 N  
HETATM   13  H   UNL     1      -9.946  13.197  68.536  1.00  0.00     0.000 HD 
BRANCH  12  14
HETATM   14  C   UNL     1      -8.276  13.902  67.410  1.00  0.00    -0.187 C  
BRANCH  14  15
HETATM   15  C   UNL     1      -8.752  15.374  67.651  1.00  0.00    -0.174 C  
HETATM   16  C   UNL     1      -8.476  15.811  69.115  1.00  0.00    -0.251 C  
HETATM   17  C   UNL     1      -7.972  16.297  66.671  1.00  0.00    -0.324 C  
HETATM   18  C   UNL     1      -6.494  16.473  67.025  1.00  0.00    -0.221 C  
HETATM   19  C   UNL     1      -6.993  15.979  69.439  1.00  0.00    -0.216 C  
HETATM   20  C   UNL     1      -6.321  16.938  68.465  1.00  0.00    -0.152 C  
BRANCH  15  21
HETATM   21  C   UNL     1     -10.278  15.451  67.348  1.00  0.00    -0.249 C  
HETATM   22  O   UNL     1     -10.743  16.704  65.329  1.00  0.00    -0.550 OA 
HETATM   23  C   UNL     1     -10.735  16.658  66.550  1.00  0.00    -0.127 C  
HETATM   24  O   UNL     1     -11.149  17.694  67.311  1.00  0.00    -0.111 OA 
ENDBRANCH  15  21
ENDBRANCH  14  15
ENDBRANCH  12  14
ENDBRANCH   9  10
ENDBRANCH   7   9
ENDBRANCH   6   7
ENDBRANCH   4   6
TORSDOF 7
ENDMDL
MODEL      170
REMARK 921   NORMALIZED FREE ENERGY PREDICTED BY IDOCK:   -3.83 KCAL/MOL
REMARK 922        TOTAL FREE ENERGY PREDICTED BY IDOCK:   -7.02 KCAL/MOL
REMARK 923 INTER-LIGAND FREE ENERGY PREDICTED BY IDOCK:   -5.94 KCAL/MOL
REMARK 924 INTRA-LIGAND FREE ENERGY PREDICTED BY IDOCK:   -1.08 KCAL/MOL
REMARK 927      BINDING AFFINITY PREDICTED BY RF-SCORE:    0.00 PKD
ROOT
HETATM    1  C   UNL     1     -10.404   7.249  67.314  1.00  0.00    -0.349 C  
HETATM    2  C   UNL     1     -10.053   8.613  66.713  1.00  0.00    -0.366 C  
HETATM    3  C   UNL     1     -10.892   9.702  67.370  1.00  0.00    -0.242 C  
HETATM    4  C   UNL     1      -8.567   8.894  66.873  1.00  0.00    -0.115 C  
HETATM    5  O   UNL     1      -7.777   8.114  67.392  1.00  0.00    -0.099 OA 
ENDROOT
BRANCH   4   6
HETATM    6  O   UNL     1      -8.206  10.084  66.306  1.00  0.00    -0.120 OA 
BRANCH   6   7
HETATM    7  C   UNL     1      -6.786  10.223  66.147  1.00  0.00    -0.110 C  
HETATM    8  C   UNL     1      -6.427  10.092  64.667  1.00  0.00    -0.125 C  
BRANCH   7   9
HETATM    9  O   UNL     1      -6.310  11.542  66.467  1.00  0.00    -0.131 OA 
BRANCH   9  10
HETATM   10  C   UNL     1      -7.072  12.242  67.332  1.00  0.00    -0.151 C  
HETATM   11  O   UNL     1      -6.865  12.369  68.524  1.00  0.00    -0.070 OA 
HETATM   12  N   UNL     1      -8.056  12.859  66.612  1.00  0.00    -0.386 N  
HETATM   13  H   UNL     1      -8.113  12.682  65.609  1.00  0.00     0.000 HD 
BRANCH  12  14
HETATM   14  C   UNL     1      -9.022  13.752  67.216  1.00  0.00    -0.224 C  
BRANCH  14  15
HETATM   15  C   UNL     1      -9.820  14.612  66.179  1.00  0.00    -0.334 C  
HETATM   16  C   UNL     1     -10.091  13.801  64.883  1.00  0.00    -0.297 C  
HETATM   17  C   UNL     1     -11.170  15.023  66.835  1.00  0.00    -0.323 C  
HETATM   18  C   UNL     1     -12.163  13.869  66.990  1.00  0.00    -0.392 C  
HETATM   19  C   UNL     1     -11.087  12.658  65.067  1.00  0.00    -0.326 C  
HETATM   20  C   UNL     1     -12.397  13.157  65.664  1.00  0.00    -0.519 C  
BRANCH  15  21
HETATM   21  C   UNL     1      -8.983  15.883  65.850  1.00  0.00    -0.251 C  
HETATM   22  O   UNL     1      -9.444  17.699  67.385  1.00  0.00    -0.251 OA 
HETATM   23  C   UNL     1      -9.592  17.206  66.276  1.00  0.00    -0.252 C  
HETATM   24  O   UNL     1     -10.319  17.812  65.312  1.00  0.00    -0.512 OA 
ENDBRANCH  15  21
ENDBRANCH  14  15
ENDBRANCH  12  14
ENDBRANCH   9  10
ENDBRANCH   7   9
ENDBRANCH   6   7
ENDBRANCH   4   6
TORSDOF 7
ENDMDL
MODEL      171
REMARK 921   NORMALIZED FREE ENERGY PREDICTED BY IDOCK:   -3.79 KCAL/MOL
REMARK 922        TOTAL FREE ENERGY PREDICTED BY IDOCK:   -6.97 KCAL/MOL
REMARK 923 INTER-LIGAND FREE ENERGY PREDICTED BY IDOCK:   -6.88 KCAL/MOL
REMARK 924 INTRA-LIGAND FREE ENERGY PREDICTED BY IDOCK:   -0.09 KCAL/MOL
REMARK 927      BINDING AFFINITY PREDICTED BY RF-SCORE:    0.00 PKD
ROOT
HETATM    1  C   UNL     1      -6.387  20.407  68.138  1.00  0.00    -0.328 C  
HETATM    2  C   UNL     1      -6.697  19.137  67.340  1.00  0.00    -0.211 C  
HETATM    3  C   UNL     1      -6.422  17.906  68.194  1.00  0.00    -0.189 C  
HETATM    4  C   UNL     1      -8.139  19.157  66.855  1.00  0.00    -0.263 C  
HETATM    5  O   UNL     1      -8.917  20.081  67.065  1.00  0.00    -0.321 OA 
ENDROOT
BRANCH   4   6
HETATM    6  O   UNL     1      -8.440  18.060  66.097  1.00  0.00    -0.448 OA 
BRANCH   6   7
HETATM    7  C   UNL     1      -9.700  17.466  66.444  1.00  0.00    -0.290 C  
HETATM    8  C   UNL     1      -9.926  16.222  65.585  1.00  0.00    -0.306 C  
BRANCH   7   9
HETATM    9  O   UNL     1      -9.721  16.931  67.779  1.00  0.00    -0.242 OA 
BRANCH   9  10
HETATM   10  C   UNL     1      -9.434  15.618  67.885  1.00  0.00    -0.204 C  
HETATM   11  O   UNL     1      -8.325  15.124  67.825  1.00  0.00    -0.140 OA 
HETATM   12  N   UNL     1     -10.598  14.961  68.169  1.00  0.00    -0.241 N  
HETATM   13  H   UNL     1     -11.465  15.496  68.208  1.00  0.00     0.000 HD 
BRANCH  12  14
HETATM   14  C   UNL     1     -10.649  13.536  68.416  1.00  0.00    -0.248 C  
BRANCH  14  15
HETATM   15  C   UNL     1     -11.249  12.711  67.227  1.00  0.00    -0.346 C  
HETATM   16  C   UNL     1     -10.185  12.487  66.119  1.00  0.00    -0.269 C  
HETATM   17  C   UNL     1     -11.722  11.338  67.786  1.00  0.00    -0.254 C  
HETATM   18  C   UNL     1     -10.579  10.394  68.168  1.00  0.00    -0.246 C  
HETATM   19  C   UNL     1      -9.057  11.541  66.527  1.00  0.00    -0.199 C  
HETATM   20  C   UNL     1      -9.607  10.205  67.011  1.00  0.00    -0.209 C  
BRANCH  15  21
HETATM   21  C   UNL     1     -12.465  13.494  66.651  1.00  0.00    -0.263 C  
HETATM   22  O   UNL     1     -13.316  12.489  64.619  1.00  0.00    -0.804 OA 
HETATM   23  C   UNL     1     -12.676  13.383  65.153  1.00  0.00    -0.399 C  
HETATM   24  O   UNL     1     -12.095  14.374  64.442  1.00  0.00    -0.460 OA 
ENDBRANCH  15  21
ENDBRANCH  14  15
ENDBRANCH  12  14
ENDBRANCH   9  10
ENDBRANCH   7   9
ENDBRANCH   6   7
ENDBRANCH   4   6
TORSDOF 7
ENDMDL
MODEL      172
REMARK 921   NORMALIZED FREE ENERGY PREDICTED BY IDOCK:   -3.77 KCAL/MOL
REMARK 922        TOTAL FREE ENERGY PREDICTED BY IDOCK:   -6.95 KCAL/MOL
REMARK 923 INTER-LIGAND FREE ENERGY PREDICTED BY IDOCK:   -5.94 KCAL/MOL
REMARK 924 INTRA-LIGAND FREE ENERGY PREDICTED BY IDOCK:   -1.00 KCAL/MOL
REMARK 927      BINDING AFFINITY PREDICTED BY RF-SCORE:    0.00 PKD
ROOT
HETATM    1  C   UNL     1      -6.347  20.351  65.445  1.00  0.00    -0.290 C  
HETATM    2  C   UNL     1      -7.251  19.150  65.740  1.00  0.00    -0.277 C  
HETATM    3  C   UNL     1      -6.438  17.863  65.687  1.00  0.00    -0.209 C  
HETATM    4  C   UNL     1      -7.926  19.317  67.092  1.00  0.00    -0.264 C  
HETATM    5  O   UNL     1      -7.772  20.295  67.816  1.00  0.00    -0.295 OA 
ENDROOT
BRANCH   4   6
HETATM    6  O   UNL     1      -8.779  18.286  67.371  1.00  0.00    -0.252 OA 
BRANCH   6   7
HETATM    7  C   UNL     1     -10.119  18.723  67.644  1.00  0.00    -0.367 C  
HETATM    8  C   UNL     1     -10.690  19.409  66.403  1.00  0.00    -0.509 C  
BRANCH   7   9
HETATM    9  O   UNL     1     -11.035  17.634  67.847  1.00  0.00    -0.316 OA 
BRANCH   9  10
HETATM   10  C   UNL     1     -10.607  16.658  68.674  1.00  0.00    -0.337 C  
HETATM   11  O   UNL     1     -10.545  16.727  69.886  1.00  0.00    -0.250 OA 
HETATM   12  N   UNL     1     -10.350  15.553  67.912  1.00  0.00    -0.246 N  
HETATM   13  H   UNL     1     -10.457  15.620  66.900  1.00  0.00     0.000 HD 
BRANCH  12  14
HETATM   14  C   UNL     1      -9.933  14.291  68.484  1.00  0.00    -0.235 C  
BRANCH  14  15
HETATM   15  C   UNL     1      -9.248  13.328  67.456  1.00  0.00    -0.213 C  
HETATM   16  C   UNL     1      -9.372  11.851  67.917  1.00  0.00    -0.187 C  
HETATM   17  C   UNL     1      -9.957  13.511  66.083  1.00  0.00    -0.310 C  
HETATM   18  C   UNL     1     -11.374  12.934  66.031  1.00  0.00    -0.354 C  
HETATM   19  C   UNL     1     -10.795  11.301  67.855  1.00  0.00    -0.278 C  
HETATM   20  C   UNL     1     -11.392  11.473  66.463  1.00  0.00    -0.263 C  
BRANCH  15  21
HETATM   21  C   UNL     1      -7.748  13.727  67.334  1.00  0.00    -0.158 C  
HETATM   22  O   UNL     1      -6.546  13.395  69.410  1.00  0.00    -0.108 OA 
HETATM   23  C   UNL     1      -7.072  14.165  68.621  1.00  0.00    -0.110 C  
HETATM   24  O   UNL     1      -7.092  15.500  68.823  1.00  0.00    -0.113 OA 
ENDBRANCH  15  21
ENDBRANCH  14  15
ENDBRANCH  12  14
ENDBRANCH   9  10
ENDBRANCH   7   9
ENDBRANCH   6   7
ENDBRANCH   4   6
TORSDOF 7
ENDMDL
MODEL      173
REMARK 921   NORMALIZED FREE ENERGY PREDICTED BY IDOCK:   -3.77 KCAL/MOL
REMARK 922        TOTAL FREE ENERGY PREDICTED BY IDOCK:   -6.94 KCAL/MOL
REMARK 923 INTER-LIGAND FREE ENERGY PREDICTED BY IDOCK:   -7.26 KCAL/MOL
REMARK 924 INTRA-LIGAND FREE ENERGY PREDICTED BY IDOCK:    0.32 KCAL/MOL
REMARK 927      BINDING AFFINITY PREDICTED BY RF-SCORE:    0.00 PKD
ROOT
HETATM    1  C   UNL     1      -5.755  20.689  68.922  1.00  0.00    -0.388 C  
HETATM    2  C   UNL     1      -6.542  20.486  67.623  1.00  0.00    -0.336 C  
HETATM    3  C   UNL     1      -5.704  19.696  66.626  1.00  0.00    -0.168 C  
HETATM    4  C   UNL     1      -7.860  19.782  67.909  1.00  0.00    -0.293 C  
HETATM    5  O   UNL     1      -8.230  19.456  69.032  1.00  0.00    -0.346 OA 
ENDROOT
BRANCH   4   6
HETATM    6  O   UNL     1      -8.613  19.625  66.780  1.00  0.00    -0.290 OA 
BRANCH   6   7
HETATM    7  C   UNL     1      -9.922  19.098  67.045  1.00  0.00    -0.347 C  
HETATM    8  C   UNL     1     -10.745  19.115  65.757  1.00  0.00    -0.388 C  
BRANCH   7   9
HETATM    9  O   UNL     1      -9.907  17.702  67.388  1.00  0.00    -0.288 OA 
BRANCH   9  10
HETATM   10  C   UNL     1      -9.393  16.878  66.453  1.00  0.00    -0.276 C  
HETATM   11  O   UNL     1      -8.462  17.131  65.713  1.00  0.00    -0.522 OA 
HETATM   12  N   UNL     1     -10.041  15.679  66.556  1.00  0.00    -0.270 N  
HETATM   13  H   UNL     1     -10.799  15.589  67.233  1.00  0.00     0.000 HD 
BRANCH  12  14
HETATM   14  C   UNL     1      -9.695  14.532  65.743  1.00  0.00    -0.274 C  
BRANCH  14  15
HETATM   15  C   UNL     1     -10.411  13.210  66.180  1.00  0.00    -0.287 C  
HETATM   16  C   UNL     1     -11.896  13.481  66.544  1.00  0.00    -0.441 C  
HETATM   17  C   UNL     1     -10.335  12.208  64.992  1.00  0.00    -0.320 C  
HETATM   18  C   UNL     1     -11.234  12.576  63.809  1.00  0.00    -0.524 C  
HETATM   19  C   UNL     1     -12.769  13.845  65.345  1.00  0.00    -0.525 C  
HETATM   20  C   UNL     1     -12.676  12.785  64.254  1.00  0.00    -0.338 C  
BRANCH  15  21
HETATM   21  C   UNL     1      -9.656  12.629  67.412  1.00  0.00    -0.194 C  
HETATM   22  O   UNL     1      -7.443  11.835  66.831  1.00  0.00    -0.145 OA 
HETATM   23  C   UNL     1      -8.605  11.577  67.109  1.00  0.00    -0.155 C  
HETATM   24  O   UNL     1      -9.062  10.308  67.179  1.00  0.00    -0.141 OA 
ENDBRANCH  15  21
ENDBRANCH  14  15
ENDBRANCH  12  14
ENDBRANCH   9  10
ENDBRANCH   7   9
ENDBRANCH   6   7
ENDBRANCH   4   6
TORSDOF 7
ENDMDL
MODEL      174
REMARK 921   NORMALIZED FREE ENERGY PREDICTED BY IDOCK:   -3.75 KCAL/MOL
REMARK 922        TOTAL FREE ENERGY PREDICTED BY IDOCK:   -6.92 KCAL/MOL
REMARK 923 INTER-LIGAND FREE ENERGY PREDICTED BY IDOCK:   -6.37 KCAL/MOL
REMARK 924 INTRA-LIGAND FREE ENERGY PREDICTED BY IDOCK:   -0.55 KCAL/MOL
REMARK 927      BINDING AFFINITY PREDICTED BY RF-SCORE:    0.00 PKD
ROOT
HETATM    1  C   UNL     1     -12.830   8.311  71.668  1.00  0.00    -0.350 C  
HETATM    2  C   UNL     1     -11.380   8.443  71.190  1.00  0.00    -0.310 C  
HETATM    3  C   UNL     1     -10.430   8.333  72.375  1.00  0.00    -0.404 C  
HETATM    4  C   UNL     1     -11.073   7.385  70.141  1.00  0.00    -0.246 C  
HETATM    5  O   UNL     1     -11.892   6.569  69.734  1.00  0.00    -0.345 OA 
ENDROOT
BRANCH   4   6
HETATM    6  O   UNL     1      -9.801   7.500  69.654  1.00  0.00    -0.177 OA 
BRANCH   6   7
HETATM    7  C   UNL     1      -9.749   8.103  68.353  1.00  0.00    -0.161 C  
HETATM    8  C   UNL     1     -10.372   7.153  67.330  1.00  0.00    -0.342 C  
BRANCH   7   9
HETATM    9  O   UNL     1     -10.580   9.271  68.240  1.00  0.00    -0.216 OA 
BRANCH   9  10
HETATM   10  C   UNL     1     -10.004  10.343  67.662  1.00  0.00    -0.174 C  
HETATM   11  O   UNL     1      -8.813  10.493  67.463  1.00  0.00    -0.131 OA 
HETATM   12  N   UNL     1     -11.003  11.182  67.254  1.00  0.00    -0.280 N  
HETATM   13  H   UNL     1     -11.969  10.933  67.469  1.00  0.00     0.000 HD 
BRANCH  12  14
HETATM   14  C   UNL     1     -10.746  12.408  66.530  1.00  0.00    -0.236 C  
BRANCH  14  15
HETATM   15  C   UNL     1     -10.941  13.701  67.391  1.00  0.00    -0.289 C  
HETATM   16  C   UNL     1      -9.664  14.013  68.216  1.00  0.00    -0.225 C  
HETATM   17  C   UNL     1     -11.242  14.882  66.423  1.00  0.00    -0.331 C  
HETATM   18  C   UNL     1     -10.035  15.334  65.599  1.00  0.00    -0.397 C  
HETATM   19  C   UNL     1      -8.476  14.462  67.368  1.00  0.00    -0.216 C  
HETATM   20  C   UNL     1      -8.843  15.653  66.492  1.00  0.00    -0.345 C  
BRANCH  15  21
HETATM   21  C   UNL     1     -12.153  13.477  68.344  1.00  0.00    -0.293 C  
HETATM   22  O   UNL     1     -11.701  14.260  70.591  1.00  0.00    -0.285 OA 
HETATM   23  C   UNL     1     -11.818  13.322  69.816  1.00  0.00    -0.325 C  
HETATM   24  O   UNL     1     -11.665  12.040  70.211  1.00  0.00    -0.292 OA 
ENDBRANCH  15  21
ENDBRANCH  14  15
ENDBRANCH  12  14
ENDBRANCH   9  10
ENDBRANCH   7   9
ENDBRANCH   6   7
ENDBRANCH   4   6
TORSDOF 7
ENDMDL
MODEL      175
REMARK 921   NORMALIZED FREE ENERGY PREDICTED BY IDOCK:   -3.75 KCAL/MOL
REMARK 922        TOTAL FREE ENERGY PREDICTED BY IDOCK:   -6.92 KCAL/MOL
REMARK 923 INTER-LIGAND FREE ENERGY PREDICTED BY IDOCK:   -5.48 KCAL/MOL
REMARK 924 INTRA-LIGAND FREE ENERGY PREDICTED BY IDOCK:   -1.44 KCAL/MOL
REMARK 927      BINDING AFFINITY PREDICTED BY RF-SCORE:    0.00 PKD
ROOT
HETATM    1  C   UNL     1     -11.851  13.520  69.374  1.00  0.00    -0.389 C  
HETATM    2  C   UNL     1     -11.047  12.794  68.290  1.00  0.00    -0.288 C  
HETATM    3  C   UNL     1     -11.879  12.670  67.021  1.00  0.00    -0.415 C  
HETATM    4  C   UNL     1      -9.742  13.527  68.021  1.00  0.00    -0.228 C  
HETATM    5  O   UNL     1      -9.393  14.540  68.616  1.00  0.00    -0.199 OA 
ENDROOT
BRANCH   4   6
HETATM    6  O   UNL     1      -8.974  12.883  67.092  1.00  0.00    -0.203 OA 
BRANCH   6   7
HETATM    7  C   UNL     1      -8.499  11.605  67.543  1.00  0.00    -0.150 C  
HETATM    8  C   UNL     1      -7.557  11.016  66.493  1.00  0.00    -0.146 C  
BRANCH   7   9
HETATM    9  O   UNL     1      -7.655  11.697  68.704  1.00  0.00    -0.123 OA 
BRANCH   9  10
HETATM   10  C   UNL     1      -7.683  10.633  69.531  1.00  0.00    -0.106 C  
HETATM   11  O   UNL     1      -6.716  10.097  70.037  1.00  0.00    -0.092 OA 
HETATM   12  N   UNL     1      -8.994  10.330  69.772  1.00  0.00    -0.391 N  
HETATM   13  H   UNL     1      -9.716  10.869  69.295  1.00  0.00     0.000 HD 
BRANCH  12  14
HETATM   14  C   UNL     1      -9.398   9.275  70.677  1.00  0.00    -0.270 C  
BRANCH  14  15
HETATM   15  C   UNL     1     -10.703   8.532  70.236  1.00  0.00    -0.242 C  
HETATM   16  C   UNL     1     -11.028   7.365  71.208  1.00  0.00    -0.263 C  
HETATM   17  C   UNL     1     -11.869   9.563  70.245  1.00  0.00    -0.109 C  
HETATM   18  C   UNL     1     -12.310   9.992  71.647  1.00  0.00    -0.486 C  
HETATM   19  C   UNL     1     -11.466   7.822  72.597  1.00  0.00    -0.430 C  
HETATM   20  C   UNL     1     -12.643   8.785  72.516  1.00  0.00    -0.375 C  
BRANCH  15  21
HETATM   21  C   UNL     1     -10.492   7.985  68.794  1.00  0.00    -0.196 C  
HETATM   22  O   UNL     1      -9.481   5.785  68.793  1.00  0.00    -0.120 OA 
HETATM   23  C   UNL     1      -9.361   6.989  68.622  1.00  0.00    -0.136 C  
HETATM   24  O   UNL     1      -8.189   7.548  68.248  1.00  0.00    -0.123 OA 
ENDBRANCH  15  21
ENDBRANCH  14  15
ENDBRANCH  12  14
ENDBRANCH   9  10
ENDBRANCH   7   9
ENDBRANCH   6   7
ENDBRANCH   4   6
TORSDOF 7
ENDMDL
MODEL      176
REMARK 921   NORMALIZED FREE ENERGY PREDICTED BY IDOCK:   -3.74 KCAL/MOL
REMARK 922        TOTAL FREE ENERGY PREDICTED BY IDOCK:   -6.90 KCAL/MOL
REMARK 923 INTER-LIGAND FREE ENERGY PREDICTED BY IDOCK:   -6.27 KCAL/MOL
REMARK 924 INTRA-LIGAND FREE ENERGY PREDICTED BY IDOCK:   -0.63 KCAL/MOL
REMARK 927      BINDING AFFINITY PREDICTED BY RF-SCORE:    0.00 PKD
ROOT
HETATM    1  C   UNL     1      -9.220   5.401  66.422  1.00  0.00    -0.150 C  
HETATM    2  C   UNL     1      -9.640   6.827  66.794  1.00  0.00    -0.210 C  
HETATM    3  C   UNL     1     -11.073   6.828  67.311  1.00  0.00    -0.394 C  
HETATM    4  C   UNL     1      -8.685   7.407  67.825  1.00  0.00    -0.126 C  
HETATM    5  O   UNL     1      -7.709   6.808  68.263  1.00  0.00    -0.102 OA 
ENDROOT
BRANCH   4   6
HETATM    6  O   UNL     1      -8.999   8.697  68.147  1.00  0.00    -0.141 OA 
BRANCH   6   7
HETATM    7  C   UNL     1      -8.187   9.226  69.206  1.00  0.00    -0.108 C  
HETATM    8  C   UNL     1      -7.102  10.124  68.611  1.00  0.00    -0.074 C  
BRANCH   7   9
HETATM    9  O   UNL     1      -8.902  10.130  70.066  1.00  0.00    -0.146 OA 
BRANCH   9  10
HETATM   10  C   UNL     1     -10.164  10.419  69.688  1.00  0.00    -0.209 C  
HETATM   11  O   UNL     1     -11.169   9.847  70.063  1.00  0.00    -0.251 OA 
HETATM   12  N   UNL     1     -10.114  11.527  68.889  1.00  0.00    -0.361 N  
HETATM   13  H   UNL     1      -9.202  11.924  68.660  1.00  0.00     0.000 HD 
BRANCH  12  14
HETATM   14  C   UNL     1     -11.301  12.157  68.354  1.00  0.00    -0.286 C  
BRANCH  14  15
HETATM   15  C   UNL     1     -11.046  12.971  67.040  1.00  0.00    -0.311 C  
HETATM   16  C   UNL     1     -12.024  14.172  66.937  1.00  0.00    -0.479 C  
HETATM   17  C   UNL     1      -9.579  13.489  67.075  1.00  0.00    -0.248 C  
HETATM   18  C   UNL     1      -9.337  14.608  68.090  1.00  0.00    -0.197 C  
HETATM   19  C   UNL     1     -11.759  15.274  67.961  1.00  0.00    -0.268 C  
HETATM   20  C   UNL     1     -10.316  15.758  67.889  1.00  0.00    -0.261 C  
BRANCH  15  21
HETATM   21  C   UNL     1     -11.241  12.016  65.826  1.00  0.00    -0.383 C  
HETATM   22  O   UNL     1     -11.445  13.226  63.739  1.00  0.00    -0.390 OA 
HETATM   23  C   UNL     1     -11.984  12.598  64.638  1.00  0.00    -0.402 C  
HETATM   24  O   UNL     1     -13.312  12.354  64.648  1.00  0.00    -0.778 OA 
ENDBRANCH  15  21
ENDBRANCH  14  15
ENDBRANCH  12  14
ENDBRANCH   9  10
ENDBRANCH   7   9
ENDBRANCH   6   7
ENDBRANCH   4   6
TORSDOF 7
ENDMDL
MODEL      177
REMARK 921   NORMALIZED FREE ENERGY PREDICTED BY IDOCK:   -3.74 KCAL/MOL
REMARK 922        TOTAL FREE ENERGY PREDICTED BY IDOCK:   -6.90 KCAL/MOL
REMARK 923 INTER-LIGAND FREE ENERGY PREDICTED BY IDOCK:   -6.37 KCAL/MOL
REMARK 924 INTRA-LIGAND FREE ENERGY PREDICTED BY IDOCK:   -0.52 KCAL/MOL
REMARK 927      BINDING AFFINITY PREDICTED BY RF-SCORE:    0.00 PKD
ROOT
HETATM    1  C   UNL     1     -10.283   4.690  71.853  1.00  0.00    -0.254 C  
HETATM    2  C   UNL     1      -9.933   5.690  70.746  1.00  0.00    -0.254 C  
HETATM    3  C   UNL     1      -9.627   4.946  69.452  1.00  0.00    -0.239 C  
HETATM    4  C   UNL     1     -11.069   6.682  70.553  1.00  0.00    -0.307 C  
HETATM    5  O   UNL     1     -12.099   6.678  71.216  1.00  0.00    -0.348 OA 
ENDROOT
BRANCH   4   6
HETATM    6  O   UNL     1     -10.773   7.621  69.605  1.00  0.00    -0.242 OA 
BRANCH   6   7
HETATM    7  C   UNL     1     -10.772   8.961  70.121  1.00  0.00    -0.225 C  
HETATM    8  C   UNL     1      -9.605   9.126  71.095  1.00  0.00    -0.347 C  
BRANCH   7   9
HETATM    9  O   UNL     1     -10.484   9.950  69.118  1.00  0.00    -0.195 OA 
BRANCH   9  10
HETATM   10  C   UNL     1     -11.440  10.880  68.925  1.00  0.00    -0.300 C  
HETATM   11  O   UNL     1     -12.597  10.801  69.293  1.00  0.00    -0.324 OA 
HETATM   12  N   UNL     1     -10.853  11.962  68.331  1.00  0.00    -0.216 N  
HETATM   13  H   UNL     1      -9.864  11.908  68.085  1.00  0.00     0.000 HD 
BRANCH  12  14
HETATM   14  C   UNL     1     -11.577  13.180  68.036  1.00  0.00    -0.334 C  
BRANCH  14  15
HETATM   15  C   UNL     1     -11.103  14.414  68.875  1.00  0.00    -0.277 C  
HETATM   16  C   UNL     1      -9.554  14.516  68.876  1.00  0.00    -0.158 C  
HETATM   17  C   UNL     1     -11.713  15.693  68.233  1.00  0.00    -0.253 C  
HETATM   18  C   UNL     1     -11.089  16.074  66.889  1.00  0.00    -0.039 C  
HETATM   19  C   UNL     1      -8.959  14.899  67.523  1.00  0.00    -0.190 C  
HETATM   20  C   UNL     1      -9.574  16.189  66.995  1.00  0.00    -0.233 C  
BRANCH  15  21
HETATM   21  C   UNL     1     -11.630  14.249  70.331  1.00  0.00    -0.264 C  
HETATM   22  O   UNL     1     -13.640  15.542  70.723  1.00  0.00    -0.487 OA 
HETATM   23  C   UNL     1     -12.435  15.412  70.880  1.00  0.00    -0.418 C  
HETATM   24  O   UNL     1     -11.701  16.307  71.576  1.00  0.00    -0.469 OA 
ENDBRANCH  15  21
ENDBRANCH  14  15
ENDBRANCH  12  14
ENDBRANCH   9  10
ENDBRANCH   7   9
ENDBRANCH   6   7
ENDBRANCH   4   6
TORSDOF 7
ENDMDL
MODEL      178
REMARK 921   NORMALIZED FREE ENERGY PREDICTED BY IDOCK:   -3.74 KCAL/MOL
REMARK 922        TOTAL FREE ENERGY PREDICTED BY IDOCK:   -6.90 KCAL/MOL
REMARK 923 INTER-LIGAND FREE ENERGY PREDICTED BY IDOCK:   -6.52 KCAL/MOL
REMARK 924 INTRA-LIGAND FREE ENERGY PREDICTED BY IDOCK:   -0.37 KCAL/MOL
REMARK 927      BINDING AFFINITY PREDICTED BY RF-SCORE:    0.00 PKD
ROOT
HETATM    1  C   UNL     1      -6.660   5.890  65.825  1.00  0.00    -0.047 C  
HETATM    2  C   UNL     1      -7.890   6.450  66.547  1.00  0.00    -0.104 C  
HETATM    3  C   UNL     1      -8.594   5.337  67.312  1.00  0.00    -0.105 C  
HETATM    4  C   UNL     1      -7.485   7.583  67.477  1.00  0.00    -0.104 C  
HETATM    5  O   UNL     1      -6.335   7.990  67.597  1.00  0.00    -0.050 OA 
ENDROOT
BRANCH   4   6
HETATM    6  O   UNL     1      -8.563   8.141  68.105  1.00  0.00    -0.128 OA 
BRANCH   6   7
HETATM    7  C   UNL     1      -9.173   9.196  67.346  1.00  0.00    -0.130 C  
HETATM    8  C   UNL     1     -10.655   8.882  67.143  1.00  0.00    -0.301 C  
BRANCH   7   9
HETATM    9  O   UNL     1      -9.213  10.447  68.054  1.00  0.00    -0.137 OA 
BRANCH   9  10
HETATM   10  C   UNL     1      -8.682  11.502  67.404  1.00  0.00    -0.147 C  
HETATM   11  O   UNL     1      -7.746  11.464  66.629  1.00  0.00    -0.152 OA 
HETATM   12  N   UNL     1      -9.445  12.597  67.698  1.00  0.00    -0.183 N  
HETATM   13  H   UNL     1     -10.219  12.492  68.355  1.00  0.00     0.000 HD 
BRANCH  12  14
HETATM   14  C   UNL     1      -9.200  13.899  67.114  1.00  0.00    -0.239 C  
BRANCH  14  15
HETATM   15  C   UNL     1     -10.501  14.642  66.661  1.00  0.00    -0.278 C  
HETATM   16  C   UNL     1     -11.763  13.944  67.235  1.00  0.00    -0.418 C  
HETATM   17  C   UNL     1     -10.426  16.105  67.186  1.00  0.00    -0.305 C  
HETATM   18  C   UNL     1     -10.603  16.233  68.701  1.00  0.00    -0.297 C  
HETATM   19  C   UNL     1     -11.915  14.088  68.748  1.00  0.00    -0.382 C  
HETATM   20  C   UNL     1     -11.883  15.552  69.168  1.00  0.00    -0.373 C  
BRANCH  15  21
HETATM   21  C   UNL     1     -10.550  14.641  65.105  1.00  0.00    -0.441 C  
HETATM   22  O   UNL     1     -11.387  16.733  64.218  1.00  0.00    -1.170 OA 
HETATM   23  C   UNL     1     -11.584  15.554  64.473  1.00  0.00    -0.283 C  
HETATM   24  O   UNL     1     -12.760  14.947  64.202  1.00  0.00    -0.750 OA 
ENDBRANCH  15  21
ENDBRANCH  14  15
ENDBRANCH  12  14
ENDBRANCH   9  10
ENDBRANCH   7   9
ENDBRANCH   6   7
ENDBRANCH   4   6
TORSDOF 7
ENDMDL
MODEL      179
REMARK 921   NORMALIZED FREE ENERGY PREDICTED BY IDOCK:   -3.73 KCAL/MOL
REMARK 922        TOTAL FREE ENERGY PREDICTED BY IDOCK:   -6.89 KCAL/MOL
REMARK 923 INTER-LIGAND FREE ENERGY PREDICTED BY IDOCK:   -6.46 KCAL/MOL
REMARK 924 INTRA-LIGAND FREE ENERGY PREDICTED BY IDOCK:   -0.43 KCAL/MOL
REMARK 927      BINDING AFFINITY PREDICTED BY RF-SCORE:    0.00 PKD
ROOT
HETATM    1  C   UNL     1      -9.838  17.106  67.215  1.00  0.00    -0.265 C  
HETATM    2  C   UNL     1      -9.774  15.619  67.577  1.00  0.00    -0.222 C  
HETATM    3  C   UNL     1     -10.244  15.412  69.011  1.00  0.00    -0.233 C  
HETATM    4  C   UNL     1     -10.609  14.803  66.603  1.00  0.00    -0.299 C  
HETATM    5  O   UNL     1     -11.219  15.286  65.656  1.00  0.00    -0.323 OA 
ENDROOT
BRANCH   4   6
HETATM    6  O   UNL     1     -10.539  13.463  66.864  1.00  0.00    -0.270 OA 
BRANCH   6   7
HETATM    7  C   UNL     1     -11.771  12.774  66.605  1.00  0.00    -0.393 C  
HETATM    8  C   UNL     1     -11.821  12.361  65.134  1.00  0.00    -0.437 C  
BRANCH   7   9
HETATM    9  O   UNL     1     -11.864  11.511  67.286  1.00  0.00    -0.609 OA 
BRANCH   9  10
HETATM   10  C   UNL     1     -11.328  11.475  68.523  1.00  0.00    -0.277 C  
HETATM   11  O   UNL     1     -11.563  12.257  69.425  1.00  0.00    -0.284 OA 
HETATM   12  N   UNL     1     -10.556  10.351  68.608  1.00  0.00    -0.196 N  
HETATM   13  H   UNL     1     -10.453   9.765  67.780  1.00  0.00     0.000 HD 
BRANCH  12  14
HETATM   14  C   UNL     1      -9.879   9.960  69.826  1.00  0.00    -0.236 C  
BRANCH  14  15
HETATM   15  C   UNL     1      -9.920   8.419  70.103  1.00  0.00    -0.190 C  
HETATM   16  C   UNL     1      -9.007   8.050  71.303  1.00  0.00    -0.166 C  
HETATM   17  C   UNL     1     -11.392   8.028  70.422  1.00  0.00    -0.190 C  
HETATM   18  C   UNL     1     -11.885   8.520  71.784  1.00  0.00    -0.395 C  
HETATM   19  C   UNL     1      -9.524   8.552  72.649  1.00  0.00    -0.295 C  
HETATM   20  C   UNL     1     -10.950   8.080  72.904  1.00  0.00    -0.398 C  
BRANCH  15  21
HETATM   21  C   UNL     1      -9.442   7.678  68.819  1.00  0.00    -0.152 C  
HETATM   22  O   UNL     1     -11.118   7.712  67.071  1.00  0.00    -0.171 OA 
HETATM   23  C   UNL     1     -10.536   7.090  67.948  1.00  0.00    -0.218 C  
HETATM   24  O   UNL     1     -10.816   5.796  68.217  1.00  0.00    -0.241 OA 
ENDBRANCH  15  21
ENDBRANCH  14  15
ENDBRANCH  12  14
ENDBRANCH   9  10
ENDBRANCH   7   9
ENDBRANCH   6   7
ENDBRANCH   4   6
TORSDOF 7
ENDMDL
MODEL      180
REMARK 921   NORMALIZED FREE ENERGY PREDICTED BY IDOCK:   -3.72 KCAL/MOL
REMARK 922        TOTAL FREE ENERGY PREDICTED BY IDOCK:   -6.87 KCAL/MOL
REMARK 923 INTER-LIGAND FREE ENERGY PREDICTED BY IDOCK:   -6.84 KCAL/MOL
REMARK 924 INTRA-LIGAND FREE ENERGY PREDICTED BY IDOCK:   -0.03 KCAL/MOL
REMARK 927      BINDING AFFINITY PREDICTED BY RF-SCORE:    0.00 PKD
ROOT
HETATM    1  C   UNL     1     -11.519  11.351  69.614  1.00  0.00    -0.380 C  
HETATM    2  C   UNL     1     -10.400  11.454  68.573  1.00  0.00    -0.219 C  
HETATM    3  C   UNL     1      -9.666  10.124  68.465  1.00  0.00    -0.161 C  
HETATM    4  C   UNL     1     -10.968  11.877  67.227  1.00  0.00    -0.268 C  
HETATM    5  O   UNL     1     -12.154  12.119  67.033  1.00  0.00    -0.591 OA 
ENDROOT
BRANCH   4   6
HETATM    6  O   UNL     1      -9.992  12.027  66.282  1.00  0.00    -0.216 OA 
BRANCH   6   7
HETATM    7  C   UNL     1      -9.744  13.399  65.942  1.00  0.00    -0.182 C  
HETATM    8  C   UNL     1     -10.584  13.778  64.723  1.00  0.00    -0.444 C  
BRANCH   7   9
HETATM    9  O   UNL     1     -10.213  14.321  66.942  1.00  0.00    -0.260 OA 
BRANCH   9  10
HETATM   10  C   UNL     1      -9.257  14.893  67.701  1.00  0.00    -0.187 C  
HETATM   11  O   UNL     1      -8.208  14.377  68.036  1.00  0.00    -0.131 OA 
HETATM   12  N   UNL     1      -9.635  16.185  67.939  1.00  0.00    -0.222 N  
HETATM   13  H   UNL     1     -10.538  16.503  67.587  1.00  0.00     0.000 HD 
BRANCH  12  14
HETATM   14  C   UNL     1      -8.807  17.118  68.672  1.00  0.00    -0.266 C  
BRANCH  14  15
HETATM   15  C   UNL     1      -8.218  18.268  67.787  1.00  0.00    -0.253 C  
HETATM   16  C   UNL     1      -8.759  18.178  66.335  1.00  0.00    -0.252 C  
HETATM   17  C   UNL     1      -8.640  19.625  68.422  1.00  0.00    -0.357 C  
HETATM   18  C   UNL     1     -10.127  19.951  68.264  1.00  0.00    -0.571 C  
HETATM   19  C   UNL     1     -10.245  18.509  66.207  1.00  0.00    -0.446 C  
HETATM   20  C   UNL     1     -10.559  19.875  66.805  1.00  0.00    -0.536 C  
BRANCH  15  21
HETATM   21  C   UNL     1      -6.666  18.143  67.789  1.00  0.00    -0.204 C  
HETATM   22  O   UNL     1      -5.761  18.009  65.547  1.00  0.00    -0.179 OA 
HETATM   23  C   UNL     1      -6.056  17.443  66.589  1.00  0.00    -0.204 C  
HETATM   24  O   UNL     1      -5.855  16.119  66.770  1.00  0.00    -0.306 OA 
ENDBRANCH  15  21
ENDBRANCH  14  15
ENDBRANCH  12  14
ENDBRANCH   9  10
ENDBRANCH   7   9
ENDBRANCH   6   7
ENDBRANCH   4   6
TORSDOF 7
ENDMDL
MODEL      181
REMARK 921   NORMALIZED FREE ENERGY PREDICTED BY IDOCK:   -3.71 KCAL/MOL
REMARK 922        TOTAL FREE ENERGY PREDICTED BY IDOCK:   -6.85 KCAL/MOL
REMARK 923 INTER-LIGAND FREE ENERGY PREDICTED BY IDOCK:   -5.90 KCAL/MOL
REMARK 924 INTRA-LIGAND FREE ENERGY PREDICTED BY IDOCK:   -0.95 KCAL/MOL
REMARK 927      BINDING AFFINITY PREDICTED BY RF-SCORE:    0.00 PKD
ROOT
HETATM    1  C   UNL     1     -11.068   9.523  69.025  1.00  0.00    -0.060 C  
HETATM    2  C   UNL     1     -11.898  10.059  70.195  1.00  0.00    -0.245 C  
HETATM    3  C   UNL     1     -11.332   9.545  71.513  1.00  0.00    -0.456 C  
HETATM    4  C   UNL     1     -11.929  11.579  70.168  1.00  0.00    -0.369 C  
HETATM    5  O   UNL     1     -11.380  12.258  69.307  1.00  0.00    -0.255 OA 
ENDROOT
BRANCH   4   6
HETATM    6  O   UNL     1     -12.701  12.095  71.171  1.00  0.00    -0.358 OA 
BRANCH   6   7
HETATM    7  C   UNL     1     -12.836  13.522  71.100  1.00  0.00    -0.309 C  
HETATM    8  C   UNL     1     -13.983  13.968  72.007  1.00  0.00    -0.598 C  
BRANCH   7   9
HETATM    9  O   UNL     1     -11.709  14.221  71.657  1.00  0.00    -0.130 OA 
BRANCH   9  10
HETATM   10  C   UNL     1     -11.382  15.379  71.048  1.00  0.00    -0.367 C  
HETATM   11  O   UNL     1     -11.687  16.494  71.426  1.00  0.00    -0.359 OA 
HETATM   12  N   UNL     1     -10.569  15.076  69.992  1.00  0.00    -0.437 N  
HETATM   13  H   UNL     1     -10.376  14.095  69.789  1.00  0.00     0.000 HD 
BRANCH  12  14
HETATM   14  C   UNL     1      -9.973  16.091  69.151  1.00  0.00    -0.246 C  
BRANCH  14  15
HETATM   15  C   UNL     1      -8.550  15.712  68.617  1.00  0.00    -0.188 C  
HETATM   16  C   UNL     1      -8.645  15.058  67.212  1.00  0.00    -0.226 C  
HETATM   17  C   UNL     1      -7.705  17.016  68.534  1.00  0.00    -0.238 C  
HETATM   18  C   UNL     1      -8.129  17.962  67.408  1.00  0.00    -0.217 C  
HETATM   19  C   UNL     1      -9.068  16.025  66.108  1.00  0.00    -0.387 C  
HETATM   20  C   UNL     1      -8.157  17.245  66.064  1.00  0.00    -0.187 C  
BRANCH  15  21
HETATM   21  C   UNL     1      -7.897  14.721  69.626  1.00  0.00     0.023 C  
HETATM   22  O   UNL     1      -5.669  14.064  68.942  1.00  0.00    -0.079 OA 
HETATM   23  C   UNL     1      -6.853  13.782  69.050  1.00  0.00    -0.111 C  
HETATM   24  O   UNL     1      -7.345  12.584  68.668  1.00  0.00    -0.105 OA 
ENDBRANCH  15  21
ENDBRANCH  14  15
ENDBRANCH  12  14
ENDBRANCH   9  10
ENDBRANCH   7   9
ENDBRANCH   6   7
ENDBRANCH   4   6
TORSDOF 7
ENDMDL
MODEL      182
REMARK 921   NORMALIZED FREE ENERGY PREDICTED BY IDOCK:   -3.70 KCAL/MOL
REMARK 922        TOTAL FREE ENERGY PREDICTED BY IDOCK:   -6.84 KCAL/MOL
REMARK 923 INTER-LIGAND FREE ENERGY PREDICTED BY IDOCK:   -6.37 KCAL/MOL
REMARK 924 INTRA-LIGAND FREE ENERGY PREDICTED BY IDOCK:   -0.47 KCAL/MOL
REMARK 927      BINDING AFFINITY PREDICTED BY RF-SCORE:    0.00 PKD
ROOT
HETATM    1  C   UNL     1      -8.959   2.381  65.819  1.00  0.00    -0.121 C  
HETATM    2  C   UNL     1      -8.542   3.827  66.106  1.00  0.00    -0.113 C  
HETATM    3  C   UNL     1      -7.281   4.170  65.323  1.00  0.00    -0.071 C  
HETATM    4  C   UNL     1      -9.676   4.781  65.764  1.00  0.00    -0.188 C  
HETATM    5  O   UNL     1     -10.769   4.418  65.342  1.00  0.00    -0.264 OA 
ENDROOT
BRANCH   4   6
HETATM    6  O   UNL     1      -9.360   6.079  66.051  1.00  0.00    -0.151 OA 
BRANCH   6   7
HETATM    7  C   UNL     1      -9.465   6.388  67.449  1.00  0.00    -0.116 C  
HETATM    8  C   UNL     1      -8.856   7.765  67.710  1.00  0.00    -0.126 C  
BRANCH   7   9
HETATM    9  O   UNL     1     -10.824   6.559  67.886  1.00  0.00    -0.256 OA 
BRANCH   9  10
HETATM   10  C   UNL     1     -11.087   6.152  69.144  1.00  0.00    -0.378 C  
HETATM   11  O   UNL     1     -10.647   5.152  69.677  1.00  0.00    -0.261 OA 
HETATM   12  N   UNL     1     -11.855   7.114  69.739  1.00  0.00    -0.508 N  
HETATM   13  H   UNL     1     -12.146   7.919  69.185  1.00  0.00     0.000 HD 
BRANCH  12  14
HETATM   14  C   UNL     1     -12.270   7.036  71.123  1.00  0.00    -0.382 C  
BRANCH  14  15
HETATM   15  C   UNL     1     -11.621   8.127  72.039  1.00  0.00    -0.389 C  
HETATM   16  C   UNL     1     -10.584   8.967  71.245  1.00  0.00    -0.378 C  
HETATM   17  C   UNL     1     -12.758   9.053  72.562  1.00  0.00    -0.373 C  
HETATM   18  C   UNL     1     -13.352   9.973  71.493  1.00  0.00    -0.451 C  
HETATM   19  C   UNL     1     -11.206   9.876  70.187  1.00  0.00    -0.347 C  
HETATM   20  C   UNL     1     -12.268  10.783  70.794  1.00  0.00    -0.480 C  
BRANCH  15  21
HETATM   21  C   UNL     1     -10.928   7.413  73.236  1.00  0.00    -0.367 C  
HETATM   22  O   UNL     1      -9.271   5.807  72.503  1.00  0.00    -0.143 OA 
HETATM   23  C   UNL     1     -10.385   6.024  72.956  1.00  0.00    -0.204 C  
HETATM   24  O   UNL     1     -11.244   5.028  73.259  1.00  0.00    -0.309 OA 
ENDBRANCH  15  21
ENDBRANCH  14  15
ENDBRANCH  12  14
ENDBRANCH   9  10
ENDBRANCH   7   9
ENDBRANCH   6   7
ENDBRANCH   4   6
TORSDOF 7
ENDMDL
MODEL      183
REMARK 921   NORMALIZED FREE ENERGY PREDICTED BY IDOCK:   -3.69 KCAL/MOL
REMARK 922        TOTAL FREE ENERGY PREDICTED BY IDOCK:   -6.83 KCAL/MOL
REMARK 923 INTER-LIGAND FREE ENERGY PREDICTED BY IDOCK:   -5.89 KCAL/MOL
REMARK 924 INTRA-LIGAND FREE ENERGY PREDICTED BY IDOCK:   -0.94 KCAL/MOL
REMARK 927      BINDING AFFINITY PREDICTED BY RF-SCORE:    0.00 PKD
ROOT
HETATM    1  C   UNL     1      -9.928   4.934  66.047  1.00  0.00    -0.243 C  
HETATM    2  C   UNL     1      -8.623   5.611  65.616  1.00  0.00    -0.150 C  
HETATM    3  C   UNL     1      -8.394   5.397  64.125  1.00  0.00    -0.118 C  
HETATM    4  C   UNL     1      -8.658   7.092  65.958  1.00  0.00    -0.152 C  
HETATM    5  O   UNL     1      -9.600   7.641  66.520  1.00  0.00    -0.197 OA 
ENDROOT
BRANCH   4   6
HETATM    6  O   UNL     1      -7.491   7.722  65.631  1.00  0.00    -0.071 OA 
BRANCH   6   7
HETATM    7  C   UNL     1      -7.684   9.077  65.197  1.00  0.00    -0.101 C  
HETATM    8  C   UNL     1      -6.326   9.765  65.064  1.00  0.00    -0.096 C  
BRANCH   7   9
HETATM    9  O   UNL     1      -8.213   9.170  63.863  1.00  0.00    -0.154 OA 
BRANCH   9  10
HETATM   10  C   UNL     1      -9.268   9.995  63.710  1.00  0.00    -0.271 C  
HETATM   11  O   UNL     1      -9.730  10.373  62.651  1.00  0.00    -0.298 OA 
HETATM   12  N   UNL     1      -9.780  10.247  64.952  1.00  0.00    -0.298 N  
HETATM   13  H   UNL     1      -9.306   9.855  65.766  1.00  0.00     0.000 HD 
BRANCH  12  14
HETATM   14  C   UNL     1     -10.967  11.049  65.159  1.00  0.00    -0.033 C  
BRANCH  14  15
HETATM   15  C   UNL     1     -10.704  12.372  65.953  1.00  0.00    -0.299 C  
HETATM   16  C   UNL     1     -11.786  12.584  67.046  1.00  0.00    -0.437 C  
HETATM   17  C   UNL     1      -9.301  12.262  66.617  1.00  0.00    -0.228 C  
HETATM   18  C   UNL     1      -9.241  11.276  67.786  1.00  0.00    -0.156 C  
HETATM   19  C   UNL     1     -11.702  11.587  68.200  1.00  0.00    -0.357 C  
HETATM   20  C   UNL     1     -10.312  11.582  68.825  1.00  0.00    -0.213 C  
BRANCH  15  21
HETATM   21  C   UNL     1     -10.720  13.560  64.947  1.00  0.00    -0.391 C  
HETATM   22  O   UNL     1     -12.912  14.575  64.772  1.00  0.00    -0.562 OA 
HETATM   23  C   UNL     1     -12.056  13.851  64.287  1.00  0.00    -0.440 C  
HETATM   24  O   UNL     1     -12.222  13.241  63.093  1.00  0.00    -0.628 OA 
ENDBRANCH  15  21
ENDBRANCH  14  15
ENDBRANCH  12  14
ENDBRANCH   9  10
ENDBRANCH   7   9
ENDBRANCH   6   7
ENDBRANCH   4   6
TORSDOF 7
ENDMDL
MODEL      184
REMARK 921   NORMALIZED FREE ENERGY PREDICTED BY IDOCK:   -3.67 KCAL/MOL
REMARK 922        TOTAL FREE ENERGY PREDICTED BY IDOCK:   -6.81 KCAL/MOL
REMARK 923 INTER-LIGAND FREE ENERGY PREDICTED BY IDOCK:   -6.21 KCAL/MOL
REMARK 924 INTRA-LIGAND FREE ENERGY PREDICTED BY IDOCK:   -0.60 KCAL/MOL
REMARK 927      BINDING AFFINITY PREDICTED BY RF-SCORE:    0.00 PKD
ROOT
HETATM    1  C   UNL     1     -12.694  11.937  63.523  1.00  0.00    -0.530 C  
HETATM    2  C   UNL     1     -11.381  12.101  64.294  1.00  0.00    -0.426 C  
HETATM    3  C   UNL     1     -10.211  11.646  63.431  1.00  0.00    -0.471 C  
HETATM    4  C   UNL     1     -11.205  13.545  64.738  1.00  0.00    -0.352 C  
HETATM    5  O   UNL     1     -12.024  14.430  64.519  1.00  0.00    -0.435 OA 
ENDROOT
BRANCH   4   6
HETATM    6  O   UNL     1     -10.066  13.721  65.472  1.00  0.00    -0.302 OA 
BRANCH   6   7
HETATM    7  C   UNL     1     -10.270  13.538  66.881  1.00  0.00    -0.256 C  
HETATM    8  C   UNL     1     -10.315  14.903  67.567  1.00  0.00    -0.239 C  
BRANCH   7   9
HETATM    9  O   UNL     1     -11.561  12.988  67.196  1.00  0.00    -0.318 OA 
BRANCH   9  10
HETATM   10  C   UNL     1     -11.557  11.941  68.044  1.00  0.00    -0.332 C  
HETATM   11  O   UNL     1     -11.988  11.942  69.181  1.00  0.00    -0.306 OA 
HETATM   12  N   UNL     1     -11.073  10.858  67.364  1.00  0.00    -0.310 N  
HETATM   13  H   UNL     1     -10.757  10.986  66.403  1.00  0.00     0.000 HD 
BRANCH  12  14
HETATM   14  C   UNL     1     -10.992   9.539  67.953  1.00  0.00    -0.110 C  
BRANCH  14  15
HETATM   15  C   UNL     1      -9.792   8.684  67.422  1.00  0.00    -0.249 C  
HETATM   16  C   UNL     1      -8.951   8.123  68.600  1.00  0.00    -0.137 C  
HETATM   17  C   UNL     1     -10.374   7.509  66.585  1.00  0.00    -0.252 C  
HETATM   18  C   UNL     1     -11.070   6.433  67.422  1.00  0.00    -0.412 C  
HETATM   19  C   UNL     1      -9.670   7.051  69.417  1.00  0.00    -0.159 C  
HETATM   20  C   UNL     1     -10.159   5.915  68.527  1.00  0.00    -0.210 C  
BRANCH  15  21
HETATM   21  C   UNL     1      -8.907   9.591  66.517  1.00  0.00    -0.156 C  
HETATM   22  O   UNL     1      -7.513   8.297  65.018  1.00  0.00    -0.082 OA 
HETATM   23  C   UNL     1      -7.608   8.976  66.030  1.00  0.00    -0.094 C  
HETATM   24  O   UNL     1      -6.544   9.249  66.815  1.00  0.00    -0.066 OA 
ENDBRANCH  15  21
ENDBRANCH  14  15
ENDBRANCH  12  14
ENDBRANCH   9  10
ENDBRANCH   7   9
ENDBRANCH   6   7
ENDBRANCH   4   6
TORSDOF 7
ENDMDL
MODEL      185
REMARK 921   NORMALIZED FREE ENERGY PREDICTED BY IDOCK:   -3.67 KCAL/MOL
REMARK 922        TOTAL FREE ENERGY PREDICTED BY IDOCK:   -6.80 KCAL/MOL
REMARK 923 INTER-LIGAND FREE ENERGY PREDICTED BY IDOCK:   -5.43 KCAL/MOL
REMARK 924 INTRA-LIGAND FREE ENERGY PREDICTED BY IDOCK:   -1.36 KCAL/MOL
REMARK 927      BINDING AFFINITY PREDICTED BY RF-SCORE:    0.00 PKD
ROOT
HETATM    1  C   UNL     1      -5.694   8.239  69.194  1.00  0.00    -0.034 C  
HETATM    2  C   UNL     1      -6.417   8.529  67.875  1.00  0.00    -0.057 C  
HETATM    3  C   UNL     1      -6.830   7.222  67.211  1.00  0.00    -0.077 C  
HETATM    4  C   UNL     1      -7.621   9.425  68.119  1.00  0.00    -0.083 C  
HETATM    5  O   UNL     1      -7.936   9.860  69.221  1.00  0.00    -0.099 OA 
ENDROOT
BRANCH   4   6
HETATM    6  O   UNL     1      -8.266   9.745  66.958  1.00  0.00    -0.116 OA 
BRANCH   6   7
HETATM    7  C   UNL     1      -9.696   9.734  67.086  1.00  0.00    -0.176 C  
HETATM    8  C   UNL     1     -10.292  10.819  66.189  1.00  0.00    -0.300 C  
BRANCH   7   9
HETATM    9  O   UNL     1     -10.298   8.536  66.569  1.00  0.00    -0.283 OA 
BRANCH   9  10
HETATM   10  C   UNL     1     -10.786   7.683  67.493  1.00  0.00    -0.209 C  
HETATM   11  O   UNL     1     -11.055   6.511  67.310  1.00  0.00    -0.378 OA 
HETATM   12  N   UNL     1     -10.830   8.347  68.687  1.00  0.00    -0.430 N  
HETATM   13  H   UNL     1     -10.561   9.330  68.710  1.00  0.00     0.000 HD 
BRANCH  12  14
HETATM   14  C   UNL     1     -11.244   7.710  69.919  1.00  0.00    -0.085 C  
BRANCH  14  15
HETATM   15  C   UNL     1     -10.916   8.545  71.202  1.00  0.00    -0.306 C  
HETATM   16  C   UNL     1     -10.978  10.067  70.899  1.00  0.00    -0.337 C  
HETATM   17  C   UNL     1     -11.965   8.182  72.292  1.00  0.00    -0.434 C  
HETATM   18  C   UNL     1     -13.367   8.729  72.013  1.00  0.00    -0.455 C  
HETATM   19  C   UNL     1     -12.389  10.585  70.626  1.00  0.00    -0.449 C  
HETATM   20  C   UNL     1     -13.336  10.232  71.766  1.00  0.00    -0.476 C  
BRANCH  15  21
HETATM   21  C   UNL     1      -9.490   8.154  71.689  1.00  0.00    -0.233 C  
HETATM   22  O   UNL     1      -8.467   6.483  70.266  1.00  0.00    -0.132 OA 
HETATM   23  C   UNL     1      -9.022   6.759  71.319  1.00  0.00    -0.139 C  
HETATM   24  O   UNL     1      -9.265   5.829  72.269  1.00  0.00    -0.145 OA 
ENDBRANCH  15  21
ENDBRANCH  14  15
ENDBRANCH  12  14
ENDBRANCH   9  10
ENDBRANCH   7   9
ENDBRANCH   6   7
ENDBRANCH   4   6
TORSDOF 7
ENDMDL
MODEL      186
REMARK 921   NORMALIZED FREE ENERGY PREDICTED BY IDOCK:   -3.66 KCAL/MOL
REMARK 922        TOTAL FREE ENERGY PREDICTED BY IDOCK:   -6.79 KCAL/MOL
REMARK 923 INTER-LIGAND FREE ENERGY PREDICTED BY IDOCK:   -5.36 KCAL/MOL
REMARK 924 INTRA-LIGAND FREE ENERGY PREDICTED BY IDOCK:   -1.43 KCAL/MOL
REMARK 927      BINDING AFFINITY PREDICTED BY RF-SCORE:    0.00 PKD
ROOT
HETATM    1  C   UNL     1      -9.405   2.738  67.784  1.00  0.00    -0.239 C  
HETATM    2  C   UNL     1      -8.302   3.778  68.007  1.00  0.00    -0.101 C  
HETATM    3  C   UNL     1      -7.052   3.385  67.231  1.00  0.00    -0.058 C  
HETATM    4  C   UNL     1      -8.789   5.160  67.598  1.00  0.00    -0.105 C  
HETATM    5  O   UNL     1      -9.916   5.388  67.175  1.00  0.00    -0.144 OA 
ENDROOT
BRANCH   4   6
HETATM    6  O   UNL     1      -7.848   6.124  67.827  1.00  0.00    -0.103 OA 
BRANCH   6   7
HETATM    7  C   UNL     1      -7.965   6.728  69.124  1.00  0.00    -0.112 C  
HETATM    8  C   UNL     1      -6.571   6.919  69.721  1.00  0.00    -0.045 C  
BRANCH   7   9
HETATM    9  O   UNL     1      -8.471   8.073  69.075  1.00  0.00    -0.128 OA 
BRANCH   9  10
HETATM   10  C   UNL     1      -9.799   8.204  69.266  1.00  0.00    -0.182 C  
HETATM   11  O   UNL     1     -10.492   9.117  68.858  1.00  0.00    -0.218 OA 
HETATM   12  N   UNL     1     -10.238   7.082  69.911  1.00  0.00    -0.197 N  
HETATM   13  H   UNL     1      -9.554   6.377  70.187  1.00  0.00     0.000 HD 
BRANCH  12  14
HETATM   14  C   UNL     1     -11.634   6.854  70.220  1.00  0.00    -0.311 C  
BRANCH  14  15
HETATM   15  C   UNL     1     -11.956   6.899  71.751  1.00  0.00    -0.372 C  
HETATM   16  C   UNL     1     -11.629   8.297  72.343  1.00  0.00    -0.464 C  
HETATM   17  C   UNL     1     -13.472   6.594  71.931  1.00  0.00    -0.031 C  
HETATM   18  C   UNL     1     -14.394   7.724  71.468  1.00  0.00    -0.574 C  
HETATM   19  C   UNL     1     -12.566   9.404  71.865  1.00  0.00    -0.481 C  
HETATM   20  C   UNL     1     -14.023   9.046  72.127  1.00  0.00    -0.499 C  
BRANCH  15  21
HETATM   21  C   UNL     1     -11.108   5.805  72.463  1.00  0.00    -0.327 C  
HETATM   22  O   UNL     1     -10.162   6.598  74.546  1.00  0.00    -0.356 OA 
HETATM   23  C   UNL     1     -10.001   6.309  73.370  1.00  0.00    -0.185 C  
HETATM   24  O   UNL     1      -8.798   6.409  72.763  1.00  0.00    -0.126 OA 
ENDBRANCH  15  21
ENDBRANCH  14  15
ENDBRANCH  12  14
ENDBRANCH   9  10
ENDBRANCH   7   9
ENDBRANCH   6   7
ENDBRANCH   4   6
TORSDOF 7
ENDMDL
MODEL      187
REMARK 921   NORMALIZED FREE ENERGY PREDICTED BY IDOCK:   -3.65 KCAL/MOL
REMARK 922        TOTAL FREE ENERGY PREDICTED BY IDOCK:   -6.78 KCAL/MOL
REMARK 923 INTER-LIGAND FREE ENERGY PREDICTED BY IDOCK:   -5.98 KCAL/MOL
REMARK 924 INTRA-LIGAND FREE ENERGY PREDICTED BY IDOCK:   -0.80 KCAL/MOL
REMARK 927      BINDING AFFINITY PREDICTED BY RF-SCORE:    0.00 PKD
ROOT
HETATM    1  C   UNL     1     -10.433  14.111  67.621  1.00  0.00    -0.245 C  
HETATM    2  C   UNL     1     -11.162  13.253  68.660  1.00  0.00    -0.311 C  
HETATM    3  C   UNL     1     -12.129  14.117  69.460  1.00  0.00    -0.388 C  
HETATM    4  C   UNL     1     -11.889  12.104  67.979  1.00  0.00    -0.285 C  
HETATM    5  O   UNL     1     -11.861  11.899  66.771  1.00  0.00    -0.598 OA 
ENDROOT
BRANCH   4   6
HETATM    6  O   UNL     1     -12.513  11.287  68.879  1.00  0.00    -0.433 OA 
BRANCH   6   7
HETATM    7  C   UNL     1     -11.615  10.730  69.851  1.00  0.00    -0.331 C  
HETATM    8  C   UNL     1     -12.354  10.546  71.176  1.00  0.00    -0.510 C  
BRANCH   7   9
HETATM    9  O   UNL     1     -11.206   9.388  69.534  1.00  0.00    -0.164 OA 
BRANCH   9  10
HETATM   10  C   UNL     1      -9.935   9.076  69.856  1.00  0.00    -0.191 C  
HETATM   11  O   UNL     1      -9.029   9.867  70.034  1.00  0.00    -0.217 OA 
HETATM   12  N   UNL     1      -9.874   7.723  70.040  1.00  0.00    -0.180 N  
HETATM   13  H   UNL     1     -10.714   7.168  69.874  1.00  0.00     0.000 HD 
BRANCH  12  14
HETATM   14  C   UNL     1      -8.667   7.046  70.462  1.00  0.00    -0.153 C  
BRANCH  14  15
HETATM   15  C   UNL     1      -8.929   5.683  71.188  1.00  0.00    -0.148 C  
HETATM   16  C   UNL     1     -10.066   4.893  70.485  1.00  0.00    -0.312 C  
HETATM   17  C   UNL     1      -7.611   4.857  71.148  1.00  0.00    -0.082 C  
HETATM   18  C   UNL     1      -7.259   4.314  69.761  1.00  0.00    -0.049 C  
HETATM   19  C   UNL     1      -9.686   4.363  69.104  1.00  0.00    -0.240 C  
HETATM   20  C   UNL     1      -8.417   3.523  69.166  1.00  0.00    -0.096 C  
BRANCH  15  21
HETATM   21  C   UNL     1      -9.320   5.983  72.666  1.00  0.00    -0.147 C  
HETATM   22  O   UNL     1     -11.553   5.207  73.192  1.00  0.00    -0.316 OA 
HETATM   23  C   UNL     1     -10.805   6.139  72.940  1.00  0.00    -0.260 C  
HETATM   24  O   UNL     1     -11.240   7.417  72.890  1.00  0.00    -0.327 OA 
ENDBRANCH  15  21
ENDBRANCH  14  15
ENDBRANCH  12  14
ENDBRANCH   9  10
ENDBRANCH   7   9
ENDBRANCH   6   7
ENDBRANCH   4   6
TORSDOF 7
ENDMDL
MODEL      188
REMARK 921   NORMALIZED FREE ENERGY PREDICTED BY IDOCK:   -3.65 KCAL/MOL
REMARK 922        TOTAL FREE ENERGY PREDICTED BY IDOCK:   -6.77 KCAL/MOL
REMARK 923 INTER-LIGAND FREE ENERGY PREDICTED BY IDOCK:   -5.81 KCAL/MOL
REMARK 924 INTRA-LIGAND FREE ENERGY PREDICTED BY IDOCK:   -0.96 KCAL/MOL
REMARK 927      BINDING AFFINITY PREDICTED BY RF-SCORE:    0.00 PKD
ROOT
HETATM    1  C   UNL     1     -10.249  11.480  65.307  1.00  0.00    -0.315 C  
HETATM    2  C   UNL     1      -9.757  11.679  66.745  1.00  0.00    -0.220 C  
HETATM    3  C   UNL     1      -8.410  10.991  66.932  1.00  0.00    -0.138 C  
HETATM    4  C   UNL     1      -9.666  13.161  67.071  1.00  0.00    -0.241 C  
HETATM    5  O   UNL     1      -9.971  14.053  66.288  1.00  0.00    -0.288 OA 
ENDROOT
BRANCH   4   6
HETATM    6  O   UNL     1      -9.274  13.379  68.362  1.00  0.00    -0.195 OA 
BRANCH   6   7
HETATM    7  C   UNL     1      -8.262  14.390  68.481  1.00  0.00    -0.151 C  
HETATM    8  C   UNL     1      -7.322  14.032  69.632  1.00  0.00     0.242 C  
BRANCH   7   9
HETATM    9  O   UNL     1      -7.372  14.430  67.352  1.00  0.00    -0.184 OA 
BRANCH   9  10
HETATM   10  C   UNL     1      -6.798  15.624  67.105  1.00  0.00    -0.092 C  
HETATM   11  O   UNL     1      -5.621  15.894  67.255  1.00  0.00    -0.305 OA 
HETATM   12  N   UNL     1      -7.752  16.441  66.567  1.00  0.00    -0.272 N  
HETATM   13  H   UNL     1      -8.705  16.087  66.479  1.00  0.00     0.000 HD 
BRANCH  12  14
HETATM   14  C   UNL     1      -7.466  17.786  66.118  1.00  0.00    -0.287 C  
BRANCH  14  15
HETATM   15  C   UNL     1      -8.051  18.900  67.050  1.00  0.00    -0.272 C  
HETATM   16  C   UNL     1      -7.284  18.948  68.399  1.00  0.00    -0.309 C  
HETATM   17  C   UNL     1      -7.908  20.265  66.316  1.00  0.00    -0.224 C  
HETATM   18  C   UNL     1      -6.468  20.774  66.223  1.00  0.00    -0.295 C  
HETATM   19  C   UNL     1      -5.851  19.462  68.277  1.00  0.00    -0.234 C  
HETATM   20  C   UNL     1      -5.809  20.823  67.596  1.00  0.00    -0.317 C  
BRANCH  15  21
HETATM   21  C   UNL     1      -9.556  18.589  67.301  1.00  0.00    -0.305 C  
HETATM   22  O   UNL     1     -10.561  17.403  65.444  1.00  0.00    -0.638 OA 
HETATM   23  C   UNL     1     -10.419  18.448  66.060  1.00  0.00    -0.374 C  
HETATM   24  O   UNL     1     -11.035  19.591  65.689  1.00  0.00    -0.394 OA 
ENDBRANCH  15  21
ENDBRANCH  14  15
ENDBRANCH  12  14
ENDBRANCH   9  10
ENDBRANCH   7   9
ENDBRANCH   6   7
ENDBRANCH   4   6
TORSDOF 7
ENDMDL
MODEL      189
REMARK 921   NORMALIZED FREE ENERGY PREDICTED BY IDOCK:   -3.64 KCAL/MOL
REMARK 922        TOTAL FREE ENERGY PREDICTED BY IDOCK:   -6.77 KCAL/MOL
REMARK 923 INTER-LIGAND FREE ENERGY PREDICTED BY IDOCK:   -5.58 KCAL/MOL
REMARK 924 INTRA-LIGAND FREE ENERGY PREDICTED BY IDOCK:   -1.19 KCAL/MOL
REMARK 927      BINDING AFFINITY PREDICTED BY RF-SCORE:    0.00 PKD
ROOT
HETATM    1  C   UNL     1     -12.135  13.430  68.931  1.00  0.00    -0.289 C  
HETATM    2  C   UNL     1     -11.082  12.323  68.821  1.00  0.00    -0.295 C  
HETATM    3  C   UNL     1     -11.276  11.309  69.941  1.00  0.00    -0.264 C  
HETATM    4  C   UNL     1     -11.161  11.653  67.457  1.00  0.00    -0.276 C  
HETATM    5  O   UNL     1     -11.947  11.987  66.578  1.00  0.00    -0.616 OA 
ENDROOT
BRANCH   4   6
HETATM    6  O   UNL     1     -10.204  10.690  67.303  1.00  0.00    -0.190 OA 
BRANCH   6   7
HETATM    7  C   UNL     1     -10.403   9.881  66.134  1.00  0.00    -0.153 C  
HETATM    8  C   UNL     1      -9.556  10.433  64.987  1.00  0.00    -0.339 C  
BRANCH   7   9
HETATM    9  O   UNL     1      -9.896   8.544  66.282  1.00  0.00    -0.254 OA 
BRANCH   9  10
HETATM   10  C   UNL     1      -9.133   8.327  67.372  1.00  0.00    -0.140 C  
HETATM   11  O   UNL     1      -7.922   8.423  67.426  1.00  0.00    -0.104 OA 
HETATM   12  N   UNL     1      -9.973   8.077  68.421  1.00  0.00    -0.179 N  
HETATM   13  H   UNL     1     -10.977   8.039  68.246  1.00  0.00     0.000 HD 
BRANCH  12  14
HETATM   14  C   UNL     1      -9.493   7.864  69.770  1.00  0.00    -0.163 C  
BRANCH  14  15
HETATM   15  C   UNL     1     -10.204   6.682  70.512  1.00  0.00    -0.215 C  
HETATM   16  C   UNL     1      -9.737   6.599  71.991  1.00  0.00    -0.156 C  
HETATM   17  C   UNL     1     -11.739   6.937  70.460  1.00  0.00    -0.401 C  
HETATM   18  C   UNL     1     -12.210   8.086  71.353  1.00  0.00    -0.335 C  
HETATM   19  C   UNL     1     -10.222   7.758  72.858  1.00  0.00    -0.377 C  
HETATM   20  C   UNL     1     -11.737   7.901  72.790  1.00  0.00    -0.338 C  
BRANCH  15  21
HETATM   21  C   UNL     1      -9.862   5.359  69.767  1.00  0.00    -0.268 C  
HETATM   22  O   UNL     1      -7.723   4.454  70.453  1.00  0.00    -0.052 OA 
HETATM   23  C   UNL     1      -8.385   5.047  69.614  1.00  0.00    -0.088 C  
HETATM   24  O   UNL     1      -7.851   5.478  68.451  1.00  0.00    -0.087 OA 
ENDBRANCH  15  21
ENDBRANCH  14  15
ENDBRANCH  12  14
ENDBRANCH   9  10
ENDBRANCH   7   9
ENDBRANCH   6   7
ENDBRANCH   4   6
TORSDOF 7
ENDMDL
MODEL      190
REMARK 921   NORMALIZED FREE ENERGY PREDICTED BY IDOCK:   -3.64 KCAL/MOL
REMARK 922        TOTAL FREE ENERGY PREDICTED BY IDOCK:   -6.77 KCAL/MOL
REMARK 923 INTER-LIGAND FREE ENERGY PREDICTED BY IDOCK:   -6.33 KCAL/MOL
REMARK 924 INTRA-LIGAND FREE ENERGY PREDICTED BY IDOCK:   -0.44 KCAL/MOL
REMARK 927      BINDING AFFINITY PREDICTED BY RF-SCORE:    0.00 PKD
ROOT
HETATM    1  C   UNL     1     -10.096  15.445  69.758  1.00  0.00    -0.266 C  
HETATM    2  C   UNL     1     -11.265  14.614  70.297  1.00  0.00    -0.199 C  
HETATM    3  C   UNL     1     -12.454  15.520  70.591  1.00  0.00    -0.483 C  
HETATM    4  C   UNL     1     -11.638  13.523  69.306  1.00  0.00    -0.316 C  
HETATM    5  O   UNL     1     -11.057  13.338  68.243  1.00  0.00    -0.243 OA 
ENDROOT
BRANCH   4   6
HETATM    6  O   UNL     1     -12.648  12.729  69.773  1.00  0.00     0.035 OA 
BRANCH   6   7
HETATM    7  C   UNL     1     -12.243  11.886  70.862  1.00  0.00    -0.249 C  
HETATM    8  C   UNL     1     -13.190  12.095  72.043  1.00  0.00    -0.496 C  
BRANCH   7   9
HETATM    9  O   UNL     1     -12.402  10.485  70.578  1.00  0.00    -0.300 OA 
BRANCH   9  10
HETATM   10  C   UNL     1     -11.502   9.667  71.158  1.00  0.00    -0.384 C  
HETATM   11  O   UNL     1     -10.293   9.758  71.068  1.00  0.00    -0.273 OA 
HETATM   12  N   UNL     1     -12.190   8.782  71.940  1.00  0.00    -0.335 N  
HETATM   13  H   UNL     1     -13.209   8.820  71.942  1.00  0.00     0.000 HD 
BRANCH  12  14
HETATM   14  C   UNL     1     -11.530   7.793  72.766  1.00  0.00    -0.359 C  
BRANCH  14  15
HETATM   15  C   UNL     1     -11.042   6.534  71.974  1.00  0.00    -0.296 C  
HETATM   16  C   UNL     1      -9.515   6.608  71.707  1.00  0.00    -0.151 C  
HETATM   17  C   UNL     1     -11.366   5.274  72.829  1.00  0.00    -0.342 C  
HETATM   18  C   UNL     1     -10.484   5.122  74.070  1.00  0.00    -0.323 C  
HETATM   19  C   UNL     1      -8.660   6.452  72.962  1.00  0.00    -0.119 C  
HETATM   20  C   UNL     1      -9.005   5.169  73.708  1.00  0.00    -0.117 C  
BRANCH  15  21
HETATM   21  C   UNL     1     -11.820   6.472  70.626  1.00  0.00    -0.398 C  
HETATM   22  O   UNL     1     -10.632   5.191  68.949  1.00  0.00    -0.133 OA 
HETATM   23  C   UNL     1     -10.973   6.282  69.381  1.00  0.00    -0.375 C  
HETATM   24  O   UNL     1     -10.626   7.436  68.772  1.00  0.00    -0.206 OA 
ENDBRANCH  15  21
ENDBRANCH  14  15
ENDBRANCH  12  14
ENDBRANCH   9  10
ENDBRANCH   7   9
ENDBRANCH   6   7
ENDBRANCH   4   6
TORSDOF 7
ENDMDL
MODEL      191
REMARK 921   NORMALIZED FREE ENERGY PREDICTED BY IDOCK:   -3.64 KCAL/MOL
REMARK 922        TOTAL FREE ENERGY PREDICTED BY IDOCK:   -6.76 KCAL/MOL
REMARK 923 INTER-LIGAND FREE ENERGY PREDICTED BY IDOCK:   -5.80 KCAL/MOL
REMARK 924 INTRA-LIGAND FREE ENERGY PREDICTED BY IDOCK:   -0.96 KCAL/MOL
REMARK 927      BINDING AFFINITY PREDICTED BY RF-SCORE:    0.00 PKD
ROOT
HETATM    1  C   UNL     1     -11.608  15.851  68.940  1.00  0.00    -0.392 C  
HETATM    2  C   UNL     1     -10.537  15.098  68.144  1.00  0.00    -0.246 C  
HETATM    3  C   UNL     1      -9.150  15.504  68.627  1.00  0.00    -0.202 C  
HETATM    4  C   UNL     1     -10.744  13.597  68.271  1.00  0.00    -0.254 C  
HETATM    5  O   UNL     1     -11.659  13.085  68.905  1.00  0.00    -0.269 OA 
ENDROOT
BRANCH   4   6
HETATM    6  O   UNL     1      -9.835  12.890  67.535  1.00  0.00    -0.202 OA 
BRANCH   6   7
HETATM    7  C   UNL     1     -10.377  11.683  66.979  1.00  0.00    -0.217 C  
HETATM    8  C   UNL     1     -10.467  11.821  65.459  1.00  0.00    -0.311 C  
BRANCH   7   9
HETATM    9  O   UNL     1      -9.507  10.549  67.138  1.00  0.00    -0.156 OA 
BRANCH   9  10
HETATM   10  C   UNL     1     -10.118   9.380  67.417  1.00  0.00    -0.215 C  
HETATM   11  O   UNL     1     -10.307   8.470  66.633  1.00  0.00    -0.298 OA 
HETATM   12  N   UNL     1     -10.395   9.365  68.755  1.00  0.00    -0.204 N  
HETATM   13  H   UNL     1     -10.170  10.191  69.310  1.00  0.00     0.000 HD 
BRANCH  12  14
HETATM   14  C   UNL     1     -10.994   8.225  69.415  1.00  0.00     0.000 C  
BRANCH  14  15
HETATM   15  C   UNL     1     -10.367   7.905  70.814  1.00  0.00    -0.211 C  
HETATM   16  C   UNL     1     -10.886   6.545  71.353  1.00  0.00    -0.289 C  
HETATM   17  C   UNL     1      -8.821   7.848  70.645  1.00  0.00    -0.140 C  
HETATM   18  C   UNL     1      -8.324   6.618  69.882  1.00  0.00    -0.132 C  
HETATM   19  C   UNL     1     -10.373   5.336  70.574  1.00  0.00    -0.336 C  
HETATM   20  C   UNL     1      -8.851   5.331  70.503  1.00  0.00    -0.150 C  
BRANCH  15  21
HETATM   21  C   UNL     1     -10.749   9.052  71.796  1.00  0.00    -0.437 C  
HETATM   22  O   UNL     1     -13.058   8.905  72.513  1.00  0.00    -0.422 OA 
HETATM   23  C   UNL     1     -12.214   9.447  71.815  1.00  0.00    -0.390 C  
HETATM   24  O   UNL     1     -12.516  10.473  70.989  1.00  0.00    -0.329 OA 
ENDBRANCH  15  21
ENDBRANCH  14  15
ENDBRANCH  12  14
ENDBRANCH   9  10
ENDBRANCH   7   9
ENDBRANCH   6   7
ENDBRANCH   4   6
TORSDOF 7
ENDMDL
MODEL      192
REMARK 921   NORMALIZED FREE ENERGY PREDICTED BY IDOCK:   -3.64 KCAL/MOL
REMARK 922        TOTAL FREE ENERGY PREDICTED BY IDOCK:   -6.76 KCAL/MOL
REMARK 923 INTER-LIGAND FREE ENERGY PREDICTED BY IDOCK:   -6.01 KCAL/MOL
REMARK 924 INTRA-LIGAND FREE ENERGY PREDICTED BY IDOCK:   -0.75 KCAL/MOL
REMARK 927      BINDING AFFINITY PREDICTED BY RF-SCORE:    0.00 PKD
ROOT
HETATM    1  C   UNL     1     -12.861  15.555  71.747  1.00  0.00    -0.512 C  
HETATM    2  C   UNL     1     -12.128  14.346  71.158  1.00  0.00    -0.410 C  
HETATM    3  C   UNL     1     -12.958  13.085  71.362  1.00  0.00    -0.373 C  
HETATM    4  C   UNL     1     -11.832  14.574  69.684  1.00  0.00    -0.318 C  
HETATM    5  O   UNL     1     -12.127  15.600  69.080  1.00  0.00    -0.337 OA 
ENDROOT
BRANCH   4   6
HETATM    6  O   UNL     1     -11.136  13.536  69.133  1.00  0.00    -0.256 OA 
BRANCH   6   7
HETATM    7  C   UNL     1     -11.637  13.141  67.847  1.00  0.00    -0.336 C  
HETATM    8  C   UNL     1     -10.860  13.874  66.754  1.00  0.00    -0.286 C  
BRANCH   7   9
HETATM    9  O   UNL     1     -11.378  11.760  67.542  1.00  0.00    -0.274 OA 
BRANCH   9  10
HETATM   10  C   UNL     1     -10.401  11.177  68.266  1.00  0.00    -0.180 C  
HETATM   11  O   UNL     1      -9.207  11.368  68.138  1.00  0.00    -0.164 OA 
HETATM   12  N   UNL     1     -10.999  10.411  69.227  1.00  0.00    -0.227 N  
HETATM   13  H   UNL     1     -12.017  10.346  69.238  1.00  0.00     0.000 HD 
BRANCH  12  14
HETATM   14  C   UNL     1     -10.246   9.690  70.231  1.00  0.00    -0.277 C  
BRANCH  14  15
HETATM   15  C   UNL     1     -10.398   8.134  70.135  1.00  0.00    -0.215 C  
HETATM   16  C   UNL     1     -10.299   7.660  68.661  1.00  0.00    -0.220 C  
HETATM   17  C   UNL     1      -9.256   7.489  70.973  1.00  0.00    -0.153 C  
HETATM   18  C   UNL     1      -7.868   7.624  70.342  1.00  0.00    -0.092 C  
HETATM   19  C   UNL     1      -8.903   7.806  68.057  1.00  0.00    -0.124 C  
HETATM   20  C   UNL     1      -7.857   7.101  68.911  1.00  0.00    -0.115 C  
BRANCH  15  21
HETATM   21  C   UNL     1     -11.780   7.739  70.733  1.00  0.00    -0.242 C  
HETATM   22  O   UNL     1     -12.954   9.648  71.650  1.00  0.00    -0.349 OA 
HETATM   23  C   UNL     1     -12.302   8.633  71.843  1.00  0.00    -0.354 C  
HETATM   24  O   UNL     1     -11.989   8.205  73.085  1.00  0.00    -0.192 OA 
ENDBRANCH  15  21
ENDBRANCH  14  15
ENDBRANCH  12  14
ENDBRANCH   9  10
ENDBRANCH   7   9
ENDBRANCH   6   7
ENDBRANCH   4   6
TORSDOF 7
ENDMDL
MODEL      193
REMARK 921   NORMALIZED FREE ENERGY PREDICTED BY IDOCK:   -3.63 KCAL/MOL
REMARK 922        TOTAL FREE ENERGY PREDICTED BY IDOCK:   -6.75 KCAL/MOL
REMARK 923 INTER-LIGAND FREE ENERGY PREDICTED BY IDOCK:   -6.58 KCAL/MOL
REMARK 924 INTRA-LIGAND FREE ENERGY PREDICTED BY IDOCK:   -0.16 KCAL/MOL
REMARK 927      BINDING AFFINITY PREDICTED BY RF-SCORE:    0.00 PKD
ROOT
HETATM    1  C   UNL     1     -11.925  11.156  69.451  1.00  0.00    -0.420 C  
HETATM    2  C   UNL     1     -11.600   9.872  70.222  1.00  0.00    -0.319 C  
HETATM    3  C   UNL     1     -10.092   9.732  70.384  1.00  0.00    -0.313 C  
HETATM    4  C   UNL     1     -12.298   9.877  71.573  1.00  0.00    -0.412 C  
HETATM    5  O   UNL     1     -13.032  10.780  71.959  1.00  0.00    -0.463 OA 
ENDROOT
BRANCH   4   6
HETATM    6  O   UNL     1     -12.071   8.725  72.272  1.00  0.00    -0.366 OA 
BRANCH   6   7
HETATM    7  C   UNL     1     -13.084   7.730  72.062  1.00  0.00    -0.205 C  
HETATM    8  C   UNL     1     -14.408   8.418  71.731  1.00  0.00    -0.558 C  
BRANCH   7   9
HETATM    9  O   UNL     1     -12.849   6.926  70.893  1.00  0.00    -0.294 OA 
BRANCH   9  10
HETATM   10  C   UNL     1     -11.640   6.333  70.826  1.00  0.00    -0.279 C  
HETATM   11  O   UNL     1     -11.069   5.774  71.743  1.00  0.00    -0.265 OA 
HETATM   12  N   UNL     1     -11.222   6.389  69.527  1.00  0.00    -0.430 N  
HETATM   13  H   UNL     1     -11.805   6.876  68.846  1.00  0.00     0.000 HD 
BRANCH  12  14
HETATM   14  C   UNL     1      -9.985   5.785  69.078  1.00  0.00    -0.169 C  
BRANCH  14  15
HETATM   15  C   UNL     1      -9.828   5.753  67.520  1.00  0.00    -0.145 C  
HETATM   16  C   UNL     1     -10.871   6.682  66.842  1.00  0.00    -0.415 C  
HETATM   17  C   UNL     1      -8.390   6.236  67.173  1.00  0.00    -0.109 C  
HETATM   18  C   UNL     1      -8.165   7.733  67.397  1.00  0.00    -0.123 C  
HETATM   19  C   UNL     1     -10.621   8.169  67.081  1.00  0.00    -0.355 C  
HETATM   20  C   UNL     1      -9.210   8.565  66.665  1.00  0.00    -0.223 C  
BRANCH  15  21
HETATM   21  C   UNL     1     -10.025   4.285  67.038  1.00  0.00    -0.166 C  
HETATM   22  O   UNL     1      -8.694   3.786  65.077  1.00  0.00    -0.111 OA 
HETATM   23  C   UNL     1      -9.788   4.036  65.560  1.00  0.00    -0.186 C  
HETATM   24  O   UNL     1     -10.907   4.107  64.806  1.00  0.00    -0.258 OA 
ENDBRANCH  15  21
ENDBRANCH  14  15
ENDBRANCH  12  14
ENDBRANCH   9  10
ENDBRANCH   7   9
ENDBRANCH   6   7
ENDBRANCH   4   6
TORSDOF 7
ENDMDL
MODEL      194
REMARK 921   NORMALIZED FREE ENERGY PREDICTED BY IDOCK:   -3.61 KCAL/MOL
REMARK 922        TOTAL FREE ENERGY PREDICTED BY IDOCK:   -6.72 KCAL/MOL
REMARK 923 INTER-LIGAND FREE ENERGY PREDICTED BY IDOCK:   -5.56 KCAL/MOL
REMARK 924 INTRA-LIGAND FREE ENERGY PREDICTED BY IDOCK:   -1.16 KCAL/MOL
REMARK 927      BINDING AFFINITY PREDICTED BY RF-SCORE:    0.00 PKD
ROOT
HETATM    1  C   UNL     1      -9.314   4.682  66.813  1.00  0.00    -0.153 C  
HETATM    2  C   UNL     1      -8.540   5.638  65.900  1.00  0.00    -0.144 C  
HETATM    3  C   UNL     1      -8.707   5.217  64.446  1.00  0.00    -0.088 C  
HETATM    4  C   UNL     1      -9.010   7.068  66.114  1.00  0.00    -0.136 C  
HETATM    5  O   UNL     1      -9.871   7.389  66.925  1.00  0.00    -0.184 OA 
ENDROOT
BRANCH   4   6
HETATM    6  O   UNL     1      -8.309   7.959  65.350  1.00  0.00    -0.136 OA 
BRANCH   6   7
HETATM    7  C   UNL     1      -8.558   9.326  65.708  1.00  0.00    -0.152 C  
HETATM    8  C   UNL     1      -7.287  10.146  65.489  1.00  0.00    -0.143 C  
BRANCH   7   9
HETATM    9  O   UNL     1      -9.501   9.973  64.837  1.00  0.00    -0.251 OA 
BRANCH   9  10
HETATM   10  C   UNL     1     -10.391  10.786  65.441  1.00  0.00    -0.247 C  
HETATM   11  O   UNL     1     -10.977  11.715  64.919  1.00  0.00    -0.303 OA 
HETATM   12  N   UNL     1     -10.586  10.317  66.709  1.00  0.00    -0.214 N  
HETATM   13  H   UNL     1     -10.041   9.514  67.024  1.00  0.00     0.000 HD 
BRANCH  12  14
HETATM   14  C   UNL     1     -11.534  10.914  67.625  1.00  0.00    -0.200 C  
BRANCH  14  15
HETATM   15  C   UNL     1     -10.869  11.582  68.876  1.00  0.00    -0.263 C  
HETATM   16  C   UNL     1     -11.879  11.683  70.050  1.00  0.00    -0.435 C  
HETATM   17  C   UNL     1      -9.656  10.704  69.300  1.00  0.00    -0.164 C  
HETATM   18  C   UNL     1     -10.047   9.366  69.933  1.00  0.00    -0.243 C  
HETATM   19  C   UNL     1     -12.250  10.334  70.663  1.00  0.00    -0.422 C  
HETATM   20  C   UNL     1     -11.009   9.566  71.098  1.00  0.00    -0.438 C  
BRANCH  15  21
HETATM   21  C   UNL     1     -10.377  13.002  68.469  1.00  0.00    -0.247 C  
HETATM   22  O   UNL     1     -11.960  14.726  69.090  1.00  0.00    -0.303 OA 
HETATM   23  C   UNL     1     -11.462  14.032  68.216  1.00  0.00    -0.304 C  
HETATM   24  O   UNL     1     -11.835  14.129  66.921  1.00  0.00    -0.391 OA 
ENDBRANCH  15  21
ENDBRANCH  14  15
ENDBRANCH  12  14
ENDBRANCH   9  10
ENDBRANCH   7   9
ENDBRANCH   6   7
ENDBRANCH   4   6
TORSDOF 7
ENDMDL
MODEL      195
REMARK 921   NORMALIZED FREE ENERGY PREDICTED BY IDOCK:   -3.61 KCAL/MOL
REMARK 922        TOTAL FREE ENERGY PREDICTED BY IDOCK:   -6.71 KCAL/MOL
REMARK 923 INTER-LIGAND FREE ENERGY PREDICTED BY IDOCK:   -6.36 KCAL/MOL
REMARK 924 INTRA-LIGAND FREE ENERGY PREDICTED BY IDOCK:   -0.35 KCAL/MOL
REMARK 927      BINDING AFFINITY PREDICTED BY RF-SCORE:    0.00 PKD
ROOT
HETATM    1  C   UNL     1      -8.712   6.546  65.662  1.00  0.00    -0.102 C  
HETATM    2  C   UNL     1      -9.322   6.605  67.066  1.00  0.00    -0.160 C  
HETATM    3  C   UNL     1      -9.316   5.218  67.694  1.00  0.00    -0.128 C  
HETATM    4  C   UNL     1      -8.563   7.601  67.930  1.00  0.00    -0.122 C  
HETATM    5  O   UNL     1      -7.615   8.268  67.530  1.00  0.00    -0.095 OA 
ENDROOT
BRANCH   4   6
HETATM    6  O   UNL     1      -9.108   7.717  69.178  1.00  0.00    -0.145 OA 
BRANCH   6   7
HETATM    7  C   UNL     1     -10.288   8.533  69.202  1.00  0.00    -0.217 C  
HETATM    8  C   UNL     1     -11.158   8.129  70.392  1.00  0.00    -0.239 C  
BRANCH   7   9
HETATM    9  O   UNL     1     -10.009   9.917  69.476  1.00  0.00    -0.195 OA 
BRANCH   9  10
HETATM   10  C   UNL     1     -10.994  10.783  69.162  1.00  0.00    -0.244 C  
HETATM   11  O   UNL     1     -11.814  11.242  69.934  1.00  0.00    -0.297 OA 
HETATM   12  N   UNL     1     -10.841  11.125  67.847  1.00  0.00    -0.217 N  
HETATM   13  H   UNL     1     -10.098  10.679  67.309  1.00  0.00     0.000 HD 
BRANCH  12  14
HETATM   14  C   UNL     1     -11.691  12.094  67.189  1.00  0.00    -0.302 C  
BRANCH  14  15
HETATM   15  C   UNL     1     -10.904  13.146  66.336  1.00  0.00    -0.299 C  
HETATM   16  C   UNL     1     -11.488  14.570  66.540  1.00  0.00    -0.366 C  
HETATM   17  C   UNL     1      -9.417  13.117  66.791  1.00  0.00    -0.252 C  
HETATM   18  C   UNL     1      -9.178  13.720  68.177  1.00  0.00    -0.199 C  
HETATM   19  C   UNL     1     -11.234  15.147  67.931  1.00  0.00    -0.334 C  
HETATM   20  C   UNL     1      -9.749  15.129  68.273  1.00  0.00    -0.219 C  
BRANCH  15  21
HETATM   21  C   UNL     1     -11.007  12.736  64.837  1.00  0.00    -0.324 C  
HETATM   22  O   UNL     1     -12.495  14.187  63.596  1.00  0.00    -0.819 OA 
HETATM   23  C   UNL     1     -12.299  13.108  64.135  1.00  0.00    -0.348 C  
HETATM   24  O   UNL     1     -13.231  12.131  64.146  1.00  0.00    -0.740 OA 
ENDBRANCH  15  21
ENDBRANCH  14  15
ENDBRANCH  12  14
ENDBRANCH   9  10
ENDBRANCH   7   9
ENDBRANCH   6   7
ENDBRANCH   4   6
TORSDOF 7
ENDMDL
MODEL      196
REMARK 921   NORMALIZED FREE ENERGY PREDICTED BY IDOCK:   -3.61 KCAL/MOL
REMARK 922        TOTAL FREE ENERGY PREDICTED BY IDOCK:   -6.71 KCAL/MOL
REMARK 923 INTER-LIGAND FREE ENERGY PREDICTED BY IDOCK:   -5.90 KCAL/MOL
REMARK 924 INTRA-LIGAND FREE ENERGY PREDICTED BY IDOCK:   -0.81 KCAL/MOL
REMARK 927      BINDING AFFINITY PREDICTED BY RF-SCORE:    0.00 PKD
ROOT
HETATM    1  C   UNL     1     -10.400  14.029  67.378  1.00  0.00    -0.259 C  
HETATM    2  C   UNL     1     -11.112  13.218  68.466  1.00  0.00    -0.294 C  
HETATM    3  C   UNL     1     -12.130  14.094  69.184  1.00  0.00    -0.362 C  
HETATM    4  C   UNL     1     -11.775  11.990  67.860  1.00  0.00    -0.323 C  
HETATM    5  O   UNL     1     -11.715  11.699  66.671  1.00  0.00    -0.523 OA 
ENDROOT
BRANCH   4   6
HETATM    6  O   UNL     1     -12.381  11.215  68.808  1.00  0.00    -0.539 OA 
BRANCH   6   7
HETATM    7  C   UNL     1     -11.459  10.674  69.766  1.00  0.00    -0.302 C  
HETATM    8  C   UNL     1     -12.187  10.436  71.089  1.00  0.00    -0.498 C  
BRANCH   7   9
HETATM    9  O   UNL     1     -10.998   9.357  69.422  1.00  0.00    -0.222 OA 
BRANCH   9  10
HETATM   10  C   UNL     1      -9.825   8.987  69.974  1.00  0.00    -0.184 C  
HETATM   11  O   UNL     1      -8.822   9.672  70.044  1.00  0.00    -0.202 OA 
HETATM   12  N   UNL     1      -9.997   7.748  70.524  1.00  0.00    -0.187 N  
HETATM   13  H   UNL     1     -10.898   7.283  70.409  1.00  0.00     0.000 HD 
BRANCH  12  14
HETATM   14  C   UNL     1      -8.953   7.069  71.262  1.00  0.00    -0.137 C  
BRANCH  14  15
HETATM   15  C   UNL     1      -9.182   7.058  72.811  1.00  0.00    -0.157 C  
HETATM   16  C   UNL     1      -8.554   5.791  73.452  1.00  0.00    -0.117 C  
HETATM   17  C   UNL     1      -8.514   8.332  73.403  1.00  0.00    -0.267 C  
HETATM   18  C   UNL     1      -6.984   8.294  73.396  1.00  0.00    -0.148 C  
HETATM   19  C   UNL     1      -7.027   5.780  73.431  1.00  0.00    -0.085 C  
HETATM   20  C   UNL     1      -6.458   7.037  74.077  1.00  0.00    -0.074 C  
BRANCH  15  21
HETATM   21  C   UNL     1     -10.715   7.090  73.080  1.00  0.00    -0.359 C  
HETATM   22  O   UNL     1     -11.623   4.875  73.439  1.00  0.00    -0.313 OA 
HETATM   23  C   UNL     1     -11.481   5.837  72.700  1.00  0.00    -0.287 C  
HETATM   24  O   UNL     1     -12.012   5.874  71.458  1.00  0.00    -0.060 OA 
ENDBRANCH  15  21
ENDBRANCH  14  15
ENDBRANCH  12  14
ENDBRANCH   9  10
ENDBRANCH   7   9
ENDBRANCH   6   7
ENDBRANCH   4   6
TORSDOF 7
ENDMDL
MODEL      197
REMARK 921   NORMALIZED FREE ENERGY PREDICTED BY IDOCK:   -3.60 KCAL/MOL
REMARK 922        TOTAL FREE ENERGY PREDICTED BY IDOCK:   -6.70 KCAL/MOL
REMARK 923 INTER-LIGAND FREE ENERGY PREDICTED BY IDOCK:   -7.10 KCAL/MOL
REMARK 924 INTRA-LIGAND FREE ENERGY PREDICTED BY IDOCK:    0.39 KCAL/MOL
REMARK 927      BINDING AFFINITY PREDICTED BY RF-SCORE:    0.00 PKD
ROOT
HETATM    1  C   UNL     1      -8.492   8.360  71.906  1.00  0.00    -0.237 C  
HETATM    2  C   UNL     1      -9.719   8.327  70.989  1.00  0.00    -0.201 C  
HETATM    3  C   UNL     1      -9.514   7.296  69.885  1.00  0.00    -0.157 C  
HETATM    4  C   UNL     1     -10.972   8.025  71.795  1.00  0.00    -0.251 C  
HETATM    5  O   UNL     1     -10.979   7.859  73.010  1.00  0.00    -0.393 OA 
ENDROOT
BRANCH   4   6
HETATM    6  O   UNL     1     -12.096   8.033  71.018  1.00  0.00    -0.292 OA 
BRANCH   6   7
HETATM    7  C   UNL     1     -12.791   9.289  71.046  1.00  0.00    -0.140 C  
HETATM    8  C   UNL     1     -13.767   9.301  72.223  1.00  0.00    -0.527 C  
BRANCH   7   9
HETATM    9  O   UNL     1     -11.930  10.401  71.345  1.00  0.00    -0.354 OA 
BRANCH   9  10
HETATM   10  C   UNL     1     -12.293  11.581  70.802  1.00  0.00    -0.375 C  
HETATM   11  O   UNL     1     -12.824  12.503  71.391  1.00  0.00    -0.366 OA 
HETATM   12  N   UNL     1     -11.868  11.589  69.504  1.00  0.00    -0.326 N  
HETATM   13  H   UNL     1     -11.417  10.753  69.131  1.00  0.00     0.000 HD 
BRANCH  12  14
HETATM   14  C   UNL     1     -12.032  12.735  68.635  1.00  0.00    -0.233 C  
BRANCH  14  15
HETATM   15  C   UNL     1     -10.977  12.807  67.480  1.00  0.00    -0.280 C  
HETATM   16  C   UNL     1      -9.534  12.715  68.045  1.00  0.00    -0.209 C  
HETATM   17  C   UNL     1     -11.240  11.615  66.515  1.00  0.00    -0.356 C  
HETATM   18  C   UNL     1     -10.857  10.250  67.092  1.00  0.00    -0.278 C  
HETATM   19  C   UNL     1      -9.179  11.343  68.613  1.00  0.00    -0.149 C  
HETATM   20  C   UNL     1      -9.416  10.243  67.586  1.00  0.00    -0.169 C  
BRANCH  15  21
HETATM   21  C   UNL     1     -11.171  14.153  66.723  1.00  0.00    -0.330 C  
HETATM   22  O   UNL     1     -13.172  14.151  65.360  1.00  0.00    -0.741 OA 
HETATM   23  C   UNL     1     -11.955  14.077  65.426  1.00  0.00    -0.380 C  
HETATM   24  O   UNL     1     -11.183  13.926  64.327  1.00  0.00    -0.354 OA 
ENDBRANCH  15  21
ENDBRANCH  14  15
ENDBRANCH  12  14
ENDBRANCH   9  10
ENDBRANCH   7   9
ENDBRANCH   6   7
ENDBRANCH   4   6
TORSDOF 7
ENDMDL
MODEL      198
REMARK 921   NORMALIZED FREE ENERGY PREDICTED BY IDOCK:   -3.60 KCAL/MOL
REMARK 922        TOTAL FREE ENERGY PREDICTED BY IDOCK:   -6.70 KCAL/MOL
REMARK 923 INTER-LIGAND FREE ENERGY PREDICTED BY IDOCK:   -5.96 KCAL/MOL
REMARK 924 INTRA-LIGAND FREE ENERGY PREDICTED BY IDOCK:   -0.74 KCAL/MOL
REMARK 927      BINDING AFFINITY PREDICTED BY RF-SCORE:    0.00 PKD
ROOT
HETATM    1  C   UNL     1      -8.831   9.349  62.663  1.00  0.00    -0.232 C  
HETATM    2  C   UNL     1      -7.921   9.049  63.859  1.00  0.00    -0.146 C  
HETATM    3  C   UNL     1      -6.743  10.014  63.871  1.00  0.00    -0.128 C  
HETATM    4  C   UNL     1      -8.710   9.131  65.157  1.00  0.00    -0.195 C  
HETATM    5  O   UNL     1      -9.909   9.380  65.211  1.00  0.00    -0.231 OA 
ENDROOT
BRANCH   4   6
HETATM    6  O   UNL     1      -7.943   8.822  66.244  1.00  0.00    -0.103 OA 
BRANCH   6   7
HETATM    7  C   UNL     1      -8.051   9.788  67.301  1.00  0.00    -0.117 C  
HETATM    8  C   UNL     1      -6.655  10.117  67.830  1.00  0.00    -0.067 C  
BRANCH   7   9
HETATM    9  O   UNL     1      -8.523  11.068  66.848  1.00  0.00    -0.131 OA 
BRANCH   9  10
HETATM   10  C   UNL     1      -9.248  11.771  67.740  1.00  0.00    -0.181 C  
HETATM   11  O   UNL     1      -9.793  11.321  68.730  1.00  0.00    -0.205 OA 
HETATM   12  N   UNL     1      -9.176  13.089  67.386  1.00  0.00    -0.199 N  
HETATM   13  H   UNL     1      -8.671  13.341  66.536  1.00  0.00     0.000 HD 
BRANCH  12  14
HETATM   14  C   UNL     1      -9.789  14.142  68.168  1.00  0.00    -0.229 C  
BRANCH  14  15
HETATM   15  C   UNL     1     -10.758  15.056  67.344  1.00  0.00    -0.289 C  
HETATM   16  C   UNL     1     -11.008  16.399  68.082  1.00  0.00    -0.339 C  
HETATM   17  C   UNL     1     -10.099  15.331  65.961  1.00  0.00    -0.340 C  
HETATM   18  C   UNL     1      -8.892  16.270  66.022  1.00  0.00    -0.308 C  
HETATM   19  C   UNL     1      -9.788  17.316  68.126  1.00  0.00    -0.290 C  
HETATM   20  C   UNL     1      -9.241  17.574  66.728  1.00  0.00    -0.277 C  
BRANCH  15  21
HETATM   21  C   UNL     1     -12.102  14.295  67.148  1.00  0.00    -0.412 C  
HETATM   22  O   UNL     1     -11.873  12.422  65.629  1.00  0.00    -0.401 OA 
HETATM   23  C   UNL     1     -12.262  13.563  65.828  1.00  0.00    -0.461 C  
HETATM   24  O   UNL     1     -12.889  14.285  64.874  1.00  0.00    -0.680 OA 
ENDBRANCH  15  21
ENDBRANCH  14  15
ENDBRANCH  12  14
ENDBRANCH   9  10
ENDBRANCH   7   9
ENDBRANCH   6   7
ENDBRANCH   4   6
TORSDOF 7
ENDMDL
MODEL      199
REMARK 921   NORMALIZED FREE ENERGY PREDICTED BY IDOCK:   -3.58 KCAL/MOL
REMARK 922        TOTAL FREE ENERGY PREDICTED BY IDOCK:   -6.67 KCAL/MOL
REMARK 923 INTER-LIGAND FREE ENERGY PREDICTED BY IDOCK:   -5.75 KCAL/MOL
REMARK 924 INTRA-LIGAND FREE ENERGY PREDICTED BY IDOCK:   -0.92 KCAL/MOL
REMARK 927      BINDING AFFINITY PREDICTED BY RF-SCORE:    0.00 PKD
ROOT
HETATM    1  C   UNL     1     -11.856  12.726  68.625  1.00  0.00    -0.341 C  
HETATM    2  C   UNL     1     -11.812  11.221  68.908  1.00  0.00    -0.413 C  
HETATM    3  C   UNL     1     -10.407  10.686  68.661  1.00  0.00    -0.202 C  
HETATM    4  C   UNL     1     -12.264  10.938  70.332  1.00  0.00    -0.365 C  
HETATM    5  O   UNL     1     -12.629  11.805  71.117  1.00  0.00    -0.378 OA 
ENDROOT
BRANCH   4   6
HETATM    6  O   UNL     1     -12.284   9.599  70.608  1.00  0.00    -0.252 OA 
BRANCH   6   7
HETATM    7  C   UNL     1     -12.495   9.315  71.999  1.00  0.00    -0.378 C  
HETATM    8  C   UNL     1     -13.921   8.799  72.198  1.00  0.00    -0.522 C  
BRANCH   7   9
HETATM    9  O   UNL     1     -11.697   8.218  72.476  1.00  0.00    -0.386 OA 
BRANCH   9  10
HETATM   10  C   UNL     1     -10.373   8.316  72.244  1.00  0.00    -0.316 C  
HETATM   11  O   UNL     1      -9.534   8.680  73.045  1.00  0.00    -0.159 OA 
HETATM   12  N   UNL     1     -10.137   7.841  70.984  1.00  0.00    -0.186 N  
HETATM   13  H   UNL     1     -10.931   7.549  70.414  1.00  0.00     0.000 HD 
BRANCH  12  14
HETATM   14  C   UNL     1      -8.805   7.737  70.426  1.00  0.00    -0.146 C  
BRANCH  14  15
HETATM   15  C   UNL     1      -8.697   6.723  69.238  1.00  0.00    -0.135 C  
HETATM   16  C   UNL     1      -7.391   5.890  69.342  1.00  0.00    -0.075 C  
HETATM   17  C   UNL     1      -9.931   5.777  69.301  1.00  0.00    -0.238 C  
HETATM   18  C   UNL     1      -9.891   4.779  70.461  1.00  0.00    -0.301 C  
HETATM   19  C   UNL     1      -7.380   4.902  70.507  1.00  0.00    -0.054 C  
HETATM   20  C   UNL     1      -8.593   3.981  70.461  1.00  0.00    -0.106 C  
BRANCH  15  21
HETATM   21  C   UNL     1      -8.714   7.527  67.905  1.00  0.00    -0.124 C  
HETATM   22  O   UNL     1     -10.903   7.523  66.868  1.00  0.00    -0.345 OA 
HETATM   23  C   UNL     1      -9.757   7.101  66.888  1.00  0.00    -0.186 C  
HETATM   24  O   UNL     1      -9.306   6.205  65.982  1.00  0.00    -0.145 OA 
ENDBRANCH  15  21
ENDBRANCH  14  15
ENDBRANCH  12  14
ENDBRANCH   9  10
ENDBRANCH   7   9
ENDBRANCH   6   7
ENDBRANCH   4   6
TORSDOF 7
ENDMDL
MODEL      200
REMARK 921   NORMALIZED FREE ENERGY PREDICTED BY IDOCK:   -3.57 KCAL/MOL
REMARK 922        TOTAL FREE ENERGY PREDICTED BY IDOCK:   -6.66 KCAL/MOL
REMARK 923 INTER-LIGAND FREE ENERGY PREDICTED BY IDOCK:   -5.54 KCAL/MOL
REMARK 924 INTRA-LIGAND FREE ENERGY PREDICTED BY IDOCK:   -1.12 KCAL/MOL
REMARK 927      BINDING AFFINITY PREDICTED BY RF-SCORE:    0.00 PKD
ROOT
HETATM    1  C   UNL     1      -7.777  13.961  67.349  1.00  0.00    -0.165 C  
HETATM    2  C   UNL     1      -9.306  13.908  67.437  1.00  0.00    -0.228 C  
HETATM    3  C   UNL     1      -9.913  14.094  66.053  1.00  0.00    -0.340 C  
HETATM    4  C   UNL     1      -9.752  12.594  68.059  1.00  0.00    -0.215 C  
HETATM    5  O   UNL     1      -8.980  11.726  68.449  1.00  0.00    -0.178 OA 
ENDROOT
BRANCH   4   6
HETATM    6  O   UNL     1     -11.110  12.528  68.199  1.00  0.00    -0.217 OA 
BRANCH   6   7
HETATM    7  C   UNL     1     -11.541  12.633  69.564  1.00  0.00    -0.281 C  
HETATM    8  C   UNL     1     -12.359  13.912  69.740  1.00  0.00    -0.330 C  
BRANCH   7   9
HETATM    9  O   UNL     1     -12.479  11.609  69.938  1.00  0.00    -0.174 OA 
BRANCH   9  10
HETATM   10  C   UNL     1     -12.040  10.721  70.852  1.00  0.00    -0.370 C  
HETATM   11  O   UNL     1     -12.667  10.318  71.813  1.00  0.00    -0.408 OA 
HETATM   12  N   UNL     1     -10.808  10.287  70.450  1.00  0.00    -0.385 N  
HETATM   13  H   UNL     1     -10.396  10.695  69.611  1.00  0.00     0.000 HD 
BRANCH  12  14
HETATM   14  C   UNL     1     -10.066   9.272  71.166  1.00  0.00    -0.304 C  
BRANCH  14  15
HETATM   15  C   UNL     1     -10.284   7.823  70.613  1.00  0.00    -0.199 C  
HETATM   16  C   UNL     1     -10.711   7.861  69.121  1.00  0.00    -0.130 C  
HETATM   17  C   UNL     1      -8.943   7.048  70.757  1.00  0.00    -0.150 C  
HETATM   18  C   UNL     1      -7.853   7.504  69.784  1.00  0.00    -0.108 C  
HETATM   19  C   UNL     1      -9.604   8.319  68.174  1.00  0.00    -0.163 C  
HETATM   20  C   UNL     1      -8.348   7.473  68.344  1.00  0.00    -0.125 C  
BRANCH  15  21
HETATM   21  C   UNL     1     -11.388   7.134  71.468  1.00  0.00    -0.285 C  
HETATM   22  O   UNL     1     -10.672   6.763  73.752  1.00  0.00    -0.325 OA 
HETATM   23  C   UNL     1     -10.897   6.306  72.641  1.00  0.00    -0.242 C  
HETATM   24  O   UNL     1     -10.733   4.995  72.357  1.00  0.00    -0.215 OA 
ENDBRANCH  15  21
ENDBRANCH  14  15
ENDBRANCH  12  14
ENDBRANCH   9  10
ENDBRANCH   7   9
ENDBRANCH   6   7
ENDBRANCH   4   6
TORSDOF 7
ENDMDL
MODEL      201
REMARK 921   NORMALIZED FREE ENERGY PREDICTED BY IDOCK:   -3.56 KCAL/MOL
REMARK 922        TOTAL FREE ENERGY PREDICTED BY IDOCK:   -6.65 KCAL/MOL
REMARK 923 INTER-LIGAND FREE ENERGY PREDICTED BY IDOCK:   -7.16 KCAL/MOL
REMARK 924 INTRA-LIGAND FREE ENERGY PREDICTED BY IDOCK:    0.51 KCAL/MOL
REMARK 927      BINDING AFFINITY PREDICTED BY RF-SCORE:    0.00 PKD
ROOT
HETATM    1  C   UNL     1     -11.674   6.805  70.997  1.00  0.00    -0.406 C  
HETATM    2  C   UNL     1     -11.629   8.321  70.784  1.00  0.00    -0.250 C  
HETATM    3  C   UNL     1     -12.134   9.036  72.030  1.00  0.00    -0.440 C  
HETATM    4  C   UNL     1     -10.217   8.763  70.433  1.00  0.00    -0.197 C  
HETATM    5  O   UNL     1      -9.269   7.994  70.319  1.00  0.00    -0.153 OA 
ENDROOT
BRANCH   4   6
HETATM    6  O   UNL     1     -10.145  10.106  70.188  1.00  0.00    -0.246 OA 
BRANCH   6   7
HETATM    7  C   UNL     1     -10.509  10.453  68.844  1.00  0.00    -0.212 C  
HETATM    8  C   UNL     1     -10.613   9.181  68.003  1.00  0.00    -0.253 C  
BRANCH   7   9
HETATM    9  O   UNL     1     -11.835  11.001  68.744  1.00  0.00    -0.364 OA 
BRANCH   9  10
HETATM   10  C   UNL     1     -11.902  12.312  68.435  1.00  0.00    -0.304 C  
HETATM   11  O   UNL     1     -11.789  13.236  69.217  1.00  0.00    -0.302 OA 
HETATM   12  N   UNL     1     -12.021  12.411  67.077  1.00  0.00    -0.284 N  
HETATM   13  H   UNL     1     -12.090  11.555  66.528  1.00  0.00     0.000 HD 
BRANCH  12  14
HETATM   14  C   UNL     1     -12.053  13.684  66.387  1.00  0.00    -0.433 C  
BRANCH  14  15
HETATM   15  C   UNL     1     -10.970  13.820  65.265  1.00  0.00    -0.322 C  
HETATM   16  C   UNL     1      -9.897  12.705  65.396  1.00  0.00    -0.157 C  
HETATM   17  C   UNL     1     -11.687  13.700  63.889  1.00  0.00    -0.363 C  
HETATM   18  C   UNL     1     -12.179  12.288  63.564  1.00  0.00    -0.669 C  
HETATM   19  C   UNL     1     -10.416  11.307  65.065  1.00  0.00    -0.359 C  
HETATM   20  C   UNL     1     -11.053  11.269  63.682  1.00  0.00    -0.300 C  
BRANCH  15  21
HETATM   21  C   UNL     1     -10.304  15.221  65.394  1.00  0.00    -0.421 C  
HETATM   22  O   UNL     1      -8.446  15.207  66.947  1.00  0.00    -0.219 OA 
HETATM   23  C   UNL     1      -9.607  15.505  66.712  1.00  0.00    -0.235 C  
HETATM   24  O   UNL     1     -10.386  16.133  67.620  1.00  0.00    -0.273 OA 
ENDBRANCH  15  21
ENDBRANCH  14  15
ENDBRANCH  12  14
ENDBRANCH   9  10
ENDBRANCH   7   9
ENDBRANCH   6   7
ENDBRANCH   4   6
TORSDOF 7
ENDMDL
MODEL      202
REMARK 921   NORMALIZED FREE ENERGY PREDICTED BY IDOCK:   -3.56 KCAL/MOL
REMARK 922        TOTAL FREE ENERGY PREDICTED BY IDOCK:   -6.64 KCAL/MOL
REMARK 923 INTER-LIGAND FREE ENERGY PREDICTED BY IDOCK:   -5.93 KCAL/MOL
REMARK 924 INTRA-LIGAND FREE ENERGY PREDICTED BY IDOCK:   -0.72 KCAL/MOL
REMARK 927      BINDING AFFINITY PREDICTED BY RF-SCORE:    0.00 PKD
ROOT
HETATM    1  C   UNL     1     -10.402  16.322  69.571  1.00  0.00    -0.284 C  
HETATM    2  C   UNL     1     -11.093  15.279  70.455  1.00  0.00    -0.335 C  
HETATM    3  C   UNL     1     -11.816  15.969  71.605  1.00  0.00    -0.582 C  
HETATM    4  C   UNL     1     -12.054  14.439  69.628  1.00  0.00    -0.334 C  
HETATM    5  O   UNL     1     -12.218  14.580  68.422  1.00  0.00    -0.251 OA 
ENDROOT
BRANCH   4   6
HETATM    6  O   UNL     1     -12.656  13.464  70.374  1.00  0.00    -0.259 OA 
BRANCH   6   7
HETATM    7  C   UNL     1     -12.058  12.171  70.196  1.00  0.00    -0.290 C  
HETATM    8  C   UNL     1     -12.678  11.187  71.188  1.00  0.00    -0.510 C  
BRANCH   7   9
HETATM    9  O   UNL     1     -12.374  11.575  68.926  1.00  0.00    -0.400 OA 
BRANCH   9  10
HETATM   10  C   UNL     1     -11.324  11.097  68.229  1.00  0.00    -0.297 C  
HETATM   11  O   UNL     1     -10.456  11.765  67.700  1.00  0.00    -0.191 OA 
HETATM   12  N   UNL     1     -11.360   9.733  68.309  1.00  0.00    -0.521 N  
HETATM   13  H   UNL     1     -12.138   9.292  68.800  1.00  0.00     0.000 HD 
BRANCH  12  14
HETATM   14  C   UNL     1     -10.338   8.890  67.726  1.00  0.00    -0.242 C  
BRANCH  14  15
HETATM   15  C   UNL     1      -9.495   8.099  68.783  1.00  0.00    -0.148 C  
HETATM   16  C   UNL     1      -8.415   7.228  68.086  1.00  0.00    -0.123 C  
HETATM   17  C   UNL     1      -8.810   9.134  69.722  1.00  0.00    -0.165 C  
HETATM   18  C   UNL     1      -7.674   9.918  69.062  1.00  0.00    -0.089 C  
HETATM   19  C   UNL     1      -7.294   8.037  67.437  1.00  0.00    -0.089 C  
HETATM   20  C   UNL     1      -6.645   8.983  68.439  1.00  0.00    -0.059 C  
BRANCH  15  21
HETATM   21  C   UNL     1     -10.462   7.197  69.605  1.00  0.00    -0.241 C  
HETATM   22  O   UNL     1      -9.269   5.697  71.085  1.00  0.00    -0.146 OA 
HETATM   23  C   UNL     1      -9.901   5.860  70.052  1.00  0.00    -0.175 C  
HETATM   24  O   UNL     1     -10.168   4.842  69.205  1.00  0.00    -0.195 OA 
ENDBRANCH  15  21
ENDBRANCH  14  15
ENDBRANCH  12  14
ENDBRANCH   9  10
ENDBRANCH   7   9
ENDBRANCH   6   7
ENDBRANCH   4   6
TORSDOF 7
ENDMDL
MODEL      203
REMARK 921   NORMALIZED FREE ENERGY PREDICTED BY IDOCK:   -3.54 KCAL/MOL
REMARK 922        TOTAL FREE ENERGY PREDICTED BY IDOCK:   -6.62 KCAL/MOL
REMARK 923 INTER-LIGAND FREE ENERGY PREDICTED BY IDOCK:   -5.60 KCAL/MOL
REMARK 924 INTRA-LIGAND FREE ENERGY PREDICTED BY IDOCK:   -1.03 KCAL/MOL
REMARK 927      BINDING AFFINITY PREDICTED BY RF-SCORE:    0.00 PKD
ROOT
HETATM    1  C   UNL     1      -6.218   7.560  70.793  1.00  0.00    -0.035 C  
HETATM    2  C   UNL     1      -7.482   7.559  71.658  1.00  0.00    -0.083 C  
HETATM    3  C   UNL     1      -7.115   7.298  73.113  1.00  0.00    -0.075 C  
HETATM    4  C   UNL     1      -8.225   8.877  71.508  1.00  0.00    -0.082 C  
HETATM    5  O   UNL     1      -7.858   9.788  70.774  1.00  0.00    -0.304 OA 
ENDROOT
BRANCH   4   6
HETATM    6  O   UNL     1      -9.386   8.897  72.230  1.00  0.00    -0.360 OA 
BRANCH   6   7
HETATM    7  C   UNL     1     -10.561   8.860  71.406  1.00  0.00    -0.303 C  
HETATM    8  C   UNL     1     -11.650   8.055  72.114  1.00  0.00    -0.399 C  
BRANCH   7   9
HETATM    9  O   UNL     1     -11.178  10.150  71.250  1.00  0.00    -0.290 OA 
BRANCH   9  10
HETATM   10  C   UNL     1     -11.679  10.412  70.026  1.00  0.00    -0.286 C  
HETATM   11  O   UNL     1     -12.765  10.906  69.790  1.00  0.00    -0.205 OA 
HETATM   12  N   UNL     1     -10.710  10.114  69.109  1.00  0.00    -0.214 N  
HETATM   13  H   UNL     1      -9.830   9.717  69.439  1.00  0.00     0.000 HD 
BRANCH  12  14
HETATM   14  C   UNL     1     -10.883  10.338  67.690  1.00  0.00    -0.307 C  
BRANCH  14  15
HETATM   15  C   UNL     1     -10.203  11.650  67.171  1.00  0.00    -0.240 C  
HETATM   16  C   UNL     1      -9.467  11.396  65.828  1.00  0.00    -0.256 C  
HETATM   17  C   UNL     1     -11.315  12.719  66.968  1.00  0.00    -0.364 C  
HETATM   18  C   UNL     1     -12.230  12.445  65.772  1.00  0.00    -0.277 C  
HETATM   19  C   UNL     1     -10.404  11.127  64.652  1.00  0.00    -0.393 C  
HETATM   20  C   UNL     1     -11.425  12.247  64.494  1.00  0.00    -0.401 C  
BRANCH  15  21
HETATM   21  C   UNL     1      -9.192  12.138  68.251  1.00  0.00    -0.192 C  
HETATM   22  O   UNL     1      -9.272  14.539  68.554  1.00  0.00    -0.187 OA 
HETATM   23  C   UNL     1      -8.695  13.563  68.098  1.00  0.00    -0.174 C  
HETATM   24  O   UNL     1      -7.537  13.668  67.410  1.00  0.00    -0.167 OA 
ENDBRANCH  15  21
ENDBRANCH  14  15
ENDBRANCH  12  14
ENDBRANCH   9  10
ENDBRANCH   7   9
ENDBRANCH   6   7
ENDBRANCH   4   6
TORSDOF 7
ENDMDL
MODEL      204
REMARK 921   NORMALIZED FREE ENERGY PREDICTED BY IDOCK:   -3.54 KCAL/MOL
REMARK 922        TOTAL FREE ENERGY PREDICTED BY IDOCK:   -6.62 KCAL/MOL
REMARK 923 INTER-LIGAND FREE ENERGY PREDICTED BY IDOCK:   -5.38 KCAL/MOL
REMARK 924 INTRA-LIGAND FREE ENERGY PREDICTED BY IDOCK:   -1.24 KCAL/MOL
REMARK 927      BINDING AFFINITY PREDICTED BY RF-SCORE:    0.00 PKD
ROOT
HETATM    1  C   UNL     1     -11.970  15.339  68.654  1.00  0.00    -0.263 C  
HETATM    2  C   UNL     1     -11.486  14.778  67.313  1.00  0.00    -0.378 C  
HETATM    3  C   UNL     1     -10.629  15.812  66.596  1.00  0.00    -0.307 C  
HETATM    4  C   UNL     1     -10.718  13.484  67.530  1.00  0.00    -0.259 C  
HETATM    5  O   UNL     1     -10.544  12.969  68.628  1.00  0.00    -0.249 OA 
ENDROOT
BRANCH   4   6
HETATM    6  O   UNL     1     -10.310  12.926  66.351  1.00  0.00    -0.259 OA 
BRANCH   6   7
HETATM    7  C   UNL     1     -10.921  11.654  66.089  1.00  0.00    -0.288 C  
HETATM    8  C   UNL     1     -11.150  11.503  64.585  1.00  0.00    -0.317 C  
BRANCH   7   9
HETATM    9  O   UNL     1     -10.057  10.543  66.386  1.00  0.00    -0.213 OA 
BRANCH   9  10
HETATM   10  C   UNL     1     -10.633   9.516  67.042  1.00  0.00    -0.201 C  
HETATM   11  O   UNL     1     -10.778   8.387  66.613  1.00  0.00    -0.195 OA 
HETATM   12  N   UNL     1     -10.935   9.947  68.303  1.00  0.00    -0.415 N  
HETATM   13  H   UNL     1     -10.748  10.920  68.546  1.00  0.00     0.000 HD 
BRANCH  12  14
HETATM   14  C   UNL     1     -11.508   9.078  69.309  1.00  0.00     0.463 C  
BRANCH  14  15
HETATM   15  C   UNL     1     -10.517   8.712  70.465  1.00  0.00    -0.237 C  
HETATM   16  C   UNL     1     -11.213   8.834  71.847  1.00  0.00    -0.438 C  
HETATM   17  C   UNL     1     -10.041   7.247  70.244  1.00  0.00    -0.196 C  
HETATM   18  C   UNL     1     -11.117   6.194  70.521  1.00  0.00    -0.405 C  
HETATM   19  C   UNL     1     -12.281   7.771  72.097  1.00  0.00    -0.325 C  
HETATM   20  C   UNL     1     -11.717   6.368  71.911  1.00  0.00    -0.378 C  
BRANCH  15  21
HETATM   21  C   UNL     1      -9.299   9.680  70.391  1.00  0.00    -0.268 C  
HETATM   22  O   UNL     1      -7.732   9.041  68.659  1.00  0.00    -0.094 OA 
HETATM   23  C   UNL     1      -8.013   9.086  69.847  1.00  0.00    -0.103 C  
HETATM   24  O   UNL     1      -7.183   8.610  70.800  1.00  0.00    -0.053 OA 
ENDBRANCH  15  21
ENDBRANCH  14  15
ENDBRANCH  12  14
ENDBRANCH   9  10
ENDBRANCH   7   9
ENDBRANCH   6   7
ENDBRANCH   4   6
TORSDOF 7
ENDMDL
MODEL      205
REMARK 921   NORMALIZED FREE ENERGY PREDICTED BY IDOCK:   -3.50 KCAL/MOL
REMARK 922        TOTAL FREE ENERGY PREDICTED BY IDOCK:   -6.57 KCAL/MOL
REMARK 923 INTER-LIGAND FREE ENERGY PREDICTED BY IDOCK:   -5.56 KCAL/MOL
REMARK 924 INTRA-LIGAND FREE ENERGY PREDICTED BY IDOCK:   -1.01 KCAL/MOL
REMARK 927      BINDING AFFINITY PREDICTED BY RF-SCORE:    0.00 PKD
ROOT
HETATM    1  C   UNL     1     -11.634  12.510  63.409  1.00  0.00    -0.547 C  
HETATM    2  C   UNL     1     -10.859  11.206  63.622  1.00  0.00    -0.319 C  
HETATM    3  C   UNL     1      -9.530  11.264  62.880  1.00  0.00    -0.385 C  
HETATM    4  C   UNL     1     -10.646  10.954  65.107  1.00  0.00    -0.198 C  
HETATM    5  O   UNL     1     -11.066  11.693  65.991  1.00  0.00    -0.301 OA 
ENDROOT
BRANCH   4   6
HETATM    6  O   UNL     1      -9.999   9.774  65.340  1.00  0.00    -0.320 OA 
BRANCH   6   7
HETATM    7  C   UNL     1      -9.735   9.542  66.732  1.00  0.00    -0.197 C  
HETATM    8  C   UNL     1      -9.502   8.049  66.961  1.00  0.00    -0.223 C  
BRANCH   7   9
HETATM    9  O   UNL     1      -8.497  10.123  67.175  1.00  0.00    -0.125 OA 
BRANCH   9  10
HETATM   10  C   UNL     1      -8.578  10.907  68.268  1.00  0.00    -0.139 C  
HETATM   11  O   UNL     1      -8.263  10.589  69.399  1.00  0.00    -0.158 OA 
HETATM   12  N   UNL     1      -8.985  12.146  67.861  1.00  0.00    -0.176 N  
HETATM   13  H   UNL     1      -9.205  12.289  66.875  1.00  0.00     0.000 HD 
BRANCH  12  14
HETATM   14  C   UNL     1      -9.117  13.263  68.771  1.00  0.00     0.142 C  
BRANCH  14  15
HETATM   15  C   UNL     1      -9.525  14.603  68.071  1.00  0.00    -0.207 C  
HETATM   16  C   UNL     1     -10.962  14.506  67.491  1.00  0.00    -0.297 C  
HETATM   17  C   UNL     1      -9.463  15.738  69.134  1.00  0.00    -0.255 C  
HETATM   18  C   UNL     1     -10.580  15.674  70.179  1.00  0.00    -0.348 C  
HETATM   19  C   UNL     1     -12.055  14.445  68.556  1.00  0.00    -0.278 C  
HETATM   20  C   UNL     1     -11.952  15.620  69.520  1.00  0.00    -0.363 C  
BRANCH  15  21
HETATM   21  C   UNL     1      -8.506  14.890  66.930  1.00  0.00    -0.255 C  
HETATM   22  O   UNL     1      -6.323  13.953  67.402  1.00  0.00    -0.320 OA 
HETATM   23  C   UNL     1      -7.046  14.937  67.342  1.00  0.00    -0.164 C  
HETATM   24  O   UNL     1      -6.598  16.177  67.634  1.00  0.00    -0.127 OA 
ENDBRANCH  15  21
ENDBRANCH  14  15
ENDBRANCH  12  14
ENDBRANCH   9  10
ENDBRANCH   7   9
ENDBRANCH   6   7
ENDBRANCH   4   6
TORSDOF 7
ENDMDL
MODEL      206
REMARK 921   NORMALIZED FREE ENERGY PREDICTED BY IDOCK:   -3.50 KCAL/MOL
REMARK 922        TOTAL FREE ENERGY PREDICTED BY IDOCK:   -6.56 KCAL/MOL
REMARK 923 INTER-LIGAND FREE ENERGY PREDICTED BY IDOCK:   -6.51 KCAL/MOL
REMARK 924 INTRA-LIGAND FREE ENERGY PREDICTED BY IDOCK:   -0.05 KCAL/MOL
REMARK 927      BINDING AFFINITY PREDICTED BY RF-SCORE:    0.00 PKD
ROOT
HETATM    1  C   UNL     1      -7.681   5.955  68.206  1.00  0.00    -0.101 C  
HETATM    2  C   UNL     1      -8.515   6.950  67.392  1.00  0.00    -0.121 C  
HETATM    3  C   UNL     1      -8.474   6.578  65.916  1.00  0.00    -0.147 C  
HETATM    4  C   UNL     1      -9.945   6.986  67.909  1.00  0.00    -0.154 C  
HETATM    5  O   UNL     1     -10.344   6.322  68.859  1.00  0.00    -0.168 OA 
ENDROOT
BRANCH   4   6
HETATM    6  O   UNL     1     -10.710   7.898  67.238  1.00  0.00    -0.301 OA 
BRANCH   6   7
HETATM    7  C   UNL     1     -10.660   9.210  67.819  1.00  0.00    -0.227 C  
HETATM    8  C   UNL     1     -10.532   9.087  69.337  1.00  0.00    -0.229 C  
BRANCH   7   9
HETATM    9  O   UNL     1      -9.472   9.938  67.464  1.00  0.00    -0.148 OA 
BRANCH   9  10
HETATM   10  C   UNL     1      -9.551  10.667  66.333  1.00  0.00    -0.190 C  
HETATM   11  O   UNL     1      -9.492  10.232  65.199  1.00  0.00    -0.208 OA 
HETATM   12  N   UNL     1      -9.805  11.961  66.690  1.00  0.00    -0.198 N  
HETATM   13  H   UNL     1      -9.847  12.195  67.682  1.00  0.00     0.000 HD 
BRANCH  12  14
HETATM   14  C   UNL     1     -10.018  13.012  65.718  1.00  0.00    -0.254 C  
BRANCH  14  15
HETATM   15  C   UNL     1     -11.294  13.877  65.994  1.00  0.00    -0.324 C  
HETATM   16  C   UNL     1     -11.554  14.005  67.519  1.00  0.00    -0.397 C  
HETATM   17  C   UNL     1     -11.058  15.287  65.380  1.00  0.00    -0.351 C  
HETATM   18  C   UNL     1     -10.036  16.135  66.141  1.00  0.00    -0.356 C  
HETATM   19  C   UNL     1     -10.519  14.857  68.252  1.00  0.00    -0.239 C  
HETATM   20  C   UNL     1     -10.392  16.237  67.619  1.00  0.00    -0.284 C  
BRANCH  15  21
HETATM   21  C   UNL     1     -12.509  13.194  65.299  1.00  0.00    -0.550 C  
HETATM   22  O   UNL     1     -11.826  11.777  63.457  1.00  0.00    -0.465 OA 
HETATM   23  C   UNL     1     -12.318  12.829  63.839  1.00  0.00    -0.426 C  
HETATM   24  O   UNL     1     -12.751  13.774  62.976  1.00  0.00    -0.671 OA 
ENDBRANCH  15  21
ENDBRANCH  14  15
ENDBRANCH  12  14
ENDBRANCH   9  10
ENDBRANCH   7   9
ENDBRANCH   6   7
ENDBRANCH   4   6
TORSDOF 7
ENDMDL
MODEL      207
REMARK 921   NORMALIZED FREE ENERGY PREDICTED BY IDOCK:   -3.48 KCAL/MOL
REMARK 922        TOTAL FREE ENERGY PREDICTED BY IDOCK:   -6.53 KCAL/MOL
REMARK 923 INTER-LIGAND FREE ENERGY PREDICTED BY IDOCK:   -5.70 KCAL/MOL
REMARK 924 INTRA-LIGAND FREE ENERGY PREDICTED BY IDOCK:   -0.83 KCAL/MOL
REMARK 927      BINDING AFFINITY PREDICTED BY RF-SCORE:    0.00 PKD
ROOT
HETATM    1  C   UNL     1     -10.025   4.288  65.345  1.00  0.00    -0.233 C  
HETATM    2  C   UNL     1      -9.452   4.976  66.588  1.00  0.00    -0.148 C  
HETATM    3  C   UNL     1      -8.732   3.957  67.461  1.00  0.00    -0.120 C  
HETATM    4  C   UNL     1      -8.520   6.107  66.183  1.00  0.00    -0.137 C  
HETATM    5  O   UNL     1      -8.293   6.421  65.019  1.00  0.00    -0.140 OA 
ENDROOT
BRANCH   4   6
HETATM    6  O   UNL     1      -8.025   6.778  67.266  1.00  0.00    -0.111 OA 
BRANCH   6   7
HETATM    7  C   UNL     1      -8.976   7.679  67.853  1.00  0.00    -0.128 C  
HETATM    8  C   UNL     1      -8.916   7.557  69.375  1.00  0.00    -0.139 C  
BRANCH   7   9
HETATM    9  O   UNL     1      -8.647   9.062  67.637  1.00  0.00    -0.120 OA 
BRANCH   9  10
HETATM   10  C   UNL     1      -9.382   9.697  66.703  1.00  0.00    -0.156 C  
HETATM   11  O   UNL     1     -10.312   9.220  66.081  1.00  0.00    -0.229 OA 
HETATM   12  N   UNL     1      -8.958  10.996  66.654  1.00  0.00    -0.163 N  
HETATM   13  H   UNL     1      -8.174  11.277  67.243  1.00  0.00     0.000 HD 
BRANCH  12  14
HETATM   14  C   UNL     1      -9.578  11.988  65.801  1.00  0.00    -0.213 C  
BRANCH  14  15
HETATM   15  C   UNL     1     -10.618  12.895  66.541  1.00  0.00    -0.272 C  
HETATM   16  C   UNL     1     -10.371  14.393  66.218  1.00  0.00    -0.300 C  
HETATM   17  C   UNL     1     -12.040  12.482  66.063  1.00  0.00    -0.390 C  
HETATM   18  C   UNL     1     -12.357  12.894  64.624  1.00  0.00    -0.501 C  
HETATM   19  C   UNL     1     -10.697  14.776  64.776  1.00  0.00    -0.380 C  
HETATM   20  C   UNL     1     -12.122  14.384  64.410  1.00  0.00    -0.491 C  
BRANCH  15  21
HETATM   21  C   UNL     1     -10.482  12.647  68.072  1.00  0.00    -0.232 C  
HETATM   22  O   UNL     1     -12.227  11.196  68.918  1.00  0.00    -0.522 OA 
HETATM   23  C   UNL     1     -11.769  12.324  68.808  1.00  0.00    -0.340 C  
HETATM   24  O   UNL     1     -12.377  13.402  69.349  1.00  0.00    -0.236 OA 
ENDBRANCH  15  21
ENDBRANCH  14  15
ENDBRANCH  12  14
ENDBRANCH   9  10
ENDBRANCH   7   9
ENDBRANCH   6   7
ENDBRANCH   4   6
TORSDOF 7
ENDMDL
MODEL      208
REMARK 921   NORMALIZED FREE ENERGY PREDICTED BY IDOCK:   -3.47 KCAL/MOL
REMARK 922        TOTAL FREE ENERGY PREDICTED BY IDOCK:   -6.52 KCAL/MOL
REMARK 923 INTER-LIGAND FREE ENERGY PREDICTED BY IDOCK:   -5.76 KCAL/MOL
REMARK 924 INTRA-LIGAND FREE ENERGY PREDICTED BY IDOCK:   -0.77 KCAL/MOL
REMARK 927      BINDING AFFINITY PREDICTED BY RF-SCORE:    0.00 PKD
ROOT
HETATM    1  C   UNL     1     -10.879   7.003  66.966  1.00  0.00    -0.413 C  
HETATM    2  C   UNL     1     -10.096   8.201  67.511  1.00  0.00    -0.286 C  
HETATM    3  C   UNL     1      -9.144   7.744  68.609  1.00  0.00    -0.136 C  
HETATM    4  C   UNL     1      -9.343   8.895  66.387  1.00  0.00    -0.204 C  
HETATM    5  O   UNL     1      -9.390   8.542  65.214  1.00  0.00    -0.012 OA 
ENDROOT
BRANCH   4   6
HETATM    6  O   UNL     1      -8.668   9.999  66.826  1.00  0.00    -0.128 OA 
BRANCH   6   7
HETATM    7  C   UNL     1      -9.519  11.139  67.017  1.00  0.00    -0.177 C  
HETATM    8  C   UNL     1      -9.200  11.790  68.363  1.00  0.00    -0.175 C  
BRANCH   7   9
HETATM    9  O   UNL     1      -9.253  12.202  66.086  1.00  0.00    -0.220 OA 
BRANCH   9  10
HETATM   10  C   UNL     1     -10.181  13.179  66.036  1.00  0.00    -0.286 C  
HETATM   11  O   UNL     1     -11.384  13.018  65.969  1.00  0.00    -0.293 OA 
HETATM   12  N   UNL     1      -9.532  14.374  66.173  1.00  0.00    -0.450 N  
HETATM   13  H   UNL     1      -8.514  14.374  66.237  1.00  0.00     0.000 HD 
BRANCH  12  14
HETATM   14  C   UNL     1     -10.231  15.640  66.231  1.00  0.00    -0.299 C  
BRANCH  14  15
HETATM   15  C   UNL     1     -10.450  16.174  67.686  1.00  0.00    -0.292 C  
HETATM   16  C   UNL     1      -9.316  15.686  68.629  1.00  0.00    -0.201 C  
HETATM   17  C   UNL     1     -10.455  17.729  67.631  1.00  0.00    -0.393 C  
HETATM   18  C   UNL     1      -9.080  18.347  67.363  1.00  0.00    -0.268 C  
HETATM   19  C   UNL     1      -7.957  16.320  68.339  1.00  0.00    -0.173 C  
HETATM   20  C   UNL     1      -8.043  17.841  68.357  1.00  0.00    -0.297 C  
BRANCH  15  21
HETATM   21  C   UNL     1     -11.828  15.659  68.195  1.00  0.00    -0.096 C  
HETATM   22  O   UNL     1     -11.977  15.694  70.612  1.00  0.00    -0.342 OA 
HETATM   23  C   UNL     1     -11.835  15.048  69.585  1.00  0.00    -0.324 C  
HETATM   24  O   UNL     1     -11.678  13.707  69.595  1.00  0.00    -0.291 OA 
ENDBRANCH  15  21
ENDBRANCH  14  15
ENDBRANCH  12  14
ENDBRANCH   9  10
ENDBRANCH   7   9
ENDBRANCH   6   7
ENDBRANCH   4   6
TORSDOF 7
ENDMDL
MODEL      209
REMARK 921   NORMALIZED FREE ENERGY PREDICTED BY IDOCK:   -3.46 KCAL/MOL
REMARK 922        TOTAL FREE ENERGY PREDICTED BY IDOCK:   -6.51 KCAL/MOL
REMARK 923 INTER-LIGAND FREE ENERGY PREDICTED BY IDOCK:   -5.50 KCAL/MOL
REMARK 924 INTRA-LIGAND FREE ENERGY PREDICTED BY IDOCK:   -1.01 KCAL/MOL
REMARK 927      BINDING AFFINITY PREDICTED BY RF-SCORE:    0.00 PKD
ROOT
HETATM    1  C   UNL     1      -9.792  17.191  67.238  1.00  0.00    -0.265 C  
HETATM    2  C   UNL     1      -9.818  15.663  67.359  1.00  0.00    -0.225 C  
HETATM    3  C   UNL     1     -10.440  15.258  68.689  1.00  0.00    -0.235 C  
HETATM    4  C   UNL     1     -10.579  15.055  66.191  1.00  0.00    -0.310 C  
HETATM    5  O   UNL     1     -11.071  15.712  65.280  1.00  0.00    -0.344 OA 
ENDROOT
BRANCH   4   6
HETATM    6  O   UNL     1     -10.584  13.689  66.237  1.00  0.00    -0.283 OA 
BRANCH   6   7
HETATM    7  C   UNL     1     -11.837  13.117  65.833  1.00  0.00    -0.406 C  
HETATM    8  C   UNL     1     -11.698  12.539  64.424  1.00  0.00    -0.432 C  
BRANCH   7   9
HETATM    9  O   UNL     1     -12.205  11.963  66.608  1.00  0.00    -0.493 OA 
BRANCH   9  10
HETATM   10  C   UNL     1     -11.630  11.871  67.824  1.00  0.00    -0.323 C  
HETATM   11  O   UNL     1     -12.099  12.284  68.868  1.00  0.00    -0.265 OA 
HETATM   12  N   UNL     1     -10.480  11.147  67.685  1.00  0.00    -0.188 N  
HETATM   13  H   UNL     1     -10.203  10.842  66.752  1.00  0.00     0.000 HD 
BRANCH  12  14
HETATM   14  C   UNL     1      -9.638  10.795  68.809  1.00  0.00    -0.189 C  
BRANCH  14  15
HETATM   15  C   UNL     1      -8.569   9.701  68.478  1.00  0.00    -0.119 C  
HETATM   16  C   UNL     1      -7.133  10.278  68.599  1.00  0.00    -0.075 C  
HETATM   17  C   UNL     1      -8.751   8.530  69.487  1.00  0.00    -0.136 C  
HETATM   18  C   UNL     1      -8.306   8.863  70.913  1.00  0.00    -0.219 C  
HETATM   19  C   UNL     1      -6.715  10.600  70.032  1.00  0.00    -0.156 C  
HETATM   20  C   UNL     1      -6.875   9.386  70.939  1.00  0.00    -0.100 C  
BRANCH  15  21
HETATM   21  C   UNL     1      -8.821   9.192  67.028  1.00  0.00    -0.135 C  
HETATM   22  O   UNL     1     -10.832   7.852  66.870  1.00  0.00    -0.288 OA 
HETATM   23  C   UNL     1      -9.611   7.903  66.906  1.00  0.00    -0.203 C  
HETATM   24  O   UNL     1      -8.844   6.794  66.830  1.00  0.00    -0.114 OA 
ENDBRANCH  15  21
ENDBRANCH  14  15
ENDBRANCH  12  14
ENDBRANCH   9  10
ENDBRANCH   7   9
ENDBRANCH   6   7
ENDBRANCH   4   6
TORSDOF 7
ENDMDL
MODEL      210
REMARK 921   NORMALIZED FREE ENERGY PREDICTED BY IDOCK:   -3.46 KCAL/MOL
REMARK 922        TOTAL FREE ENERGY PREDICTED BY IDOCK:   -6.51 KCAL/MOL
REMARK 923 INTER-LIGAND FREE ENERGY PREDICTED BY IDOCK:   -5.59 KCAL/MOL
REMARK 924 INTRA-LIGAND FREE ENERGY PREDICTED BY IDOCK:   -0.91 KCAL/MOL
REMARK 927      BINDING AFFINITY PREDICTED BY RF-SCORE:    0.00 PKD
ROOT
HETATM    1  C   UNL     1     -10.929  14.612  66.950  1.00  0.00    -0.324 C  
HETATM    2  C   UNL     1     -11.198  13.461  67.925  1.00  0.00    -0.303 C  
HETATM    3  C   UNL     1     -12.032  13.959  69.099  1.00  0.00    -0.404 C  
HETATM    4  C   UNL     1     -11.892  12.313  67.209  1.00  0.00    -0.260 C  
HETATM    5  O   UNL     1     -12.165  12.320  66.014  1.00  0.00    -0.646 OA 
ENDROOT
BRANCH   4   6
HETATM    6  O   UNL     1     -12.107  11.247  68.036  1.00  0.00    -0.638 OA 
BRANCH   6   7
HETATM    7  C   UNL     1     -10.949  10.412  68.191  1.00  0.00    -0.281 C  
HETATM    8  C   UNL     1     -10.730  10.120  69.675  1.00  0.00    -0.295 C  
BRANCH   7   9
HETATM    9  O   UNL     1     -11.125   9.097  67.637  1.00  0.00    -0.076 OA 
BRANCH   9  10
HETATM   10  C   UNL     1     -10.035   8.304  67.658  1.00  0.00    -0.190 C  
HETATM   11  O   UNL     1      -8.936   8.591  67.225  1.00  0.00    -0.128 OA 
HETATM   12  N   UNL     1     -10.364   7.166  68.339  1.00  0.00    -0.188 N  
HETATM   13  H   UNL     1     -11.323   7.052  68.668  1.00  0.00     0.000 HD 
BRANCH  12  14
HETATM   14  C   UNL     1      -9.406   6.116  68.612  1.00  0.00    -0.121 C  
BRANCH  14  15
HETATM   15  C   UNL     1      -9.212   5.820  70.138  1.00  0.00    -0.173 C  
HETATM   16  C   UNL     1      -8.075   4.787  70.359  1.00  0.00    -0.083 C  
HETATM   17  C   UNL     1      -8.851   7.159  70.843  1.00  0.00    -0.150 C  
HETATM   18  C   UNL     1      -7.444   7.670  70.527  1.00  0.00    -0.079 C  
HETATM   19  C   UNL     1      -6.682   5.324  70.036  1.00  0.00    -0.044 C  
HETATM   20  C   UNL     1      -6.392   6.605  70.809  1.00  0.00    -0.047 C  
BRANCH  15  21
HETATM   21  C   UNL     1     -10.554   5.269  70.704  1.00  0.00    -0.263 C  
HETATM   22  O   UNL     1     -12.267   6.976  70.811  1.00  0.00    -0.353 OA 
HETATM   23  C   UNL     1     -11.448   6.282  71.394  1.00  0.00    -0.293 C  
HETATM   24  O   UNL     1     -11.269   6.351  72.731  1.00  0.00    -0.255 OA 
ENDBRANCH  15  21
ENDBRANCH  14  15
ENDBRANCH  12  14
ENDBRANCH   9  10
ENDBRANCH   7   9
ENDBRANCH   6   7
ENDBRANCH   4   6
TORSDOF 7
ENDMDL
MODEL      211
REMARK 921   NORMALIZED FREE ENERGY PREDICTED BY IDOCK:   -3.46 KCAL/MOL
REMARK 922        TOTAL FREE ENERGY PREDICTED BY IDOCK:   -6.50 KCAL/MOL
REMARK 923 INTER-LIGAND FREE ENERGY PREDICTED BY IDOCK:   -5.23 KCAL/MOL
REMARK 924 INTRA-LIGAND FREE ENERGY PREDICTED BY IDOCK:   -1.27 KCAL/MOL
REMARK 927      BINDING AFFINITY PREDICTED BY RF-SCORE:    0.00 PKD
ROOT
HETATM    1  C   UNL     1      -7.178  14.236  68.634  1.00  0.00    -0.125 C  
HETATM    2  C   UNL     1      -8.691  14.182  68.399  1.00  0.00    -0.178 C  
HETATM    3  C   UNL     1      -9.047  14.942  67.127  1.00  0.00    -0.236 C  
HETATM    4  C   UNL     1      -9.162  12.738  68.324  1.00  0.00    -0.186 C  
HETATM    5  O   UNL     1      -8.422  11.771  68.461  1.00  0.00    -0.158 OA 
ENDROOT
BRANCH   4   6
HETATM    6  O   UNL     1     -10.516  12.648  68.162  1.00  0.00    -0.217 OA 
BRANCH   6   7
HETATM    7  C   UNL     1     -11.224  12.516  69.404  1.00  0.00    -0.149 C  
HETATM    8  C   UNL     1     -12.245  13.646  69.528  1.00  0.00    -0.316 C  
BRANCH   7   9
HETATM    9  O   UNL     1     -12.052  11.341  69.458  1.00  0.00    -0.321 OA 
BRANCH   9  10
HETATM   10  C   UNL     1     -11.691  10.415  70.369  1.00  0.00    -0.331 C  
HETATM   11  O   UNL     1     -12.294  10.147  71.391  1.00  0.00    -0.358 OA 
HETATM   12  N   UNL     1     -10.586   9.770  69.890  1.00  0.00    -0.245 N  
HETATM   13  H   UNL     1     -10.182  10.081  69.006  1.00  0.00     0.000 HD 
BRANCH  12  14
HETATM   14  C   UNL     1      -9.965   8.663  70.586  1.00  0.00    -0.192 C  
BRANCH  14  15
HETATM   15  C   UNL     1     -10.335   7.260  69.996  1.00  0.00    -0.222 C  
HETATM   16  C   UNL     1      -9.339   6.175  70.486  1.00  0.00    -0.173 C  
HETATM   17  C   UNL     1     -11.774   6.905  70.469  1.00  0.00    -0.401 C  
HETATM   18  C   UNL     1     -11.873   6.562  71.957  1.00  0.00    -0.374 C  
HETATM   19  C   UNL     1      -9.461   5.853  71.974  1.00  0.00    -0.164 C  
HETATM   20  C   UNL     1     -10.888   5.465  72.339  1.00  0.00    -0.297 C  
BRANCH  15  21
HETATM   21  C   UNL     1     -10.299   7.357  68.442  1.00  0.00    -0.224 C  
HETATM   22  O   UNL     1      -8.266   6.420  67.519  1.00  0.00    -0.116 OA 
HETATM   23  C   UNL     1      -8.918   7.410  67.813  1.00  0.00    -0.127 C  
HETATM   24  O   UNL     1      -8.463   8.662  67.594  1.00  0.00    -0.123 OA 
ENDBRANCH  15  21
ENDBRANCH  14  15
ENDBRANCH  12  14
ENDBRANCH   9  10
ENDBRANCH   7   9
ENDBRANCH   6   7
ENDBRANCH   4   6
TORSDOF 7
ENDMDL
MODEL      212
REMARK 921   NORMALIZED FREE ENERGY PREDICTED BY IDOCK:   -3.46 KCAL/MOL
REMARK 922        TOTAL FREE ENERGY PREDICTED BY IDOCK:   -6.50 KCAL/MOL
REMARK 923 INTER-LIGAND FREE ENERGY PREDICTED BY IDOCK:   -6.99 KCAL/MOL
REMARK 924 INTRA-LIGAND FREE ENERGY PREDICTED BY IDOCK:    0.49 KCAL/MOL
REMARK 927      BINDING AFFINITY PREDICTED BY RF-SCORE:    0.00 PKD
ROOT
HETATM    1  C   UNL     1     -12.615  16.175  73.844  1.00  0.00    -0.703 C  
HETATM    2  C   UNL     1     -13.044  15.037  72.911  1.00  0.00    -0.576 C  
HETATM    3  C   UNL     1     -14.329  15.416  72.186  1.00  0.00    -0.642 C  
HETATM    4  C   UNL     1     -11.933  14.715  71.924  1.00  0.00    -0.255 C  
HETATM    5  O   UNL     1     -10.846  15.283  71.911  1.00  0.00    -0.159 OA 
ENDROOT
BRANCH   4   6
HETATM    6  O   UNL     1     -12.260  13.672  71.105  1.00  0.00    -0.344 OA 
BRANCH   6   7
HETATM    7  C   UNL     1     -12.258  14.027  69.714  1.00  0.00    -0.341 C  
HETATM    8  C   UNL     1     -11.818  15.483  69.564  1.00  0.00    -0.390 C  
BRANCH   7   9
HETATM    9  O   UNL     1     -11.262  13.320  68.955  1.00  0.00    -0.256 OA 
BRANCH   9  10
HETATM   10  C   UNL     1     -11.549  12.034  68.671  1.00  0.00    -0.319 C  
HETATM   11  O   UNL     1     -12.563  11.442  68.990  1.00  0.00    -0.271 OA 
HETATM   12  N   UNL     1     -10.544  11.549  67.882  1.00  0.00    -0.184 N  
HETATM   13  H   UNL     1      -9.751  12.156  67.672  1.00  0.00     0.000 HD 
BRANCH  12  14
HETATM   14  C   UNL     1     -10.560  10.210  67.332  1.00  0.00    -0.272 C  
BRANCH  14  15
HETATM   15  C   UNL     1      -9.667   9.194  68.121  1.00  0.00    -0.174 C  
HETATM   16  C   UNL     1     -10.448   7.884  68.410  1.00  0.00    -0.207 C  
HETATM   17  C   UNL     1      -8.416   8.880  67.251  1.00  0.00    -0.114 C  
HETATM   18  C   UNL     1      -8.712   8.019  66.021  1.00  0.00    -0.183 C  
HETATM   19  C   UNL     1     -10.729   7.045  67.165  1.00  0.00    -0.433 C  
HETATM   20  C   UNL     1      -9.445   6.739  66.404  1.00  0.00    -0.166 C  
BRANCH  15  21
HETATM   21  C   UNL     1      -9.229   9.862  69.457  1.00  0.00    -0.238 C  
HETATM   22  O   UNL     1      -9.046   8.256  71.261  1.00  0.00    -0.140 OA 
HETATM   23  C   UNL     1      -9.673   9.159  70.727  1.00  0.00    -0.273 C  
HETATM   24  O   UNL     1     -10.834   9.625  71.234  1.00  0.00    -0.350 OA 
ENDBRANCH  15  21
ENDBRANCH  14  15
ENDBRANCH  12  14
ENDBRANCH   9  10
ENDBRANCH   7   9
ENDBRANCH   6   7
ENDBRANCH   4   6
TORSDOF 7
ENDMDL
MODEL      213
REMARK 921   NORMALIZED FREE ENERGY PREDICTED BY IDOCK:   -3.45 KCAL/MOL
REMARK 922        TOTAL FREE ENERGY PREDICTED BY IDOCK:   -6.50 KCAL/MOL
REMARK 923 INTER-LIGAND FREE ENERGY PREDICTED BY IDOCK:   -5.33 KCAL/MOL
REMARK 924 INTRA-LIGAND FREE ENERGY PREDICTED BY IDOCK:   -1.17 KCAL/MOL
REMARK 927      BINDING AFFINITY PREDICTED BY RF-SCORE:    0.00 PKD
ROOT
HETATM    1  C   UNL     1     -10.224  10.601  64.871  1.00  0.00    -0.395 C  
HETATM    2  C   UNL     1      -9.131   9.531  64.956  1.00  0.00    -0.281 C  
HETATM    3  C   UNL     1      -7.779  10.189  65.200  1.00  0.00    -0.141 C  
HETATM    4  C   UNL     1      -9.458   8.528  66.051  1.00  0.00    -0.186 C  
HETATM    5  O   UNL     1     -10.472   8.575  66.739  1.00  0.00    -0.303 OA 
ENDROOT
BRANCH   4   6
HETATM    6  O   UNL     1      -8.529   7.529  66.126  1.00  0.00    -0.129 OA 
BRANCH   6   7
HETATM    7  C   UNL     1      -8.938   6.442  66.969  1.00  0.00    -0.119 C  
HETATM    8  C   UNL     1      -9.334   5.249  66.099  1.00  0.00    -0.164 C  
BRANCH   7   9
HETATM    9  O   UNL     1      -7.862   5.907  67.759  1.00  0.00    -0.096 OA 
BRANCH   9  10
HETATM   10  C   UNL     1      -7.714   6.451  68.984  1.00  0.00    -0.101 C  
HETATM   11  O   UNL     1      -6.741   6.331  69.704  1.00  0.00    -0.049 OA 
HETATM   12  N   UNL     1      -8.806   7.235  69.225  1.00  0.00    -0.137 N  
HETATM   13  H   UNL     1      -9.552   7.263  68.529  1.00  0.00     0.000 HD 
BRANCH  12  14
HETATM   14  C   UNL     1      -8.949   8.027  70.429  1.00  0.00    -0.146 C  
BRANCH  14  15
HETATM   15  C   UNL     1     -10.364   8.677  70.591  1.00  0.00    -0.241 C  
HETATM   16  C   UNL     1     -11.448   7.824  69.881  1.00  0.00     0.101 C  
HETATM   17  C   UNL     1     -10.679   8.767  72.113  1.00  0.00    -0.383 C  
HETATM   18  C   UNL     1     -10.970   7.415  72.769  1.00  0.00    -0.387 C  
HETATM   19  C   UNL     1     -11.719   6.481  70.557  1.00  0.00    -0.438 C  
HETATM   20  C   UNL     1     -12.070   6.666  72.028  1.00  0.00    -0.353 C  
BRANCH  15  21
HETATM   21  C   UNL     1     -10.320  10.107  69.975  1.00  0.00    -0.301 C  
HETATM   22  O   UNL     1     -12.149  11.490  70.753  1.00  0.00    -0.364 OA 
HETATM   23  C   UNL     1     -11.654  10.820  69.859  1.00  0.00    -0.331 C  
HETATM   24  O   UNL     1     -12.259  10.659  68.662  1.00  0.00    -0.386 OA 
ENDBRANCH  15  21
ENDBRANCH  14  15
ENDBRANCH  12  14
ENDBRANCH   9  10
ENDBRANCH   7   9
ENDBRANCH   6   7
ENDBRANCH   4   6
TORSDOF 7
ENDMDL
MODEL      214
REMARK 921   NORMALIZED FREE ENERGY PREDICTED BY IDOCK:   -3.45 KCAL/MOL
REMARK 922        TOTAL FREE ENERGY PREDICTED BY IDOCK:   -6.49 KCAL/MOL
REMARK 923 INTER-LIGAND FREE ENERGY PREDICTED BY IDOCK:   -5.58 KCAL/MOL
REMARK 924 INTRA-LIGAND FREE ENERGY PREDICTED BY IDOCK:   -0.92 KCAL/MOL
REMARK 927      BINDING AFFINITY PREDICTED BY RF-SCORE:    0.00 PKD
ROOT
HETATM    1  C   UNL     1     -13.119  15.628  72.499  1.00  0.00    -0.559 C  
HETATM    2  C   UNL     1     -12.464  14.445  71.780  1.00  0.00    -0.414 C  
HETATM    3  C   UNL     1     -13.366  13.220  71.868  1.00  0.00    -0.540 C  
HETATM    4  C   UNL     1     -12.168  14.805  70.333  1.00  0.00    -0.336 C  
HETATM    5  O   UNL     1     -12.407  15.902  69.840  1.00  0.00    -0.290 OA 
ENDROOT
BRANCH   4   6
HETATM    6  O   UNL     1     -11.539  13.789  69.670  1.00  0.00    -0.271 OA 
BRANCH   6   7
HETATM    7  C   UNL     1     -12.080  13.550  68.362  1.00  0.00    -0.258 C  
HETATM    8  C   UNL     1     -11.130  14.119  67.309  1.00  0.00    -0.315 C  
BRANCH   7   9
HETATM    9  O   UNL     1     -12.126  12.155  68.019  1.00  0.00    -0.478 OA 
BRANCH   9  10
HETATM   10  C   UNL     1     -11.583  11.314  68.921  1.00  0.00    -0.319 C  
HETATM   11  O   UNL     1     -12.195  10.642  69.729  1.00  0.00    -0.305 OA 
HETATM   12  N   UNL     1     -10.235  11.282  68.698  1.00  0.00    -0.198 N  
HETATM   13  H   UNL     1      -9.844  11.885  67.975  1.00  0.00     0.000 HD 
BRANCH  12  14
HETATM   14  C   UNL     1      -9.340  10.425  69.448  1.00  0.00    -0.167 C  
BRANCH  14  15
HETATM   15  C   UNL     1      -8.057  10.007  68.654  1.00  0.00    -0.102 C  
HETATM   16  C   UNL     1      -7.564  11.168  67.749  1.00  0.00    -0.100 C  
HETATM   17  C   UNL     1      -6.952   9.641  69.687  1.00  0.00    -0.071 C  
HETATM   18  C   UNL     1      -6.377  10.845  70.436  1.00  0.00    -0.090 C  
HETATM   19  C   UNL     1      -6.995  12.355  68.523  1.00  0.00    -0.092 C  
HETATM   20  C   UNL     1      -5.886  11.915  69.470  1.00  0.00    -0.089 C  
BRANCH  15  21
HETATM   21  C   UNL     1      -8.402   8.761  67.786  1.00  0.00    -0.118 C  
HETATM   22  O   UNL     1     -10.636   7.936  68.226  1.00  0.00    -0.188 OA 
HETATM   23  C   UNL     1      -9.429   7.809  68.371  1.00  0.00    -0.147 C  
HETATM   24  O   UNL     1      -8.893   6.787  69.072  1.00  0.00    -0.130 OA 
ENDBRANCH  15  21
ENDBRANCH  14  15
ENDBRANCH  12  14
ENDBRANCH   9  10
ENDBRANCH   7   9
ENDBRANCH   6   7
ENDBRANCH   4   6
TORSDOF 7
ENDMDL
MODEL      215
REMARK 921   NORMALIZED FREE ENERGY PREDICTED BY IDOCK:   -3.44 KCAL/MOL
REMARK 922        TOTAL FREE ENERGY PREDICTED BY IDOCK:   -6.47 KCAL/MOL
REMARK 923 INTER-LIGAND FREE ENERGY PREDICTED BY IDOCK:   -5.92 KCAL/MOL
REMARK 924 INTRA-LIGAND FREE ENERGY PREDICTED BY IDOCK:   -0.55 KCAL/MOL
REMARK 927      BINDING AFFINITY PREDICTED BY RF-SCORE:    0.00 PKD
ROOT
HETATM    1  C   UNL     1     -10.489  11.535  64.664  1.00  0.00    -0.356 C  
HETATM    2  C   UNL     1      -9.948  10.102  64.649  1.00  0.00    -0.304 C  
HETATM    3  C   UNL     1      -8.488  10.102  64.216  1.00  0.00    -0.179 C  
HETATM    4  C   UNL     1     -10.114   9.461  66.018  1.00  0.00    -0.231 C  
HETATM    5  O   UNL     1     -10.632  10.023  66.976  1.00  0.00    -0.240 OA 
ENDROOT
BRANCH   4   6
HETATM    6  O   UNL     1      -9.686   8.163  66.032  1.00  0.00    -0.137 OA 
BRANCH   6   7
HETATM    7  C   UNL     1      -9.954   7.496  67.275  1.00  0.00    -0.210 C  
HETATM    8  C   UNL     1     -11.010   6.413  67.050  1.00  0.00    -0.463 C  
BRANCH   7   9
HETATM    9  O   UNL     1      -8.832   6.740  67.761  1.00  0.00    -0.120 OA 
BRANCH   9  10
HETATM   10  C   UNL     1      -8.397   7.071  68.994  1.00  0.00    -0.126 C  
HETATM   11  O   UNL     1      -7.431   7.765  69.247  1.00  0.00    -0.088 OA 
HETATM   12  N   UNL     1      -9.290   6.568  69.897  1.00  0.00    -0.152 N  
HETATM   13  H   UNL     1     -10.073   6.012  69.554  1.00  0.00     0.000 HD 
BRANCH  12  14
HETATM   14  C   UNL     1      -9.170   6.793  71.322  1.00  0.00    -0.154 C  
BRANCH  14  15
HETATM   15  C   UNL     1     -10.545   6.955  72.053  1.00  0.00    -0.238 C  
HETATM   16  C   UNL     1     -11.247   5.580  72.217  1.00  0.00    -0.281 C  
HETATM   17  C   UNL     1     -10.273   7.576  73.454  1.00  0.00    -0.399 C  
HETATM   18  C   UNL     1      -9.599   6.619  74.440  1.00  0.00    -0.304 C  
HETATM   19  C   UNL     1     -10.554   4.646  73.207  1.00  0.00    -0.284 C  
HETATM   20  C   UNL     1     -10.376   5.314  74.564  1.00  0.00    -0.286 C  
BRANCH  15  21
HETATM   21  C   UNL     1     -11.437   7.915  71.213  1.00  0.00    -0.293 C  
HETATM   22  O   UNL     1     -12.849   9.301  72.609  1.00  0.00    -0.334 OA 
HETATM   23  C   UNL     1     -12.742   8.342  71.859  1.00  0.00    -0.355 C  
HETATM   24  O   UNL     1     -13.798   7.569  71.526  1.00  0.00    -0.390 OA 
ENDBRANCH  15  21
ENDBRANCH  14  15
ENDBRANCH  12  14
ENDBRANCH   9  10
ENDBRANCH   7   9
ENDBRANCH   6   7
ENDBRANCH   4   6
TORSDOF 7
ENDMDL
MODEL      216
REMARK 921   NORMALIZED FREE ENERGY PREDICTED BY IDOCK:   -3.43 KCAL/MOL
REMARK 922        TOTAL FREE ENERGY PREDICTED BY IDOCK:   -6.46 KCAL/MOL
REMARK 923 INTER-LIGAND FREE ENERGY PREDICTED BY IDOCK:   -6.56 KCAL/MOL
REMARK 924 INTRA-LIGAND FREE ENERGY PREDICTED BY IDOCK:    0.10 KCAL/MOL
REMARK 927      BINDING AFFINITY PREDICTED BY RF-SCORE:    0.00 PKD
ROOT
HETATM    1  C   UNL     1     -12.694  14.025  72.640  1.00  0.00    -0.324 C  
HETATM    2  C   UNL     1     -13.222  14.012  71.202  1.00  0.00    -0.337 C  
HETATM    3  C   UNL     1     -14.133  15.211  70.972  1.00  0.00    -0.348 C  
HETATM    4  C   UNL     1     -12.065  14.006  70.215  1.00  0.00    -0.355 C  
HETATM    5  O   UNL     1     -10.885  13.990  70.547  1.00  0.00     0.409 OA 
ENDROOT
BRANCH   4   6
HETATM    6  O   UNL     1     -12.496  13.947  68.920  1.00  0.00    -0.188 OA 
BRANCH   6   7
HETATM    7  C   UNL     1     -11.775  14.829  68.046  1.00  0.00    -0.333 C  
HETATM    8  C   UNL     1     -11.621  16.193  68.718  1.00  0.00    -0.297 C  
BRANCH   7   9
HETATM    9  O   UNL     1     -10.410  14.426  67.841  1.00  0.00    -0.228 OA 
BRANCH   9  10
HETATM   10  C   UNL     1      -9.986  14.431  66.562  1.00  0.00    -0.283 C  
HETATM   11  O   UNL     1      -9.354  15.320  66.023  1.00  0.00    -0.307 OA 
HETATM   12  N   UNL     1     -10.309  13.222  66.013  1.00  0.00    -0.283 N  
HETATM   13  H   UNL     1     -10.830  12.551  66.579  1.00  0.00     0.000 HD 
BRANCH  12  14
HETATM   14  C   UNL     1      -9.942  12.854  64.662  1.00  0.00    -0.129 C  
BRANCH  14  15
HETATM   15  C   UNL     1     -10.580  11.508  64.179  1.00  0.00    -0.420 C  
HETATM   16  C   UNL     1      -9.785  10.919  62.984  1.00  0.00    -0.380 C  
HETATM   17  C   UNL     1     -10.553  10.510  65.372  1.00  0.00    -0.143 C  
HETATM   18  C   UNL     1      -9.155   9.991  65.718  1.00  0.00    -0.201 C  
HETATM   19  C   UNL     1      -8.395  10.409  63.358  1.00  0.00    -0.158 C  
HETATM   20  C   UNL     1      -8.467   9.398  64.496  1.00  0.00    -0.189 C  
BRANCH  15  21
HETATM   21  C   UNL     1     -12.053  11.788  63.757  1.00  0.00    -0.463 C  
HETATM   22  O   UNL     1     -12.391  14.095  63.106  1.00  0.00    -0.602 OA 
HETATM   23  C   UNL     1     -12.536  13.215  63.941  1.00  0.00    -0.278 C  
HETATM   24  O   UNL     1     -13.157  13.436  65.119  1.00  0.00    -0.724 OA 
ENDBRANCH  15  21
ENDBRANCH  14  15
ENDBRANCH  12  14
ENDBRANCH   9  10
ENDBRANCH   7   9
ENDBRANCH   6   7
ENDBRANCH   4   6
TORSDOF 7
ENDMDL
MODEL      217
REMARK 921   NORMALIZED FREE ENERGY PREDICTED BY IDOCK:   -3.42 KCAL/MOL
REMARK 922        TOTAL FREE ENERGY PREDICTED BY IDOCK:   -6.45 KCAL/MOL
REMARK 923 INTER-LIGAND FREE ENERGY PREDICTED BY IDOCK:   -5.90 KCAL/MOL
REMARK 924 INTRA-LIGAND FREE ENERGY PREDICTED BY IDOCK:   -0.56 KCAL/MOL
REMARK 927      BINDING AFFINITY PREDICTED BY RF-SCORE:    0.00 PKD
ROOT
HETATM    1  C   UNL     1      -5.650  20.814  67.610  1.00  0.00    -0.291 C  
HETATM    2  C   UNL     1      -6.686  19.888  66.964  1.00  0.00    -0.231 C  
HETATM    3  C   UNL     1      -5.981  18.781  66.190  1.00  0.00    -0.198 C  
HETATM    4  C   UNL     1      -7.611  19.311  68.024  1.00  0.00    -0.284 C  
HETATM    5  O   UNL     1      -7.536  19.583  69.217  1.00  0.00    -0.351 OA 
ENDROOT
BRANCH   4   6
HETATM    6  O   UNL     1      -8.580  18.515  67.481  1.00  0.00    -0.259 OA 
BRANCH   6   7
HETATM    7  C   UNL     1      -9.895  18.815  67.972  1.00  0.00    -0.343 C  
HETATM    8  C   UNL     1     -10.508  19.933  67.129  1.00  0.00    -0.566 C  
BRANCH   7   9
HETATM    9  O   UNL     1     -10.826  17.736  67.782  1.00  0.00    -0.371 OA 
BRANCH   9  10
HETATM   10  C   UNL     1     -10.668  16.678  68.603  1.00  0.00    -0.349 C  
HETATM   11  O   UNL     1     -10.820  16.683  69.810  1.00  0.00    -0.333 OA 
HETATM   12  N   UNL     1     -10.404  15.586  67.826  1.00  0.00    -0.258 N  
HETATM   13  H   UNL     1     -10.317  15.712  66.817  1.00  0.00     0.000 HD 
BRANCH  12  14
HETATM   14  C   UNL     1     -10.243  14.257  68.376  1.00  0.00    -0.245 C  
BRANCH  14  15
HETATM   15  C   UNL     1     -11.364  13.254  67.940  1.00  0.00    -0.317 C  
HETATM   16  C   UNL     1     -12.055  13.732  66.634  1.00  0.00    -0.471 C  
HETATM   17  C   UNL     1     -10.701  11.866  67.706  1.00  0.00    -0.243 C  
HETATM   18  C   UNL     1      -9.829  11.797  66.450  1.00  0.00    -0.237 C  
HETATM   19  C   UNL     1     -11.162  13.651  65.398  1.00  0.00    -0.306 C  
HETATM   20  C   UNL     1     -10.599  12.247  65.215  1.00  0.00    -0.322 C  
BRANCH  15  21
HETATM   21  C   UNL     1     -12.407  13.154  69.092  1.00  0.00     0.026 C  
HETATM   22  O   UNL     1     -11.594  11.822  70.943  1.00  0.00     0.191 OA 
HETATM   23  C   UNL     1     -12.317  11.914  69.962  1.00  0.00    -0.130 C  
HETATM   24  O   UNL     1     -13.120  10.904  69.563  1.00  0.00    -0.006 OA 
ENDBRANCH  15  21
ENDBRANCH  14  15
ENDBRANCH  12  14
ENDBRANCH   9  10
ENDBRANCH   7   9
ENDBRANCH   6   7
ENDBRANCH   4   6
TORSDOF 7
ENDMDL
MODEL      218
REMARK 921   NORMALIZED FREE ENERGY PREDICTED BY IDOCK:   -3.41 KCAL/MOL
REMARK 922        TOTAL FREE ENERGY PREDICTED BY IDOCK:   -6.44 KCAL/MOL
REMARK 923 INTER-LIGAND FREE ENERGY PREDICTED BY IDOCK:   -5.94 KCAL/MOL
REMARK 924 INTRA-LIGAND FREE ENERGY PREDICTED BY IDOCK:   -0.50 KCAL/MOL
REMARK 927      BINDING AFFINITY PREDICTED BY RF-SCORE:    0.00 PKD
ROOT
HETATM    1  C   UNL     1      -6.564   8.940  69.258  1.00  0.00    -0.049 C  
HETATM    2  C   UNL     1      -7.831   9.633  68.748  1.00  0.00    -0.081 C  
HETATM    3  C   UNL     1      -7.514  10.434  67.491  1.00  0.00    -0.093 C  
HETATM    4  C   UNL     1      -8.923   8.609  68.483  1.00  0.00    -0.139 C  
HETATM    5  O   UNL     1      -8.793   7.406  68.681  1.00  0.00    -0.128 OA 
ENDROOT
BRANCH   4   6
HETATM    6  O   UNL     1     -10.087   9.194  68.071  1.00  0.00    -0.176 OA 
BRANCH   6   7
HETATM    7  C   UNL     1     -10.982   9.490  69.153  1.00  0.00    -0.125 C  
HETATM    8  C   UNL     1     -10.725   8.517  70.303  1.00  0.00    -0.242 C  
BRANCH   7   9
HETATM    9  O   UNL     1     -10.726  10.768  69.762  1.00  0.00    -0.245 OA 
BRANCH   9  10
HETATM   10  C   UNL     1     -11.393  11.812  69.229  1.00  0.00    -0.286 C  
HETATM   11  O   UNL     1     -11.903  12.724  69.850  1.00  0.00    -0.324 OA 
HETATM   12  N   UNL     1     -11.305  11.709  67.869  1.00  0.00    -0.276 N  
HETATM   13  H   UNL     1     -10.833  10.898  67.469  1.00  0.00     0.000 HD 
BRANCH  12  14
HETATM   14  C   UNL     1     -11.856  12.704  66.974  1.00  0.00    -0.345 C  
BRANCH  14  15
HETATM   15  C   UNL     1     -10.812  13.292  65.965  1.00  0.00    -0.284 C  
HETATM   16  C   UNL     1      -9.972  12.158  65.318  1.00  0.00    -0.260 C  
HETATM   17  C   UNL     1     -11.593  14.063  64.862  1.00  0.00    -0.369 C  
HETATM   18  C   UNL     1     -12.363  13.158  63.896  1.00  0.00    -0.439 C  
HETATM   19  C   UNL     1     -10.765  11.272  64.359  1.00  0.00    -0.407 C  
HETATM   20  C   UNL     1     -11.452  12.102  63.282  1.00  0.00    -0.410 C  
BRANCH  15  21
HETATM   21  C   UNL     1      -9.882  14.272  66.738  1.00  0.00    -0.274 C  
HETATM   22  O   UNL     1     -10.978  16.378  67.218  1.00  0.00    -0.249 OA 
HETATM   23  C   UNL     1     -10.172  15.750  66.548  1.00  0.00    -0.286 C  
HETATM   24  O   UNL     1      -9.449  16.328  65.564  1.00  0.00    -0.451 OA 
ENDBRANCH  15  21
ENDBRANCH  14  15
ENDBRANCH  12  14
ENDBRANCH   9  10
ENDBRANCH   7   9
ENDBRANCH   6   7
ENDBRANCH   4   6
TORSDOF 7
ENDMDL
MODEL      219
REMARK 921   NORMALIZED FREE ENERGY PREDICTED BY IDOCK:   -3.40 KCAL/MOL
REMARK 922        TOTAL FREE ENERGY PREDICTED BY IDOCK:   -6.43 KCAL/MOL
REMARK 923 INTER-LIGAND FREE ENERGY PREDICTED BY IDOCK:   -5.50 KCAL/MOL
REMARK 924 INTRA-LIGAND FREE ENERGY PREDICTED BY IDOCK:   -0.93 KCAL/MOL
REMARK 927      BINDING AFFINITY PREDICTED BY RF-SCORE:    0.00 PKD
ROOT
HETATM    1  C   UNL     1     -10.017   7.315  66.942  1.00  0.00    -0.302 C  
HETATM    2  C   UNL     1      -8.988   8.431  66.729  1.00  0.00    -0.172 C  
HETATM    3  C   UNL     1      -8.069   8.527  67.940  1.00  0.00    -0.115 C  
HETATM    4  C   UNL     1      -8.194   8.180  65.456  1.00  0.00    -0.144 C  
HETATM    5  O   UNL     1      -8.385   7.227  64.710  1.00  0.00    -0.093 OA 
ENDROOT
BRANCH   4   6
HETATM    6  O   UNL     1      -7.297   9.180  65.207  1.00  0.00    -0.090 OA 
BRANCH   6   7
HETATM    7  C   UNL     1      -7.752  10.109  64.212  1.00  0.00    -0.131 C  
HETATM    8  C   UNL     1      -7.010   9.852  62.901  1.00  0.00    -0.122 C  
BRANCH   7   9
HETATM    9  O   UNL     1      -9.126   9.905  63.838  1.00  0.00    -0.236 OA 
BRANCH   9  10
HETATM   10  C   UNL     1      -9.930  10.979  63.963  1.00  0.00    -0.335 C  
HETATM   11  O   UNL     1     -10.864  11.259  63.236  1.00  0.00    -0.326 OA 
HETATM   12  N   UNL     1      -9.568  11.638  65.104  1.00  0.00    -0.332 N  
HETATM   13  H   UNL     1      -8.772  11.290  65.638  1.00  0.00     0.000 HD 
BRANCH  12  14
HETATM   14  C   UNL     1     -10.269  12.809  65.585  1.00  0.00    -0.279 C  
BRANCH  14  15
HETATM   15  C   UNL     1     -10.761  12.686  67.066  1.00  0.00    -0.268 C  
HETATM   16  C   UNL     1      -9.635  13.087  68.057  1.00  0.00    -0.224 C  
HETATM   17  C   UNL     1     -11.982  13.633  67.247  1.00  0.00    -0.420 C  
HETATM   18  C   UNL     1     -11.621  15.121  67.248  1.00  0.00    -0.231 C  
HETATM   19  C   UNL     1      -9.297  14.576  68.036  1.00  0.00    -0.201 C  
HETATM   20  C   UNL     1     -10.538  15.427  68.274  1.00  0.00    -0.253 C  
BRANCH  15  21
HETATM   21  C   UNL     1     -11.195  11.211  67.317  1.00  0.00    -0.347 C  
HETATM   22  O   UNL     1     -12.598  10.996  69.279  1.00  0.00    -0.361 OA 
HETATM   23  C   UNL     1     -11.503  10.847  68.758  1.00  0.00    -0.308 C  
HETATM   24  O   UNL     1     -10.452  10.327  69.429  1.00  0.00    -0.206 OA 
ENDBRANCH  15  21
ENDBRANCH  14  15
ENDBRANCH  12  14
ENDBRANCH   9  10
ENDBRANCH   7   9
ENDBRANCH   6   7
ENDBRANCH   4   6
TORSDOF 7
ENDMDL
MODEL      220
REMARK 921   NORMALIZED FREE ENERGY PREDICTED BY IDOCK:   -3.40 KCAL/MOL
REMARK 922        TOTAL FREE ENERGY PREDICTED BY IDOCK:   -6.42 KCAL/MOL
REMARK 923 INTER-LIGAND FREE ENERGY PREDICTED BY IDOCK:   -5.00 KCAL/MOL
REMARK 924 INTRA-LIGAND FREE ENERGY PREDICTED BY IDOCK:   -1.42 KCAL/MOL
REMARK 927      BINDING AFFINITY PREDICTED BY RF-SCORE:    0.00 PKD
ROOT
HETATM    1  C   UNL     1      -6.863   9.654  68.078  1.00  0.00    -0.073 C  
HETATM    2  C   UNL     1      -8.060   8.851  68.598  1.00  0.00    -0.111 C  
HETATM    3  C   UNL     1      -7.857   7.370  68.309  1.00  0.00    -0.122 C  
HETATM    4  C   UNL     1      -8.254   9.098  70.086  1.00  0.00    -0.155 C  
HETATM    5  O   UNL     1      -7.554   9.855  70.750  1.00  0.00    -0.305 OA 
ENDROOT
BRANCH   4   6
HETATM    6  O   UNL     1      -9.343   8.435  70.578  1.00  0.00    -0.155 OA 
BRANCH   6   7
HETATM    7  C   UNL     1     -10.589   8.996  70.140  1.00  0.00    -0.224 C  
HETATM    8  C   UNL     1     -11.732   8.389  70.954  1.00  0.00    -0.269 C  
BRANCH   7   9
HETATM    9  O   UNL     1     -10.708  10.399  70.434  1.00  0.00    -0.269 OA 
BRANCH   9  10
HETATM   10  C   UNL     1     -11.439  11.118  69.558  1.00  0.00    -0.303 C  
HETATM   11  O   UNL     1     -12.484  11.690  69.802  1.00  0.00    -0.158 OA 
HETATM   12  N   UNL     1     -10.745  11.166  68.381  1.00  0.00    -0.185 N  
HETATM   13  H   UNL     1      -9.866  10.653  68.310  1.00  0.00     0.000 HD 
BRANCH  12  14
HETATM   14  C   UNL     1     -11.208  11.917  67.233  1.00  0.00    -0.317 C  
BRANCH  14  15
HETATM   15  C   UNL     1     -10.055  12.398  66.288  1.00  0.00    -0.257 C  
HETATM   16  C   UNL     1      -9.042  11.251  66.027  1.00  0.00    -0.221 C  
HETATM   17  C   UNL     1     -10.695  12.850  64.944  1.00  0.00    -0.333 C  
HETATM   18  C   UNL     1     -11.228  11.698  64.089  1.00  0.00    -0.421 C  
HETATM   19  C   UNL     1      -9.600  10.116  65.171  1.00  0.00    -0.354 C  
HETATM   20  C   UNL     1     -10.156  10.642  63.854  1.00  0.00    -0.356 C  
BRANCH  15  21
HETATM   21  C   UNL     1      -9.338  13.603  66.965  1.00  0.00    -0.249 C  
HETATM   22  O   UNL     1      -6.931  13.337  66.980  1.00  0.00    -0.020 OA 
HETATM   23  C   UNL     1      -7.988  13.304  67.591  1.00  0.00    -0.176 C  
HETATM   24  O   UNL     1      -8.049  13.000  68.906  1.00  0.00     0.031 OA 
ENDBRANCH  15  21
ENDBRANCH  14  15
ENDBRANCH  12  14
ENDBRANCH   9  10
ENDBRANCH   7   9
ENDBRANCH   6   7
ENDBRANCH   4   6
TORSDOF 7
ENDMDL
MODEL      221
REMARK 921   NORMALIZED FREE ENERGY PREDICTED BY IDOCK:   -3.39 KCAL/MOL
REMARK 922        TOTAL FREE ENERGY PREDICTED BY IDOCK:   -6.41 KCAL/MOL
REMARK 923 INTER-LIGAND FREE ENERGY PREDICTED BY IDOCK:   -5.34 KCAL/MOL
REMARK 924 INTRA-LIGAND FREE ENERGY PREDICTED BY IDOCK:   -1.07 KCAL/MOL
REMARK 927      BINDING AFFINITY PREDICTED BY RF-SCORE:    0.00 PKD
ROOT
HETATM    1  C   UNL     1     -12.394  14.450  68.999  1.00  0.00    -0.130 C  
HETATM    2  C   UNL     1     -11.118  15.283  68.838  1.00  0.00    -0.269 C  
HETATM    3  C   UNL     1     -10.422  15.431  70.185  1.00  0.00    -0.291 C  
HETATM    4  C   UNL     1     -10.196  14.642  67.812  1.00  0.00    -0.229 C  
HETATM    5  O   UNL     1     -10.468  13.618  67.196  1.00  0.00    -0.261 OA 
ENDROOT
BRANCH   4   6
HETATM    6  O   UNL     1      -9.066  15.382  67.606  1.00  0.00    -0.180 OA 
BRANCH   6   7
HETATM    7  C   UNL     1      -7.871  14.587  67.574  1.00  0.00    -0.193 C  
HETATM    8  C   UNL     1      -6.651  15.508  67.581  1.00  0.00    -0.195 C  
BRANCH   7   9
HETATM    9  O   UNL     1      -7.681  13.809  68.768  1.00  0.00    -0.132 OA 
BRANCH   9  10
HETATM   10  C   UNL     1      -7.541  12.481  68.582  1.00  0.00    -0.080 C  
HETATM   11  O   UNL     1      -6.546  11.920  68.164  1.00  0.00    -0.053 OA 
HETATM   12  N   UNL     1      -8.679  11.876  69.038  1.00  0.00    -0.352 N  
HETATM   13  H   UNL     1      -9.440  12.462  69.382  1.00  0.00     0.000 HD 
BRANCH  12  14
HETATM   14  C   UNL     1      -8.847  10.439  69.053  1.00  0.00    -0.172 C  
BRANCH  14  15
HETATM   15  C   UNL     1     -10.343   9.978  69.013  1.00  0.00    -0.223 C  
HETATM   16  C   UNL     1     -10.957  10.219  67.608  1.00  0.00    -0.356 C  
HETATM   17  C   UNL     1     -10.386   8.460  69.352  1.00  0.00    -0.217 C  
HETATM   18  C   UNL     1      -9.838   7.559  68.244  1.00  0.00    -0.177 C  
HETATM   19  C   UNL     1     -10.392   9.306  66.522  1.00  0.00    -0.270 C  
HETATM   20  C   UNL     1     -10.524   7.839  66.913  1.00  0.00    -0.388 C  
BRANCH  15  21
HETATM   21  C   UNL     1     -11.132  10.783  70.088  1.00  0.00    -0.298 C  
HETATM   22  O   UNL     1     -11.763   9.404  71.976  1.00  0.00    -0.355 OA 
HETATM   23  C   UNL     1     -12.089   9.978  70.948  1.00  0.00    -0.355 C  
HETATM   24  O   UNL     1     -13.356   9.954  70.482  1.00  0.00    -0.167 OA 
ENDBRANCH  15  21
ENDBRANCH  14  15
ENDBRANCH  12  14
ENDBRANCH   9  10
ENDBRANCH   7   9
ENDBRANCH   6   7
ENDBRANCH   4   6
TORSDOF 7
ENDMDL
MODEL      222
REMARK 921   NORMALIZED FREE ENERGY PREDICTED BY IDOCK:   -3.39 KCAL/MOL
REMARK 922        TOTAL FREE ENERGY PREDICTED BY IDOCK:   -6.41 KCAL/MOL
REMARK 923 INTER-LIGAND FREE ENERGY PREDICTED BY IDOCK:   -6.02 KCAL/MOL
REMARK 924 INTRA-LIGAND FREE ENERGY PREDICTED BY IDOCK:   -0.39 KCAL/MOL
REMARK 927      BINDING AFFINITY PREDICTED BY RF-SCORE:    0.00 PKD
ROOT
HETATM    1  C   UNL     1      -9.935  10.362  64.183  1.00  0.00    -0.337 C  
HETATM    2  C   UNL     1      -9.818  11.085  65.529  1.00  0.00    -0.292 C  
HETATM    3  C   UNL     1      -8.398  10.957  66.065  1.00  0.00    -0.165 C  
HETATM    4  C   UNL     1     -10.218  12.545  65.380  1.00  0.00    -0.283 C  
HETATM    5  O   UNL     1     -10.600  13.044  64.327  1.00  0.00    -0.381 OA 
ENDROOT
BRANCH   4   6
HETATM    6  O   UNL     1     -10.172  13.213  66.571  1.00  0.00    -0.266 OA 
BRANCH   6   7
HETATM    7  C   UNL     1     -11.419  13.187  67.280  1.00  0.00    -0.331 C  
HETATM    8  C   UNL     1     -12.524  13.743  66.381  1.00  0.00    -0.404 C  
BRANCH   7   9
HETATM    9  O   UNL     1     -11.883  11.854  67.554  1.00  0.00    -0.552 OA 
BRANCH   9  10
HETATM   10  C   UNL     1     -11.761  11.446  68.833  1.00  0.00    -0.343 C  
HETATM   11  O   UNL     1     -12.516  11.725  69.745  1.00  0.00    -0.132 OA 
HETATM   12  N   UNL     1     -10.699  10.588  68.896  1.00  0.00    -0.204 N  
HETATM   13  H   UNL     1     -10.153  10.423  68.050  1.00  0.00     0.000 HD 
BRANCH  12  14
HETATM   14  C   UNL     1     -10.319   9.904  70.113  1.00  0.00    -0.282 C  
BRANCH  14  15
HETATM   15  C   UNL     1      -9.640   8.514  69.870  1.00  0.00    -0.171 C  
HETATM   16  C   UNL     1      -8.333   8.676  69.049  1.00  0.00    -0.119 C  
HETATM   17  C   UNL     1      -9.315   7.890  71.258  1.00  0.00    -0.172 C  
HETATM   18  C   UNL     1      -8.168   8.581  71.998  1.00  0.00    -0.192 C  
HETATM   19  C   UNL     1      -7.205   9.367  69.812  1.00  0.00    -0.076 C  
HETATM   20  C   UNL     1      -6.918   8.660  71.131  1.00  0.00    -0.078 C  
BRANCH  15  21
HETATM   21  C   UNL     1     -10.645   7.605  69.104  1.00  0.00    -0.195 C  
HETATM   22  O   UNL     1     -12.396   6.763  70.549  1.00  0.00    -0.326 OA 
HETATM   23  C   UNL     1     -11.359   6.557  69.937  1.00  0.00    -0.406 C  
HETATM   24  O   UNL     1     -10.749   5.351  69.941  1.00  0.00    -0.316 OA 
ENDBRANCH  15  21
ENDBRANCH  14  15
ENDBRANCH  12  14
ENDBRANCH   9  10
ENDBRANCH   7   9
ENDBRANCH   6   7
ENDBRANCH   4   6
TORSDOF 7
ENDMDL
MODEL      223
REMARK 921   NORMALIZED FREE ENERGY PREDICTED BY IDOCK:   -3.38 KCAL/MOL
REMARK 922        TOTAL FREE ENERGY PREDICTED BY IDOCK:   -6.40 KCAL/MOL
REMARK 923 INTER-LIGAND FREE ENERGY PREDICTED BY IDOCK:   -4.79 KCAL/MOL
REMARK 924 INTRA-LIGAND FREE ENERGY PREDICTED BY IDOCK:   -1.60 KCAL/MOL
REMARK 927      BINDING AFFINITY PREDICTED BY RF-SCORE:    0.00 PKD
ROOT
HETATM    1  C   UNL     1     -10.463   9.475  67.491  1.00  0.00    -0.336 C  
HETATM    2  C   UNL     1      -9.426   8.349  67.553  1.00  0.00    -0.182 C  
HETATM    3  C   UNL     1      -8.707   8.378  68.896  1.00  0.00    -0.136 C  
HETATM    4  C   UNL     1     -10.094   7.003  67.318  1.00  0.00    -0.204 C  
HETATM    5  O   UNL     1     -11.290   6.866  67.089  1.00  0.00    -0.290 OA 
ENDROOT
BRANCH   4   6
HETATM    6  O   UNL     1      -9.192   5.976  67.318  1.00  0.00    -0.115 OA 
BRANCH   6   7
HETATM    7  C   UNL     1      -9.810   4.685  67.432  1.00  0.00    -0.165 C  
HETATM    8  C   UNL     1      -9.599   3.907  66.134  1.00  0.00    -0.193 C  
BRANCH   7   9
HETATM    9  O   UNL     1      -9.173   3.842  68.408  1.00  0.00    -0.131 OA 
BRANCH   9  10
HETATM   10  C   UNL     1      -8.624   4.480  69.460  1.00  0.00    -0.080 C  
HETATM   11  O   UNL     1      -7.436   4.678  69.634  1.00  0.00    -0.051 OA 
HETATM   12  N   UNL     1      -9.644   4.945  70.242  1.00  0.00    -0.177 N  
HETATM   13  H   UNL     1     -10.603   4.723  69.977  1.00  0.00     0.000 HD 
BRANCH  12  14
HETATM   14  C   UNL     1      -9.416   5.740  71.430  1.00  0.00    -0.150 C  
BRANCH  14  15
HETATM   15  C   UNL     1     -10.718   6.038  72.248  1.00  0.00    -0.272 C  
HETATM   16  C   UNL     1     -10.483   7.194  73.257  1.00  0.00    -0.391 C  
HETATM   17  C   UNL     1     -11.836   6.437  71.241  1.00  0.00    -0.333 C  
HETATM   18  C   UNL     1     -11.640   7.817  70.609  1.00  0.00    -0.233 C  
HETATM   19  C   UNL     1     -10.292   8.558  72.598  1.00  0.00    -0.235 C  
HETATM   20  C   UNL     1     -11.455   8.892  71.673  1.00  0.00    -0.409 C  
BRANCH  15  21
HETATM   21  C   UNL     1     -11.128   4.741  73.006  1.00  0.00    -0.352 C  
HETATM   22  O   UNL     1      -9.294   3.818  74.290  1.00  0.00    -0.094 OA 
HETATM   23  C   UNL     1     -10.006   3.762  73.299  1.00  0.00    -0.128 C  
HETATM   24  O   UNL     1      -9.860   2.799  72.363  1.00  0.00    -0.135 OA 
ENDBRANCH  15  21
ENDBRANCH  14  15
ENDBRANCH  12  14
ENDBRANCH   9  10
ENDBRANCH   7   9
ENDBRANCH   6   7
ENDBRANCH   4   6
TORSDOF 7
ENDMDL
MODEL      224
REMARK 921   NORMALIZED FREE ENERGY PREDICTED BY IDOCK:   -3.37 KCAL/MOL
REMARK 922        TOTAL FREE ENERGY PREDICTED BY IDOCK:   -6.38 KCAL/MOL
REMARK 923 INTER-LIGAND FREE ENERGY PREDICTED BY IDOCK:   -6.40 KCAL/MOL
REMARK 924 INTRA-LIGAND FREE ENERGY PREDICTED BY IDOCK:    0.02 KCAL/MOL
REMARK 927      BINDING AFFINITY PREDICTED BY RF-SCORE:    0.00 PKD
ROOT
HETATM    1  C   UNL     1      -9.981   5.738  68.922  1.00  0.00    -0.211 C  
HETATM    2  C   UNL     1      -9.273   7.012  68.449  1.00  0.00    -0.129 C  
HETATM    3  C   UNL     1      -7.819   6.705  68.118  1.00  0.00    -0.110 C  
HETATM    4  C   UNL     1      -9.996   7.603  67.249  1.00  0.00    -0.208 C  
HETATM    5  O   UNL     1     -11.014   7.123  66.761  1.00  0.00    -0.305 OA 
ENDROOT
BRANCH   4   6
HETATM    6  O   UNL     1      -9.422   8.768  66.827  1.00  0.00    -0.163 OA 
BRANCH   6   7
HETATM    7  C   UNL     1     -10.383   9.781  66.493  1.00  0.00    -0.192 C  
HETATM    8  C   UNL     1     -10.930  10.403  67.778  1.00  0.00    -0.369 C  
BRANCH   7   9
HETATM    9  O   UNL     1      -9.799  10.911  65.823  1.00  0.00    -0.214 OA 
BRANCH   9  10
HETATM   10  C   UNL     1      -9.020  11.703  66.587  1.00  0.00    -0.189 C  
HETATM   11  O   UNL     1      -8.069  11.341  67.252  1.00  0.00    -0.129 OA 
HETATM   12  N   UNL     1      -9.432  12.993  66.402  1.00  0.00    -0.339 N  
HETATM   13  H   UNL     1     -10.239  13.168  65.802  1.00  0.00     0.000 HD 
BRANCH  12  14
HETATM   14  C   UNL     1      -8.771  14.121  67.022  1.00  0.00    -0.204 C  
BRANCH  14  15
HETATM   15  C   UNL     1      -9.653  15.413  67.087  1.00  0.00    -0.218 C  
HETATM   16  C   UNL     1     -11.163  15.049  67.104  1.00  0.00    -0.336 C  
HETATM   17  C   UNL     1      -9.284  16.182  68.388  1.00  0.00    -0.203 C  
HETATM   18  C   UNL     1      -9.772  15.505  69.671  1.00  0.00    -0.276 C  
HETATM   19  C   UNL     1     -11.621  14.376  68.395  1.00  0.00    -0.351 C  
HETATM   20  C   UNL     1     -11.267  15.220  69.613  1.00  0.00    -0.289 C  
BRANCH  15  21
HETATM   21  C   UNL     1      -9.328  16.291  65.843  1.00  0.00    -0.299 C  
HETATM   22  O   UNL     1     -10.653  18.317  65.788  1.00  0.00    -0.554 OA 
HETATM   23  C   UNL     1     -10.448  17.192  65.357  1.00  0.00    -0.080 C  
HETATM   24  O   UNL     1     -11.210  16.645  64.385  1.00  0.00    -1.033 OA 
ENDBRANCH  15  21
ENDBRANCH  14  15
ENDBRANCH  12  14
ENDBRANCH   9  10
ENDBRANCH   7   9
ENDBRANCH   6   7
ENDBRANCH   4   6
TORSDOF 7
ENDMDL
MODEL      225
REMARK 921   NORMALIZED FREE ENERGY PREDICTED BY IDOCK:   -3.36 KCAL/MOL
REMARK 922        TOTAL FREE ENERGY PREDICTED BY IDOCK:   -6.37 KCAL/MOL
REMARK 923 INTER-LIGAND FREE ENERGY PREDICTED BY IDOCK:   -5.62 KCAL/MOL
REMARK 924 INTRA-LIGAND FREE ENERGY PREDICTED BY IDOCK:   -0.75 KCAL/MOL
REMARK 927      BINDING AFFINITY PREDICTED BY RF-SCORE:    0.00 PKD
ROOT
HETATM    1  C   UNL     1     -12.411  14.031  66.449  1.00  0.00    -0.468 C  
HETATM    2  C   UNL     1     -11.948  12.683  65.887  1.00  0.00    -0.497 C  
HETATM    3  C   UNL     1     -12.338  12.571  64.419  1.00  0.00    -0.537 C  
HETATM    4  C   UNL     1     -10.446  12.523  66.069  1.00  0.00    -0.258 C  
HETATM    5  O   UNL     1      -9.732  13.357  66.613  1.00  0.00    -0.260 OA 
ENDROOT
BRANCH   4   6
HETATM    6  O   UNL     1     -10.002  11.311  65.622  1.00  0.00    -0.225 OA 
BRANCH   6   7
HETATM    7  C   UNL     1      -9.620  10.425  66.684  1.00  0.00    -0.177 C  
HETATM    8  C   UNL     1      -9.875   8.980  66.256  1.00  0.00    -0.361 C  
BRANCH   7   9
HETATM    9  O   UNL     1      -8.204  10.429  66.938  1.00  0.00    -0.122 OA 
BRANCH   9  10
HETATM   10  C   UNL     1      -7.795   9.668  67.973  1.00  0.00    -0.086 C  
HETATM   11  O   UNL     1      -6.898   8.847  67.945  1.00  0.00    -0.068 OA 
HETATM   12  N   UNL     1      -8.502  10.055  69.077  1.00  0.00    -0.136 N  
HETATM   13  H   UNL     1      -9.221  10.771  68.972  1.00  0.00     0.000 HD 
BRANCH  12  14
HETATM   14  C   UNL     1      -8.271   9.490  70.390  1.00  0.00    -0.190 C  
BRANCH  14  15
HETATM   15  C   UNL     1      -9.185   8.262  70.717  1.00  0.00    -0.174 C  
HETATM   16  C   UNL     1      -8.423   6.930  70.484  1.00  0.00    -0.137 C  
HETATM   17  C   UNL     1      -9.615   8.367  72.209  1.00  0.00    -0.374 C  
HETATM   18  C   UNL     1      -8.486   8.086  73.203  1.00  0.00    -0.267 C  
HETATM   19  C   UNL     1      -7.303   6.675  71.490  1.00  0.00    -0.087 C  
HETATM   20  C   UNL     1      -7.822   6.744  72.921  1.00  0.00    -0.098 C  
BRANCH  15  21
HETATM   21  C   UNL     1     -10.441   8.327  69.799  1.00  0.00    -0.220 C  
HETATM   22  O   UNL     1     -12.162   6.773  70.498  1.00  0.00    -0.363 OA 
HETATM   23  C   UNL     1     -11.268   7.058  69.715  1.00  0.00    -0.217 C  
HETATM   24  O   UNL     1     -10.936   6.254  68.681  1.00  0.00    -0.300 OA 
ENDBRANCH  15  21
ENDBRANCH  14  15
ENDBRANCH  12  14
ENDBRANCH   9  10
ENDBRANCH   7   9
ENDBRANCH   6   7
ENDBRANCH   4   6
TORSDOF 7
ENDMDL
MODEL      226
REMARK 921   NORMALIZED FREE ENERGY PREDICTED BY IDOCK:   -3.33 KCAL/MOL
REMARK 922        TOTAL FREE ENERGY PREDICTED BY IDOCK:   -6.32 KCAL/MOL
REMARK 923 INTER-LIGAND FREE ENERGY PREDICTED BY IDOCK:   -5.82 KCAL/MOL
REMARK 924 INTRA-LIGAND FREE ENERGY PREDICTED BY IDOCK:   -0.50 KCAL/MOL
REMARK 927      BINDING AFFINITY PREDICTED BY RF-SCORE:    0.00 PKD
ROOT
HETATM    1  C   UNL     1     -10.891   7.016  66.979  1.00  0.00    -0.413 C  
HETATM    2  C   UNL     1     -10.368   8.217  67.775  1.00  0.00    -0.295 C  
HETATM    3  C   UNL     1      -9.643   7.735  69.025  1.00  0.00    -0.155 C  
HETATM    4  C   UNL     1      -9.456   9.068  66.906  1.00  0.00    -0.167 C  
HETATM    5  O   UNL     1      -9.208   8.822  65.730  1.00  0.00    -0.214 OA 
ENDROOT
BRANCH   4   6
HETATM    6  O   UNL     1      -9.006  10.176  67.566  1.00  0.00    -0.131 OA 
BRANCH   6   7
HETATM    7  C   UNL     1      -9.756  11.360  67.257  1.00  0.00    -0.185 C  
HETATM    8  C   UNL     1     -10.249  12.001  68.554  1.00  0.00    -0.218 C  
BRANCH   7   9
HETATM    9  O   UNL     1      -8.951  12.402  66.680  1.00  0.00    -0.212 OA 
BRANCH   9  10
HETATM   10  C   UNL     1      -9.628  13.466  66.203  1.00  0.00    -0.202 C  
HETATM   11  O   UNL     1     -10.756  13.448  65.747  1.00  0.00    -0.269 OA 
HETATM   12  N   UNL     1      -8.859  14.576  66.414  1.00  0.00    -0.475 N  
HETATM   13  H   UNL     1      -7.932  14.458  66.822  1.00  0.00     0.000 HD 
BRANCH  12  14
HETATM   14  C   UNL     1      -9.308  15.911  66.081  1.00  0.00    -0.350 C  
BRANCH  14  15
HETATM   15  C   UNL     1      -8.698  17.027  66.995  1.00  0.00    -0.240 C  
HETATM   16  C   UNL     1      -8.779  18.413  66.301  1.00  0.00    -0.209 C  
HETATM   17  C   UNL     1      -9.509  17.056  68.323  1.00  0.00    -0.265 C  
HETATM   18  C   UNL     1     -10.923  17.625  68.176  1.00  0.00    -0.089 C  
HETATM   19  C   UNL     1     -10.200  18.956  66.169  1.00  0.00    -0.485 C  
HETATM   20  C   UNL     1     -10.901  19.000  67.521  1.00  0.00    -0.478 C  
BRANCH  15  21
HETATM   21  C   UNL     1      -7.214  16.661  67.290  1.00  0.00    -0.199 C  
HETATM   22  O   UNL     1      -6.937  15.683  69.489  1.00  0.00    -0.179 OA 
HETATM   23  C   UNL     1      -6.812  16.651  68.754  1.00  0.00    -0.180 C  
HETATM   24  O   UNL     1      -6.288  17.819  69.186  1.00  0.00    -0.213 OA 
ENDBRANCH  15  21
ENDBRANCH  14  15
ENDBRANCH  12  14
ENDBRANCH   9  10
ENDBRANCH   7   9
ENDBRANCH   6   7
ENDBRANCH   4   6
TORSDOF 7
ENDMDL
MODEL      227
REMARK 921   NORMALIZED FREE ENERGY PREDICTED BY IDOCK:   -3.33 KCAL/MOL
REMARK 922        TOTAL FREE ENERGY PREDICTED BY IDOCK:   -6.32 KCAL/MOL
REMARK 923 INTER-LIGAND FREE ENERGY PREDICTED BY IDOCK:   -5.87 KCAL/MOL
REMARK 924 INTRA-LIGAND FREE ENERGY PREDICTED BY IDOCK:   -0.45 KCAL/MOL
REMARK 927      BINDING AFFINITY PREDICTED BY RF-SCORE:    0.00 PKD
ROOT
HETATM    1  C   UNL     1      -9.215  14.046  68.270  1.00  0.00    -0.200 C  
HETATM    2  C   UNL     1     -10.360  13.083  67.940  1.00  0.00    -0.233 C  
HETATM    3  C   UNL     1     -10.932  13.408  66.566  1.00  0.00    -0.299 C  
HETATM    4  C   UNL     1      -9.875  11.643  68.006  1.00  0.00    -0.190 C  
HETATM    5  O   UNL     1      -8.731  11.322  68.306  1.00  0.00    -0.144 OA 
ENDROOT
BRANCH   4   6
HETATM    6  O   UNL     1     -10.881  10.751  67.764  1.00  0.00    -0.226 OA 
BRANCH   6   7
HETATM    7  C   UNL     1     -10.498   9.702  66.862  1.00  0.00    -0.212 C  
HETATM    8  C   UNL     1      -9.903  10.316  65.595  1.00  0.00    -0.332 C  
BRANCH   7   9
HETATM    9  O   UNL     1      -9.413   8.901  67.360  1.00  0.00    -0.139 OA 
BRANCH   9  10
HETATM   10  C   UNL     1      -9.764   7.729  67.925  1.00  0.00    -0.153 C  
HETATM   11  O   UNL     1      -9.257   6.647  67.700  1.00  0.00    -0.113 OA 
HETATM   12  N   UNL     1     -10.723   7.992  68.864  1.00  0.00    -0.397 N  
HETATM   13  H   UNL     1     -11.055   8.951  68.968  1.00  0.00     0.000 HD 
BRANCH  12  14
HETATM   14  C   UNL     1     -11.285   6.966  69.715  1.00  0.00    -0.267 C  
BRANCH  14  15
HETATM   15  C   UNL     1     -11.216   7.306  71.242  1.00  0.00    -0.281 C  
HETATM   16  C   UNL     1     -11.360   8.834  71.474  1.00  0.00    -0.375 C  
HETATM   17  C   UNL     1     -12.379   6.554  71.953  1.00  0.00    -0.339 C  
HETATM   18  C   UNL     1     -13.766   7.126  71.652  1.00  0.00    -0.406 C  
HETATM   19  C   UNL     1     -12.754   9.376  71.166  1.00  0.00    -0.342 C  
HETATM   20  C   UNL     1     -13.824   8.620  71.944  1.00  0.00    -0.481 C  
BRANCH  15  21
HETATM   21  C   UNL     1      -9.848   6.807  71.794  1.00  0.00    -0.170 C  
HETATM   22  O   UNL     1      -8.693   8.524  73.052  1.00  0.00    -0.343 OA 
HETATM   23  C   UNL     1      -8.796   7.876  72.021  1.00  0.00    -0.141 C  
HETATM   24  O   UNL     1      -7.959   8.052  70.975  1.00  0.00    -0.085 OA 
ENDBRANCH  15  21
ENDBRANCH  14  15
ENDBRANCH  12  14
ENDBRANCH   9  10
ENDBRANCH   7   9
ENDBRANCH   6   7
ENDBRANCH   4   6
TORSDOF 7
ENDMDL
MODEL      228
REMARK 921   NORMALIZED FREE ENERGY PREDICTED BY IDOCK:   -3.33 KCAL/MOL
REMARK 922        TOTAL FREE ENERGY PREDICTED BY IDOCK:   -6.32 KCAL/MOL
REMARK 923 INTER-LIGAND FREE ENERGY PREDICTED BY IDOCK:   -5.51 KCAL/MOL
REMARK 924 INTRA-LIGAND FREE ENERGY PREDICTED BY IDOCK:   -0.80 KCAL/MOL
REMARK 927      BINDING AFFINITY PREDICTED BY RF-SCORE:    0.00 PKD
ROOT
HETATM    1  C   UNL     1     -10.375   5.470  66.589  1.00  0.00    -0.322 C  
HETATM    2  C   UNL     1      -9.147   6.360  66.376  1.00  0.00    -0.168 C  
HETATM    3  C   UNL     1      -8.535   6.084  65.008  1.00  0.00    -0.089 C  
HETATM    4  C   UNL     1      -9.525   7.826  66.521  1.00  0.00    -0.201 C  
HETATM    5  O   UNL     1     -10.655   8.215  66.793  1.00  0.00    -0.313 OA 
ENDROOT
BRANCH   4   6
HETATM    6  O   UNL     1      -8.445   8.651  66.384  1.00  0.00    -0.106 OA 
BRANCH   6   7
HETATM    7  C   UNL     1      -8.115   9.351  67.593  1.00  0.00    -0.106 C  
HETATM    8  C   UNL     1      -6.863   8.731  68.212  1.00  0.00    -0.066 C  
BRANCH   7   9
HETATM    9  O   UNL     1      -7.708  10.711  67.363  1.00  0.00    -0.103 OA 
BRANCH   9  10
HETATM   10  C   UNL     1      -8.219  11.625  68.212  1.00  0.00    -0.156 C  
HETATM   11  O   UNL     1      -7.578  12.357  68.941  1.00  0.00    -0.073 OA 
HETATM   12  N   UNL     1      -9.573  11.645  68.034  1.00  0.00    -0.178 N  
HETATM   13  H   UNL     1      -9.990  10.986  67.375  1.00  0.00     0.000 HD 
BRANCH  12  14
HETATM   14  C   UNL     1     -10.440  12.563  68.741  1.00  0.00    -0.144 C  
BRANCH  14  15
HETATM   15  C   UNL     1     -10.829  13.831  67.909  1.00  0.00    -0.257 C  
HETATM   16  C   UNL     1     -12.138  14.466  68.450  1.00  0.00    -0.278 C  
HETATM   17  C   UNL     1      -9.662  14.855  68.023  1.00  0.00    -0.212 C  
HETATM   18  C   UNL     1      -9.542  15.511  69.400  1.00  0.00    -0.279 C  
HETATM   19  C   UNL     1     -11.988  15.114  69.825  1.00  0.00    -0.367 C  
HETATM   20  C   UNL     1     -10.861  16.139  69.831  1.00  0.00    -0.355 C  
BRANCH  15  21
HETATM   21  C   UNL     1     -11.015  13.404  66.423  1.00  0.00    -0.297 C  
HETATM   22  O   UNL     1     -11.327  15.309  64.961  1.00  0.00    -0.374 OA 
HETATM   23  C   UNL     1     -11.813  14.358  65.554  1.00  0.00    -0.357 C  
HETATM   24  O   UNL     1     -13.129  14.062  65.481  1.00  0.00    -0.713 OA 
ENDBRANCH  15  21
ENDBRANCH  14  15
ENDBRANCH  12  14
ENDBRANCH   9  10
ENDBRANCH   7   9
ENDBRANCH   6   7
ENDBRANCH   4   6
TORSDOF 7
ENDMDL
MODEL      229
REMARK 921   NORMALIZED FREE ENERGY PREDICTED BY IDOCK:   -3.29 KCAL/MOL
REMARK 922        TOTAL FREE ENERGY PREDICTED BY IDOCK:   -6.27 KCAL/MOL
REMARK 923 INTER-LIGAND FREE ENERGY PREDICTED BY IDOCK:   -4.87 KCAL/MOL
REMARK 924 INTRA-LIGAND FREE ENERGY PREDICTED BY IDOCK:   -1.41 KCAL/MOL
REMARK 927      BINDING AFFINITY PREDICTED BY RF-SCORE:    0.00 PKD
ROOT
HETATM    1  C   UNL     1      -8.337   4.615  64.931  1.00  0.00    -0.129 C  
HETATM    2  C   UNL     1      -9.229   5.564  65.739  1.00  0.00    -0.132 C  
HETATM    3  C   UNL     1     -10.471   4.826  66.220  1.00  0.00    -0.311 C  
HETATM    4  C   UNL     1      -8.452   6.150  66.908  1.00  0.00    -0.105 C  
HETATM    5  O   UNL     1      -7.274   5.903  67.138  1.00  0.00    -0.072 OA 
ENDROOT
BRANCH   4   6
HETATM    6  O   UNL     1      -9.201   7.040  67.626  1.00  0.00    -0.122 OA 
BRANCH   6   7
HETATM    7  C   UNL     1      -8.924   8.408  67.291  1.00  0.00    -0.130 C  
HETATM    8  C   UNL     1     -10.161   9.031  66.645  1.00  0.00    -0.355 C  
BRANCH   7   9
HETATM    9  O   UNL     1      -8.722   9.241  68.446  1.00  0.00    -0.127 OA 
BRANCH   9  10
HETATM   10  C   UNL     1      -8.252   8.613  69.542  1.00  0.00    -0.115 C  
HETATM   11  O   UNL     1      -7.080   8.429  69.811  1.00  0.00    -0.050 OA 
HETATM   12  N   UNL     1      -9.321   8.311  70.338  1.00  0.00    -0.157 N  
HETATM   13  H   UNL     1     -10.258   8.534  70.003  1.00  0.00     0.000 HD 
BRANCH  12  14
HETATM   14  C   UNL     1      -9.177   7.687  71.636  1.00  0.00    -0.134 C  
BRANCH  14  15
HETATM   15  C   UNL     1     -10.421   6.842  72.071  1.00  0.00    -0.229 C  
HETATM   16  C   UNL     1     -11.030   6.091  70.856  1.00  0.00    -0.355 C  
HETATM   17  C   UNL     1      -9.953   5.815  73.143  1.00  0.00    -0.189 C  
HETATM   18  C   UNL     1      -9.089   4.682  72.583  1.00  0.00    -0.140 C  
HETATM   19  C   UNL     1     -10.148   4.966  70.320  1.00  0.00    -0.322 C  
HETATM   20  C   UNL     1      -9.781   3.980  71.422  1.00  0.00    -0.253 C  
BRANCH  15  21
HETATM   21  C   UNL     1     -11.476   7.806  72.689  1.00  0.00    -0.430 C  
HETATM   22  O   UNL     1     -13.612   7.663  71.557  1.00  0.00    -0.368 OA 
HETATM   23  C   UNL     1     -12.573   8.276  71.752  1.00  0.00    -0.333 C  
HETATM   24  O   UNL     1     -12.308   9.453  71.143  1.00  0.00    -0.305 OA 
ENDBRANCH  15  21
ENDBRANCH  14  15
ENDBRANCH  12  14
ENDBRANCH   9  10
ENDBRANCH   7   9
ENDBRANCH   6   7
ENDBRANCH   4   6
TORSDOF 7
ENDMDL
MODEL      230
REMARK 921   NORMALIZED FREE ENERGY PREDICTED BY IDOCK:   -3.29 KCAL/MOL
REMARK 922        TOTAL FREE ENERGY PREDICTED BY IDOCK:   -6.26 KCAL/MOL
REMARK 923 INTER-LIGAND FREE ENERGY PREDICTED BY IDOCK:   -5.23 KCAL/MOL
REMARK 924 INTRA-LIGAND FREE ENERGY PREDICTED BY IDOCK:   -1.03 KCAL/MOL
REMARK 927      BINDING AFFINITY PREDICTED BY RF-SCORE:    0.00 PKD
ROOT
HETATM    1  C   UNL     1      -7.264   8.610  67.995  1.00  0.00    -0.087 C  
HETATM    2  C   UNL     1      -7.831   7.353  68.663  1.00  0.00    -0.122 C  
HETATM    3  C   UNL     1      -8.385   6.408  67.605  1.00  0.00    -0.117 C  
HETATM    4  C   UNL     1      -6.759   6.672  69.500  1.00  0.00    -0.050 C  
HETATM    5  O   UNL     1      -5.617   7.100  69.626  1.00  0.00    -0.021 OA 
ENDROOT
BRANCH   4   6
HETATM    6  O   UNL     1      -7.240   5.571  70.151  1.00  0.00    -0.063 OA 
BRANCH   6   7
HETATM    7  C   UNL     1      -8.045   5.899  71.293  1.00  0.00    -0.118 C  
HETATM    8  C   UNL     1      -8.325   4.629  72.097  1.00  0.00    -0.117 C  
BRANCH   7   9
HETATM    9  O   UNL     1      -7.357   6.726  72.247  1.00  0.00    -0.086 OA 
BRANCH   9  10
HETATM   10  C   UNL     1      -7.892   7.946  72.454  1.00  0.00    -0.115 C  
HETATM   11  O   UNL     1      -7.300   8.924  72.869  1.00  0.00    -0.347 OA 
HETATM   12  N   UNL     1      -9.189   7.908  72.024  1.00  0.00    -0.143 N  
HETATM   13  H   UNL     1      -9.565   7.024  71.680  1.00  0.00     0.000 HD 
BRANCH  12  14
HETATM   14  C   UNL     1     -10.049   9.072  72.036  1.00  0.00    -0.172 C  
BRANCH  14  15
HETATM   15  C   UNL     1     -11.040   9.136  70.825  1.00  0.00    -0.336 C  
HETATM   16  C   UNL     1     -11.322   7.714  70.267  1.00  0.00    -0.197 C  
HETATM   17  C   UNL     1     -12.367   9.777  71.324  1.00  0.00    -0.465 C  
HETATM   18  C   UNL     1     -13.188   8.872  72.246  1.00  0.00    -0.498 C  
HETATM   19  C   UNL     1     -12.143   6.834  71.207  1.00  0.00    -0.421 C  
HETATM   20  C   UNL     1     -13.447   7.516  71.602  1.00  0.00    -0.429 C  
BRANCH  15  21
HETATM   21  C   UNL     1     -10.405  10.028  69.718  1.00  0.00    -0.290 C  
HETATM   22  O   UNL     1     -11.322  12.270  69.719  1.00  0.00    -0.194 OA 
HETATM   23  C   UNL     1     -11.271  11.163  69.204  1.00  0.00    -0.264 C  
HETATM   24  O   UNL     1     -11.990  10.849  68.104  1.00  0.00    -0.581 OA 
ENDBRANCH  15  21
ENDBRANCH  14  15
ENDBRANCH  12  14
ENDBRANCH   9  10
ENDBRANCH   7   9
ENDBRANCH   6   7
ENDBRANCH   4   6
TORSDOF 7
ENDMDL
MODEL      231
REMARK 921   NORMALIZED FREE ENERGY PREDICTED BY IDOCK:   -3.29 KCAL/MOL
REMARK 922        TOTAL FREE ENERGY PREDICTED BY IDOCK:   -6.26 KCAL/MOL
REMARK 923 INTER-LIGAND FREE ENERGY PREDICTED BY IDOCK:   -5.85 KCAL/MOL
REMARK 924 INTRA-LIGAND FREE ENERGY PREDICTED BY IDOCK:   -0.41 KCAL/MOL
REMARK 927      BINDING AFFINITY PREDICTED BY RF-SCORE:    0.00 PKD
ROOT
HETATM    1  C   UNL     1     -11.771  11.357  70.191  1.00  0.00    -0.414 C  
HETATM    2  C   UNL     1     -10.613  10.975  69.263  1.00  0.00    -0.236 C  
HETATM    3  C   UNL     1     -10.106   9.581  69.610  1.00  0.00    -0.228 C  
HETATM    4  C   UNL     1     -11.054  11.052  67.810  1.00  0.00    -0.295 C  
HETATM    5  O   UNL     1     -12.176  11.396  67.455  1.00  0.00    -0.321 OA 
ENDROOT
BRANCH   4   6
HETATM    6  O   UNL     1     -10.034  10.764  66.948  1.00  0.00    -0.188 OA 
BRANCH   6   7
HETATM    7  C   UNL     1      -9.639  11.888  66.148  1.00  0.00    -0.234 C  
HETATM    8  C   UNL     1     -10.567  11.999  64.938  1.00  0.00    -0.334 C  
BRANCH   7   9
HETATM    9  O   UNL     1      -9.839  13.149  66.811  1.00  0.00    -0.238 OA 
BRANCH   9  10
HETATM   10  C   UNL     1      -8.731  13.720  67.323  1.00  0.00    -0.219 C  
HETATM   11  O   UNL     1      -7.605  13.264  67.274  1.00  0.00    -0.146 OA 
HETATM   12  N   UNL     1      -9.087  14.944  67.817  1.00  0.00    -0.182 N  
HETATM   13  H   UNL     1     -10.069  15.219  67.784  1.00  0.00     0.000 HD 
BRANCH  12  14
HETATM   14  C   UNL     1      -8.126  15.865  68.386  1.00  0.00    -0.149 C  
BRANCH  14  15
HETATM   15  C   UNL     1      -8.002  17.212  67.599  1.00  0.00    -0.187 C  
HETATM   16  C   UNL     1      -7.680  18.387  68.562  1.00  0.00    -0.321 C  
HETATM   17  C   UNL     1      -6.855  17.056  66.558  1.00  0.00    -0.281 C  
HETATM   18  C   UNL     1      -5.455  17.020  67.176  1.00  0.00    -0.189 C  
HETATM   19  C   UNL     1      -6.277  18.326  69.162  1.00  0.00    -0.246 C  
HETATM   20  C   UNL     1      -5.215  18.227  68.074  1.00  0.00    -0.158 C  
BRANCH  15  21
HETATM   21  C   UNL     1      -9.349  17.477  66.864  1.00  0.00    -0.275 C  
HETATM   22  O   UNL     1     -10.530  19.379  67.785  1.00  0.00    -0.408 OA 
HETATM   23  C   UNL     1     -10.426  18.166  67.682  1.00  0.00    -0.416 C  
HETATM   24  O   UNL     1     -11.280  17.316  68.291  1.00  0.00    -0.187 OA 
ENDBRANCH  15  21
ENDBRANCH  14  15
ENDBRANCH  12  14
ENDBRANCH   9  10
ENDBRANCH   7   9
ENDBRANCH   6   7
ENDBRANCH   4   6
TORSDOF 7
ENDMDL
MODEL      232
REMARK 921   NORMALIZED FREE ENERGY PREDICTED BY IDOCK:   -3.28 KCAL/MOL
REMARK 922        TOTAL FREE ENERGY PREDICTED BY IDOCK:   -6.26 KCAL/MOL
REMARK 923 INTER-LIGAND FREE ENERGY PREDICTED BY IDOCK:   -5.04 KCAL/MOL
REMARK 924 INTRA-LIGAND FREE ENERGY PREDICTED BY IDOCK:   -1.21 KCAL/MOL
REMARK 927      BINDING AFFINITY PREDICTED BY RF-SCORE:    0.00 PKD
ROOT
HETATM    1  C   UNL     1     -12.160  15.416  69.897  1.00  0.00    -0.382 C  
HETATM    2  C   UNL     1     -11.240  15.523  68.676  1.00  0.00    -0.326 C  
HETATM    3  C   UNL     1      -9.857  15.993  69.107  1.00  0.00    -0.247 C  
HETATM    4  C   UNL     1     -11.165  14.187  67.954  1.00  0.00    -0.279 C  
HETATM    5  O   UNL     1     -11.781  13.186  68.304  1.00  0.00    -0.309 OA 
ENDROOT
BRANCH   4   6
HETATM    6  O   UNL     1     -10.391  14.254  66.830  1.00  0.00    -0.268 OA 
BRANCH   6   7
HETATM    7  C   UNL     1     -10.918  13.488  65.737  1.00  0.00    -0.278 C  
HETATM    8  C   UNL     1     -11.220  14.420  64.564  1.00  0.00    -0.314 C  
BRANCH   7   9
HETATM    9  O   UNL     1      -9.957  12.578  65.172  1.00  0.00    -0.263 OA 
BRANCH   9  10
HETATM   10  C   UNL     1     -10.326  11.282  65.147  1.00  0.00    -0.295 C  
HETATM   11  O   UNL     1     -10.380  10.575  64.160  1.00  0.00    -0.313 OA 
HETATM   12  N   UNL     1     -10.533  10.885  66.439  1.00  0.00    -0.255 N  
HETATM   13  H   UNL     1     -10.439  11.575  67.184  1.00  0.00     0.000 HD 
BRANCH  12  14
HETATM   14  C   UNL     1     -10.878   9.524  66.791  1.00  0.00     0.039 C  
BRANCH  14  15
HETATM   15  C   UNL     1      -9.775   8.788  67.623  1.00  0.00    -0.210 C  
HETATM   16  C   UNL     1     -10.294   8.442  69.044  1.00  0.00    -0.231 C  
HETATM   17  C   UNL     1      -9.397   7.481  66.868  1.00  0.00    -0.197 C  
HETATM   18  C   UNL     1     -10.480   6.400  66.915  1.00  0.00    -0.340 C  
HETATM   19  C   UNL     1     -11.372   7.361  69.061  1.00  0.00     0.292 C  
HETATM   20  C   UNL     1     -10.900   6.100  68.348  1.00  0.00    -0.382 C  
BRANCH  15  21
HETATM   21  C   UNL     1      -8.531   9.721  67.720  1.00  0.00    -0.121 C  
HETATM   22  O   UNL     1      -7.886  10.142  70.015  1.00  0.00    -0.173 OA 
HETATM   23  C   UNL     1      -8.416  10.542  68.990  1.00  0.00    -0.157 C  
HETATM   24  O   UNL     1      -8.951  11.779  68.893  1.00  0.00    -0.035 OA 
ENDBRANCH  15  21
ENDBRANCH  14  15
ENDBRANCH  12  14
ENDBRANCH   9  10
ENDBRANCH   7   9
ENDBRANCH   6   7
ENDBRANCH   4   6
TORSDOF 7
ENDMDL
MODEL      233
REMARK 921   NORMALIZED FREE ENERGY PREDICTED BY IDOCK:   -3.28 KCAL/MOL
REMARK 922        TOTAL FREE ENERGY PREDICTED BY IDOCK:   -6.25 KCAL/MOL
REMARK 923 INTER-LIGAND FREE ENERGY PREDICTED BY IDOCK:   -5.50 KCAL/MOL
REMARK 924 INTRA-LIGAND FREE ENERGY PREDICTED BY IDOCK:   -0.75 KCAL/MOL
REMARK 927      BINDING AFFINITY PREDICTED BY RF-SCORE:    0.00 PKD
ROOT
HETATM    1  C   UNL     1     -10.436   6.768  66.795  1.00  0.00    -0.298 C  
HETATM    2  C   UNL     1     -10.460   7.784  67.941  1.00  0.00    -0.263 C  
HETATM    3  C   UNL     1     -10.786   7.080  69.252  1.00  0.00    -0.241 C  
HETATM    4  C   UNL     1      -9.128   8.513  68.028  1.00  0.00    -0.140 C  
HETATM    5  O   UNL     1      -8.192   8.316  67.262  1.00  0.00    -0.118 OA 
ENDROOT
BRANCH   4   6
HETATM    6  O   UNL     1      -9.127   9.463  69.010  1.00  0.00    -0.136 OA 
BRANCH   6   7
HETATM    7  C   UNL     1      -9.462  10.773  68.527  1.00  0.00    -0.181 C  
HETATM    8  C   UNL     1     -10.794  11.211  69.136  1.00  0.00    -0.284 C  
BRANCH   7   9
HETATM    9  O   UNL     1      -8.558  11.791  68.988  1.00  0.00     0.046 OA 
BRANCH   9  10
HETATM   10  C   UNL     1      -8.586  12.950  68.301  1.00  0.00    -0.170 C  
HETATM   11  O   UNL     1      -8.608  13.062  67.090  1.00  0.00    -0.196 OA 
HETATM   12  N   UNL     1      -8.683  13.968  69.208  1.00  0.00    -0.275 N  
HETATM   13  H   UNL     1      -8.670  13.740  70.203  1.00  0.00     0.000 HD 
BRANCH  12  14
HETATM   14  C   UNL     1      -8.803  15.356  68.815  1.00  0.00    -0.196 C  
BRANCH  14  15
HETATM   15  C   UNL     1     -10.278  15.881  68.802  1.00  0.00    -0.220 C  
HETATM   16  C   UNL     1     -10.332  17.382  69.198  1.00  0.00    -0.271 C  
HETATM   17  C   UNL     1     -10.840  15.698  67.362  1.00  0.00    -0.315 C  
HETATM   18  C   UNL     1     -10.243  16.660  66.333  1.00  0.00    -0.322 C  
HETATM   19  C   UNL     1      -9.731  18.318  68.153  1.00  0.00    -0.341 C  
HETATM   20  C   UNL     1     -10.374  18.108  66.788  1.00  0.00    -0.376 C  
BRANCH  15  21
HETATM   21  C   UNL     1     -11.110  15.032  69.807  1.00  0.00    -0.297 C  
HETATM   22  O   UNL     1     -13.254  16.045  70.299  1.00  0.00    -0.063 OA 
HETATM   23  C   UNL     1     -12.111  15.797  70.653  1.00  0.00    -0.388 C  
HETATM   24  O   UNL     1     -11.630  16.184  71.854  1.00  0.00    -0.458 OA 
ENDBRANCH  15  21
ENDBRANCH  14  15
ENDBRANCH  12  14
ENDBRANCH   9  10
ENDBRANCH   7   9
ENDBRANCH   6   7
ENDBRANCH   4   6
TORSDOF 7
ENDMDL
MODEL      234
REMARK 921   NORMALIZED FREE ENERGY PREDICTED BY IDOCK:   -3.27 KCAL/MOL
REMARK 922        TOTAL FREE ENERGY PREDICTED BY IDOCK:   -6.24 KCAL/MOL
REMARK 923 INTER-LIGAND FREE ENERGY PREDICTED BY IDOCK:   -6.47 KCAL/MOL
REMARK 924 INTRA-LIGAND FREE ENERGY PREDICTED BY IDOCK:    0.24 KCAL/MOL
REMARK 927      BINDING AFFINITY PREDICTED BY RF-SCORE:    0.00 PKD
ROOT
HETATM    1  C   UNL     1     -11.021   6.802  67.095  1.00  0.00    -0.458 C  
HETATM    2  C   UNL     1     -10.593   8.112  67.764  1.00  0.00    -0.233 C  
HETATM    3  C   UNL     1      -9.794   7.814  69.026  1.00  0.00    -0.169 C  
HETATM    4  C   UNL     1      -9.788   8.962  66.794  1.00  0.00    -0.241 C  
HETATM    5  O   UNL     1      -9.548   8.635  65.637  1.00  0.00    -0.142 OA 
ENDROOT
BRANCH   4   6
HETATM    6  O   UNL     1      -9.428  10.162  67.340  1.00  0.00    -0.150 OA 
BRANCH   6   7
HETATM    7  C   UNL     1     -10.038  11.284  66.685  1.00  0.00    -0.214 C  
HETATM    8  C   UNL     1     -11.139  11.855  67.579  1.00  0.00    -0.332 C  
BRANCH   7   9
HETATM    9  O   UNL     1      -9.146  12.402  66.536  1.00  0.00    -0.217 OA 
BRANCH   9  10
HETATM   10  C   UNL     1      -9.693  13.518  66.013  1.00  0.00    -0.218 C  
HETATM   11  O   UNL     1     -10.706  13.569  65.343  1.00  0.00    -0.287 OA 
HETATM   12  N   UNL     1      -8.959  14.584  66.452  1.00  0.00    -0.469 N  
HETATM   13  H   UNL     1      -8.135  14.407  67.026  1.00  0.00     0.000 HD 
BRANCH  12  14
HETATM   14  C   UNL     1      -9.305  15.953  66.135  1.00  0.00    -0.350 C  
BRANCH  14  15
HETATM   15  C   UNL     1      -8.916  16.977  67.254  1.00  0.00    -0.224 C  
HETATM   16  C   UNL     1      -7.962  16.325  68.291  1.00  0.00    -0.166 C  
HETATM   17  C   UNL     1      -8.208  18.185  66.575  1.00  0.00    -0.292 C  
HETATM   18  C   UNL     1      -6.804  17.870  66.053  1.00  0.00    -0.336 C  
HETATM   19  C   UNL     1      -6.569  16.023  67.743  1.00  0.00    -0.175 C  
HETATM   20  C   UNL     1      -5.929  17.270  67.146  1.00  0.00    -0.181 C  
BRANCH  15  21
HETATM   21  C   UNL     1     -10.222  17.456  67.956  1.00  0.00    -0.345 C  
HETATM   22  O   UNL     1     -11.008  19.568  67.071  1.00  0.00    -0.477 OA 
HETATM   23  C   UNL     1     -10.454  18.955  67.971  1.00  0.00    -0.358 C  
HETATM   24  O   UNL     1      -9.998  19.570  69.084  1.00  0.00    -0.442 OA 
ENDBRANCH  15  21
ENDBRANCH  14  15
ENDBRANCH  12  14
ENDBRANCH   9  10
ENDBRANCH   7   9
ENDBRANCH   6   7
ENDBRANCH   4   6
TORSDOF 7
ENDMDL
MODEL      235
REMARK 921   NORMALIZED FREE ENERGY PREDICTED BY IDOCK:   -3.24 KCAL/MOL
REMARK 922        TOTAL FREE ENERGY PREDICTED BY IDOCK:   -6.20 KCAL/MOL
REMARK 923 INTER-LIGAND FREE ENERGY PREDICTED BY IDOCK:   -5.13 KCAL/MOL
REMARK 924 INTRA-LIGAND FREE ENERGY PREDICTED BY IDOCK:   -1.07 KCAL/MOL
REMARK 927      BINDING AFFINITY PREDICTED BY RF-SCORE:    0.00 PKD
ROOT
HETATM    1  C   UNL     1     -12.582  14.107  70.894  1.00  0.00    -0.433 C  
HETATM    2  C   UNL     1     -12.162  15.100  69.806  1.00  0.00    -0.325 C  
HETATM    3  C   UNL     1     -11.154  16.093  70.371  1.00  0.00    -0.362 C  
HETATM    4  C   UNL     1     -11.589  14.359  68.608  1.00  0.00    -0.314 C  
HETATM    5  O   UNL     1     -11.507  13.138  68.536  1.00  0.00    -0.260 OA 
ENDROOT
BRANCH   4   6
HETATM    6  O   UNL     1     -11.245  15.210  67.595  1.00  0.00    -0.310 OA 
BRANCH   6   7
HETATM    7  C   UNL     1      -9.940  14.949  67.059  1.00  0.00    -0.240 C  
HETATM    8  C   UNL     1      -9.521  16.110  66.157  1.00  0.00    -0.362 C  
BRANCH   7   9
HETATM    9  O   UNL     1      -8.909  14.947  68.063  1.00  0.00    -0.160 OA 
BRANCH   9  10
HETATM   10  C   UNL     1      -7.961  13.999  67.923  1.00  0.00    -0.158 C  
HETATM   11  O   UNL     1      -6.868  14.154  67.413  1.00  0.00    -0.213 OA 
HETATM   12  N   UNL     1      -8.412  12.867  68.541  1.00  0.00    -0.322 N  
HETATM   13  H   UNL     1      -9.347  12.871  68.948  1.00  0.00     0.000 HD 
BRANCH  12  14
HETATM   14  C   UNL     1      -7.615  11.663  68.643  1.00  0.00    -0.133 C  
BRANCH  14  15
HETATM   15  C   UNL     1      -7.923  10.607  67.529  1.00  0.00    -0.110 C  
HETATM   16  C   UNL     1      -7.014  10.831  66.290  1.00  0.00    -0.134 C  
HETATM   17  C   UNL     1      -7.662   9.193  68.123  1.00  0.00    -0.092 C  
HETATM   18  C   UNL     1      -6.181   8.872  68.341  1.00  0.00    -0.054 C  
HETATM   19  C   UNL     1      -5.543  10.503  66.536  1.00  0.00    -0.063 C  
HETATM   20  C   UNL     1      -5.376   9.084  67.065  1.00  0.00    -0.040 C  
BRANCH  15  21
HETATM   21  C   UNL     1      -9.421  10.743  67.126  1.00  0.00    -0.180 C  
HETATM   22  O   UNL     1     -10.490   8.587  66.856  1.00  0.00    -0.308 OA 
HETATM   23  C   UNL     1     -10.004   9.583  66.341  1.00  0.00    -0.269 C  
HETATM   24  O   UNL     1      -9.949   9.744  65.001  1.00  0.00    -0.286 OA 
ENDBRANCH  15  21
ENDBRANCH  14  15
ENDBRANCH  12  14
ENDBRANCH   9  10
ENDBRANCH   7   9
ENDBRANCH   6   7
ENDBRANCH   4   6
TORSDOF 7
ENDMDL
MODEL      236
REMARK 921   NORMALIZED FREE ENERGY PREDICTED BY IDOCK:   -3.22 KCAL/MOL
REMARK 922        TOTAL FREE ENERGY PREDICTED BY IDOCK:   -6.17 KCAL/MOL
REMARK 923 INTER-LIGAND FREE ENERGY PREDICTED BY IDOCK:   -5.54 KCAL/MOL
REMARK 924 INTRA-LIGAND FREE ENERGY PREDICTED BY IDOCK:   -0.63 KCAL/MOL
REMARK 927      BINDING AFFINITY PREDICTED BY RF-SCORE:    0.00 PKD
ROOT
HETATM    1  C   UNL     1      -9.484   4.861  66.126  1.00  0.00    -0.165 C  
HETATM    2  C   UNL     1      -9.621   6.328  66.546  1.00  0.00    -0.183 C  
HETATM    3  C   UNL     1     -11.031   6.593  67.057  1.00  0.00    -0.463 C  
HETATM    4  C   UNL     1      -8.581   6.674  67.601  1.00  0.00    -0.120 C  
HETATM    5  O   UNL     1      -7.747   5.881  68.022  1.00  0.00    -0.097 OA 
ENDROOT
BRANCH   4   6
HETATM    6  O   UNL     1      -8.640   7.989  67.967  1.00  0.00    -0.128 OA 
BRANCH   6   7
HETATM    7  C   UNL     1      -8.126   8.229  69.286  1.00  0.00    -0.116 C  
HETATM    8  C   UNL     1      -6.798   8.980  69.182  1.00  0.00    -0.054 C  
BRANCH   7   9
HETATM    9  O   UNL     1      -8.938   9.137  70.050  1.00  0.00    -0.157 OA 
BRANCH   9  10
HETATM   10  C   UNL     1     -10.177   9.360  69.566  1.00  0.00    -0.209 C  
HETATM   11  O   UNL     1     -11.207   8.876  69.993  1.00  0.00    -0.213 OA 
HETATM   12  N   UNL     1     -10.073  10.297  68.577  1.00  0.00    -0.159 N  
HETATM   13  H   UNL     1      -9.146  10.638  68.321  1.00  0.00     0.000 HD 
BRANCH  12  14
HETATM   14  C   UNL     1     -11.225  10.826  67.878  1.00  0.00    -0.318 C  
BRANCH  14  15
HETATM   15  C   UNL     1     -10.862  11.841  66.742  1.00  0.00    -0.312 C  
HETATM   16  C   UNL     1      -9.414  12.371  66.918  1.00  0.00    -0.219 C  
HETATM   17  C   UNL     1     -10.989  11.101  65.379  1.00  0.00    -0.151 C  
HETATM   18  C   UNL     1      -9.888  10.069  65.126  1.00  0.00    -0.388 C  
HETATM   19  C   UNL     1      -8.336  11.321  66.659  1.00  0.00    -0.163 C  
HETATM   20  C   UNL     1      -8.504  10.686  65.284  1.00  0.00    -0.152 C  
BRANCH  15  21
HETATM   21  C   UNL     1     -11.875  13.022  66.799  1.00  0.00    -0.451 C  
HETATM   22  O   UNL     1     -12.554  13.746  64.590  1.00  0.00    -0.609 OA 
HETATM   23  C   UNL     1     -11.886  13.944  65.594  1.00  0.00    -0.371 C  
HETATM   24  O   UNL     1     -11.090  15.027  65.725  1.00  0.00    -0.340 OA 
ENDBRANCH  15  21
ENDBRANCH  14  15
ENDBRANCH  12  14
ENDBRANCH   9  10
ENDBRANCH   7   9
ENDBRANCH   6   7
ENDBRANCH   4   6
TORSDOF 7
ENDMDL
MODEL      237
REMARK 921   NORMALIZED FREE ENERGY PREDICTED BY IDOCK:   -3.22 KCAL/MOL
REMARK 922        TOTAL FREE ENERGY PREDICTED BY IDOCK:   -6.16 KCAL/MOL
REMARK 923 INTER-LIGAND FREE ENERGY PREDICTED BY IDOCK:   -5.16 KCAL/MOL
REMARK 924 INTRA-LIGAND FREE ENERGY PREDICTED BY IDOCK:   -1.00 KCAL/MOL
REMARK 927      BINDING AFFINITY PREDICTED BY RF-SCORE:    0.00 PKD
ROOT
HETATM    1  C   UNL     1     -12.069  15.838  69.491  1.00  0.00    -0.261 C  
HETATM    2  C   UNL     1     -10.840  15.400  68.690  1.00  0.00    -0.259 C  
HETATM    3  C   UNL     1      -9.586  15.540  69.543  1.00  0.00    -0.278 C  
HETATM    4  C   UNL     1     -11.012  13.971  68.199  1.00  0.00    -0.252 C  
HETATM    5  O   UNL     1     -12.012  13.293  68.407  1.00  0.00    -0.340 OA 
ENDROOT
BRANCH   4   6
HETATM    6  O   UNL     1      -9.954  13.559  67.438  1.00  0.00    -0.228 OA 
BRANCH   6   7
HETATM    7  C   UNL     1     -10.354  12.876  66.240  1.00  0.00    -0.268 C  
HETATM    8  C   UNL     1     -10.542  13.895  65.116  1.00  0.00    -0.391 C  
BRANCH   7   9
HETATM    9  O   UNL     1      -9.329  12.016  65.714  1.00  0.00    -0.215 OA 
BRANCH   9  10
HETATM   10  C   UNL     1      -9.713  10.753  65.439  1.00  0.00    -0.245 C  
HETATM   11  O   UNL     1      -9.723  10.234  64.339  1.00  0.00    -0.297 OA 
HETATM   12  N   UNL     1      -9.991  10.137  66.626  1.00  0.00    -0.206 N  
HETATM   13  H   UNL     1      -9.929  10.681  67.487  1.00  0.00     0.000 HD 
BRANCH  12  14
HETATM   14  C   UNL     1     -10.372   8.743  66.712  1.00  0.00    -0.258 C  
BRANCH  14  15
HETATM   15  C   UNL     1      -9.385   7.871  67.558  1.00  0.00    -0.166 C  
HETATM   16  C   UNL     1      -9.838   6.386  67.577  1.00  0.00    -0.146 C  
HETATM   17  C   UNL     1      -7.973   7.981  66.912  1.00  0.00    -0.104 C  
HETATM   18  C   UNL     1      -7.841   7.247  65.575  1.00  0.00    -0.115 C  
HETATM   19  C   UNL     1      -9.695   5.679  66.231  1.00  0.00    -0.162 C  
HETATM   20  C   UNL     1      -8.272   5.791  65.698  1.00  0.00    -0.128 C  
BRANCH  15  21
HETATM   21  C   UNL     1      -9.349   8.438  69.008  1.00  0.00    -0.147 C  
HETATM   22  O   UNL     1     -11.276   7.750  70.303  1.00  0.00    -0.263 OA 
HETATM   23  C   UNL     1     -10.696   8.627  69.679  1.00  0.00    -0.200 C  
HETATM   24  O   UNL     1     -11.211   9.868  69.537  1.00  0.00    -0.229 OA 
ENDBRANCH  15  21
ENDBRANCH  14  15
ENDBRANCH  12  14
ENDBRANCH   9  10
ENDBRANCH   7   9
ENDBRANCH   6   7
ENDBRANCH   4   6
TORSDOF 7
ENDMDL
MODEL      238
REMARK 921   NORMALIZED FREE ENERGY PREDICTED BY IDOCK:   -3.20 KCAL/MOL
REMARK 922        TOTAL FREE ENERGY PREDICTED BY IDOCK:   -6.14 KCAL/MOL
REMARK 923 INTER-LIGAND FREE ENERGY PREDICTED BY IDOCK:   -5.33 KCAL/MOL
REMARK 924 INTRA-LIGAND FREE ENERGY PREDICTED BY IDOCK:   -0.81 KCAL/MOL
REMARK 927      BINDING AFFINITY PREDICTED BY RF-SCORE:    0.00 PKD
ROOT
HETATM    1  C   UNL     1     -13.479  13.149  71.550  1.00  0.00    -0.215 C  
HETATM    2  C   UNL     1     -12.979  14.449  70.911  1.00  0.00    -0.413 C  
HETATM    3  C   UNL     1     -11.982  15.134  71.837  1.00  0.00    -0.465 C  
HETATM    4  C   UNL     1     -12.358  14.163  69.552  1.00  0.00    -0.231 C  
HETATM    5  O   UNL     1     -12.298  13.046  69.050  1.00  0.00    -0.126 OA 
ENDROOT
BRANCH   4   6
HETATM    6  O   UNL     1     -11.942  15.305  68.928  1.00  0.00    -0.322 OA 
BRANCH   6   7
HETATM    7  C   UNL     1     -10.760  15.115  68.135  1.00  0.00    -0.254 C  
HETATM    8  C   UNL     1     -10.322  16.457  67.549  1.00  0.00    -0.288 C  
BRANCH   7   9
HETATM    9  O   UNL     1      -9.616  14.727  68.915  1.00  0.00    -0.216 OA 
BRANCH   9  10
HETATM   10  C   UNL     1      -8.679  14.012  68.260  1.00  0.00    -0.182 C  
HETATM   11  O   UNL     1      -7.499  14.292  68.175  1.00  0.00    -0.107 OA 
HETATM   12  N   UNL     1      -9.276  12.874  67.796  1.00  0.00    -0.191 N  
HETATM   13  H   UNL     1     -10.277  12.749  67.947  1.00  0.00     0.000 HD 
BRANCH  12  14
HETATM   14  C   UNL     1      -8.544  11.838  67.098  1.00  0.00    -0.168 C  
BRANCH  14  15
HETATM   15  C   UNL     1      -9.408  10.577  66.757  1.00  0.00    -0.180 C  
HETATM   16  C   UNL     1     -10.921  10.925  66.768  1.00  0.00    -0.248 C  
HETATM   17  C   UNL     1      -8.993  10.080  65.342  1.00  0.00    -0.213 C  
HETATM   18  C   UNL     1      -9.456  10.990  64.202  1.00  0.00    -0.274 C  
HETATM   19  C   UNL     1     -11.354  11.834  65.619  1.00  0.00    -0.293 C  
HETATM   20  C   UNL     1     -10.956  11.246  64.271  1.00  0.00    -0.358 C  
BRANCH  15  21
HETATM   21  C   UNL     1      -9.104   9.475  67.815  1.00  0.00    -0.133 C  
HETATM   22  O   UNL     1      -8.074   7.521  66.823  1.00  0.00    -0.117 OA 
HETATM   23  C   UNL     1      -9.069   8.050  67.295  1.00  0.00    -0.135 C  
HETATM   24  O   UNL     1     -10.247   7.397  67.406  1.00  0.00    -0.198 OA 
ENDBRANCH  15  21
ENDBRANCH  14  15
ENDBRANCH  12  14
ENDBRANCH   9  10
ENDBRANCH   7   9
ENDBRANCH   6   7
ENDBRANCH   4   6
TORSDOF 7
ENDMDL
MODEL      239
REMARK 921   NORMALIZED FREE ENERGY PREDICTED BY IDOCK:   -3.19 KCAL/MOL
REMARK 922        TOTAL FREE ENERGY PREDICTED BY IDOCK:   -6.13 KCAL/MOL
REMARK 923 INTER-LIGAND FREE ENERGY PREDICTED BY IDOCK:   -5.74 KCAL/MOL
REMARK 924 INTRA-LIGAND FREE ENERGY PREDICTED BY IDOCK:   -0.38 KCAL/MOL
REMARK 927      BINDING AFFINITY PREDICTED BY RF-SCORE:    0.00 PKD
ROOT
HETATM    1  C   UNL     1     -10.900   8.661  72.093  1.00  0.00    -0.424 C  
HETATM    2  C   UNL     1     -10.635   8.520  70.591  1.00  0.00    -0.241 C  
HETATM    3  C   UNL     1     -11.166   9.742  69.853  1.00  0.00    -0.271 C  
HETATM    4  C   UNL     1      -9.149   8.326  70.332  1.00  0.00    -0.147 C  
HETATM    5  O   UNL     1      -8.304   8.270  71.219  1.00  0.00    -0.110 OA 
ENDROOT
BRANCH   4   6
HETATM    6  O   UNL     1      -8.878   8.149  69.005  1.00  0.00    -0.143 OA 
BRANCH   6   7
HETATM    7  C   UNL     1      -8.070   9.198  68.451  1.00  0.00    -0.104 C  
HETATM    8  C   UNL     1      -6.626   9.029  68.924  1.00  0.00    -0.052 C  
BRANCH   7   9
HETATM    9  O   UNL     1      -7.941   9.113  67.021  1.00  0.00    -0.101 OA 
BRANCH   9  10
HETATM   10  C   UNL     1      -7.832  10.291  66.374  1.00  0.00    -0.119 C  
HETATM   11  O   UNL     1      -6.846  10.693  65.787  1.00  0.00    -0.133 OA 
HETATM   12  N   UNL     1      -9.054  10.901  66.415  1.00  0.00    -0.167 N  
HETATM   13  H   UNL     1      -9.810  10.448  66.930  1.00  0.00     0.000 HD 
BRANCH  12  14
HETATM   14  C   UNL     1      -9.319  12.163  65.758  1.00  0.00    -0.085 C  
BRANCH  14  15
HETATM   15  C   UNL     1     -10.436  13.013  66.452  1.00  0.00    -0.285 C  
HETATM   16  C   UNL     1     -10.247  13.018  67.993  1.00  0.00    -0.233 C  
HETATM   17  C   UNL     1     -10.341  14.467  65.906  1.00  0.00    -0.327 C  
HETATM   18  C   UNL     1      -9.119  15.241  66.405  1.00  0.00    -0.347 C  
HETATM   19  C   UNL     1      -9.021  13.799  68.462  1.00  0.00    -0.120 C  
HETATM   20  C   UNL     1      -9.036  15.224  67.926  1.00  0.00    -0.175 C  
BRANCH  15  21
HETATM   21  C   UNL     1     -11.819  12.399  66.084  1.00  0.00    -0.442 C  
HETATM   22  O   UNL     1     -12.503  12.979  63.835  1.00  0.00    -0.606 OA 
HETATM   23  C   UNL     1     -12.621  13.151  65.039  1.00  0.00    -0.438 C  
HETATM   24  O   UNL     1     -13.499  14.038  65.555  1.00  0.00    -0.677 OA 
ENDBRANCH  15  21
ENDBRANCH  14  15
ENDBRANCH  12  14
ENDBRANCH   9  10
ENDBRANCH   7   9
ENDBRANCH   6   7
ENDBRANCH   4   6
TORSDOF 7
ENDMDL
MODEL      240
REMARK 921   NORMALIZED FREE ENERGY PREDICTED BY IDOCK:   -3.18 KCAL/MOL
REMARK 922        TOTAL FREE ENERGY PREDICTED BY IDOCK:   -6.11 KCAL/MOL
REMARK 923 INTER-LIGAND FREE ENERGY PREDICTED BY IDOCK:   -5.70 KCAL/MOL
REMARK 924 INTRA-LIGAND FREE ENERGY PREDICTED BY IDOCK:   -0.41 KCAL/MOL
REMARK 927      BINDING AFFINITY PREDICTED BY RF-SCORE:    0.00 PKD
ROOT
HETATM    1  C   UNL     1      -8.145   6.756  69.125  1.00  0.00    -0.120 C  
HETATM    2  C   UNL     1      -9.554   7.164  69.570  1.00  0.00    -0.154 C  
HETATM    3  C   UNL     1     -10.296   5.954  70.121  1.00  0.00    -0.305 C  
HETATM    4  C   UNL     1      -9.478   8.278  70.603  1.00  0.00    -0.164 C  
HETATM    5  O   UNL     1      -8.429   8.779  70.991  1.00  0.00    -0.145 OA 
ENDROOT
BRANCH   4   6
HETATM    6  O   UNL     1     -10.718   8.703  70.990  1.00  0.00    -0.210 OA 
BRANCH   6   7
HETATM    7  C   UNL     1     -11.297   9.650  70.080  1.00  0.00    -0.195 C  
HETATM    8  C   UNL     1     -12.403  10.427  70.795  1.00  0.00    -0.463 C  
BRANCH   7   9
HETATM    9  O   UNL     1     -10.384  10.692  69.694  1.00  0.00    -0.216 OA 
BRANCH   9  10
HETATM   10  C   UNL     1     -10.395  11.023  68.388  1.00  0.00    -0.183 C  
HETATM   11  O   UNL     1     -11.149  10.575  67.545  1.00  0.00    -0.310 OA 
HETATM   12  N   UNL     1      -9.477  12.018  68.204  1.00  0.00    -0.195 N  
HETATM   13  H   UNL     1      -8.915  12.318  69.001  1.00  0.00     0.000 HD 
BRANCH  12  14
HETATM   14  C   UNL     1      -9.271  12.664  66.925  1.00  0.00    -0.216 C  
BRANCH  14  15
HETATM   15  C   UNL     1      -9.793  14.139  66.872  1.00  0.00    -0.265 C  
HETATM   16  C   UNL     1      -9.763  14.682  65.418  1.00  0.00    -0.176 C  
HETATM   17  C   UNL     1     -11.253  14.151  67.408  1.00  0.00    -0.334 C  
HETATM   18  C   UNL     1     -12.270  13.512  66.459  1.00  0.00    -0.433 C  
HETATM   19  C   UNL     1     -10.788  14.028  64.494  1.00  0.00    -0.362 C  
HETATM   20  C   UNL     1     -12.195  14.132  65.069  1.00  0.00    -0.450 C  
BRANCH  15  21
HETATM   21  C   UNL     1      -8.886  15.013  67.788  1.00  0.00    -0.172 C  
HETATM   22  O   UNL     1      -9.060  17.370  67.259  1.00  0.00    -0.232 OA 
HETATM   23  C   UNL     1      -8.420  16.331  67.197  1.00  0.00    -0.187 C  
HETATM   24  O   UNL     1      -7.215  16.264  66.591  1.00  0.00    -0.210 OA 
ENDBRANCH  15  21
ENDBRANCH  14  15
ENDBRANCH  12  14
ENDBRANCH   9  10
ENDBRANCH   7   9
ENDBRANCH   6   7
ENDBRANCH   4   6
TORSDOF 7
ENDMDL
MODEL      241
REMARK 921   NORMALIZED FREE ENERGY PREDICTED BY IDOCK:   -3.17 KCAL/MOL
REMARK 922        TOTAL FREE ENERGY PREDICTED BY IDOCK:   -6.10 KCAL/MOL
REMARK 923 INTER-LIGAND FREE ENERGY PREDICTED BY IDOCK:   -4.61 KCAL/MOL
REMARK 924 INTRA-LIGAND FREE ENERGY PREDICTED BY IDOCK:   -1.49 KCAL/MOL
REMARK 927      BINDING AFFINITY PREDICTED BY RF-SCORE:    0.00 PKD
ROOT
HETATM    1  C   UNL     1      -5.863   7.948  70.494  1.00  0.00    -0.029 C  
HETATM    2  C   UNL     1      -6.626   7.867  71.821  1.00  0.00    -0.049 C  
HETATM    3  C   UNL     1      -5.662   8.048  72.986  1.00  0.00    -0.049 C  
HETATM    4  C   UNL     1      -7.732   8.911  71.858  1.00  0.00     0.085 C  
HETATM    5  O   UNL     1      -7.975   9.681  70.935  1.00  0.00    -0.307 OA 
ENDROOT
BRANCH   4   6
HETATM    6  O   UNL     1      -8.466   8.839  73.008  1.00  0.00    -0.402 OA 
BRANCH   6   7
HETATM    7  C   UNL     1      -9.477   7.820  72.967  1.00  0.00    -0.251 C  
HETATM    8  C   UNL     1      -9.543   7.119  74.324  1.00  0.00    -0.218 C  
BRANCH   7   9
HETATM    9  O   UNL     1     -10.805   8.351  72.825  1.00  0.00    -0.312 OA 
BRANCH   9  10
HETATM   10  C   UNL     1     -11.542   7.820  71.829  1.00  0.00    -0.272 C  
HETATM   11  O   UNL     1     -12.643   8.198  71.477  1.00  0.00    -0.300 OA 
HETATM   12  N   UNL     1     -10.789   6.851  71.228  1.00  0.00    -0.231 N  
HETATM   13  H   UNL     1      -9.868   6.639  71.612  1.00  0.00     0.000 HD 
BRANCH  12  14
HETATM   14  C   UNL     1     -11.246   6.114  70.069  1.00  0.00    -0.401 C  
BRANCH  14  15
HETATM   15  C   UNL     1     -10.089   5.646  69.123  1.00  0.00    -0.274 C  
HETATM   16  C   UNL     1     -10.624   5.376  67.691  1.00  0.00    -0.188 C  
HETATM   17  C   UNL     1      -9.019   6.775  69.080  1.00  0.00    -0.132 C  
HETATM   18  C   UNL     1      -9.458   8.021  68.308  1.00  0.00    -0.147 C  
HETATM   19  C   UNL     1     -11.054   6.636  66.944  1.00  0.00    -0.319 C  
HETATM   20  C   UNL     1      -9.930   7.664  66.904  1.00  0.00    -0.325 C  
BRANCH  15  21
HETATM   21  C   UNL     1      -9.466   4.348  69.716  1.00  0.00    -0.254 C  
HETATM   22  O   UNL     1      -8.380   4.750  71.843  1.00  0.00    -0.110 OA 
HETATM   23  C   UNL     1      -8.280   4.546  70.643  1.00  0.00    -0.075 C  
HETATM   24  O   UNL     1      -7.082   4.469  70.024  1.00  0.00    -0.047 OA 
ENDBRANCH  15  21
ENDBRANCH  14  15
ENDBRANCH  12  14
ENDBRANCH   9  10
ENDBRANCH   7   9
ENDBRANCH   6   7
ENDBRANCH   4   6
TORSDOF 7
ENDMDL
MODEL      242
REMARK 921   NORMALIZED FREE ENERGY PREDICTED BY IDOCK:   -3.15 KCAL/MOL
REMARK 922        TOTAL FREE ENERGY PREDICTED BY IDOCK:   -6.08 KCAL/MOL
REMARK 923 INTER-LIGAND FREE ENERGY PREDICTED BY IDOCK:   -6.62 KCAL/MOL
REMARK 924 INTRA-LIGAND FREE ENERGY PREDICTED BY IDOCK:    0.55 KCAL/MOL
REMARK 927      BINDING AFFINITY PREDICTED BY RF-SCORE:    0.00 PKD
ROOT
HETATM    1  C   UNL     1     -12.604  15.575  73.884  1.00  0.00    -0.767 C  
HETATM    2  C   UNL     1     -13.092  14.740  72.696  1.00  0.00    -0.534 C  
HETATM    3  C   UNL     1     -14.385  15.326  72.145  1.00  0.00    -0.651 C  
HETATM    4  C   UNL     1     -12.018  14.674  71.621  1.00  0.00    -0.309 C  
HETATM    5  O   UNL     1     -10.917  15.202  71.723  1.00  0.00    -0.257 OA 
ENDROOT
BRANCH   4   6
HETATM    6  O   UNL     1     -12.398  13.897  70.563  1.00  0.00    -0.330 OA 
BRANCH   6   7
HETATM    7  C   UNL     1     -11.904  14.379  69.305  1.00  0.00    -0.325 C  
HETATM    8  C   UNL     1     -11.401  15.812  69.474  1.00  0.00    -0.328 C  
BRANCH   7   9
HETATM    9  O   UNL     1     -10.725  13.685  68.861  1.00  0.00    -0.245 OA 
BRANCH   9  10
HETATM   10  C   UNL     1     -10.934  12.473  68.311  1.00  0.00    -0.240 C  
HETATM   11  O   UNL     1     -11.915  12.138  67.675  1.00  0.00    -0.529 OA 
HETATM   12  N   UNL     1      -9.807  11.726  68.513  1.00  0.00    -0.244 N  
HETATM   13  H   UNL     1      -9.042  12.131  69.052  1.00  0.00     0.000 HD 
BRANCH  12  14
HETATM   14  C   UNL     1      -9.657  10.384  67.992  1.00  0.00    -0.143 C  
BRANCH  14  15
HETATM   15  C   UNL     1      -8.769   9.456  68.888  1.00  0.00    -0.132 C  
HETATM   16  C   UNL     1      -7.899   8.513  68.014  1.00  0.00    -0.103 C  
HETATM   17  C   UNL     1      -7.851  10.363  69.757  1.00  0.00    -0.108 C  
HETATM   18  C   UNL     1      -6.737  11.057  68.970  1.00  0.00    -0.074 C  
HETATM   19  C   UNL     1      -6.795   9.232  67.241  1.00  0.00    -0.080 C  
HETATM   20  C   UNL     1      -5.914  10.053  68.174  1.00  0.00    -0.042 C  
BRANCH  15  21
HETATM   21  C   UNL     1      -9.708   8.619  69.807  1.00  0.00    -0.176 C  
HETATM   22  O   UNL     1     -11.143  10.022  71.162  1.00  0.00    -0.333 OA 
HETATM   23  C   UNL     1     -10.161   9.298  71.086  1.00  0.00    -0.317 C  
HETATM   24  O   UNL     1      -9.383   9.027  72.156  1.00  0.00    -0.356 OA 
ENDBRANCH  15  21
ENDBRANCH  14  15
ENDBRANCH  12  14
ENDBRANCH   9  10
ENDBRANCH   7   9
ENDBRANCH   6   7
ENDBRANCH   4   6
TORSDOF 7
ENDMDL
MODEL      243
REMARK 921   NORMALIZED FREE ENERGY PREDICTED BY IDOCK:   -3.15 KCAL/MOL
REMARK 922        TOTAL FREE ENERGY PREDICTED BY IDOCK:   -6.07 KCAL/MOL
REMARK 923 INTER-LIGAND FREE ENERGY PREDICTED BY IDOCK:   -5.49 KCAL/MOL
REMARK 924 INTRA-LIGAND FREE ENERGY PREDICTED BY IDOCK:   -0.59 KCAL/MOL
REMARK 927      BINDING AFFINITY PREDICTED BY RF-SCORE:    0.00 PKD
ROOT
HETATM    1  C   UNL     1      -7.510  19.943  69.959  1.00  0.00     0.374 C  
HETATM    2  C   UNL     1      -6.931  19.646  68.572  1.00  0.00    -0.345 C  
HETATM    3  C   UNL     1      -6.253  20.891  68.015  1.00  0.00    -0.389 C  
HETATM    4  C   UNL     1      -5.960  18.479  68.644  1.00  0.00    -0.201 C  
HETATM    5  O   UNL     1      -5.709  17.862  69.673  1.00  0.00    -0.210 OA 
ENDROOT
BRANCH   4   6
HETATM    6  O   UNL     1      -5.457  18.153  67.415  1.00  0.00    -0.135 OA 
BRANCH   6   7
HETATM    7  C   UNL     1      -6.478  17.897  66.439  1.00  0.00    -0.228 C  
HETATM    8  C   UNL     1      -5.854  17.886  65.044  1.00  0.00     0.201 C  
BRANCH   7   9
HETATM    9  O   UNL     1      -7.037  16.576  66.542  1.00  0.00    -0.218 OA 
BRANCH   9  10
HETATM   10  C   UNL     1      -8.368  16.520  66.749  1.00  0.00    -0.239 C  
HETATM   11  O   UNL     1      -9.007  17.252  67.480  1.00  0.00    -0.220 OA 
HETATM   12  N   UNL     1      -8.876  15.562  65.918  1.00  0.00    -0.376 N  
HETATM   13  H   UNL     1      -8.231  15.024  65.338  1.00  0.00     0.000 HD 
BRANCH  12  14
HETATM   14  C   UNL     1     -10.293  15.278  65.828  1.00  0.00    -0.344 C  
BRANCH  14  15
HETATM   15  C   UNL     1     -10.686  13.858  66.357  1.00  0.00    -0.281 C  
HETATM   16  C   UNL     1     -12.217  13.630  66.238  1.00  0.00    -0.484 C  
HETATM   17  C   UNL     1      -9.929  12.801  65.502  1.00  0.00    -0.234 C  
HETATM   18  C   UNL     1     -10.453  12.667  64.070  1.00  0.00    -0.443 C  
HETATM   19  C   UNL     1     -12.712  13.499  64.799  1.00  0.00    -0.284 C  
HETATM   20  C   UNL     1     -11.954  12.408  64.052  1.00  0.00    -0.546 C  
BRANCH  15  21
HETATM   21  C   UNL     1     -10.244  13.749  67.846  1.00  0.00    -0.245 C  
HETATM   22  O   UNL     1      -9.214  11.613  68.336  1.00  0.00    -0.182 OA 
HETATM   23  C   UNL     1     -10.188  12.346  68.420  1.00  0.00    -0.225 C  
HETATM   24  O   UNL     1     -11.320  11.967  69.052  1.00  0.00    -0.237 OA 
ENDBRANCH  15  21
ENDBRANCH  14  15
ENDBRANCH  12  14
ENDBRANCH   9  10
ENDBRANCH   7   9
ENDBRANCH   6   7
ENDBRANCH   4   6
TORSDOF 7
ENDMDL
MODEL      244
REMARK 921   NORMALIZED FREE ENERGY PREDICTED BY IDOCK:   -3.15 KCAL/MOL
REMARK 922        TOTAL FREE ENERGY PREDICTED BY IDOCK:   -6.07 KCAL/MOL
REMARK 923 INTER-LIGAND FREE ENERGY PREDICTED BY IDOCK:   -5.36 KCAL/MOL
REMARK 924 INTRA-LIGAND FREE ENERGY PREDICTED BY IDOCK:   -0.71 KCAL/MOL
REMARK 927      BINDING AFFINITY PREDICTED BY RF-SCORE:    0.00 PKD
ROOT
HETATM    1  C   UNL     1      -5.917  17.051  68.802  1.00  0.00    -0.152 C  
HETATM    2  C   UNL     1      -7.411  17.369  68.687  1.00  0.00    -0.263 C  
HETATM    3  C   UNL     1      -7.608  18.859  68.438  1.00  0.00    -0.339 C  
HETATM    4  C   UNL     1      -8.043  16.540  67.579  1.00  0.00    -0.154 C  
HETATM    5  O   UNL     1      -7.429  15.722  66.904  1.00  0.00    -0.216 OA 
ENDROOT
BRANCH   4   6
HETATM    6  O   UNL     1      -9.388  16.761  67.477  1.00  0.00    -0.227 OA 
BRANCH   6   7
HETATM    7  C   UNL     1     -10.177  15.646  67.918  1.00  0.00    -0.239 C  
HETATM    8  C   UNL     1     -11.508  16.155  68.469  1.00  0.00    -0.324 C  
BRANCH   7   9
HETATM    9  O   UNL     1     -10.592  14.789  66.841  1.00  0.00    -0.284 OA 
BRANCH   9  10
HETATM   10  C   UNL     1     -11.278  13.687  67.204  1.00  0.00    -0.309 C  
HETATM   11  O   UNL     1     -12.403  13.397  66.846  1.00  0.00    -0.328 OA 
HETATM   12  N   UNL     1     -10.446  12.913  67.963  1.00  0.00    -0.224 N  
HETATM   13  H   UNL     1      -9.513  13.264  68.180  1.00  0.00     0.000 HD 
BRANCH  12  14
HETATM   14  C   UNL     1     -10.835  11.614  68.471  1.00  0.00    -0.219 C  
BRANCH  14  15
HETATM   15  C   UNL     1      -9.973  10.434  67.910  1.00  0.00    -0.192 C  
HETATM   16  C   UNL     1      -8.513  10.892  67.648  1.00  0.00    -0.123 C  
HETATM   17  C   UNL     1      -9.984   9.289  68.963  1.00  0.00    -0.187 C  
HETATM   18  C   UNL     1      -9.166   9.593  70.221  1.00  0.00    -0.285 C  
HETATM   19  C   UNL     1      -7.721  11.187  68.920  1.00  0.00    -0.137 C  
HETATM   20  C   UNL     1      -7.740   9.996  69.870  1.00  0.00    -0.183 C  
BRANCH  15  21
HETATM   21  C   UNL     1     -10.625   9.939  66.585  1.00  0.00    -0.186 C  
HETATM   22  O   UNL     1      -9.048   9.921  64.746  1.00  0.00    -0.201 OA 
HETATM   23  C   UNL     1      -9.996  10.455  65.304  1.00  0.00    -0.309 C  
HETATM   24  O   UNL     1     -10.583  11.568  64.814  1.00  0.00    -0.277 OA 
ENDBRANCH  15  21
ENDBRANCH  14  15
ENDBRANCH  12  14
ENDBRANCH   9  10
ENDBRANCH   7   9
ENDBRANCH   6   7
ENDBRANCH   4   6
TORSDOF 7
ENDMDL
MODEL      245
REMARK 921   NORMALIZED FREE ENERGY PREDICTED BY IDOCK:   -3.14 KCAL/MOL
REMARK 922        TOTAL FREE ENERGY PREDICTED BY IDOCK:   -6.06 KCAL/MOL
REMARK 923 INTER-LIGAND FREE ENERGY PREDICTED BY IDOCK:   -5.65 KCAL/MOL
REMARK 924 INTRA-LIGAND FREE ENERGY PREDICTED BY IDOCK:   -0.41 KCAL/MOL
REMARK 927      BINDING AFFINITY PREDICTED BY RF-SCORE:    0.00 PKD
ROOT
HETATM    1  C   UNL     1      -8.911   9.330  62.380  1.00  0.00    -0.242 C  
HETATM    2  C   UNL     1      -7.748   9.083  63.347  1.00  0.00    -0.124 C  
HETATM    3  C   UNL     1      -6.691  10.166  63.176  1.00  0.00    -0.133 C  
HETATM    4  C   UNL     1      -8.255   9.032  64.780  1.00  0.00    -0.160 C  
HETATM    5  O   UNL     1      -9.434   9.151  65.091  1.00  0.00    -0.191 OA 
ENDROOT
BRANCH   4   6
HETATM    6  O   UNL     1      -7.252   8.765  65.669  1.00  0.00    -0.082 OA 
BRANCH   6   7
HETATM    7  C   UNL     1      -7.175   9.725  66.734  1.00  0.00    -0.090 C  
HETATM    8  C   UNL     1      -5.730   9.823  67.223  1.00  0.00    -0.047 C  
BRANCH   7   9
HETATM    9  O   UNL     1      -7.450  11.068  66.302  1.00  0.00    -0.144 OA 
BRANCH   9  10
HETATM   10  C   UNL     1      -8.185  11.814  67.151  1.00  0.00    -0.169 C  
HETATM   11  O   UNL     1      -8.775  11.405  68.133  1.00  0.00    -0.141 OA 
HETATM   12  N   UNL     1      -8.067  13.120  66.765  1.00  0.00    -0.397 N  
HETATM   13  H   UNL     1      -7.527  13.335  65.926  1.00  0.00     0.000 HD 
BRANCH  12  14
HETATM   14  C   UNL     1      -8.677  14.209  67.497  1.00  0.00    -0.204 C  
BRANCH  14  15
HETATM   15  C   UNL     1      -9.534  15.167  66.604  1.00  0.00    -0.285 C  
HETATM   16  C   UNL     1      -9.985  14.451  65.302  1.00  0.00    -0.314 C  
HETATM   17  C   UNL     1     -10.784  15.599  67.425  1.00  0.00    -0.309 C  
HETATM   18  C   UNL     1     -11.814  14.485  67.623  1.00  0.00    -0.395 C  
HETATM   19  C   UNL     1     -11.014  13.345  65.530  1.00  0.00    -0.294 C  
HETATM   20  C   UNL     1     -12.225  13.868  66.293  1.00  0.00    -0.498 C  
BRANCH  15  21
HETATM   21  C   UNL     1      -8.672  16.416  66.256  1.00  0.00    -0.369 C  
HETATM   22  O   UNL     1      -8.921  18.179  67.898  1.00  0.00    -0.260 OA 
HETATM   23  C   UNL     1      -9.183  17.743  66.787  1.00  0.00    -0.273 C  
HETATM   24  O   UNL     1      -9.959  18.420  65.914  1.00  0.00    -0.526 OA 
ENDBRANCH  15  21
ENDBRANCH  14  15
ENDBRANCH  12  14
ENDBRANCH   9  10
ENDBRANCH   7   9
ENDBRANCH   6   7
ENDBRANCH   4   6
TORSDOF 7
ENDMDL
MODEL      246
REMARK 921   NORMALIZED FREE ENERGY PREDICTED BY IDOCK:   -3.13 KCAL/MOL
REMARK 922        TOTAL FREE ENERGY PREDICTED BY IDOCK:   -6.04 KCAL/MOL
REMARK 923 INTER-LIGAND FREE ENERGY PREDICTED BY IDOCK:   -6.20 KCAL/MOL
REMARK 924 INTRA-LIGAND FREE ENERGY PREDICTED BY IDOCK:    0.16 KCAL/MOL
REMARK 927      BINDING AFFINITY PREDICTED BY RF-SCORE:    0.00 PKD
ROOT
HETATM    1  C   UNL     1      -5.166  16.772  71.092  1.00  0.00    -0.079 C  
HETATM    2  C   UNL     1      -5.710  16.770  69.660  1.00  0.00    -0.194 C  
HETATM    3  C   UNL     1      -6.704  15.629  69.483  1.00  0.00    -0.185 C  
HETATM    4  C   UNL     1      -6.350  18.111  69.336  1.00  0.00    -0.248 C  
HETATM    5  O   UNL     1      -6.392  19.053  70.118  1.00  0.00    -0.171 OA 
ENDROOT
BRANCH   4   6
HETATM    6  O   UNL     1      -6.805  18.164  68.049  1.00  0.00    -0.200 OA 
BRANCH   6   7
HETATM    7  C   UNL     1      -8.032  18.897  67.916  1.00  0.00    -0.271 C  
HETATM    8  C   UNL     1      -8.118  19.489  66.509  1.00  0.00    -0.325 C  
BRANCH   7   9
HETATM    9  O   UNL     1      -9.198  18.057  67.972  1.00  0.00    -0.260 OA 
BRANCH   9  10
HETATM   10  C   UNL     1      -9.161  16.955  67.196  1.00  0.00    -0.217 C  
HETATM   11  O   UNL     1      -8.523  16.827  66.169  1.00  0.00    -0.352 OA 
HETATM   12  N   UNL     1      -9.888  15.982  67.823  1.00  0.00    -0.229 N  
HETATM   13  H   UNL     1     -10.366  16.213  68.694  1.00  0.00     0.000 HD 
BRANCH  12  14
HETATM   14  C   UNL     1     -10.007  14.638  67.299  1.00  0.00    -0.235 C  
BRANCH  14  15
HETATM   15  C   UNL     1     -11.450  14.041  67.419  1.00  0.00    -0.373 C  
HETATM   16  C   UNL     1     -11.404  12.489  67.444  1.00  0.00    -0.371 C  
HETATM   17  C   UNL     1     -12.080  14.569  68.740  1.00  0.00    -0.256 C  
HETATM   18  C   UNL     1     -11.473  13.960  70.006  1.00  0.00    -0.208 C  
HETATM   19  C   UNL     1     -10.795  11.910  68.718  1.00  0.00    -0.270 C  
HETATM   20  C   UNL     1     -11.505  12.438  69.959  1.00  0.00    -0.110 C  
BRANCH  15  21
HETATM   21  C   UNL     1     -12.286  14.532  66.201  1.00  0.00    -0.229 C  
HETATM   22  O   UNL     1     -12.921  12.710  64.737  1.00  0.00    -0.816 OA 
HETATM   23  C   UNL     1     -12.203  13.676  64.951  1.00  0.00    -0.414 C  
HETATM   24  O   UNL     1     -11.260  14.079  64.072  1.00  0.00    -0.185 OA 
ENDBRANCH  15  21
ENDBRANCH  14  15
ENDBRANCH  12  14
ENDBRANCH   9  10
ENDBRANCH   7   9
ENDBRANCH   6   7
ENDBRANCH   4   6
TORSDOF 7
ENDMDL
MODEL      247
REMARK 921   NORMALIZED FREE ENERGY PREDICTED BY IDOCK:   -3.11 KCAL/MOL
REMARK 922        TOTAL FREE ENERGY PREDICTED BY IDOCK:   -6.02 KCAL/MOL
REMARK 923 INTER-LIGAND FREE ENERGY PREDICTED BY IDOCK:   -5.12 KCAL/MOL
REMARK 924 INTRA-LIGAND FREE ENERGY PREDICTED BY IDOCK:   -0.90 KCAL/MOL
REMARK 927      BINDING AFFINITY PREDICTED BY RF-SCORE:    0.00 PKD
ROOT
HETATM    1  C   UNL     1     -10.761  15.134  70.177  1.00  0.00    -0.245 C  
HETATM    2  C   UNL     1     -10.894  14.984  68.658  1.00  0.00    -0.249 C  
HETATM    3  C   UNL     1     -11.257  16.326  68.033  1.00  0.00    -0.260 C  
HETATM    4  C   UNL     1      -9.605  14.435  68.067  1.00  0.00    -0.216 C  
HETATM    5  O   UNL     1      -8.620  14.139  68.734  1.00  0.00    -0.152 OA 
ENDROOT
BRANCH   4   6
HETATM    6  O   UNL     1      -9.700  14.242  66.717  1.00  0.00    -0.256 OA 
BRANCH   6   7
HETATM    7  C   UNL     1     -10.445  13.066  66.368  1.00  0.00    -0.276 C  
HETATM    8  C   UNL     1     -11.432  13.404  65.251  1.00  0.00    -0.318 C  
BRANCH   7   9
HETATM    9  O   UNL     1      -9.632  12.043  65.767  1.00  0.00    -0.241 OA 
BRANCH   9  10
HETATM   10  C   UNL     1     -10.104  10.785  65.874  1.00  0.00    -0.256 C  
HETATM   11  O   UNL     1     -10.260  10.002  64.957  1.00  0.00    -0.280 OA 
HETATM   12  N   UNL     1     -10.281  10.520  67.203  1.00  0.00    -0.212 N  
HETATM   13  H   UNL     1     -10.098  11.262  67.878  1.00  0.00     0.000 HD 
BRANCH  12  14
HETATM   14  C   UNL     1     -10.718   9.229  67.690  1.00  0.00    -0.209 C  
BRANCH  14  15
HETATM   15  C   UNL     1      -9.692   8.537  68.650  1.00  0.00    -0.171 C  
HETATM   16  C   UNL     1     -10.157   8.649  70.126  1.00  0.00    -0.196 C  
HETATM   17  C   UNL     1      -9.589   7.039  68.243  1.00  0.00    -0.134 C  
HETATM   18  C   UNL     1     -10.827   6.212  68.595  1.00  0.00    -0.403 C  
HETATM   19  C   UNL     1     -11.393   7.813  70.449  1.00  0.00    -0.219 C  
HETATM   20  C   UNL     1     -11.186   6.352  70.068  1.00  0.00    -0.475 C  
BRANCH  15  21
HETATM   21  C   UNL     1      -8.309   9.230  68.470  1.00  0.00    -0.119 C  
HETATM   22  O   UNL     1      -7.415   8.914  66.242  1.00  0.00    -0.089 OA 
HETATM   23  C   UNL     1      -7.392   8.619  67.427  1.00  0.00    -0.089 C  
HETATM   24  O   UNL     1      -6.525   7.710  67.924  1.00  0.00    -0.051 OA 
ENDBRANCH  15  21
ENDBRANCH  14  15
ENDBRANCH  12  14
ENDBRANCH   9  10
ENDBRANCH   7   9
ENDBRANCH   6   7
ENDBRANCH   4   6
TORSDOF 7
ENDMDL
MODEL      248
REMARK 921   NORMALIZED FREE ENERGY PREDICTED BY IDOCK:   -3.11 KCAL/MOL
REMARK 922        TOTAL FREE ENERGY PREDICTED BY IDOCK:   -6.01 KCAL/MOL
REMARK 923 INTER-LIGAND FREE ENERGY PREDICTED BY IDOCK:   -5.83 KCAL/MOL
REMARK 924 INTRA-LIGAND FREE ENERGY PREDICTED BY IDOCK:   -0.18 KCAL/MOL
REMARK 927      BINDING AFFINITY PREDICTED BY RF-SCORE:    0.00 PKD
ROOT
HETATM    1  C   UNL     1     -11.710  14.544  67.320  1.00  0.00    -0.429 C  
HETATM    2  C   UNL     1     -12.132  13.145  66.862  1.00  0.00    -0.377 C  
HETATM    3  C   UNL     1     -12.324  13.129  65.350  1.00  0.00    -0.532 C  
HETATM    4  C   UNL     1     -11.101  12.114  67.294  1.00  0.00    -0.287 C  
HETATM    5  O   UNL     1     -10.094  12.385  67.938  1.00  0.00    -0.198 OA 
ENDROOT
BRANCH   4   6
HETATM    6  O   UNL     1     -11.466  10.845  66.943  1.00  0.00    -0.342 OA 
BRANCH   6   7
HETATM    7  C   UNL     1     -10.387  10.083  66.382  1.00  0.00    -0.179 C  
HETATM    8  C   UNL     1     -10.051  10.628  64.994  1.00  0.00    -0.388 C  
BRANCH   7   9
HETATM    9  O   UNL     1      -9.148  10.255  67.092  1.00  0.00    -0.141 OA 
BRANCH   9  10
HETATM   10  C   UNL     1      -8.699   9.170  67.753  1.00  0.00    -0.121 C  
HETATM   11  O   UNL     1      -7.735   8.495  67.445  1.00  0.00    -0.096 OA 
HETATM   12  N   UNL     1      -9.461   9.025  68.879  1.00  0.00    -0.150 N  
HETATM   13  H   UNL     1     -10.236   9.671  69.031  1.00  0.00     0.000 HD 
BRANCH  12  14
HETATM   14  C   UNL     1      -9.213   7.993  69.862  1.00  0.00    -0.152 C  
BRANCH  14  15
HETATM   15  C   UNL     1     -10.384   6.963  70.006  1.00  0.00    -0.219 C  
HETATM   16  C   UNL     1     -10.830   6.438  68.614  1.00  0.00    -0.379 C  
HETATM   17  C   UNL     1      -9.877   5.778  70.877  1.00  0.00    -0.229 C  
HETATM   18  C   UNL     1      -8.863   4.875  70.170  1.00  0.00    -0.134 C  
HETATM   19  C   UNL     1      -9.800   5.540  67.934  1.00  0.00    -0.169 C  
HETATM   20  C   UNL     1      -9.400   4.378  68.834  1.00  0.00    -0.216 C  
BRANCH  15  21
HETATM   21  C   UNL     1     -11.574   7.672  70.718  1.00  0.00    -0.284 C  
HETATM   22  O   UNL     1     -11.335   7.653  73.127  1.00  0.00    -0.360 OA 
HETATM   23  C   UNL     1     -11.876   7.203  72.129  1.00  0.00    -0.277 C  
HETATM   24  O   UNL     1     -12.815   6.234  72.196  1.00  0.00    -0.171 OA 
ENDBRANCH  15  21
ENDBRANCH  14  15
ENDBRANCH  12  14
ENDBRANCH   9  10
ENDBRANCH   7   9
ENDBRANCH   6   7
ENDBRANCH   4   6
TORSDOF 7
ENDMDL
MODEL      249
REMARK 921   NORMALIZED FREE ENERGY PREDICTED BY IDOCK:   -3.11 KCAL/MOL
REMARK 922        TOTAL FREE ENERGY PREDICTED BY IDOCK:   -6.01 KCAL/MOL
REMARK 923 INTER-LIGAND FREE ENERGY PREDICTED BY IDOCK:   -6.09 KCAL/MOL
REMARK 924 INTRA-LIGAND FREE ENERGY PREDICTED BY IDOCK:    0.08 KCAL/MOL
REMARK 927      BINDING AFFINITY PREDICTED BY RF-SCORE:    0.00 PKD
ROOT
HETATM    1  C   UNL     1     -10.751  14.730  66.754  1.00  0.00    -0.309 C  
HETATM    2  C   UNL     1     -11.187  13.723  67.823  1.00  0.00    -0.312 C  
HETATM    3  C   UNL     1     -12.110  14.399  68.829  1.00  0.00    -0.276 C  
HETATM    4  C   UNL     1     -11.865  12.526  67.175  1.00  0.00    -0.316 C  
HETATM    5  O   UNL     1     -12.010  12.396  65.965  1.00  0.00    -0.537 OA 
ENDROOT
BRANCH   4   6
HETATM    6  O   UNL     1     -12.226  11.581  68.095  1.00  0.00    -0.576 OA 
BRANCH   6   7
HETATM    7  C   UNL     1     -11.101  10.926  68.700  1.00  0.00    -0.252 C  
HETATM    8  C   UNL     1     -11.342  10.794  70.204  1.00  0.00    -0.390 C  
BRANCH   7   9
HETATM    9  O   UNL     1     -10.957   9.557  68.285  1.00  0.00    -0.182 OA 
BRANCH   9  10
HETATM   10  C   UNL     1      -9.794   8.965  68.623  1.00  0.00    -0.167 C  
HETATM   11  O   UNL     1      -8.688   9.463  68.533  1.00  0.00    -0.126 OA 
HETATM   12  N   UNL     1     -10.091   7.750  69.172  1.00  0.00    -0.191 N  
HETATM   13  H   UNL     1     -11.066   7.453  69.204  1.00  0.00     0.000 HD 
BRANCH  12  14
HETATM   14  C   UNL     1      -9.078   6.867  69.710  1.00  0.00    -0.144 C  
BRANCH  14  15
HETATM   15  C   UNL     1      -9.541   6.074  70.978  1.00  0.00    -0.197 C  
HETATM   16  C   UNL     1      -9.176   6.846  72.275  1.00  0.00    -0.144 C  
HETATM   17  C   UNL     1     -11.084   5.890  70.892  1.00  0.00    -0.312 C  
HETATM   18  C   UNL     1     -11.878   7.178  71.123  1.00  0.00    -0.363 C  
HETATM   19  C   UNL     1      -9.984   8.125  72.480  1.00  0.00    -0.372 C  
HETATM   20  C   UNL     1     -11.481   7.845  72.434  1.00  0.00    -0.433 C  
BRANCH  15  21
HETATM   21  C   UNL     1      -8.841   4.683  70.968  1.00  0.00    -0.149 C  
HETATM   22  O   UNL     1      -9.929   3.106  72.450  1.00  0.00    -0.147 OA 
HETATM   23  C   UNL     1      -8.990   3.857  72.232  1.00  0.00    -0.109 C  
HETATM   24  O   UNL     1      -7.978   4.015  73.113  1.00  0.00    -0.085 OA 
ENDBRANCH  15  21
ENDBRANCH  14  15
ENDBRANCH  12  14
ENDBRANCH   9  10
ENDBRANCH   7   9
ENDBRANCH   6   7
ENDBRANCH   4   6
TORSDOF 7
ENDMDL
MODEL      250
REMARK 921   NORMALIZED FREE ENERGY PREDICTED BY IDOCK:   -3.10 KCAL/MOL
REMARK 922        TOTAL FREE ENERGY PREDICTED BY IDOCK:   -6.01 KCAL/MOL
REMARK 923 INTER-LIGAND FREE ENERGY PREDICTED BY IDOCK:   -4.97 KCAL/MOL
REMARK 924 INTRA-LIGAND FREE ENERGY PREDICTED BY IDOCK:   -1.04 KCAL/MOL
REMARK 927      BINDING AFFINITY PREDICTED BY RF-SCORE:    0.00 PKD
ROOT
HETATM    1  C   UNL     1     -11.658  12.027  68.125  1.00  0.00    -0.403 C  
HETATM    2  C   UNL     1     -11.331  10.657  68.730  1.00  0.00    -0.339 C  
HETATM    3  C   UNL     1      -9.823  10.445  68.750  1.00  0.00    -0.190 C  
HETATM    4  C   UNL     1     -11.919  10.544  70.128  1.00  0.00    -0.316 C  
HETATM    5  O   UNL     1     -12.578  11.427  70.665  1.00  0.00    -0.314 OA 
ENDROOT
BRANCH   4   6
HETATM    6  O   UNL     1     -11.688   9.317  70.683  1.00  0.00    -0.268 OA 
BRANCH   6   7
HETATM    7  C   UNL     1     -12.350   9.137  71.944  1.00  0.00    -0.385 C  
HETATM    8  C   UNL     1     -13.708   8.475  71.713  1.00  0.00    -0.444 C  
BRANCH   7   9
HETATM    9  O   UNL     1     -11.684   8.191  72.799  1.00  0.00    -0.403 OA 
BRANCH   9  10
HETATM   10  C   UNL     1     -10.359   8.051  72.593  1.00  0.00    -0.329 C  
HETATM   11  O   UNL     1      -9.515   8.909  72.769  1.00  0.00    -0.192 OA 
HETATM   12  N   UNL     1     -10.129   6.749  72.247  1.00  0.00    -0.174 N  
HETATM   13  H   UNL     1     -10.927   6.121  72.147  1.00  0.00     0.000 HD 
BRANCH  12  14
HETATM   14  C   UNL     1      -8.799   6.226  72.015  1.00  0.00    -0.138 C  
BRANCH  14  15
HETATM   15  C   UNL     1      -8.436   6.077  70.500  1.00  0.00    -0.132 C  
HETATM   16  C   UNL     1      -7.974   7.436  69.907  1.00  0.00    -0.121 C  
HETATM   17  C   UNL     1      -7.286   5.035  70.382  1.00  0.00    -0.054 C  
HETATM   18  C   UNL     1      -5.935   5.538  70.895  1.00  0.00    -0.025 C  
HETATM   19  C   UNL     1      -6.623   7.913  70.435  1.00  0.00    -0.037 C  
HETATM   20  C   UNL     1      -5.546   6.854  70.233  1.00  0.00    -0.023 C  
BRANCH  15  21
HETATM   21  C   UNL     1      -9.695   5.562  69.742  1.00  0.00    -0.236 C  
HETATM   22  O   UNL     1      -9.319   5.404  67.355  1.00  0.00    -0.111 OA 
HETATM   23  C   UNL     1      -9.823   6.001  68.295  1.00  0.00    -0.132 C  
HETATM   24  O   UNL     1     -10.558   7.121  68.124  1.00  0.00    -0.201 OA 
ENDBRANCH  15  21
ENDBRANCH  14  15
ENDBRANCH  12  14
ENDBRANCH   9  10
ENDBRANCH   7   9
ENDBRANCH   6   7
ENDBRANCH   4   6
TORSDOF 7
ENDMDL
MODEL      251
REMARK 921   NORMALIZED FREE ENERGY PREDICTED BY IDOCK:   -3.10 KCAL/MOL
REMARK 922        TOTAL FREE ENERGY PREDICTED BY IDOCK:   -6.00 KCAL/MOL
REMARK 923 INTER-LIGAND FREE ENERGY PREDICTED BY IDOCK:   -5.43 KCAL/MOL
REMARK 924 INTRA-LIGAND FREE ENERGY PREDICTED BY IDOCK:   -0.57 KCAL/MOL
REMARK 927      BINDING AFFINITY PREDICTED BY RF-SCORE:    0.00 PKD
ROOT
HETATM    1  C   UNL     1      -6.824  16.025  69.549  1.00  0.00    -0.193 C  
HETATM    2  C   UNL     1      -8.260  16.142  69.027  1.00  0.00    -0.244 C  
HETATM    3  C   UNL     1      -8.518  17.559  68.529  1.00  0.00    -0.280 C  
HETATM    4  C   UNL     1      -8.506  15.122  67.926  1.00  0.00    -0.149 C  
HETATM    5  O   UNL     1      -7.666  14.314  67.544  1.00  0.00    -0.166 OA 
ENDROOT
BRANCH   4   6
HETATM    6  O   UNL     1      -9.792  15.163  67.466  1.00  0.00    -0.219 OA 
BRANCH   6   7
HETATM    7  C   UNL     1     -10.353  13.861  67.247  1.00  0.00    -0.257 C  
HETATM    8  C   UNL     1     -11.865  13.987  67.056  1.00  0.00    -0.458 C  
BRANCH   7   9
HETATM    9  O   UNL     1      -9.931  13.267  66.008  1.00  0.00    -0.289 OA 
BRANCH   9  10
HETATM   10  C   UNL     1      -9.568  11.970  66.076  1.00  0.00    -0.234 C  
HETATM   11  O   UNL     1      -9.295  11.255  65.131  1.00  0.00    -0.219 OA 
HETATM   12  N   UNL     1      -9.469  11.637  67.398  1.00  0.00    -0.166 N  
HETATM   13  H   UNL     1      -9.712  12.337  68.098  1.00  0.00     0.000 HD 
BRANCH  12  14
HETATM   14  C   UNL     1      -9.033  10.330  67.842  1.00  0.00    -0.131 C  
BRANCH  14  15
HETATM   15  C   UNL     1     -10.207   9.327  68.098  1.00  0.00    -0.246 C  
HETATM   16  C   UNL     1      -9.901   8.418  69.318  1.00  0.00    -0.186 C  
HETATM   17  C   UNL     1     -11.496  10.156  68.371  1.00  0.00    -0.086 C  
HETATM   18  C   UNL     1     -11.502  10.868  69.725  1.00  0.00    -0.390 C  
HETATM   19  C   UNL     1      -9.915   9.154  70.656  1.00  0.00    -0.307 C  
HETATM   20  C   UNL     1     -11.231   9.893  70.864  1.00  0.00    -0.433 C  
BRANCH  15  21
HETATM   21  C   UNL     1     -10.398   8.460  66.818  1.00  0.00    -0.357 C  
HETATM   22  O   UNL     1      -9.685   6.170  67.156  1.00  0.00    -0.124 OA 
HETATM   23  C   UNL     1      -9.464   7.272  66.677  1.00  0.00    -0.177 C  
HETATM   24  O   UNL     1      -8.349   7.534  65.960  1.00  0.00    -0.121 OA 
ENDBRANCH  15  21
ENDBRANCH  14  15
ENDBRANCH  12  14
ENDBRANCH   9  10
ENDBRANCH   7   9
ENDBRANCH   6   7
ENDBRANCH   4   6
TORSDOF 7
ENDMDL
MODEL      252
REMARK 921   NORMALIZED FREE ENERGY PREDICTED BY IDOCK:   -3.09 KCAL/MOL
REMARK 922        TOTAL FREE ENERGY PREDICTED BY IDOCK:   -5.99 KCAL/MOL
REMARK 923 INTER-LIGAND FREE ENERGY PREDICTED BY IDOCK:   -5.20 KCAL/MOL
REMARK 924 INTRA-LIGAND FREE ENERGY PREDICTED BY IDOCK:   -0.79 KCAL/MOL
REMARK 927      BINDING AFFINITY PREDICTED BY RF-SCORE:    0.00 PKD
ROOT
HETATM    1  C   UNL     1      -9.285   5.129  65.556  1.00  0.00    -0.144 C  
HETATM    2  C   UNL     1      -8.099   6.092  65.434  1.00  0.00    -0.133 C  
HETATM    3  C   UNL     1      -7.766   6.322  63.966  1.00  0.00    -0.104 C  
HETATM    4  C   UNL     1      -8.411   7.404  66.138  1.00  0.00    -0.145 C  
HETATM    5  O   UNL     1      -9.460   7.628  66.732  1.00  0.00    -0.169 OA 
ENDROOT
BRANCH   4   6
HETATM    6  O   UNL     1      -7.358   8.273  66.092  1.00  0.00    -0.075 OA 
BRANCH   6   7
HETATM    7  C   UNL     1      -7.750   9.615  65.766  1.00  0.00    -0.106 C  
HETATM    8  C   UNL     1      -6.503  10.449  65.469  1.00  0.00    -0.126 C  
BRANCH   7   9
HETATM    9  O   UNL     1      -8.485   9.704  64.534  1.00  0.00    -0.152 OA 
BRANCH   9  10
HETATM   10  C   UNL     1      -9.625  10.421  64.585  1.00  0.00    -0.300 C  
HETATM   11  O   UNL     1     -10.305  10.748  63.631  1.00  0.00    -0.327 OA 
HETATM   12  N   UNL     1      -9.926  10.628  65.902  1.00  0.00    -0.243 N  
HETATM   13  H   UNL     1      -9.277  10.287  66.611  1.00  0.00     0.000 HD 
BRANCH  12  14
HETATM   14  C   UNL     1     -11.128  11.311  66.330  1.00  0.00    -0.166 C  
BRANCH  14  15
HETATM   15  C   UNL     1     -10.868  12.745  66.904  1.00  0.00    -0.278 C  
HETATM   16  C   UNL     1      -9.870  13.525  66.007  1.00  0.00    -0.277 C  
HETATM   17  C   UNL     1     -12.229  13.496  66.953  1.00  0.00    -0.377 C  
HETATM   18  C   UNL     1     -12.771  13.894  65.578  1.00  0.00    -0.536 C  
HETATM   19  C   UNL     1     -10.437  13.910  64.642  1.00  0.00    -0.419 C  
HETATM   20  C   UNL     1     -11.740  14.687  64.785  1.00  0.00    -0.429 C  
BRANCH  15  21
HETATM   21  C   UNL     1     -10.292  12.599  68.343  1.00  0.00    -0.241 C  
HETATM   22  O   UNL     1      -7.939  12.026  68.329  1.00  0.00    -0.135 OA 
HETATM   23  C   UNL     1      -9.098  11.674  68.489  1.00  0.00    -0.157 C  
HETATM   24  O   UNL     1      -9.424  10.406  68.824  1.00  0.00    -0.158 OA 
ENDBRANCH  15  21
ENDBRANCH  14  15
ENDBRANCH  12  14
ENDBRANCH   9  10
ENDBRANCH   7   9
ENDBRANCH   6   7
ENDBRANCH   4   6
TORSDOF 7
ENDMDL
MODEL      253
REMARK 921   NORMALIZED FREE ENERGY PREDICTED BY IDOCK:   -3.07 KCAL/MOL
REMARK 922        TOTAL FREE ENERGY PREDICTED BY IDOCK:   -5.96 KCAL/MOL
REMARK 923 INTER-LIGAND FREE ENERGY PREDICTED BY IDOCK:   -5.10 KCAL/MOL
REMARK 924 INTRA-LIGAND FREE ENERGY PREDICTED BY IDOCK:   -0.85 KCAL/MOL
REMARK 927      BINDING AFFINITY PREDICTED BY RF-SCORE:    0.00 PKD
ROOT
HETATM    1  C   UNL     1      -8.638   8.104  73.884  1.00  0.00    -0.288 C  
HETATM    2  C   UNL     1      -9.467   7.028  73.175  1.00  0.00    -0.186 C  
HETATM    3  C   UNL     1     -10.317   6.274  74.189  1.00  0.00    -0.319 C  
HETATM    4  C   UNL     1     -10.332   7.655  72.093  1.00  0.00    -0.221 C  
HETATM    5  O   UNL     1     -10.331   8.852  71.828  1.00  0.00    -0.310 OA 
ENDROOT
BRANCH   4   6
HETATM    6  O   UNL     1     -11.052   6.720  71.404  1.00  0.00    -0.240 OA 
BRANCH   6   7
HETATM    7  C   UNL     1     -10.453   6.359  70.151  1.00  0.00    -0.216 C  
HETATM    8  C   UNL     1      -9.753   5.008  70.295  1.00  0.00    -0.285 C  
BRANCH   7   9
HETATM    9  O   UNL     1     -11.420   6.100  69.119  1.00  0.00    -0.379 OA 
BRANCH   9  10
HETATM   10  C   UNL     1     -11.034   6.415  67.866  1.00  0.00    -0.325 C  
HETATM   11  O   UNL     1     -11.005   5.656  66.917  1.00  0.00    -0.249 OA 
HETATM   12  N   UNL     1     -10.777   7.757  67.836  1.00  0.00    -0.442 N  
HETATM   13  H   UNL     1     -10.854   8.289  68.703  1.00  0.00     0.000 HD 
BRANCH  12  14
HETATM   14  C   UNL     1     -10.401   8.453  66.625  1.00  0.00    -0.228 C  
BRANCH  14  15
HETATM   15  C   UNL     1      -8.925   8.976  66.630  1.00  0.00    -0.163 C  
HETATM   16  C   UNL     1      -8.105   8.325  65.484  1.00  0.00    -0.128 C  
HETATM   17  C   UNL     1      -8.962  10.520  66.439  1.00  0.00    -0.174 C  
HETATM   18  C   UNL     1      -9.357  10.963  65.028  1.00  0.00    -0.260 C  
HETATM   19  C   UNL     1      -8.520   8.786  64.089  1.00  0.00    -0.123 C  
HETATM   20  C   UNL     1      -8.477  10.304  63.974  1.00  0.00    -0.177 C  
BRANCH  15  21
HETATM   21  C   UNL     1      -8.288   8.629  68.008  1.00  0.00    -0.123 C  
HETATM   22  O   UNL     1      -8.429  10.477  69.567  1.00  0.00    -0.137 OA 
HETATM   23  C   UNL     1      -7.751   9.804  68.805  1.00  0.00    -0.081 C  
HETATM   24  O   UNL     1      -6.437  10.047  68.607  1.00  0.00    -0.049 OA 
ENDBRANCH  15  21
ENDBRANCH  14  15
ENDBRANCH  12  14
ENDBRANCH   9  10
ENDBRANCH   7   9
ENDBRANCH   6   7
ENDBRANCH   4   6
TORSDOF 7
ENDMDL
MODEL      254
REMARK 921   NORMALIZED FREE ENERGY PREDICTED BY IDOCK:   -3.06 KCAL/MOL
REMARK 922        TOTAL FREE ENERGY PREDICTED BY IDOCK:   -5.95 KCAL/MOL
REMARK 923 INTER-LIGAND FREE ENERGY PREDICTED BY IDOCK:   -6.17 KCAL/MOL
REMARK 924 INTRA-LIGAND FREE ENERGY PREDICTED BY IDOCK:    0.22 KCAL/MOL
REMARK 927      BINDING AFFINITY PREDICTED BY RF-SCORE:    0.00 PKD
ROOT
HETATM    1  C   UNL     1      -6.630   6.294  71.724  1.00  0.00    -0.058 C  
HETATM    2  C   UNL     1      -7.323   7.646  71.533  1.00  0.00    -0.071 C  
HETATM    3  C   UNL     1      -7.266   8.058  70.068  1.00  0.00    -0.061 C  
HETATM    4  C   UNL     1      -8.760   7.577  72.028  1.00  0.00    -0.111 C  
HETATM    5  O   UNL     1      -9.263   6.577  72.526  1.00  0.00    -0.137 OA 
ENDROOT
BRANCH   4   6
HETATM    6  O   UNL     1      -9.398   8.781  71.918  1.00  0.00    -0.268 OA 
BRANCH   6   7
HETATM    7  C   UNL     1     -10.577   8.720  71.101  1.00  0.00    -0.241 C  
HETATM    8  C   UNL     1     -11.816   8.797  71.992  1.00  0.00    -0.442 C  
BRANCH   7   9
HETATM    9  O   UNL     1     -10.732   9.870  70.251  1.00  0.00    -0.268 OA 
BRANCH   9  10
HETATM   10  C   UNL     1     -10.380   9.694  68.962  1.00  0.00    -0.205 C  
HETATM   11  O   UNL     1     -10.271   8.626  68.392  1.00  0.00    -0.190 OA 
HETATM   12  N   UNL     1     -10.264  10.931  68.392  1.00  0.00    -0.171 N  
HETATM   13  H   UNL     1     -10.397  11.755  68.978  1.00  0.00     0.000 HD 
BRANCH  12  14
HETATM   14  C   UNL     1      -9.961  11.118  66.989  1.00  0.00    -0.192 C  
BRANCH  14  15
HETATM   15  C   UNL     1     -10.581  12.420  66.378  1.00  0.00    -0.271 C  
HETATM   16  C   UNL     1     -11.864  12.834  67.148  1.00  0.00    -0.415 C  
HETATM   17  C   UNL     1      -9.517  13.551  66.482  1.00  0.00    -0.265 C  
HETATM   18  C   UNL     1      -9.281  14.055  67.907  1.00  0.00    -0.195 C  
HETATM   19  C   UNL     1     -11.598  13.333  68.567  1.00  0.00    -0.368 C  
HETATM   20  C   UNL     1     -10.588  14.473  68.570  1.00  0.00    -0.252 C  
BRANCH  15  21
HETATM   21  C   UNL     1     -10.918  12.147  64.883  1.00  0.00    -0.355 C  
HETATM   22  O   UNL     1     -12.299  13.893  63.928  1.00  0.00    -0.662 OA 
HETATM   23  C   UNL     1     -12.210  12.758  64.373  1.00  0.00    -0.428 C  
HETATM   24  O   UNL     1     -13.275  11.929  64.444  1.00  0.00    -0.545 OA 
ENDBRANCH  15  21
ENDBRANCH  14  15
ENDBRANCH  12  14
ENDBRANCH   9  10
ENDBRANCH   7   9
ENDBRANCH   6   7
ENDBRANCH   4   6
TORSDOF 7
ENDMDL
MODEL      255
REMARK 921   NORMALIZED FREE ENERGY PREDICTED BY IDOCK:   -3.03 KCAL/MOL
REMARK 922        TOTAL FREE ENERGY PREDICTED BY IDOCK:   -5.91 KCAL/MOL
REMARK 923 INTER-LIGAND FREE ENERGY PREDICTED BY IDOCK:   -5.30 KCAL/MOL
REMARK 924 INTRA-LIGAND FREE ENERGY PREDICTED BY IDOCK:   -0.61 KCAL/MOL
REMARK 927      BINDING AFFINITY PREDICTED BY RF-SCORE:    0.00 PKD
ROOT
HETATM    1  C   UNL     1      -7.421  19.121  66.486  1.00  0.00    -0.258 C  
HETATM    2  C   UNL     1      -7.439  18.038  67.570  1.00  0.00    -0.217 C  
HETATM    3  C   UNL     1      -6.482  18.413  68.694  1.00  0.00    -0.237 C  
HETATM    4  C   UNL     1      -8.852  17.842  68.096  1.00  0.00    -0.267 C  
HETATM    5  O   UNL     1      -9.827  18.457  67.679  1.00  0.00    -0.295 OA 
ENDROOT
BRANCH   4   6
HETATM    6  O   UNL     1      -8.918  16.849  69.032  1.00  0.00    -0.252 OA 
BRANCH   6   7
HETATM    7  C   UNL     1      -9.085  15.544  68.458  1.00  0.00    -0.196 C  
HETATM    8  C   UNL     1      -7.850  14.695  68.761  1.00  0.00    -0.146 C  
BRANCH   7   9
HETATM    9  O   UNL     1     -10.141  14.788  69.075  1.00  0.00    -0.233 OA 
BRANCH   9  10
HETATM   10  C   UNL     1     -10.720  13.851  68.297  1.00  0.00    -0.251 C  
HETATM   11  O   UNL     1     -11.233  14.043  67.212  1.00  0.00    -0.293 OA 
HETATM   12  N   UNL     1     -10.538  12.640  68.903  1.00  0.00    -0.399 N  
HETATM   13  H   UNL     1     -10.074  12.612  69.811  1.00  0.00     0.000 HD 
BRANCH  12  14
HETATM   14  C   UNL     1     -10.976  11.396  68.308  1.00  0.00    -0.216 C  
BRANCH  14  15
HETATM   15  C   UNL     1      -9.826  10.585  67.622  1.00  0.00    -0.192 C  
HETATM   16  C   UNL     1      -8.538  10.613  68.490  1.00  0.00    -0.137 C  
HETATM   17  C   UNL     1     -10.311   9.116  67.449  1.00  0.00    -0.330 C  
HETATM   18  C   UNL     1     -10.397   8.331  68.760  1.00  0.00    -0.223 C  
HETATM   19  C   UNL     1      -8.653   9.820  69.790  1.00  0.00    -0.215 C  
HETATM   20  C   UNL     1      -9.080   8.383  69.524  1.00  0.00    -0.153 C  
BRANCH  15  21
HETATM   21  C   UNL     1      -9.545  11.217  66.227  1.00  0.00    -0.234 C  
HETATM   22  O   UNL     1      -9.270   9.536  64.505  1.00  0.00    -0.238 OA 
HETATM   23  C   UNL     1      -8.760  10.355  65.255  1.00  0.00    -0.179 C  
HETATM   24  O   UNL     1      -7.428  10.576  65.279  1.00  0.00    -0.137 OA 
ENDBRANCH  15  21
ENDBRANCH  14  15
ENDBRANCH  12  14
ENDBRANCH   9  10
ENDBRANCH   7   9
ENDBRANCH   6   7
ENDBRANCH   4   6
TORSDOF 7
ENDMDL
MODEL      256
REMARK 921   NORMALIZED FREE ENERGY PREDICTED BY IDOCK:   -3.03 KCAL/MOL
REMARK 922        TOTAL FREE ENERGY PREDICTED BY IDOCK:   -5.90 KCAL/MOL
REMARK 923 INTER-LIGAND FREE ENERGY PREDICTED BY IDOCK:   -5.40 KCAL/MOL
REMARK 924 INTRA-LIGAND FREE ENERGY PREDICTED BY IDOCK:   -0.50 KCAL/MOL
REMARK 927      BINDING AFFINITY PREDICTED BY RF-SCORE:    0.00 PKD
ROOT
HETATM    1  C   UNL     1     -12.254   7.294  72.313  1.00  0.00    -0.192 C  
HETATM    2  C   UNL     1     -11.250   8.051  71.437  1.00  0.00    -0.287 C  
HETATM    3  C   UNL     1     -10.108   8.581  72.294  1.00  0.00    -0.386 C  
HETATM    4  C   UNL     1     -10.731   7.148  70.329  1.00  0.00    -0.238 C  
HETATM    5  O   UNL     1     -11.096   5.990  70.165  1.00  0.00    -0.338 OA 
ENDROOT
BRANCH   4   6
HETATM    6  O   UNL     1      -9.868   7.803  69.496  1.00  0.00    -0.174 OA 
BRANCH   6   7
HETATM    7  C   UNL     1      -8.550   7.234  69.492  1.00  0.00    -0.134 C  
HETATM    8  C   UNL     1      -8.387   6.342  68.262  1.00  0.00    -0.115 C  
BRANCH   7   9
HETATM    9  O   UNL     1      -7.514   8.215  69.304  1.00  0.00    -0.085 OA 
BRANCH   9  10
HETATM   10  C   UNL     1      -7.885   9.497  69.494  1.00  0.00    -0.103 C  
HETATM   11  O   UNL     1      -7.648  10.169  70.479  1.00  0.00    -0.269 OA 
HETATM   12  N   UNL     1      -8.484   9.929  68.345  1.00  0.00    -0.110 N  
HETATM   13  H   UNL     1      -8.610   9.267  67.579  1.00  0.00     0.000 HD 
BRANCH  12  14
HETATM   14  C   UNL     1      -8.949  11.289  68.171  1.00  0.00    -0.166 C  
BRANCH  14  15
HETATM   15  C   UNL     1     -10.281  11.401  67.356  1.00  0.00    -0.221 C  
HETATM   16  C   UNL     1     -10.070  12.238  66.066  1.00  0.00    -0.269 C  
HETATM   17  C   UNL     1     -10.735   9.961  66.979  1.00  0.00    -0.237 C  
HETATM   18  C   UNL     1      -9.866   9.294  65.910  1.00  0.00    -0.335 C  
HETATM   19  C   UNL     1      -9.200  11.549  65.017  1.00  0.00    -0.033 C  
HETATM   20  C   UNL     1      -9.746  10.169  64.669  1.00  0.00    -0.377 C  
BRANCH  15  21
HETATM   21  C   UNL     1     -11.355  12.073  68.261  1.00  0.00    -0.342 C  
HETATM   22  O   UNL     1     -12.285  14.065  67.245  1.00  0.00    -0.405 OA 
HETATM   23  C   UNL     1     -11.538  13.568  68.074  1.00  0.00    -0.337 C  
HETATM   24  O   UNL     1     -10.800  14.320  68.919  1.00  0.00    -0.245 OA 
ENDBRANCH  15  21
ENDBRANCH  14  15
ENDBRANCH  12  14
ENDBRANCH   9  10
ENDBRANCH   7   9
ENDBRANCH   6   7
ENDBRANCH   4   6
TORSDOF 7
ENDMDL
MODEL      257
REMARK 921   NORMALIZED FREE ENERGY PREDICTED BY IDOCK:   -3.02 KCAL/MOL
REMARK 922        TOTAL FREE ENERGY PREDICTED BY IDOCK:   -5.89 KCAL/MOL
REMARK 923 INTER-LIGAND FREE ENERGY PREDICTED BY IDOCK:   -6.39 KCAL/MOL
REMARK 924 INTRA-LIGAND FREE ENERGY PREDICTED BY IDOCK:    0.50 KCAL/MOL
REMARK 927      BINDING AFFINITY PREDICTED BY RF-SCORE:    0.00 PKD
ROOT
HETATM    1  C   UNL     1     -12.518  15.910  73.631  1.00  0.00    -0.711 C  
HETATM    2  C   UNL     1     -13.178  14.988  72.600  1.00  0.00    -0.528 C  
HETATM    3  C   UNL     1     -14.403  15.669  72.004  1.00  0.00    -0.486 C  
HETATM    4  C   UNL     1     -12.180  14.608  71.517  1.00  0.00    -0.352 C  
HETATM    5  O   UNL     1     -11.012  14.979  71.505  1.00  0.00    -0.213 OA 
ENDROOT
BRANCH   4   6
HETATM    6  O   UNL     1     -12.719  13.747  70.603  1.00  0.00    -0.313 OA 
BRANCH   6   7
HETATM    7  C   UNL     1     -12.226  13.958  69.272  1.00  0.00    -0.277 C  
HETATM    8  C   UNL     1     -11.663  15.375  69.160  1.00  0.00    -0.364 C  
BRANCH   7   9
HETATM    9  O   UNL     1     -11.083  13.143  68.960  1.00  0.00    -0.249 OA 
BRANCH   9  10
HETATM   10  C   UNL     1     -11.330  11.828  68.803  1.00  0.00    -0.267 C  
HETATM   11  O   UNL     1     -12.286  11.346  68.225  1.00  0.00    -0.588 OA 
HETATM   12  N   UNL     1     -10.268  11.141  69.321  1.00  0.00    -0.407 N  
HETATM   13  H   UNL     1      -9.516  11.667  69.767  1.00  0.00     0.000 HD 
BRANCH  12  14
HETATM   14  C   UNL     1     -10.167   9.699  69.262  1.00  0.00    -0.205 C  
BRANCH  14  15
HETATM   15  C   UNL     1      -9.146   9.181  68.194  1.00  0.00    -0.134 C  
HETATM   16  C   UNL     1      -8.123  10.290  67.826  1.00  0.00    -0.103 C  
HETATM   17  C   UNL     1      -8.398   7.957  68.799  1.00  0.00    -0.128 C  
HETATM   18  C   UNL     1      -7.408   8.318  69.908  1.00  0.00    -0.064 C  
HETATM   19  C   UNL     1      -7.148  10.629  68.951  1.00  0.00    -0.078 C  
HETATM   20  C   UNL     1      -6.423   9.384  69.446  1.00  0.00    -0.044 C  
BRANCH  15  21
HETATM   21  C   UNL     1      -9.940   8.743  66.928  1.00  0.00    -0.327 C  
HETATM   22  O   UNL     1      -8.487   7.864  65.201  1.00  0.00    -0.143 OA 
HETATM   23  C   UNL     1      -9.174   8.785  65.618  1.00  0.00    -0.180 C  
HETATM   24  O   UNL     1      -9.322   9.939  64.933  1.00  0.00    -0.232 OA 
ENDBRANCH  15  21
ENDBRANCH  14  15
ENDBRANCH  12  14
ENDBRANCH   9  10
ENDBRANCH   7   9
ENDBRANCH   6   7
ENDBRANCH   4   6
TORSDOF 7
ENDMDL
MODEL      258
REMARK 921   NORMALIZED FREE ENERGY PREDICTED BY IDOCK:   -3.00 KCAL/MOL
REMARK 922        TOTAL FREE ENERGY PREDICTED BY IDOCK:   -5.86 KCAL/MOL
REMARK 923 INTER-LIGAND FREE ENERGY PREDICTED BY IDOCK:   -4.90 KCAL/MOL
REMARK 924 INTRA-LIGAND FREE ENERGY PREDICTED BY IDOCK:   -0.96 KCAL/MOL
REMARK 927      BINDING AFFINITY PREDICTED BY RF-SCORE:    0.00 PKD
ROOT
HETATM    1  C   UNL     1      -6.233   4.672  71.369  1.00  0.00    -0.018 C  
HETATM    2  C   UNL     1      -7.262   5.807  71.408  1.00  0.00    -0.078 C  
HETATM    3  C   UNL     1      -6.831   6.930  70.473  1.00  0.00    -0.058 C  
HETATM    4  C   UNL     1      -8.640   5.283  71.036  1.00  0.00    -0.123 C  
HETATM    5  O   UNL     1      -8.875   4.109  70.771  1.00  0.00    -0.081 OA 
ENDROOT
BRANCH   4   6
HETATM    6  O   UNL     1      -9.595   6.257  71.105  1.00  0.00    -0.173 OA 
BRANCH   6   7
HETATM    7  C   UNL     1     -10.926   5.755  70.916  1.00  0.00    -0.235 C  
HETATM    8  C   UNL     1     -11.790   6.144  72.116  1.00  0.00    -0.339 C  
BRANCH   7   9
HETATM    9  O   UNL     1     -11.614   6.383  69.821  1.00  0.00    -0.431 OA 
BRANCH   9  10
HETATM   10  C   UNL     1     -10.971   6.357  68.636  1.00  0.00    -0.330 C  
HETATM   11  O   UNL     1     -10.592   5.359  68.053  1.00  0.00    -0.170 OA 
HETATM   12  N   UNL     1     -10.912   7.639  68.168  1.00  0.00    -0.450 N  
HETATM   13  H   UNL     1     -11.283   8.390  68.750  1.00  0.00     0.000 HD 
BRANCH  12  14
HETATM   14  C   UNL     1     -10.343   7.974  66.880  1.00  0.00    -0.338 C  
BRANCH  14  15
HETATM   15  C   UNL     1      -9.972   9.488  66.729  1.00  0.00    -0.297 C  
HETATM   16  C   UNL     1      -8.547   9.764  67.280  1.00  0.00    -0.128 C  
HETATM   17  C   UNL     1     -10.029   9.848  65.216  1.00  0.00    -0.320 C  
HETATM   18  C   UNL     1      -8.889   9.247  64.390  1.00  0.00    -0.197 C  
HETATM   19  C   UNL     1      -7.430   9.155  66.436  1.00  0.00    -0.092 C  
HETATM   20  C   UNL     1      -7.531   9.601  64.983  1.00  0.00    -0.116 C  
BRANCH  15  21
HETATM   21  C   UNL     1     -11.022  10.330  67.513  1.00  0.00    -0.344 C  
HETATM   22  O   UNL     1      -9.983  12.054  68.860  1.00  0.00    -0.117 OA 
HETATM   23  C   UNL     1     -10.534  10.964  68.802  1.00  0.00    -0.200 C  
HETATM   24  O   UNL     1     -10.767  10.217  69.903  1.00  0.00    -0.262 OA 
ENDBRANCH  15  21
ENDBRANCH  14  15
ENDBRANCH  12  14
ENDBRANCH   9  10
ENDBRANCH   7   9
ENDBRANCH   6   7
ENDBRANCH   4   6
TORSDOF 7
ENDMDL
MODEL      259
REMARK 921   NORMALIZED FREE ENERGY PREDICTED BY IDOCK:   -3.00 KCAL/MOL
REMARK 922        TOTAL FREE ENERGY PREDICTED BY IDOCK:   -5.86 KCAL/MOL
REMARK 923 INTER-LIGAND FREE ENERGY PREDICTED BY IDOCK:   -5.29 KCAL/MOL
REMARK 924 INTRA-LIGAND FREE ENERGY PREDICTED BY IDOCK:   -0.57 KCAL/MOL
REMARK 927      BINDING AFFINITY PREDICTED BY RF-SCORE:    0.00 PKD
ROOT
HETATM    1  C   UNL     1     -10.216   9.127  69.730  1.00  0.00    -0.219 C  
HETATM    2  C   UNL     1      -9.254   9.811  68.753  1.00  0.00    -0.143 C  
HETATM    3  C   UNL     1      -9.891  11.079  68.199  1.00  0.00    -0.185 C  
HETATM    4  C   UNL     1      -7.932  10.117  69.441  1.00  0.00    -0.154 C  
HETATM    5  O   UNL     1      -7.686   9.826  70.606  1.00  0.00    -0.270 OA 
ENDROOT
BRANCH   4   6
HETATM    6  O   UNL     1      -7.029  10.685  68.587  1.00  0.00    -0.066 OA 
BRANCH   6   7
HETATM    7  C   UNL     1      -6.672  12.026  68.957  1.00  0.00    -0.100 C  
HETATM    8  C   UNL     1      -5.475  11.987  69.907  1.00  0.00    -0.098 C  
BRANCH   7   9
HETATM    9  O   UNL     1      -6.170  12.798  67.854  1.00  0.00    -0.085 OA 
BRANCH   9  10
HETATM   10  C   UNL     1      -6.479  14.111  67.872  1.00  0.00    -0.165 C  
HETATM   11  O   UNL     1      -5.757  15.018  67.506  1.00  0.00    -0.326 OA 
HETATM   12  N   UNL     1      -7.777  14.225  68.283  1.00  0.00    -0.125 N  
HETATM   13  H   UNL     1      -8.282  13.380  68.549  1.00  0.00     0.000 HD 
BRANCH  12  14
HETATM   14  C   UNL     1      -8.463  15.497  68.357  1.00  0.00    -0.163 C  
BRANCH  14  15
HETATM   15  C   UNL     1      -9.645  15.636  67.339  1.00  0.00    -0.217 C  
HETATM   16  C   UNL     1     -10.882  16.285  68.015  1.00  0.00    -0.339 C  
HETATM   17  C   UNL     1      -9.160  16.530  66.160  1.00  0.00    -0.342 C  
HETATM   18  C   UNL     1      -8.996  18.007  66.526  1.00  0.00    -0.280 C  
HETATM   19  C   UNL     1     -10.691  17.759  68.367  1.00  0.00    -0.205 C  
HETATM   20  C   UNL     1     -10.269  18.568  67.147  1.00  0.00    -0.408 C  
BRANCH  15  21
HETATM   21  C   UNL     1     -10.006  14.216  66.811  1.00  0.00    -0.267 C  
HETATM   22  O   UNL     1     -11.187  14.303  64.699  1.00  0.00    -0.373 OA 
HETATM   23  C   UNL     1     -11.223  14.134  65.909  1.00  0.00    -0.313 C  
HETATM   24  O   UNL     1     -12.371  13.847  66.561  1.00  0.00    -0.445 OA 
ENDBRANCH  15  21
ENDBRANCH  14  15
ENDBRANCH  12  14
ENDBRANCH   9  10
ENDBRANCH   7   9
ENDBRANCH   6   7
ENDBRANCH   4   6
TORSDOF 7
ENDMDL
MODEL      260
REMARK 921   NORMALIZED FREE ENERGY PREDICTED BY IDOCK:   -2.93 KCAL/MOL
REMARK 922        TOTAL FREE ENERGY PREDICTED BY IDOCK:   -5.77 KCAL/MOL
REMARK 923 INTER-LIGAND FREE ENERGY PREDICTED BY IDOCK:   -5.50 KCAL/MOL
REMARK 924 INTRA-LIGAND FREE ENERGY PREDICTED BY IDOCK:   -0.26 KCAL/MOL
REMARK 927      BINDING AFFINITY PREDICTED BY RF-SCORE:    0.00 PKD
ROOT
HETATM    1  C   UNL     1     -10.237   5.392  67.543  1.00  0.00    -0.243 C  
HETATM    2  C   UNL     1     -10.868   6.553  68.319  1.00  0.00    -0.359 C  
HETATM    3  C   UNL     1     -11.274   6.087  69.711  1.00  0.00    -0.440 C  
HETATM    4  C   UNL     1      -9.901   7.725  68.393  1.00  0.00    -0.168 C  
HETATM    5  O   UNL     1      -8.789   7.726  67.877  1.00  0.00    -0.124 OA 
ENDROOT
BRANCH   4   6
HETATM    6  O   UNL     1     -10.446   8.799  69.038  1.00  0.00    -0.215 OA 
BRANCH   6   7
HETATM    7  C   UNL     1     -10.119   8.842  70.435  1.00  0.00    -0.196 C  
HETATM    8  C   UNL     1      -8.652   9.242  70.599  1.00  0.00    -0.270 C  
BRANCH   7   9
HETATM    9  O   UNL     1     -10.808   9.887  71.143  1.00  0.00    -0.309 OA 
BRANCH   9  10
HETATM   10  C   UNL     1     -11.668  10.619  70.407  1.00  0.00    -0.353 C  
HETATM   11  O   UNL     1     -12.882  10.562  70.462  1.00  0.00    -0.345 OA 
HETATM   12  N   UNL     1     -10.934  11.501  69.665  1.00  0.00    -0.449 N  
HETATM   13  H   UNL     1      -9.916  11.458  69.721  1.00  0.00     0.000 HD 
BRANCH  12  14
HETATM   14  C   UNL     1     -11.542  12.493  68.804  1.00  0.00    -0.322 C  
BRANCH  14  15
HETATM   15  C   UNL     1     -10.528  13.198  67.841  1.00  0.00    -0.245 C  
HETATM   16  C   UNL     1     -10.822  12.826  66.363  1.00  0.00    -0.294 C  
HETATM   17  C   UNL     1     -10.673  14.736  68.035  1.00  0.00    -0.248 C  
HETATM   18  C   UNL     1     -11.971  15.315  67.468  1.00  0.00     0.105 C  
HETATM   19  C   UNL     1     -12.122  13.418  65.823  1.00  0.00    -0.481 C  
HETATM   20  C   UNL     1     -12.156  14.930  66.005  1.00  0.00     0.021 C  
BRANCH  15  21
HETATM   21  C   UNL     1      -9.089  12.749  68.231  1.00  0.00    -0.180 C  
HETATM   22  O   UNL     1      -7.881  14.487  69.409  1.00  0.00    -0.082 OA 
HETATM   23  C   UNL     1      -8.065  13.860  68.376  1.00  0.00    -0.145 C  
HETATM   24  O   UNL     1      -7.353  14.100  67.254  1.00  0.00    -0.161 OA 
ENDBRANCH  15  21
ENDBRANCH  14  15
ENDBRANCH  12  14
ENDBRANCH   9  10
ENDBRANCH   7   9
ENDBRANCH   6   7
ENDBRANCH   4   6
TORSDOF 7
ENDMDL
MODEL      261
REMARK 921   NORMALIZED FREE ENERGY PREDICTED BY IDOCK:   -2.92 KCAL/MOL
REMARK 922        TOTAL FREE ENERGY PREDICTED BY IDOCK:   -5.75 KCAL/MOL
REMARK 923 INTER-LIGAND FREE ENERGY PREDICTED BY IDOCK:   -4.90 KCAL/MOL
REMARK 924 INTRA-LIGAND FREE ENERGY PREDICTED BY IDOCK:   -0.84 KCAL/MOL
REMARK 927      BINDING AFFINITY PREDICTED BY RF-SCORE:    0.00 PKD
ROOT
HETATM    1  C   UNL     1     -13.888   9.346  72.528  1.00  0.00    -0.385 C  
HETATM    2  C   UNL     1     -12.714  10.066  71.856  1.00  0.00    -0.493 C  
HETATM    3  C   UNL     1     -12.450   9.461  70.484  1.00  0.00     0.069 C  
HETATM    4  C   UNL     1     -13.000  11.556  71.752  1.00  0.00    -0.394 C  
HETATM    5  O   UNL     1     -14.021  12.087  72.174  1.00  0.00    -0.030 OA 
ENDROOT
BRANCH   4   6
HETATM    6  O   UNL     1     -11.954  12.242  71.200  1.00  0.00     0.021 OA 
BRANCH   6   7
HETATM    7  C   UNL     1     -12.341  13.054  70.082  1.00  0.00    -0.200 C  
HETATM    8  C   UNL     1     -12.498  14.504  70.539  1.00  0.00    -0.408 C  
BRANCH   7   9
HETATM    9  O   UNL     1     -11.317  13.152  69.077  1.00  0.00    -0.254 OA 
BRANCH   9  10
HETATM   10  C   UNL     1     -11.456  12.328  68.020  1.00  0.00    -0.321 C  
HETATM   11  O   UNL     1     -12.051  12.582  66.990  1.00  0.00    -0.521 OA 
HETATM   12  N   UNL     1     -10.729  11.199  68.276  1.00  0.00    -0.183 N  
HETATM   13  H   UNL     1     -10.259  11.114  69.177  1.00  0.00     0.000 HD 
BRANCH  12  14
HETATM   14  C   UNL     1     -10.598  10.121  67.319  1.00  0.00    -0.261 C  
BRANCH  14  15
HETATM   15  C   UNL     1      -9.295   9.272  67.500  1.00  0.00    -0.148 C  
HETATM   16  C   UNL     1      -9.037   8.385  66.253  1.00  0.00    -0.241 C  
HETATM   17  C   UNL     1      -8.106  10.255  67.702  1.00  0.00    -0.106 C  
HETATM   18  C   UNL     1      -7.708  11.019  66.437  1.00  0.00    -0.146 C  
HETATM   19  C   UNL     1      -8.641   9.173  65.006  1.00  0.00    -0.204 C  
HETATM   20  C   UNL     1      -7.439  10.068  65.278  1.00  0.00    -0.137 C  
BRANCH  15  21
HETATM   21  C   UNL     1      -9.464   8.380  68.766  1.00  0.00    -0.147 C  
HETATM   22  O   UNL     1      -8.603   9.453  70.758  1.00  0.00    -0.209 OA 
HETATM   23  C   UNL     1      -8.462   8.615  69.881  1.00  0.00    -0.129 C  
HETATM   24  O   UNL     1      -7.384   7.802  69.830  1.00  0.00    -0.075 OA 
ENDBRANCH  15  21
ENDBRANCH  14  15
ENDBRANCH  12  14
ENDBRANCH   9  10
ENDBRANCH   7   9
ENDBRANCH   6   7
ENDBRANCH   4   6
TORSDOF 7
ENDMDL
MODEL      262
REMARK 921   NORMALIZED FREE ENERGY PREDICTED BY IDOCK:   -2.89 KCAL/MOL
REMARK 922        TOTAL FREE ENERGY PREDICTED BY IDOCK:   -5.70 KCAL/MOL
REMARK 923 INTER-LIGAND FREE ENERGY PREDICTED BY IDOCK:   -5.70 KCAL/MOL
REMARK 924 INTRA-LIGAND FREE ENERGY PREDICTED BY IDOCK:   -0.00 KCAL/MOL
REMARK 927      BINDING AFFINITY PREDICTED BY RF-SCORE:    0.00 PKD
ROOT
HETATM    1  C   UNL     1      -9.772   5.322  70.090  1.00  0.00    -0.262 C  
HETATM    2  C   UNL     1      -9.216   6.544  69.350  1.00  0.00    -0.144 C  
HETATM    3  C   UNL     1      -7.696   6.567  69.455  1.00  0.00    -0.100 C  
HETATM    4  C   UNL     1      -9.665   6.531  67.897  1.00  0.00    -0.122 C  
HETATM    5  O   UNL     1     -10.389   5.667  67.415  1.00  0.00    -0.187 OA 
ENDROOT
BRANCH   4   6
HETATM    6  O   UNL     1      -9.227   7.631  67.215  1.00  0.00    -0.127 OA 
BRANCH   6   7
HETATM    7  C   UNL     1     -10.298   8.438  66.703  1.00  0.00    -0.228 C  
HETATM    8  C   UNL     1     -10.783   9.390  67.796  1.00  0.00    -0.290 C  
BRANCH   7   9
HETATM    9  O   UNL     1      -9.875   9.342  65.667  1.00  0.00    -0.289 OA 
BRANCH   9  10
HETATM   10  C   UNL     1      -9.183  10.421  66.083  1.00  0.00    -0.168 C  
HETATM   11  O   UNL     1      -8.003  10.441  66.378  1.00  0.00    -0.120 OA 
HETATM   12  N   UNL     1     -10.018  11.500  66.018  1.00  0.00    -0.216 N  
HETATM   13  H   UNL     1     -10.988  11.352  65.737  1.00  0.00     0.000 HD 
BRANCH  12  14
HETATM   14  C   UNL     1      -9.583  12.845  66.330  1.00  0.00    -0.252 C  
BRANCH  14  15
HETATM   15  C   UNL     1     -10.707  13.744  66.947  1.00  0.00    -0.280 C  
HETATM   16  C   UNL     1     -10.407  15.247  66.701  1.00  0.00    -0.281 C  
HETATM   17  C   UNL     1     -12.054  13.359  66.270  1.00  0.00    -0.475 C  
HETATM   18  C   UNL     1     -12.171  13.812  64.813  1.00  0.00    -0.438 C  
HETATM   19  C   UNL     1     -10.532  15.671  65.239  1.00  0.00    -0.439 C  
HETATM   20  C   UNL     1     -11.898  15.304  64.673  1.00  0.00    -0.267 C  
BRANCH  15  21
HETATM   21  C   UNL     1     -10.781  13.456  68.475  1.00  0.00    -0.278 C  
HETATM   22  O   UNL     1     -12.640  14.598  69.527  1.00  0.00    -0.179 OA 
HETATM   23  C   UNL     1     -11.437  14.532  69.321  1.00  0.00    -0.288 C  
HETATM   24  O   UNL     1     -10.569  15.423  69.845  1.00  0.00    -0.270 OA 
ENDBRANCH  15  21
ENDBRANCH  14  15
ENDBRANCH  12  14
ENDBRANCH   9  10
ENDBRANCH   7   9
ENDBRANCH   6   7
ENDBRANCH   4   6
TORSDOF 7
ENDMDL
MODEL      263
REMARK 921   NORMALIZED FREE ENERGY PREDICTED BY IDOCK:   -2.89 KCAL/MOL
REMARK 922        TOTAL FREE ENERGY PREDICTED BY IDOCK:   -5.70 KCAL/MOL
REMARK 923 INTER-LIGAND FREE ENERGY PREDICTED BY IDOCK:   -5.18 KCAL/MOL
REMARK 924 INTRA-LIGAND FREE ENERGY PREDICTED BY IDOCK:   -0.52 KCAL/MOL
REMARK 927      BINDING AFFINITY PREDICTED BY RF-SCORE:    0.00 PKD
ROOT
HETATM    1  C   UNL     1      -8.164  10.024  63.834  1.00  0.00    -0.159 C  
HETATM    2  C   UNL     1      -8.564   9.879  65.306  1.00  0.00    -0.168 C  
HETATM    3  C   UNL     1      -8.853   8.418  65.625  1.00  0.00    -0.196 C  
HETATM    4  C   UNL     1      -7.468  10.430  66.207  1.00  0.00    -0.127 C  
HETATM    5  O   UNL     1      -6.432  10.935  65.790  1.00  0.00    -0.109 OA 
ENDROOT
BRANCH   4   6
HETATM    6  O   UNL     1      -7.808  10.362  67.528  1.00  0.00    -0.105 OA 
BRANCH   6   7
HETATM    7  C   UNL     1      -8.679  11.427  67.941  1.00  0.00    -0.145 C  
HETATM    8  C   UNL     1      -8.143  12.755  67.406  1.00  0.00    -0.185 C  
BRANCH   7   9
HETATM    9  O   UNL     1      -9.983  11.352  67.339  1.00  0.00    -0.184 OA 
BRANCH   9  10
HETATM   10  C   UNL     1     -10.973  10.921  68.146  1.00  0.00    -0.249 C  
HETATM   11  O   UNL     1     -12.149  11.220  68.054  1.00  0.00    -0.638 OA 
HETATM   12  N   UNL     1     -10.434  10.018  69.018  1.00  0.00    -0.202 N  
HETATM   13  H   UNL     1      -9.430   9.842  68.982  1.00  0.00     0.000 HD 
BRANCH  12  14
HETATM   14  C   UNL     1     -11.231   9.301  69.991  1.00  0.00    -0.168 C  
BRANCH  14  15
HETATM   15  C   UNL     1     -10.724   7.847  70.273  1.00  0.00    -0.236 C  
HETATM   16  C   UNL     1      -9.295   7.869  70.880  1.00  0.00    -0.162 C  
HETATM   17  C   UNL     1     -11.710   7.180  71.274  1.00  0.00    -0.342 C  
HETATM   18  C   UNL     1     -11.622   7.735  72.698  1.00  0.00    -0.398 C  
HETATM   19  C   UNL     1      -9.237   8.426  72.301  1.00  0.00    -0.329 C  
HETATM   20  C   UNL     1     -10.193   7.682  73.225  1.00  0.00    -0.398 C  
BRANCH  15  21
HETATM   21  C   UNL     1     -10.722   7.060  68.929  1.00  0.00    -0.227 C  
HETATM   22  O   UNL     1     -10.070   4.747  69.230  1.00  0.00    -0.205 OA 
HETATM   23  C   UNL     1      -9.779   5.873  68.857  1.00  0.00    -0.135 C  
HETATM   24  O   UNL     1      -8.569   6.166  68.331  1.00  0.00    -0.113 OA 
ENDBRANCH  15  21
ENDBRANCH  14  15
ENDBRANCH  12  14
ENDBRANCH   9  10
ENDBRANCH   7   9
ENDBRANCH   6   7
ENDBRANCH   4   6
TORSDOF 7
ENDMDL
MODEL      264
REMARK 921   NORMALIZED FREE ENERGY PREDICTED BY IDOCK:   -2.89 KCAL/MOL
REMARK 922        TOTAL FREE ENERGY PREDICTED BY IDOCK:   -5.70 KCAL/MOL
REMARK 923 INTER-LIGAND FREE ENERGY PREDICTED BY IDOCK:   -4.95 KCAL/MOL
REMARK 924 INTRA-LIGAND FREE ENERGY PREDICTED BY IDOCK:   -0.75 KCAL/MOL
REMARK 927      BINDING AFFINITY PREDICTED BY RF-SCORE:    0.00 PKD
ROOT
HETATM    1  C   UNL     1     -12.322  13.939  66.770  1.00  0.00    -0.370 C  
HETATM    2  C   UNL     1     -11.694  12.794  65.968  1.00  0.00    -0.470 C  
HETATM    3  C   UNL     1     -12.516  12.526  64.714  1.00  0.00    -0.532 C  
HETATM    4  C   UNL     1     -10.252  13.125  65.617  1.00  0.00    -0.286 C  
HETATM    5  O   UNL     1      -9.685  14.157  65.959  1.00  0.00    -0.301 OA 
ENDROOT
BRANCH   4   6
HETATM    6  O   UNL     1      -9.642  12.106  64.941  1.00  0.00    -0.128 OA 
BRANCH   6   7
HETATM    7  C   UNL     1      -9.299  10.996  65.785  1.00  0.00    -0.211 C  
HETATM    8  C   UNL     1      -9.456   9.695  64.999  1.00  0.00    -0.312 C  
BRANCH   7   9
HETATM    9  O   UNL     1      -7.908  10.975  66.149  1.00  0.00    -0.161 OA 
BRANCH   9  10
HETATM   10  C   UNL     1      -7.538   9.980  66.981  1.00  0.00    -0.092 C  
HETATM   11  O   UNL     1      -6.618   9.206  66.802  1.00  0.00    -0.066 OA 
HETATM   12  N   UNL     1      -8.319  10.064  68.099  1.00  0.00    -0.113 N  
HETATM   13  H   UNL     1      -9.051  10.774  68.133  1.00  0.00     0.000 HD 
BRANCH  12  14
HETATM   14  C   UNL     1      -8.149   9.186  69.237  1.00  0.00    -0.102 C  
BRANCH  14  15
HETATM   15  C   UNL     1      -9.170   7.999  69.276  1.00  0.00    -0.152 C  
HETATM   16  C   UNL     1      -9.225   7.365  70.692  1.00  0.00    -0.157 C  
HETATM   17  C   UNL     1     -10.571   8.559  68.896  1.00  0.00    -0.166 C  
HETATM   18  C   UNL     1     -11.203   9.441  69.975  1.00  0.00    -0.217 C  
HETATM   19  C   UNL     1      -9.860   8.267  71.748  1.00  0.00    -0.284 C  
HETATM   20  C   UNL     1     -11.249   8.725  71.319  1.00  0.00    -0.352 C  
BRANCH  15  21
HETATM   21  C   UNL     1      -8.724   6.935  68.231  1.00  0.00    -0.123 C  
HETATM   22  O   UNL     1     -10.430   5.259  67.853  1.00  0.00    -0.162 OA 
HETATM   23  C   UNL     1      -9.364   5.566  68.364  1.00  0.00    -0.111 C  
HETATM   24  O   UNL     1      -8.643   4.693  69.101  1.00  0.00    -0.079 OA 
ENDBRANCH  15  21
ENDBRANCH  14  15
ENDBRANCH  12  14
ENDBRANCH   9  10
ENDBRANCH   7   9
ENDBRANCH   6   7
ENDBRANCH   4   6
TORSDOF 7
ENDMDL
MODEL      265
REMARK 921   NORMALIZED FREE ENERGY PREDICTED BY IDOCK:   -2.88 KCAL/MOL
REMARK 922        TOTAL FREE ENERGY PREDICTED BY IDOCK:   -5.70 KCAL/MOL
REMARK 923 INTER-LIGAND FREE ENERGY PREDICTED BY IDOCK:   -4.80 KCAL/MOL
REMARK 924 INTRA-LIGAND FREE ENERGY PREDICTED BY IDOCK:   -0.89 KCAL/MOL
REMARK 927      BINDING AFFINITY PREDICTED BY RF-SCORE:    0.00 PKD
ROOT
HETATM    1  C   UNL     1      -8.568   6.861  65.581  1.00  0.00    -0.119 C  
HETATM    2  C   UNL     1      -8.585   5.502  66.287  1.00  0.00    -0.125 C  
HETATM    3  C   UNL     1      -7.943   4.445  65.396  1.00  0.00    -0.098 C  
HETATM    4  C   UNL     1      -7.872   5.594  67.627  1.00  0.00    -0.097 C  
HETATM    5  O   UNL     1      -7.382   6.627  68.070  1.00  0.00    -0.091 OA 
ENDROOT
BRANCH   4   6
HETATM    6  O   UNL     1      -7.908   4.411  68.310  1.00  0.00    -0.078 OA 
BRANCH   6   7
HETATM    7  C   UNL     1      -9.232   4.037  68.719  1.00  0.00    -0.151 C  
HETATM    8  C   UNL     1      -9.465   2.562  68.391  1.00  0.00    -0.217 C  
BRANCH   7   9
HETATM    9  O   UNL     1      -9.411   4.071  70.146  1.00  0.00    -0.133 OA 
BRANCH   9  10
HETATM   10  C   UNL     1     -10.213   5.051  70.609  1.00  0.00    -0.235 C  
HETATM   11  O   UNL     1     -10.740   5.082  71.705  1.00  0.00    -0.165 OA 
HETATM   12  N   UNL     1     -10.245   6.041  69.668  1.00  0.00    -0.191 N  
HETATM   13  H   UNL     1      -9.743   5.899  68.791  1.00  0.00     0.000 HD 
BRANCH  12  14
HETATM   14  C   UNL     1     -10.962   7.282  69.865  1.00  0.00    -0.243 C  
BRANCH  14  15
HETATM   15  C   UNL     1     -10.084   8.429  70.470  1.00  0.00    -0.211 C  
HETATM   16  C   UNL     1      -9.931   9.598  69.460  1.00  0.00    -0.223 C  
HETATM   17  C   UNL     1     -10.784   8.939  71.763  1.00  0.00    -0.432 C  
HETATM   18  C   UNL     1     -12.062   9.740  71.503  1.00  0.00    -0.493 C  
HETATM   19  C   UNL     1     -11.221  10.380  69.222  1.00  0.00    -0.304 C  
HETATM   20  C   UNL     1     -11.809  10.886  70.533  1.00  0.00    -0.457 C  
BRANCH  15  21
HETATM   21  C   UNL     1      -8.686   7.840  70.823  1.00  0.00    -0.134 C  
HETATM   22  O   UNL     1      -8.600   6.995  73.091  1.00  0.00    -0.119 OA 
HETATM   23  C   UNL     1      -8.305   7.871  72.292  1.00  0.00    -0.131 C  
HETATM   24  O   UNL     1      -7.594   8.962  72.651  1.00  0.00    -0.359 OA 
ENDBRANCH  15  21
ENDBRANCH  14  15
ENDBRANCH  12  14
ENDBRANCH   9  10
ENDBRANCH   7   9
ENDBRANCH   6   7
ENDBRANCH   4   6
TORSDOF 7
ENDMDL
MODEL      266
REMARK 921   NORMALIZED FREE ENERGY PREDICTED BY IDOCK:   -2.87 KCAL/MOL
REMARK 922        TOTAL FREE ENERGY PREDICTED BY IDOCK:   -5.68 KCAL/MOL
REMARK 923 INTER-LIGAND FREE ENERGY PREDICTED BY IDOCK:   -4.74 KCAL/MOL
REMARK 924 INTRA-LIGAND FREE ENERGY PREDICTED BY IDOCK:   -0.94 KCAL/MOL
REMARK 927      BINDING AFFINITY PREDICTED BY RF-SCORE:    0.00 PKD
ROOT
HETATM    1  C   UNL     1     -12.022   6.633  71.278  1.00  0.00    -0.409 C  
HETATM    2  C   UNL     1     -11.070   7.698  70.724  1.00  0.00    -0.276 C  
HETATM    3  C   UNL     1     -10.735   8.712  71.810  1.00  0.00    -0.392 C  
HETATM    4  C   UNL     1      -9.810   7.045  70.176  1.00  0.00    -0.175 C  
HETATM    5  O   UNL     1      -9.616   5.835  70.168  1.00  0.00    -0.158 OA 
ENDROOT
BRANCH   4   6
HETATM    6  O   UNL     1      -8.955   7.960  69.628  1.00  0.00    -0.144 OA 
BRANCH   6   7
HETATM    7  C   UNL     1      -7.613   7.842  70.123  1.00  0.00    -0.083 C  
HETATM    8  C   UNL     1      -6.965   6.589  69.535  1.00  0.00    -0.067 C  
BRANCH   7   9
HETATM    9  O   UNL     1      -6.747   8.891  69.655  1.00  0.00    -0.044 OA 
BRANCH   9  10
HETATM   10  C   UNL     1      -7.364  10.014  69.238  1.00  0.00    -0.091 C  
HETATM   11  O   UNL     1      -7.481  11.043  69.876  1.00  0.00     0.008 OA 
HETATM   12  N   UNL     1      -7.746   9.820  67.940  1.00  0.00    -0.087 N  
HETATM   13  H   UNL     1      -7.575   8.910  67.511  1.00  0.00     0.000 HD 
BRANCH  12  14
HETATM   14  C   UNL     1      -8.383  10.852  67.151  1.00  0.00    -0.125 C  
BRANCH  14  15
HETATM   15  C   UNL     1      -9.867  10.529  66.769  1.00  0.00    -0.237 C  
HETATM   16  C   UNL     1     -10.688  10.143  68.029  1.00  0.00    -0.305 C  
HETATM   17  C   UNL     1     -10.480  11.799  66.111  1.00  0.00    -0.284 C  
HETATM   18  C   UNL     1     -10.739  12.946  67.091  1.00  0.00    -0.268 C  
HETATM   19  C   UNL     1     -10.932  11.306  68.988  1.00  0.00    -0.288 C  
HETATM   20  C   UNL     1     -11.582  12.484  68.273  1.00  0.00    -0.376 C  
BRANCH  15  21
HETATM   21  C   UNL     1      -9.866   9.353  65.749  1.00  0.00    -0.345 C  
HETATM   22  O   UNL     1     -10.754   7.315  66.709  1.00  0.00    -0.311 OA 
HETATM   23  C   UNL     1      -9.782   7.960  66.345  1.00  0.00    -0.165 C  
HETATM   24  O   UNL     1      -8.524   7.476  66.434  1.00  0.00    -0.119 OA 
ENDBRANCH  15  21
ENDBRANCH  14  15
ENDBRANCH  12  14
ENDBRANCH   9  10
ENDBRANCH   7   9
ENDBRANCH   6   7
ENDBRANCH   4   6
TORSDOF 7
ENDMDL
MODEL      267
REMARK 921   NORMALIZED FREE ENERGY PREDICTED BY IDOCK:   -2.85 KCAL/MOL
REMARK 922        TOTAL FREE ENERGY PREDICTED BY IDOCK:   -5.65 KCAL/MOL
REMARK 923 INTER-LIGAND FREE ENERGY PREDICTED BY IDOCK:   -5.05 KCAL/MOL
REMARK 924 INTRA-LIGAND FREE ENERGY PREDICTED BY IDOCK:   -0.60 KCAL/MOL
REMARK 927      BINDING AFFINITY PREDICTED BY RF-SCORE:    0.00 PKD
ROOT
HETATM    1  C   UNL     1      -9.550   4.199  69.431  1.00  0.00    -0.265 C  
HETATM    2  C   UNL     1     -10.124   4.796  70.719  1.00  0.00    -0.286 C  
HETATM    3  C   UNL     1      -8.997   5.344  71.585  1.00  0.00    -0.147 C  
HETATM    4  C   UNL     1     -11.140   5.879  70.392  1.00  0.00    -0.283 C  
HETATM    5  O   UNL     1     -11.457   6.196  69.251  1.00  0.00    -0.404 OA 
ENDROOT
BRANCH   4   6
HETATM    6  O   UNL     1     -11.710   6.405  71.518  1.00  0.00    -0.308 OA 
BRANCH   6   7
HETATM    7  C   UNL     1     -12.229   7.729  71.320  1.00  0.00    -0.303 C  
HETATM    8  C   UNL     1     -13.696   7.767  71.748  1.00  0.00    -0.410 C  
BRANCH   7   9
HETATM    9  O   UNL     1     -11.625   8.704  72.188  1.00  0.00    -0.342 OA 
BRANCH   9  10
HETATM   10  C   UNL     1     -10.281   8.782  72.132  1.00  0.00    -0.301 C  
HETATM   11  O   UNL     1      -9.509   8.435  73.006  1.00  0.00    -0.250 OA 
HETATM   12  N   UNL     1      -9.943   9.226  70.885  1.00  0.00    -0.283 N  
HETATM   13  H   UNL     1     -10.689   9.469  70.233  1.00  0.00     0.000 HD 
BRANCH  12  14
HETATM   14  C   UNL     1      -8.569   9.365  70.452  1.00  0.00    -0.230 C  
BRANCH  14  15
HETATM   15  C   UNL     1      -8.409  10.138  69.100  1.00  0.00    -0.154 C  
HETATM   16  C   UNL     1      -7.692   9.257  68.042  1.00  0.00    -0.088 C  
HETATM   17  C   UNL     1      -9.831  10.516  68.592  1.00  0.00    -0.183 C  
HETATM   18  C   UNL     1     -10.646   9.325  68.082  1.00  0.00    -0.248 C  
HETATM   19  C   UNL     1      -8.528   8.078  67.550  1.00  0.00    -0.127 C  
HETATM   20  C   UNL     1      -9.880   8.543  67.023  1.00  0.00    -0.289 C  
BRANCH  15  21
HETATM   21  C   UNL     1      -7.583  11.431  69.369  1.00  0.00     0.104 C  
HETATM   22  O   UNL     1      -7.150  12.674  67.337  1.00  0.00    -0.142 OA 
HETATM   23  C   UNL     1      -6.737  11.930  68.213  1.00  0.00    -0.063 C  
HETATM   24  O   UNL     1      -5.462  11.482  68.234  1.00  0.00    -0.043 OA 
ENDBRANCH  15  21
ENDBRANCH  14  15
ENDBRANCH  12  14
ENDBRANCH   9  10
ENDBRANCH   7   9
ENDBRANCH   6   7
ENDBRANCH   4   6
TORSDOF 7
ENDMDL
MODEL      268
REMARK 921   NORMALIZED FREE ENERGY PREDICTED BY IDOCK:   -2.82 KCAL/MOL
REMARK 922        TOTAL FREE ENERGY PREDICTED BY IDOCK:   -5.60 KCAL/MOL
REMARK 923 INTER-LIGAND FREE ENERGY PREDICTED BY IDOCK:   -5.13 KCAL/MOL
REMARK 924 INTRA-LIGAND FREE ENERGY PREDICTED BY IDOCK:   -0.48 KCAL/MOL
REMARK 927      BINDING AFFINITY PREDICTED BY RF-SCORE:    0.00 PKD
ROOT
HETATM    1  C   UNL     1      -9.877   4.299  67.372  1.00  0.00    -0.176 C  
HETATM    2  C   UNL     1      -9.042   5.526  66.991  1.00  0.00    -0.112 C  
HETATM    3  C   UNL     1      -8.380   5.304  65.637  1.00  0.00    -0.126 C  
HETATM    4  C   UNL     1      -9.913   6.773  66.977  1.00  0.00    -0.177 C  
HETATM    5  O   UNL     1     -11.106   6.775  67.259  1.00  0.00    -0.358 OA 
ENDROOT
BRANCH   4   6
HETATM    6  O   UNL     1      -9.193   7.897  66.688  1.00  0.00    -0.157 OA 
BRANCH   6   7
HETATM    7  C   UNL     1      -9.096   8.805  67.796  1.00  0.00    -0.135 C  
HETATM    8  C   UNL     1      -9.021   8.007  69.098  1.00  0.00    -0.145 C  
BRANCH   7   9
HETATM    9  O   UNL     1      -7.863   9.544  67.812  1.00  0.00    -0.094 OA 
BRANCH   9  10
HETATM   10  C   UNL     1      -7.849  10.669  67.070  1.00  0.00    -0.117 C  
HETATM   11  O   UNL     1      -6.856  11.254  66.681  1.00  0.00    -0.135 OA 
HETATM   12  N   UNL     1      -9.143  10.975  66.756  1.00  0.00    -0.159 N  
HETATM   13  H   UNL     1      -9.889  10.392  67.134  1.00  0.00     0.000 HD 
BRANCH  12  14
HETATM   14  C   UNL     1      -9.497  12.093  65.907  1.00  0.00    -0.179 C  
BRANCH  14  15
HETATM   15  C   UNL     1     -10.380  13.171  66.621  1.00  0.00    -0.265 C  
HETATM   16  C   UNL     1     -10.208  14.560  65.947  1.00  0.00    -0.339 C  
HETATM   17  C   UNL     1     -11.866  12.719  66.518  1.00  0.00    -0.471 C  
HETATM   18  C   UNL     1     -12.455  12.832  65.110  1.00  0.00    -0.565 C  
HETATM   19  C   UNL     1     -10.806  14.644  64.545  1.00  0.00    -0.209 C  
HETATM   20  C   UNL     1     -12.274  14.235  64.546  1.00  0.00    -0.476 C  
BRANCH  15  21
HETATM   21  C   UNL     1      -9.952  13.245  68.116  1.00  0.00    -0.234 C  
HETATM   22  O   UNL     1      -9.341  15.492  68.779  1.00  0.00    -0.187 OA 
HETATM   23  C   UNL     1      -8.990  14.361  68.476  1.00  0.00    -0.187 C  
HETATM   24  O   UNL     1      -7.690  13.997  68.442  1.00  0.00    -0.122 OA 
ENDBRANCH  15  21
ENDBRANCH  14  15
ENDBRANCH  12  14
ENDBRANCH   9  10
ENDBRANCH   7   9
ENDBRANCH   6   7
ENDBRANCH   4   6
TORSDOF 7
ENDMDL
MODEL      269
REMARK 921   NORMALIZED FREE ENERGY PREDICTED BY IDOCK:   -2.82 KCAL/MOL
REMARK 922        TOTAL FREE ENERGY PREDICTED BY IDOCK:   -5.60 KCAL/MOL
REMARK 923 INTER-LIGAND FREE ENERGY PREDICTED BY IDOCK:   -4.77 KCAL/MOL
REMARK 924 INTRA-LIGAND FREE ENERGY PREDICTED BY IDOCK:   -0.84 KCAL/MOL
REMARK 927      BINDING AFFINITY PREDICTED BY RF-SCORE:    0.00 PKD
ROOT
HETATM    1  C   UNL     1      -8.435   4.554  64.382  1.00  0.00    -0.122 C  
HETATM    2  C   UNL     1      -8.866   4.767  65.837  1.00  0.00    -0.127 C  
HETATM    3  C   UNL     1      -9.013   3.422  66.537  1.00  0.00    -0.158 C  
HETATM    4  C   UNL     1      -7.864   5.654  66.559  1.00  0.00    -0.101 C  
HETATM    5  O   UNL     1      -6.872   6.139  66.026  1.00  0.00    -0.054 OA 
ENDROOT
BRANCH   4   6
HETATM    6  O   UNL     1      -8.239   5.907  67.849  1.00  0.00    -0.107 OA 
BRANCH   6   7
HETATM    7  C   UNL     1      -7.305   5.403  68.815  1.00  0.00    -0.074 C  
HETATM    8  C   UNL     1      -6.507   6.567  69.403  1.00  0.00    -0.043 C  
BRANCH   7   9
HETATM    9  O   UNL     1      -7.944   4.845  69.977  1.00  0.00    -0.071 OA 
BRANCH   9  10
HETATM   10  C   UNL     1      -9.273   5.052  70.068  1.00  0.00    -0.131 C  
HETATM   11  O   UNL     1     -10.141   4.283  69.703  1.00  0.00    -0.168 OA 
HETATM   12  N   UNL     1      -9.464   6.233  70.729  1.00  0.00    -0.171 N  
HETATM   13  H   UNL     1      -8.647   6.781  70.998  1.00  0.00     0.000 HD 
BRANCH  12  14
HETATM   14  C   UNL     1     -10.779   6.736  71.063  1.00  0.00    -0.231 C  
BRANCH  14  15
HETATM   15  C   UNL     1     -10.762   7.899  72.112  1.00  0.00    -0.316 C  
HETATM   16  C   UNL     1      -9.864   9.068  71.624  1.00  0.00    -0.366 C  
HETATM   17  C   UNL     1     -12.223   8.400  72.297  1.00  0.00    -0.449 C  
HETATM   18  C   UNL     1     -12.771   9.179  71.098  1.00  0.00    -0.271 C  
HETATM   19  C   UNL     1     -10.436   9.827  70.428  1.00  0.00    -0.358 C  
HETATM   20  C   UNL     1     -11.846  10.327  70.715  1.00  0.00    -0.459 C  
BRANCH  15  21
HETATM   21  C   UNL     1     -10.221   7.336  73.459  1.00  0.00    -0.404 C  
HETATM   22  O   UNL     1      -8.310   8.584  74.266  1.00  0.00    -0.264 OA 
HETATM   23  C   UNL     1      -8.748   7.576  73.735  1.00  0.00    -0.223 C  
HETATM   24  O   UNL     1      -7.945   6.562  73.345  1.00  0.00    -0.099 OA 
ENDBRANCH  15  21
ENDBRANCH  14  15
ENDBRANCH  12  14
ENDBRANCH   9  10
ENDBRANCH   7   9
ENDBRANCH   6   7
ENDBRANCH   4   6
TORSDOF 7
ENDMDL
MODEL      270
REMARK 921   NORMALIZED FREE ENERGY PREDICTED BY IDOCK:   -2.82 KCAL/MOL
REMARK 922        TOTAL FREE ENERGY PREDICTED BY IDOCK:   -5.60 KCAL/MOL
REMARK 923 INTER-LIGAND FREE ENERGY PREDICTED BY IDOCK:   -4.80 KCAL/MOL
REMARK 924 INTRA-LIGAND FREE ENERGY PREDICTED BY IDOCK:   -0.80 KCAL/MOL
REMARK 927      BINDING AFFINITY PREDICTED BY RF-SCORE:    0.00 PKD
ROOT
HETATM    1  C   UNL     1      -9.095   5.393  66.215  1.00  0.00    -0.144 C  
HETATM    2  C   UNL     1      -7.931   6.388  66.265  1.00  0.00    -0.111 C  
HETATM    3  C   UNL     1      -6.718   5.735  66.915  1.00  0.00    -0.058 C  
HETATM    4  C   UNL     1      -7.601   6.885  64.866  1.00  0.00    -0.106 C  
HETATM    5  O   UNL     1      -8.210   6.544  63.859  1.00  0.00    -0.069 OA 
ENDROOT
BRANCH   4   6
HETATM    6  O   UNL     1      -6.596   7.812  64.875  1.00  0.00    -0.047 OA 
BRANCH   6   7
HETATM    7  C   UNL     1      -6.964   9.034  65.531  1.00  0.00    -0.080 C  
HETATM    8  C   UNL     1      -5.745   9.609  66.251  1.00  0.00    -0.053 C  
BRANCH   7   9
HETATM    9  O   UNL     1      -7.308  10.085  64.612  1.00  0.00    -0.136 OA 
BRANCH   9  10
HETATM   10  C   UNL     1      -8.599  10.474  64.626  1.00  0.00    -0.161 C  
HETATM   11  O   UNL     1      -9.530   9.873  64.125  1.00  0.00    -0.280 OA 
HETATM   12  N   UNL     1      -8.682  11.607  65.385  1.00  0.00    -0.389 N  
HETATM   13  H   UNL     1      -7.824  12.005  65.766  1.00  0.00     0.000 HD 
BRANCH  12  14
HETATM   14  C   UNL     1      -9.940  12.264  65.671  1.00  0.00    -0.251 C  
BRANCH  14  15
HETATM   15  C   UNL     1      -9.913  13.138  66.970  1.00  0.00    -0.244 C  
HETATM   16  C   UNL     1     -11.353  13.392  67.493  1.00  0.00    -0.327 C  
HETATM   17  C   UNL     1      -9.089  12.374  68.046  1.00  0.00    -0.195 C  
HETATM   18  C   UNL     1      -9.798  11.141  68.613  1.00  0.00    -0.207 C  
HETATM   19  C   UNL     1     -12.034  12.146  68.053  1.00  0.00    -0.233 C  
HETATM   20  C   UNL     1     -11.185  11.492  69.136  1.00  0.00    -0.337 C  
BRANCH  15  21
HETATM   21  C   UNL     1      -9.219  14.492  66.635  1.00  0.00    -0.290 C  
HETATM   22  O   UNL     1     -10.632  16.391  67.146  1.00  0.00    -0.310 OA 
HETATM   23  C   UNL     1     -10.145  15.648  66.306  1.00  0.00    -0.299 C  
HETATM   24  O   UNL     1     -10.385  15.800  64.986  1.00  0.00    -0.468 OA 
ENDBRANCH  15  21
ENDBRANCH  14  15
ENDBRANCH  12  14
ENDBRANCH   9  10
ENDBRANCH   7   9
ENDBRANCH   6   7
ENDBRANCH   4   6
TORSDOF 7
ENDMDL
MODEL      271
REMARK 921   NORMALIZED FREE ENERGY PREDICTED BY IDOCK:   -2.81 KCAL/MOL
REMARK 922        TOTAL FREE ENERGY PREDICTED BY IDOCK:   -5.59 KCAL/MOL
REMARK 923 INTER-LIGAND FREE ENERGY PREDICTED BY IDOCK:   -5.21 KCAL/MOL
REMARK 924 INTRA-LIGAND FREE ENERGY PREDICTED BY IDOCK:   -0.38 KCAL/MOL
REMARK 927      BINDING AFFINITY PREDICTED BY RF-SCORE:    0.00 PKD
ROOT
HETATM    1  C   UNL     1     -11.428  12.390  63.819  1.00  0.00    -0.544 C  
HETATM    2  C   UNL     1     -10.857  12.273  65.235  1.00  0.00    -0.332 C  
HETATM    3  C   UNL     1     -11.972  12.436  66.260  1.00  0.00    -0.369 C  
HETATM    4  C   UNL     1     -10.144  10.941  65.408  1.00  0.00    -0.277 C  
HETATM    5  O   UNL     1     -10.034  10.105  64.518  1.00  0.00    -0.326 OA 
ENDROOT
BRANCH   4   6
HETATM    6  O   UNL     1      -9.579  10.819  66.646  1.00  0.00    -0.172 OA 
BRANCH   6   7
HETATM    7  C   UNL     1      -8.249  11.356  66.713  1.00  0.00    -0.160 C  
HETATM    8  C   UNL     1      -7.940  11.762  68.154  1.00  0.00    -0.146 C  
BRANCH   7   9
HETATM    9  O   UNL     1      -7.232  10.376  66.441  1.00  0.00    -0.106 OA 
BRANCH   9  10
HETATM   10  C   UNL     1      -6.925   9.554  67.464  1.00  0.00    -0.084 C  
HETATM   11  O   UNL     1      -6.058   9.743  68.295  1.00  0.00    -0.050 OA 
HETATM   12  N   UNL     1      -7.825   8.526  67.454  1.00  0.00    -0.098 N  
HETATM   13  H   UNL     1      -8.519   8.490  66.707  1.00  0.00     0.000 HD 
BRANCH  12  14
HETATM   14  C   UNL     1      -7.833   7.486  68.461  1.00  0.00    -0.122 C  
BRANCH  14  15
HETATM   15  C   UNL     1      -9.251   7.199  69.060  1.00  0.00    -0.135 C  
HETATM   16  C   UNL     1     -10.352   7.930  68.245  1.00  0.00    -0.239 C  
HETATM   17  C   UNL     1      -9.492   5.662  69.007  1.00  0.00    -0.159 C  
HETATM   18  C   UNL     1      -9.723   5.116  67.597  1.00  0.00    -0.178 C  
HETATM   19  C   UNL     1     -10.561   7.364  66.843  1.00  0.00    -0.375 C  
HETATM   20  C   UNL     1     -10.843   5.867  66.889  1.00  0.00    -0.376 C  
BRANCH  15  21
HETATM   21  C   UNL     1      -9.266   7.686  70.538  1.00  0.00    -0.159 C  
HETATM   22  O   UNL     1     -10.265   9.881  70.763  1.00  0.00    -0.240 OA 
HETATM   23  C   UNL     1      -9.257   9.190  70.741  1.00  0.00    -0.262 C  
HETATM   24  O   UNL     1      -8.023   9.714  70.905  1.00  0.00    -0.307 OA 
ENDBRANCH  15  21
ENDBRANCH  14  15
ENDBRANCH  12  14
ENDBRANCH   9  10
ENDBRANCH   7   9
ENDBRANCH   6   7
ENDBRANCH   4   6
TORSDOF 7
ENDMDL
MODEL      272
REMARK 921   NORMALIZED FREE ENERGY PREDICTED BY IDOCK:   -2.81 KCAL/MOL
REMARK 922        TOTAL FREE ENERGY PREDICTED BY IDOCK:   -5.59 KCAL/MOL
REMARK 923 INTER-LIGAND FREE ENERGY PREDICTED BY IDOCK:   -4.68 KCAL/MOL
REMARK 924 INTRA-LIGAND FREE ENERGY PREDICTED BY IDOCK:   -0.91 KCAL/MOL
REMARK 927      BINDING AFFINITY PREDICTED BY RF-SCORE:    0.00 PKD
ROOT
HETATM    1  C   UNL     1     -10.995  15.749  70.687  1.00  0.00    -0.341 C  
HETATM    2  C   UNL     1     -11.103  15.468  69.185  1.00  0.00    -0.272 C  
HETATM    3  C   UNL     1     -11.374  16.764  68.432  1.00  0.00    -0.068 C  
HETATM    4  C   UNL     1      -9.834  14.796  68.682  1.00  0.00    -0.225 C  
HETATM    5  O   UNL     1      -8.883  14.509  69.400  1.00  0.00     0.039 OA 
ENDROOT
BRANCH   4   6
HETATM    6  O   UNL     1      -9.911  14.485  67.353  1.00  0.00    -0.223 OA 
BRANCH   6   7
HETATM    7  C   UNL     1     -10.770  13.367  67.086  1.00  0.00    -0.264 C  
HETATM    8  C   UNL     1     -11.771  13.748  65.995  1.00  0.00    -0.383 C  
BRANCH   7   9
HETATM    9  O   UNL     1     -10.077  12.253  66.497  1.00  0.00    -0.209 OA 
BRANCH   9  10
HETATM   10  C   UNL     1     -10.557  11.034  66.816  1.00  0.00    -0.266 C  
HETATM   11  O   UNL     1     -10.764  10.123  66.037  1.00  0.00    -0.059 OA 
HETATM   12  N   UNL     1     -10.674  10.977  68.176  1.00  0.00    -0.190 N  
HETATM   13  H   UNL     1     -10.452  11.810  68.722  1.00  0.00     0.000 HD 
BRANCH  12  14
HETATM   14  C   UNL     1     -11.100   9.783  68.874  1.00  0.00    -0.099 C  
BRANCH  14  15
HETATM   15  C   UNL     1      -9.935   9.022  69.591  1.00  0.00    -0.196 C  
HETATM   16  C   UNL     1      -9.827   9.453  71.079  1.00  0.00    -0.317 C  
HETATM   17  C   UNL     1     -10.234   7.497  69.506  1.00  0.00    -0.207 C  
HETATM   18  C   UNL     1     -11.391   7.039  70.397  1.00  0.00    -0.354 C  
HETATM   19  C   UNL     1     -10.994   8.981  71.944  1.00  0.00    -0.423 C  
HETATM   20  C   UNL     1     -11.182   7.473  71.842  1.00  0.00    -0.286 C  
BRANCH  15  21
HETATM   21  C   UNL     1      -8.607   9.342  68.843  1.00  0.00    -0.131 C  
HETATM   22  O   UNL     1      -6.754   9.653  70.371  1.00  0.00    -0.077 OA 
HETATM   23  C   UNL     1      -7.585  10.148  69.624  1.00  0.00    -0.156 C  
HETATM   24  O   UNL     1      -7.662  11.480  69.417  1.00  0.00     0.030 OA 
ENDBRANCH  15  21
ENDBRANCH  14  15
ENDBRANCH  12  14
ENDBRANCH   9  10
ENDBRANCH   7   9
ENDBRANCH   6   7
ENDBRANCH   4   6
TORSDOF 7
ENDMDL
MODEL      273
REMARK 921   NORMALIZED FREE ENERGY PREDICTED BY IDOCK:   -2.81 KCAL/MOL
REMARK 922        TOTAL FREE ENERGY PREDICTED BY IDOCK:   -5.59 KCAL/MOL
REMARK 923 INTER-LIGAND FREE ENERGY PREDICTED BY IDOCK:   -5.27 KCAL/MOL
REMARK 924 INTRA-LIGAND FREE ENERGY PREDICTED BY IDOCK:   -0.32 KCAL/MOL
REMARK 927      BINDING AFFINITY PREDICTED BY RF-SCORE:    0.00 PKD
ROOT
HETATM    1  C   UNL     1      -9.685   4.971  69.319  1.00  0.00    -0.249 C  
HETATM    2  C   UNL     1      -9.265   6.401  68.964  1.00  0.00    -0.129 C  
HETATM    3  C   UNL     1      -7.878   6.394  68.336  1.00  0.00    -0.105 C  
HETATM    4  C   UNL     1     -10.286   7.034  68.031  1.00  0.00    -0.182 C  
HETATM    5  O   UNL     1     -11.305   6.470  67.650  1.00  0.00    -0.268 OA 
ENDROOT
BRANCH   4   6
HETATM    6  O   UNL     1      -9.970   8.329  67.729  1.00  0.00    -0.166 OA 
BRANCH   6   7
HETATM    7  C   UNL     1     -10.611   9.280  68.592  1.00  0.00    -0.187 C  
HETATM    8  C   UNL     1      -9.549  10.144  69.272  1.00  0.00    -0.239 C  
BRANCH   7   9
HETATM    9  O   UNL     1     -11.392  10.253  67.876  1.00  0.00    -0.294 OA 
BRANCH   9  10
HETATM   10  C   UNL     1     -10.709  11.020  67.003  1.00  0.00    -0.270 C  
HETATM   11  O   UNL     1     -10.092  10.621  66.034  1.00  0.00    -0.231 OA 
HETATM   12  N   UNL     1     -10.917  12.326  67.348  1.00  0.00    -0.242 N  
HETATM   13  H   UNL     1     -11.471  12.530  68.179  1.00  0.00     0.000 HD 
BRANCH  12  14
HETATM   14  C   UNL     1     -10.382  13.431  66.580  1.00  0.00    -0.269 C  
BRANCH  14  15
HETATM   15  C   UNL     1      -9.460  14.387  67.410  1.00  0.00    -0.207 C  
HETATM   16  C   UNL     1      -9.006  15.597  66.550  1.00  0.00    -0.343 C  
HETATM   17  C   UNL     1     -10.272  14.889  68.638  1.00  0.00    -0.236 C  
HETATM   18  C   UNL     1     -11.380  15.885  68.288  1.00  0.00    -0.342 C  
HETATM   19  C   UNL     1     -10.131  16.574  66.216  1.00  0.00    -0.347 C  
HETATM   20  C   UNL     1     -10.836  17.056  67.478  1.00  0.00    -0.203 C  
BRANCH  15  21
HETATM   21  C   UNL     1      -8.220  13.576  67.890  1.00  0.00    -0.168 C  
HETATM   22  O   UNL     1      -6.872  14.826  69.467  1.00  0.00    -0.146 OA 
HETATM   23  C   UNL     1      -7.023  14.397  68.333  1.00  0.00    -0.109 C  
HETATM   24  O   UNL     1      -6.116  14.614  67.356  1.00  0.00    -0.339 OA 
ENDBRANCH  15  21
ENDBRANCH  14  15
ENDBRANCH  12  14
ENDBRANCH   9  10
ENDBRANCH   7   9
ENDBRANCH   6   7
ENDBRANCH   4   6
TORSDOF 7
ENDMDL
MODEL      274
REMARK 921   NORMALIZED FREE ENERGY PREDICTED BY IDOCK:   -2.78 KCAL/MOL
REMARK 922        TOTAL FREE ENERGY PREDICTED BY IDOCK:   -5.55 KCAL/MOL
REMARK 923 INTER-LIGAND FREE ENERGY PREDICTED BY IDOCK:   -4.82 KCAL/MOL
REMARK 924 INTRA-LIGAND FREE ENERGY PREDICTED BY IDOCK:   -0.72 KCAL/MOL
REMARK 927      BINDING AFFINITY PREDICTED BY RF-SCORE:    0.00 PKD
ROOT
HETATM    1  C   UNL     1      -8.426   8.890  63.301  1.00  0.00    -0.155 C  
HETATM    2  C   UNL     1      -7.869   9.194  64.696  1.00  0.00    -0.118 C  
HETATM    3  C   UNL     1      -6.839  10.313  64.611  1.00  0.00    -0.077 C  
HETATM    4  C   UNL     1      -8.998   9.558  65.647  1.00  0.00    -0.183 C  
HETATM    5  O   UNL     1     -10.181   9.576  65.327  1.00  0.00    -0.044 OA 
ENDROOT
BRANCH   4   6
HETATM    6  O   UNL     1      -8.546   9.790  66.915  1.00  0.00    -0.123 OA 
BRANCH   6   7
HETATM    7  C   UNL     1      -9.139  10.948  67.522  1.00  0.00    -0.140 C  
HETATM    8  C   UNL     1      -9.098  10.800  69.043  1.00  0.00    -0.153 C  
BRANCH   7   9
HETATM    9  O   UNL     1      -8.379  12.149  67.305  1.00  0.00    -0.164 OA 
BRANCH   9  10
HETATM   10  C   UNL     1      -9.066  13.189  66.793  1.00  0.00    -0.209 C  
HETATM   11  O   UNL     1     -10.239  13.180  66.469  1.00  0.00    -0.266 OA 
HETATM   12  N   UNL     1      -8.237  14.276  66.797  1.00  0.00    -0.387 N  
HETATM   13  H   UNL     1      -7.274  14.155  67.111  1.00  0.00     0.000 HD 
BRANCH  12  14
HETATM   14  C   UNL     1      -8.671  15.590  66.374  1.00  0.00    -0.298 C  
BRANCH  14  15
HETATM   15  C   UNL     1      -8.196  16.745  67.318  1.00  0.00    -0.198 C  
HETATM   16  C   UNL     1      -8.482  18.132  66.680  1.00  0.00    -0.282 C  
HETATM   17  C   UNL     1      -8.971  16.616  68.662  1.00  0.00    -0.246 C  
HETATM   18  C   UNL     1     -10.452  16.991  68.565  1.00  0.00    -0.373 C  
HETATM   19  C   UNL     1      -9.966  18.480  66.598  1.00  0.00    -0.394 C  
HETATM   20  C   UNL     1     -10.633  18.379  67.964  1.00  0.00    -0.346 C  
BRANCH  15  21
HETATM   21  C   UNL     1      -6.669  16.576  67.570  1.00  0.00    -0.175 C  
HETATM   22  O   UNL     1      -5.574  18.696  67.985  1.00  0.00    -0.180 OA 
HETATM   23  C   UNL     1      -5.803  17.771  67.219  1.00  0.00    -0.137 C  
HETATM   24  O   UNL     1      -5.288  17.728  65.971  1.00  0.00    -0.174 OA 
ENDBRANCH  15  21
ENDBRANCH  14  15
ENDBRANCH  12  14
ENDBRANCH   9  10
ENDBRANCH   7   9
ENDBRANCH   6   7
ENDBRANCH   4   6
TORSDOF 7
ENDMDL
MODEL      275
REMARK 921   NORMALIZED FREE ENERGY PREDICTED BY IDOCK:   -2.77 KCAL/MOL
REMARK 922        TOTAL FREE ENERGY PREDICTED BY IDOCK:   -5.54 KCAL/MOL
REMARK 923 INTER-LIGAND FREE ENERGY PREDICTED BY IDOCK:   -4.66 KCAL/MOL
REMARK 924 INTRA-LIGAND FREE ENERGY PREDICTED BY IDOCK:   -0.88 KCAL/MOL
REMARK 927      BINDING AFFINITY PREDICTED BY RF-SCORE:    0.00 PKD
ROOT
HETATM    1  C   UNL     1     -12.667  12.404  64.674  1.00  0.00    -0.372 C  
HETATM    2  C   UNL     1     -11.677  13.499  65.085  1.00  0.00    -0.341 C  
HETATM    3  C   UNL     1     -12.005  14.795  64.355  1.00  0.00    -0.433 C  
HETATM    4  C   UNL     1     -11.704  13.696  66.592  1.00  0.00    -0.388 C  
HETATM    5  O   UNL     1     -12.409  13.043  67.354  1.00  0.00    -0.249 OA 
ENDROOT
BRANCH   4   6
HETATM    6  O   UNL     1     -10.799  14.634  67.003  1.00  0.00    -0.292 OA 
BRANCH   6   7
HETATM    7  C   UNL     1      -9.443  14.285  66.685  1.00  0.00    -0.286 C  
HETATM    8  C   UNL     1      -8.579  15.545  66.701  1.00  0.00    -0.325 C  
BRANCH   7   9
HETATM    9  O   UNL     1      -8.822  13.468  67.692  1.00  0.00    -0.179 OA 
BRANCH   9  10
HETATM   10  C   UNL     1      -8.209  12.354  67.243  1.00  0.00    -0.184 C  
HETATM   11  O   UNL     1      -7.168  12.317  66.616  1.00  0.00     0.071 OA 
HETATM   12  N   UNL     1      -8.916  11.278  67.702  1.00  0.00    -0.140 N  
HETATM   13  H   UNL     1      -9.770  11.445  68.235  1.00  0.00     0.000 HD 
BRANCH  12  14
HETATM   14  C   UNL     1      -8.501   9.912  67.463  1.00  0.00    -0.115 C  
BRANCH  14  15
HETATM   15  C   UNL     1      -8.513   9.016  68.747  1.00  0.00    -0.131 C  
HETATM   16  C   UNL     1      -7.505   7.843  68.610  1.00  0.00    -0.099 C  
HETATM   17  C   UNL     1      -8.118   9.909  69.959  1.00  0.00    -0.193 C  
HETATM   18  C   UNL     1      -6.643  10.317  69.977  1.00  0.00    -0.127 C  
HETATM   19  C   UNL     1      -6.042   8.280  68.632  1.00  0.00    -0.045 C  
HETATM   20  C   UNL     1      -5.731   9.102  69.876  1.00  0.00    -0.031 C  
BRANCH  15  21
HETATM   21  C   UNL     1      -9.955   8.463  68.945  1.00  0.00    -0.194 C  
HETATM   22  O   UNL     1     -11.614  10.227  68.946  1.00  0.00    -0.180 OA 
HETATM   23  C   UNL     1     -10.950   9.418  69.577  1.00  0.00    -0.173 C  
HETATM   24  O   UNL     1     -11.052   9.296  70.918  1.00  0.00    -0.257 OA 
ENDBRANCH  15  21
ENDBRANCH  14  15
ENDBRANCH  12  14
ENDBRANCH   9  10
ENDBRANCH   7   9
ENDBRANCH   6   7
ENDBRANCH   4   6
TORSDOF 7
ENDMDL
MODEL      276
REMARK 921   NORMALIZED FREE ENERGY PREDICTED BY IDOCK:   -2.76 KCAL/MOL
REMARK 922        TOTAL FREE ENERGY PREDICTED BY IDOCK:   -5.52 KCAL/MOL
REMARK 923 INTER-LIGAND FREE ENERGY PREDICTED BY IDOCK:   -4.99 KCAL/MOL
REMARK 924 INTRA-LIGAND FREE ENERGY PREDICTED BY IDOCK:   -0.53 KCAL/MOL
REMARK 927      BINDING AFFINITY PREDICTED BY RF-SCORE:    0.00 PKD
ROOT
HETATM    1  C   UNL     1     -12.764  13.330  65.715  1.00  0.00    -0.300 C  
HETATM    2  C   UNL     1     -11.506  14.133  65.368  1.00  0.00    -0.325 C  
HETATM    3  C   UNL     1     -11.764  14.994  64.138  1.00  0.00    -0.125 C  
HETATM    4  C   UNL     1     -11.079  14.984  66.553  1.00  0.00    -0.329 C  
HETATM    5  O   UNL     1     -11.660  14.991  67.633  1.00  0.00    -0.339 OA 
ENDROOT
BRANCH   4   6
HETATM    6  O   UNL     1      -9.931  15.680  66.298  1.00  0.00    -0.260 OA 
BRANCH   6   7
HETATM    7  C   UNL     1      -8.744  14.892  66.471  1.00  0.00    -0.169 C  
HETATM    8  C   UNL     1      -7.633  15.770  67.046  1.00  0.00    -0.257 C  
BRANCH   7   9
HETATM    9  O   UNL     1      -8.887  13.872  67.475  1.00  0.00    -0.175 OA 
BRANCH   9  10
HETATM   10  C   UNL     1      -8.215  12.727  67.242  1.00  0.00    -0.181 C  
HETATM   11  O   UNL     1      -7.029  12.635  66.991  1.00  0.00    -0.076 OA 
HETATM   12  N   UNL     1      -9.084  11.690  67.437  1.00  0.00    -0.166 N  
HETATM   13  H   UNL     1     -10.056  11.902  67.662  1.00  0.00     0.000 HD 
BRANCH  12  14
HETATM   14  C   UNL     1      -8.679  10.304  67.337  1.00  0.00    -0.128 C  
BRANCH  14  15
HETATM   15  C   UNL     1      -9.346   9.374  68.405  1.00  0.00    -0.137 C  
HETATM   16  C   UNL     1     -10.686   8.796  67.875  1.00  0.00    -0.171 C  
HETATM   17  C   UNL     1      -8.358   8.211  68.713  1.00  0.00    -0.126 C  
HETATM   18  C   UNL     1      -8.219   7.195  67.577  1.00  0.00    -0.117 C  
HETATM   19  C   UNL     1     -10.517   7.785  66.743  1.00  0.00    -0.318 C  
HETATM   20  C   UNL     1      -9.578   6.656  67.148  1.00  0.00    -0.168 C  
BRANCH  15  21
HETATM   21  C   UNL     1      -9.597  10.210  69.695  1.00  0.00    -0.237 C  
HETATM   22  O   UNL     1     -11.361   9.269  71.061  1.00  0.00    -0.271 OA 
HETATM   23  C   UNL     1     -10.997  10.131  70.274  1.00  0.00    -0.317 C  
HETATM   24  O   UNL     1     -11.822  11.112  69.850  1.00  0.00    -0.298 OA 
ENDBRANCH  15  21
ENDBRANCH  14  15
ENDBRANCH  12  14
ENDBRANCH   9  10
ENDBRANCH   7   9
ENDBRANCH   6   7
ENDBRANCH   4   6
TORSDOF 7
ENDMDL
MODEL      277
REMARK 921   NORMALIZED FREE ENERGY PREDICTED BY IDOCK:   -2.74 KCAL/MOL
REMARK 922        TOTAL FREE ENERGY PREDICTED BY IDOCK:   -5.50 KCAL/MOL
REMARK 923 INTER-LIGAND FREE ENERGY PREDICTED BY IDOCK:   -5.28 KCAL/MOL
REMARK 924 INTRA-LIGAND FREE ENERGY PREDICTED BY IDOCK:   -0.21 KCAL/MOL
REMARK 927      BINDING AFFINITY PREDICTED BY RF-SCORE:    0.00 PKD
ROOT
HETATM    1  C   UNL     1     -11.987  13.429  65.461  1.00  0.00    -0.433 C  
HETATM    2  C   UNL     1     -10.629  12.830  65.841  1.00  0.00    -0.295 C  
HETATM    3  C   UNL     1      -9.742  13.903  66.459  1.00  0.00    -0.303 C  
HETATM    4  C   UNL     1     -10.817  11.660  66.794  1.00  0.00    -0.277 C  
HETATM    5  O   UNL     1     -11.912  11.256  67.172  1.00  0.00    -0.470 OA 
ENDROOT
BRANCH   4   6
HETATM    6  O   UNL     1      -9.630  11.067  67.120  1.00  0.00    -0.167 OA 
BRANCH   6   7
HETATM    7  C   UNL     1      -9.786   9.930  67.982  1.00  0.00    -0.140 C  
HETATM    8  C   UNL     1     -10.368   8.765  67.183  1.00  0.00    -0.364 C  
BRANCH   7   9
HETATM    9  O   UNL     1      -8.532   9.397  68.442  1.00  0.00    -0.118 OA 
BRANCH   9  10
HETATM   10  C   UNL     1      -8.518   8.960  69.718  1.00  0.00    -0.131 C  
HETATM   11  O   UNL     1      -8.694   9.644  70.708  1.00  0.00    -0.214 OA 
HETATM   12  N   UNL     1      -8.368   7.602  69.689  1.00  0.00    -0.128 N  
HETATM   13  H   UNL     1      -8.246   7.142  68.786  1.00  0.00     0.000 HD 
BRANCH  12  14
HETATM   14  C   UNL     1      -8.377   6.790  70.887  1.00  0.00    -0.128 C  
BRANCH  14  15
HETATM   15  C   UNL     1      -9.652   5.892  71.031  1.00  0.00    -0.197 C  
HETATM   16  C   UNL     1     -10.185   5.464  69.637  1.00  0.00    -0.345 C  
HETATM   17  C   UNL     1      -9.261   4.632  71.854  1.00  0.00    -0.175 C  
HETATM   18  C   UNL     1      -8.369   3.645  71.097  1.00  0.00    -0.086 C  
HETATM   19  C   UNL     1      -9.276   4.479  68.905  1.00  0.00    -0.190 C  
HETATM   20  C   UNL     1      -8.988   3.252  69.761  1.00  0.00    -0.174 C  
BRANCH  15  21
HETATM   21  C   UNL     1     -10.740   6.705  71.793  1.00  0.00    -0.257 C  
HETATM   22  O   UNL     1     -12.857   6.719  70.616  1.00  0.00    -0.138 OA 
HETATM   23  C   UNL     1     -11.837   7.311  70.936  1.00  0.00    -0.316 C  
HETATM   24  O   UNL     1     -11.594   8.583  70.554  1.00  0.00    -0.240 OA 
ENDBRANCH  15  21
ENDBRANCH  14  15
ENDBRANCH  12  14
ENDBRANCH   9  10
ENDBRANCH   7   9
ENDBRANCH   6   7
ENDBRANCH   4   6
TORSDOF 7
ENDMDL
MODEL      278
REMARK 921   NORMALIZED FREE ENERGY PREDICTED BY IDOCK:   -2.74 KCAL/MOL
REMARK 922        TOTAL FREE ENERGY PREDICTED BY IDOCK:   -5.50 KCAL/MOL
REMARK 923 INTER-LIGAND FREE ENERGY PREDICTED BY IDOCK:   -4.57 KCAL/MOL
REMARK 924 INTRA-LIGAND FREE ENERGY PREDICTED BY IDOCK:   -0.93 KCAL/MOL
REMARK 927      BINDING AFFINITY PREDICTED BY RF-SCORE:    0.00 PKD
ROOT
HETATM    1  C   UNL     1      -5.884   5.239  71.747  1.00  0.00    -0.024 C  
HETATM    2  C   UNL     1      -7.041   6.112  72.245  1.00  0.00    -0.084 C  
HETATM    3  C   UNL     1      -6.613   7.573  72.273  1.00  0.00    -0.055 C  
HETATM    4  C   UNL     1      -8.265   5.916  71.365  1.00  0.00    -0.123 C  
HETATM    5  O   UNL     1      -8.305   5.145  70.412  1.00  0.00    -0.101 OA 
ENDROOT
BRANCH   4   6
HETATM    6  O   UNL     1      -9.335   6.644  71.805  1.00  0.00    -0.149 OA 
BRANCH   6   7
HETATM    7  C   UNL     1     -10.585   6.193  71.261  1.00  0.00    -0.243 C  
HETATM    8  C   UNL     1     -11.548   5.875  72.404  1.00  0.00    -0.341 C  
BRANCH   7   9
HETATM    9  O   UNL     1     -11.286   7.219  70.538  1.00  0.00    -0.274 OA 
BRANCH   9  10
HETATM   10  C   UNL     1     -10.968   7.334  69.233  1.00  0.00    -0.098 C  
HETATM   11  O   UNL     1     -10.840   6.415  68.447  1.00  0.00    -0.258 OA 
HETATM   12  N   UNL     1     -10.913   8.667  68.936  1.00  0.00    -0.438 N  
HETATM   13  H   UNL     1     -11.057   9.342  69.687  1.00  0.00     0.000 HD 
BRANCH  12  14
HETATM   14  C   UNL     1     -10.660   9.158  67.598  1.00  0.00    -0.242 C  
BRANCH  14  15
HETATM   15  C   UNL     1      -9.796  10.463  67.559  1.00  0.00    -0.202 C  
HETATM   16  C   UNL     1     -10.210  11.363  66.363  1.00  0.00    -0.270 C  
HETATM   17  C   UNL     1     -10.021  11.228  68.895  1.00  0.00    -0.169 C  
HETATM   18  C   UNL     1     -11.405  11.871  69.019  1.00  0.00    -0.337 C  
HETATM   19  C   UNL     1     -11.594  11.992  66.514  1.00  0.00    -0.384 C  
HETATM   20  C   UNL     1     -11.709  12.764  67.823  1.00  0.00    -0.412 C  
BRANCH  15  21
HETATM   21  C   UNL     1      -8.299  10.056  67.429  1.00  0.00    -0.118 C  
HETATM   22  O   UNL     1      -7.669   8.374  69.053  1.00  0.00    -0.093 OA 
HETATM   23  C   UNL     1      -7.639   9.542  68.695  1.00  0.00    -0.080 C  
HETATM   24  O   UNL     1      -6.998  10.495  69.405  1.00  0.00    -0.073 OA 
ENDBRANCH  15  21
ENDBRANCH  14  15
ENDBRANCH  12  14
ENDBRANCH   9  10
ENDBRANCH   7   9
ENDBRANCH   6   7
ENDBRANCH   4   6
TORSDOF 7
ENDMDL
MODEL      279
REMARK 921   NORMALIZED FREE ENERGY PREDICTED BY IDOCK:   -2.73 KCAL/MOL
REMARK 922        TOTAL FREE ENERGY PREDICTED BY IDOCK:   -5.48 KCAL/MOL
REMARK 923 INTER-LIGAND FREE ENERGY PREDICTED BY IDOCK:   -4.75 KCAL/MOL
REMARK 924 INTRA-LIGAND FREE ENERGY PREDICTED BY IDOCK:   -0.73 KCAL/MOL
REMARK 927      BINDING AFFINITY PREDICTED BY RF-SCORE:    0.00 PKD
ROOT
HETATM    1  C   UNL     1     -13.594   9.180  72.553  1.00  0.00    -0.497 C  
HETATM    2  C   UNL     1     -12.437   9.702  71.694  1.00  0.00    -0.494 C  
HETATM    3  C   UNL     1     -12.249   8.805  70.476  1.00  0.00     0.171 C  
HETATM    4  C   UNL     1     -12.696  11.142  71.279  1.00  0.00    -0.426 C  
HETATM    5  O   UNL     1     -13.685  11.782  71.617  1.00  0.00     0.098 OA 
ENDROOT
BRANCH   4   6
HETATM    6  O   UNL     1     -11.662  11.659  70.550  1.00  0.00    -0.292 OA 
BRANCH   6   7
HETATM    7  C   UNL     1     -12.084  12.651  69.602  1.00  0.00    -0.213 C  
HETATM    8  C   UNL     1     -12.103  14.022  70.280  1.00  0.00    -0.425 C  
BRANCH   7   9
HETATM    9  O   UNL     1     -11.141  12.845  68.534  1.00  0.00    -0.240 OA 
BRANCH   9  10
HETATM   10  C   UNL     1     -11.159  11.909  67.564  1.00  0.00    -0.273 C  
HETATM   11  O   UNL     1     -11.712  12.009  66.486  1.00  0.00    -0.523 OA 
HETATM   12  N   UNL     1     -10.364  10.875  67.972  1.00  0.00    -0.178 N  
HETATM   13  H   UNL     1      -9.941  10.919  68.899  1.00  0.00     0.000 HD 
BRANCH  12  14
HETATM   14  C   UNL     1     -10.100   9.719  67.142  1.00  0.00    -0.211 C  
BRANCH  14  15
HETATM   15  C   UNL     1      -8.581   9.498  66.834  1.00  0.00    -0.132 C  
HETATM   16  C   UNL     1      -7.841   8.937  68.078  1.00  0.00    -0.102 C  
HETATM   17  C   UNL     1      -8.473   8.485  65.657  1.00  0.00    -0.170 C  
HETATM   18  C   UNL     1      -8.842   7.049  66.036  1.00  0.00    -0.155 C  
HETATM   19  C   UNL     1      -8.228   7.503  68.432  1.00  0.00    -0.125 C  
HETATM   20  C   UNL     1      -8.042   6.571  67.242  1.00  0.00    -0.113 C  
BRANCH  15  21
HETATM   21  C   UNL     1      -7.963  10.864  66.414  1.00  0.00    -0.157 C  
HETATM   22  O   UNL     1      -5.713  10.618  65.552  1.00  0.00    -0.118 OA 
HETATM   23  C   UNL     1      -6.449  10.951  66.469  1.00  0.00    -0.128 C  
HETATM   24  O   UNL     1      -5.970  11.443  67.632  1.00  0.00    -0.047 OA 
ENDBRANCH  15  21
ENDBRANCH  14  15
ENDBRANCH  12  14
ENDBRANCH   9  10
ENDBRANCH   7   9
ENDBRANCH   6   7
ENDBRANCH   4   6
TORSDOF 7
ENDMDL
MODEL      280
REMARK 921   NORMALIZED FREE ENERGY PREDICTED BY IDOCK:   -2.71 KCAL/MOL
REMARK 922        TOTAL FREE ENERGY PREDICTED BY IDOCK:   -5.46 KCAL/MOL
REMARK 923 INTER-LIGAND FREE ENERGY PREDICTED BY IDOCK:   -5.13 KCAL/MOL
REMARK 924 INTRA-LIGAND FREE ENERGY PREDICTED BY IDOCK:   -0.32 KCAL/MOL
REMARK 927      BINDING AFFINITY PREDICTED BY RF-SCORE:    0.00 PKD
ROOT
HETATM    1  C   UNL     1      -9.748   3.554  70.207  1.00  0.00    -0.165 C  
HETATM    2  C   UNL     1      -9.891   4.735  71.172  1.00  0.00    -0.260 C  
HETATM    3  C   UNL     1      -8.528   5.107  71.742  1.00  0.00    -0.125 C  
HETATM    4  C   UNL     1     -10.532   5.919  70.466  1.00  0.00    -0.254 C  
HETATM    5  O   UNL     1     -10.897   5.900  69.296  1.00  0.00    -0.306 OA 
ENDROOT
BRANCH   4   6
HETATM    6  O   UNL     1     -10.719   6.979  71.308  1.00  0.00    -0.219 OA 
BRANCH   6   7
HETATM    7  C   UNL     1     -11.731   7.889  70.851  1.00  0.00    -0.257 C  
HETATM    8  C   UNL     1     -12.974   7.745  71.730  1.00  0.00    -0.351 C  
BRANCH   7   9
HETATM    9  O   UNL     1     -11.374   9.269  71.040  1.00  0.00    -0.271 OA 
BRANCH   9  10
HETATM   10  C   UNL     1     -10.160   9.625  70.574  1.00  0.00    -0.274 C  
HETATM   11  O   UNL     1      -9.090   9.314  71.060  1.00  0.00    -0.239 OA 
HETATM   12  N   UNL     1     -10.349  10.313  69.408  1.00  0.00    -0.221 N  
HETATM   13  H   UNL     1     -11.304  10.496  69.097  1.00  0.00     0.000 HD 
BRANCH  12  14
HETATM   14  C   UNL     1      -9.250  10.792  68.598  1.00  0.00    -0.184 C  
BRANCH  14  15
HETATM   15  C   UNL     1      -9.500  10.664  67.057  1.00  0.00    -0.187 C  
HETATM   16  C   UNL     1     -11.018  10.718  66.738  1.00  0.00    -0.214 C  
HETATM   17  C   UNL     1      -8.773  11.846  66.353  1.00  0.00    -0.118 C  
HETATM   18  C   UNL     1      -9.433  13.208  66.581  1.00  0.00    -0.260 C  
HETATM   19  C   UNL     1     -11.650  12.088  66.974  1.00  0.00    -0.387 C  
HETATM   20  C   UNL     1     -10.909  13.176  66.207  1.00  0.00    -0.292 C  
BRANCH  15  21
HETATM   21  C   UNL     1      -8.899   9.311  66.575  1.00  0.00    -0.154 C  
HETATM   22  O   UNL     1      -6.892   9.624  65.258  1.00  0.00    -0.087 OA 
HETATM   23  C   UNL     1      -8.085   9.366  65.295  1.00  0.00    -0.124 C  
HETATM   24  O   UNL     1      -8.797   9.093  64.180  1.00  0.00    -0.185 OA 
ENDBRANCH  15  21
ENDBRANCH  14  15
ENDBRANCH  12  14
ENDBRANCH   9  10
ENDBRANCH   7   9
ENDBRANCH   6   7
ENDBRANCH   4   6
TORSDOF 7
ENDMDL
MODEL      281
REMARK 921   NORMALIZED FREE ENERGY PREDICTED BY IDOCK:   -2.71 KCAL/MOL
REMARK 922        TOTAL FREE ENERGY PREDICTED BY IDOCK:   -5.46 KCAL/MOL
REMARK 923 INTER-LIGAND FREE ENERGY PREDICTED BY IDOCK:   -4.52 KCAL/MOL
REMARK 924 INTRA-LIGAND FREE ENERGY PREDICTED BY IDOCK:   -0.94 KCAL/MOL
REMARK 927      BINDING AFFINITY PREDICTED BY RF-SCORE:    0.00 PKD
ROOT
HETATM    1  C   UNL     1      -9.478   4.875  66.128  1.00  0.00    -0.165 C  
HETATM    2  C   UNL     1      -9.529   6.331  66.601  1.00  0.00    -0.178 C  
HETATM    3  C   UNL     1     -10.934   6.672  67.082  1.00  0.00    -0.478 C  
HETATM    4  C   UNL     1      -8.502   6.566  67.699  1.00  0.00    -0.117 C  
HETATM    5  O   UNL     1      -7.736   5.703  68.112  1.00  0.00    -0.087 OA 
ENDROOT
BRANCH   4   6
HETATM    6  O   UNL     1      -8.485   7.867  68.115  1.00  0.00    -0.123 OA 
BRANCH   6   7
HETATM    7  C   UNL     1      -8.068   8.015  69.481  1.00  0.00    -0.120 C  
HETATM    8  C   UNL     1      -6.657   8.602  69.518  1.00  0.00    -0.040 C  
BRANCH   7   9
HETATM    9  O   UNL     1      -8.833   8.998  70.199  1.00  0.00    -0.152 OA 
BRANCH   9  10
HETATM   10  C   UNL     1      -9.920   9.473  69.558  1.00  0.00    -0.194 C  
HETATM   11  O   UNL     1     -11.066   9.104  69.729  1.00  0.00    -0.215 OA 
HETATM   12  N   UNL     1      -9.513  10.505  68.760  1.00  0.00    -0.172 N  
HETATM   13  H   UNL     1      -8.518  10.728  68.718  1.00  0.00     0.000 HD 
BRANCH  12  14
HETATM   14  C   UNL     1     -10.436  11.294  67.973  1.00  0.00    -0.188 C  
BRANCH  14  15
HETATM   15  C   UNL     1      -9.747  12.431  67.146  1.00  0.00    -0.207 C  
HETATM   16  C   UNL     1      -8.816  11.833  66.056  1.00  0.00    -0.057 C  
HETATM   17  C   UNL     1     -10.864  13.281  66.474  1.00  0.00    -0.288 C  
HETATM   18  C   UNL     1     -11.586  12.567  65.329  1.00  0.00    -0.406 C  
HETATM   19  C   UNL     1      -9.563  11.128  64.926  1.00  0.00    -0.279 C  
HETATM   20  C   UNL     1     -10.598  12.048  64.291  1.00  0.00    -0.377 C  
BRANCH  15  21
HETATM   21  C   UNL     1      -8.923  13.319  68.124  1.00  0.00    -0.195 C  
HETATM   22  O   UNL     1      -9.111  15.675  67.593  1.00  0.00    -0.189 OA 
HETATM   23  C   UNL     1      -8.446  14.649  67.571  1.00  0.00    -0.188 C  
HETATM   24  O   UNL     1      -7.201  14.611  67.048  1.00  0.00    -0.105 OA 
ENDBRANCH  15  21
ENDBRANCH  14  15
ENDBRANCH  12  14
ENDBRANCH   9  10
ENDBRANCH   7   9
ENDBRANCH   6   7
ENDBRANCH   4   6
TORSDOF 7
ENDMDL
MODEL      282
REMARK 921   NORMALIZED FREE ENERGY PREDICTED BY IDOCK:   -2.71 KCAL/MOL
REMARK 922        TOTAL FREE ENERGY PREDICTED BY IDOCK:   -5.45 KCAL/MOL
REMARK 923 INTER-LIGAND FREE ENERGY PREDICTED BY IDOCK:   -4.68 KCAL/MOL
REMARK 924 INTRA-LIGAND FREE ENERGY PREDICTED BY IDOCK:   -0.77 KCAL/MOL
REMARK 927      BINDING AFFINITY PREDICTED BY RF-SCORE:    0.00 PKD
ROOT
HETATM    1  C   UNL     1     -13.811   8.951  72.580  1.00  0.00    -0.393 C  
HETATM    2  C   UNL     1     -12.407   8.795  71.988  1.00  0.00    -0.444 C  
HETATM    3  C   UNL     1     -12.322   7.504  71.185  1.00  0.00    -0.321 C  
HETATM    4  C   UNL     1     -12.060  10.000  71.127  1.00  0.00    -0.380 C  
HETATM    5  O   UNL     1     -12.806  10.959  70.964  1.00  0.00    -0.368 OA 
ENDROOT
BRANCH   4   6
HETATM    6  O   UNL     1     -10.794   9.920  70.619  1.00  0.00    -0.301 OA 
BRANCH   6   7
HETATM    7  C   UNL     1     -10.711  10.336  69.248  1.00  0.00    -0.234 C  
HETATM    8  C   UNL     1     -10.124  11.746  69.182  1.00  0.00     0.099 C  
BRANCH   7   9
HETATM    9  O   UNL     1      -9.765   9.569  68.483  1.00  0.00    -0.147 OA 
BRANCH   9  10
HETATM   10  C   UNL     1     -10.216   8.389  68.013  1.00  0.00    -0.212 C  
HETATM   11  O   UNL     1     -10.680   8.192  66.906  1.00  0.00    -0.309 OA 
HETATM   12  N   UNL     1      -9.969   7.441  68.966  1.00  0.00    -0.171 N  
HETATM   13  H   UNL     1      -9.558   7.734  69.853  1.00  0.00     0.000 HD 
BRANCH  12  14
HETATM   14  C   UNL     1     -10.266   6.038  68.768  1.00  0.00    -0.188 C  
BRANCH  14  15
HETATM   15  C   UNL     1      -9.274   5.074  69.502  1.00  0.00    -0.167 C  
HETATM   16  C   UNL     1      -9.308   3.659  68.865  1.00  0.00    -0.235 C  
HETATM   17  C   UNL     1      -7.843   5.672  69.377  1.00  0.00    -0.088 C  
HETATM   18  C   UNL     1      -7.251   5.583  67.969  1.00  0.00    -0.072 C  
HETATM   19  C   UNL     1      -8.711   3.599  67.461  1.00  0.00    -0.123 C  
HETATM   20  C   UNL     1      -7.292   4.154  67.441  1.00  0.00    -0.069 C  
BRANCH  15  21
HETATM   21  C   UNL     1      -9.686   4.996  71.002  1.00  0.00    -0.249 C  
HETATM   22  O   UNL     1      -8.166   3.623  72.293  1.00  0.00    -0.080 OA 
HETATM   23  C   UNL     1      -9.250   3.747  71.745  1.00  0.00    -0.118 C  
HETATM   24  O   UNL     1     -10.179   2.766  71.758  1.00  0.00    -0.108 OA 
ENDBRANCH  15  21
ENDBRANCH  14  15
ENDBRANCH  12  14
ENDBRANCH   9  10
ENDBRANCH   7   9
ENDBRANCH   6   7
ENDBRANCH   4   6
TORSDOF 7
ENDMDL
MODEL      283
REMARK 921   NORMALIZED FREE ENERGY PREDICTED BY IDOCK:   -2.70 KCAL/MOL
REMARK 922        TOTAL FREE ENERGY PREDICTED BY IDOCK:   -5.44 KCAL/MOL
REMARK 923 INTER-LIGAND FREE ENERGY PREDICTED BY IDOCK:   -4.93 KCAL/MOL
REMARK 924 INTRA-LIGAND FREE ENERGY PREDICTED BY IDOCK:   -0.51 KCAL/MOL
REMARK 927      BINDING AFFINITY PREDICTED BY RF-SCORE:    0.00 PKD
ROOT
HETATM    1  C   UNL     1     -10.911  11.343  63.639  1.00  0.00    -0.459 C  
HETATM    2  C   UNL     1     -10.002  10.965  64.813  1.00  0.00    -0.366 C  
HETATM    3  C   UNL     1      -8.758  10.253  64.299  1.00  0.00    -0.217 C  
HETATM    4  C   UNL     1      -9.633  12.203  65.615  1.00  0.00    -0.165 C  
HETATM    5  O   UNL     1     -10.037  13.331  65.354  1.00  0.00    -0.295 OA 
ENDROOT
BRANCH   4   6
HETATM    6  O   UNL     1      -8.861  11.901  66.701  1.00  0.00    -0.189 OA 
BRANCH   6   7
HETATM    7  C   UNL     1      -9.587  11.944  67.938  1.00  0.00    -0.193 C  
HETATM    8  C   UNL     1      -9.540  13.363  68.503  1.00  0.00    -0.141 C  
BRANCH   7   9
HETATM    9  O   UNL     1     -10.998  11.722  67.770  1.00  0.00    -0.202 OA 
BRANCH   9  10
HETATM   10  C   UNL     1     -11.494  10.629  68.384  1.00  0.00    -0.259 C  
HETATM   11  O   UNL     1     -12.475  10.597  69.101  1.00  0.00    -0.317 OA 
HETATM   12  N   UNL     1     -10.754   9.554  67.977  1.00  0.00    -0.367 N  
HETATM   13  H   UNL     1      -9.960   9.713  67.356  1.00  0.00     0.000 HD 
BRANCH  12  14
HETATM   14  C   UNL     1     -11.052   8.199  68.391  1.00  0.00     0.399 C  
BRANCH  14  15
HETATM   15  C   UNL     1      -9.931   7.547  69.268  1.00  0.00    -0.179 C  
HETATM   16  C   UNL     1      -9.075   8.636  69.969  1.00  0.00    -0.157 C  
HETATM   17  C   UNL     1     -10.619   6.649  70.337  1.00  0.00    -0.266 C  
HETATM   18  C   UNL     1     -11.343   7.433  71.434  1.00  0.00    -0.282 C  
HETATM   19  C   UNL     1      -9.823   9.400  71.060  1.00  0.00    -0.317 C  
HETATM   20  C   UNL     1     -10.418   8.449  72.091  1.00  0.00    -0.396 C  
BRANCH  15  21
HETATM   21  C   UNL     1      -9.032   6.673  68.343  1.00  0.00    -0.123 C  
HETATM   22  O   UNL     1      -9.376   7.178  66.000  1.00  0.00    -0.094 OA 
HETATM   23  C   UNL     1      -9.564   6.426  66.944  1.00  0.00    -0.149 C  
HETATM   24  O   UNL     1     -10.271   5.281  66.820  1.00  0.00    -0.195 OA 
ENDBRANCH  15  21
ENDBRANCH  14  15
ENDBRANCH  12  14
ENDBRANCH   9  10
ENDBRANCH   7   9
ENDBRANCH   6   7
ENDBRANCH   4   6
TORSDOF 7
ENDMDL
MODEL      284
REMARK 921   NORMALIZED FREE ENERGY PREDICTED BY IDOCK:   -2.70 KCAL/MOL
REMARK 922        TOTAL FREE ENERGY PREDICTED BY IDOCK:   -5.44 KCAL/MOL
REMARK 923 INTER-LIGAND FREE ENERGY PREDICTED BY IDOCK:   -4.83 KCAL/MOL
REMARK 924 INTRA-LIGAND FREE ENERGY PREDICTED BY IDOCK:   -0.61 KCAL/MOL
REMARK 927      BINDING AFFINITY PREDICTED BY RF-SCORE:    0.00 PKD
ROOT
HETATM    1  C   UNL     1      -7.411  10.317  65.448  1.00  0.00    -0.145 C  
HETATM    2  C   UNL     1      -8.822  10.140  66.017  1.00  0.00    -0.160 C  
HETATM    3  C   UNL     1      -9.809  10.999  65.238  1.00  0.00    -0.309 C  
HETATM    4  C   UNL     1      -9.225   8.673  65.981  1.00  0.00    -0.216 C  
HETATM    5  O   UNL     1      -8.497   7.776  65.572  1.00  0.00    -0.142 OA 
ENDROOT
BRANCH   4   6
HETATM    6  O   UNL     1     -10.461   8.468  66.526  1.00  0.00    -0.256 OA 
BRANCH   6   7
HETATM    7  C   UNL     1     -10.408   7.934  67.857  1.00  0.00    -0.221 C  
HETATM    8  C   UNL     1     -10.694   6.433  67.812  1.00  0.00    -0.377 C  
BRANCH   7   9
HETATM    9  O   UNL     1      -9.090   7.983  68.430  1.00  0.00    -0.137 OA 
BRANCH   9  10
HETATM   10  C   UNL     1      -8.959   8.759  69.525  1.00  0.00    -0.145 C  
HETATM   11  O   UNL     1      -9.040   9.972  69.554  1.00  0.00    -0.199 OA 
HETATM   12  N   UNL     1      -8.816   7.932  70.604  1.00  0.00    -0.138 N  
HETATM   13  H   UNL     1      -8.779   6.925  70.448  1.00  0.00     0.000 HD 
BRANCH  12  14
HETATM   14  C   UNL     1      -8.717   8.429  71.960  1.00  0.00    -0.202 C  
BRANCH  14  15
HETATM   15  C   UNL     1      -9.211   7.411  73.042  1.00  0.00    -0.211 C  
HETATM   16  C   UNL     1      -8.776   5.966  72.680  1.00  0.00    -0.122 C  
HETATM   17  C   UNL     1      -8.587   7.821  74.407  1.00  0.00    -0.221 C  
HETATM   18  C   UNL     1      -7.083   7.554  74.510  1.00  0.00    -0.132 C  
HETATM   19  C   UNL     1      -7.271   5.728  72.791  1.00  0.00    -0.090 C  
HETATM   20  C   UNL     1      -6.754   6.105  74.174  1.00  0.00    -0.075 C  
BRANCH  15  21
HETATM   21  C   UNL     1     -10.764   7.498  73.124  1.00  0.00    -0.452 C  
HETATM   22  O   UNL     1     -11.816   5.349  72.751  1.00  0.00    -0.268 OA 
HETATM   23  C   UNL     1     -11.529   6.458  72.326  1.00  0.00    -0.298 C  
HETATM   24  O   UNL     1     -11.879   6.866  71.087  1.00  0.00    -0.311 OA 
ENDBRANCH  15  21
ENDBRANCH  14  15
ENDBRANCH  12  14
ENDBRANCH   9  10
ENDBRANCH   7   9
ENDBRANCH   6   7
ENDBRANCH   4   6
TORSDOF 7
ENDMDL
MODEL      285
REMARK 921   NORMALIZED FREE ENERGY PREDICTED BY IDOCK:   -2.70 KCAL/MOL
REMARK 922        TOTAL FREE ENERGY PREDICTED BY IDOCK:   -5.43 KCAL/MOL
REMARK 923 INTER-LIGAND FREE ENERGY PREDICTED BY IDOCK:   -4.87 KCAL/MOL
REMARK 924 INTRA-LIGAND FREE ENERGY PREDICTED BY IDOCK:   -0.56 KCAL/MOL
REMARK 927      BINDING AFFINITY PREDICTED BY RF-SCORE:    0.00 PKD
ROOT
HETATM    1  C   UNL     1     -12.606  12.247  64.228  1.00  0.00    -0.470 C  
HETATM    2  C   UNL     1     -11.605  13.174  64.926  1.00  0.00    -0.356 C  
HETATM    3  C   UNL     1     -11.995  14.628  64.695  1.00  0.00    -0.472 C  
HETATM    4  C   UNL     1     -11.536  12.854  66.411  1.00  0.00    -0.371 C  
HETATM    5  O   UNL     1     -12.182  11.960  66.947  1.00  0.00    -0.493 OA 
ENDROOT
BRANCH   4   6
HETATM    6  O   UNL     1     -10.617  13.629  67.061  1.00  0.00    -0.271 OA 
BRANCH   6   7
HETATM    7  C   UNL     1      -9.262  13.274  66.750  1.00  0.00    -0.233 C  
HETATM    8  C   UNL     1      -8.337  14.434  67.121  1.00  0.00    -0.214 C  
BRANCH   7   9
HETATM    9  O   UNL     1      -8.760  12.202  67.566  1.00  0.00    -0.158 OA 
BRANCH   9  10
HETATM   10  C   UNL     1      -8.583  11.023  66.937  1.00  0.00    -0.143 C  
HETATM   11  O   UNL     1      -7.897  10.837  65.950  1.00  0.00    -0.158 OA 
HETATM   12  N   UNL     1      -9.233  10.064  67.663  1.00  0.00    -0.137 N  
HETATM   13  H   UNL     1      -9.764  10.349  68.486  1.00  0.00     0.000 HD 
BRANCH  12  14
HETATM   14  C   UNL     1      -9.198   8.661  67.310  1.00  0.00    -0.140 C  
BRANCH  14  15
HETATM   15  C   UNL     1      -8.833   7.719  68.507  1.00  0.00    -0.130 C  
HETATM   16  C   UNL     1      -8.997   8.460  69.861  1.00  0.00    -0.142 C  
HETATM   17  C   UNL     1      -9.790   6.492  68.460  1.00  0.00    -0.140 C  
HETATM   18  C   UNL     1     -11.234   6.813  68.851  1.00  0.00    -0.196 C  
HETATM   19  C   UNL     1     -10.448   8.767  70.226  1.00  0.00    -0.231 C  
HETATM   20  C   UNL     1     -11.300   7.504  70.208  1.00  0.00    -0.219 C  
BRANCH  15  21
HETATM   21  C   UNL     1      -7.360   7.248  68.328  1.00  0.00    -0.100 C  
HETATM   22  O   UNL     1      -6.423   6.389  70.389  1.00  0.00    -0.041 OA 
HETATM   23  C   UNL     1      -6.494   7.296  69.573  1.00  0.00    -0.036 C  
HETATM   24  O   UNL     1      -5.787   8.439  69.706  1.00  0.00    -0.026 OA 
ENDBRANCH  15  21
ENDBRANCH  14  15
ENDBRANCH  12  14
ENDBRANCH   9  10
ENDBRANCH   7   9
ENDBRANCH   6   7
ENDBRANCH   4   6
TORSDOF 7
ENDMDL
MODEL      286
REMARK 921   NORMALIZED FREE ENERGY PREDICTED BY IDOCK:   -2.68 KCAL/MOL
REMARK 922        TOTAL FREE ENERGY PREDICTED BY IDOCK:   -5.41 KCAL/MOL
REMARK 923 INTER-LIGAND FREE ENERGY PREDICTED BY IDOCK:   -5.84 KCAL/MOL
REMARK 924 INTRA-LIGAND FREE ENERGY PREDICTED BY IDOCK:    0.43 KCAL/MOL
REMARK 927      BINDING AFFINITY PREDICTED BY RF-SCORE:    0.00 PKD
ROOT
HETATM    1  C   UNL     1     -10.844  14.335  67.220  1.00  0.00    -0.285 C  
HETATM    2  C   UNL     1     -11.339  13.590  68.464  1.00  0.00    -0.327 C  
HETATM    3  C   UNL     1     -12.401  14.417  69.177  1.00  0.00    -0.156 C  
HETATM    4  C   UNL     1     -11.877  12.220  68.080  1.00  0.00    -0.311 C  
HETATM    5  O   UNL     1     -11.882  11.786  66.934  1.00  0.00    -0.591 OA 
ENDROOT
BRANCH   4   6
HETATM    6  O   UNL     1     -12.285  11.505  69.171  1.00  0.00    -0.298 OA 
BRANCH   6   7
HETATM    7  C   UNL     1     -11.193  11.007  69.958  1.00  0.00    -0.224 C  
HETATM    8  C   UNL     1     -11.663   9.797  70.766  1.00  0.00    -0.407 C  
BRANCH   7   9
HETATM    9  O   UNL     1     -10.131  10.456  69.161  1.00  0.00    -0.200 OA 
BRANCH   9  10
HETATM   10  C   UNL     1      -9.427   9.461  69.736  1.00  0.00    -0.202 C  
HETATM   11  O   UNL     1      -8.770   9.549  70.755  1.00  0.00    -0.204 OA 
HETATM   12  N   UNL     1      -9.664   8.319  69.023  1.00  0.00    -0.164 N  
HETATM   13  H   UNL     1     -10.250   8.375  68.190  1.00  0.00     0.000 HD 
BRANCH  12  14
HETATM   14  C   UNL     1      -9.116   7.034  69.402  1.00  0.00    -0.145 C  
BRANCH  14  15
HETATM   15  C   UNL     1     -10.203   5.941  69.675  1.00  0.00    -0.281 C  
HETATM   16  C   UNL     1      -9.627   4.519  69.437  1.00  0.00    -0.264 C  
HETATM   17  C   UNL     1     -10.663   6.081  71.155  1.00  0.00    -0.323 C  
HETATM   18  C   UNL     1      -9.619   5.628  72.177  1.00  0.00    -0.170 C  
HETATM   19  C   UNL     1      -8.589   4.093  70.472  1.00  0.00    -0.111 C  
HETATM   20  C   UNL     1      -9.140   4.211  71.888  1.00  0.00    -0.165 C  
BRANCH  15  21
HETATM   21  C   UNL     1     -11.406   6.198  68.720  1.00  0.00    -0.152 C  
HETATM   22  O   UNL     1     -10.983   5.379  66.481  1.00  0.00    -0.239 OA 
HETATM   23  C   UNL     1     -11.068   6.327  67.247  1.00  0.00    -0.296 C  
HETATM   24  O   UNL     1     -10.871   7.600  66.839  1.00  0.00    -0.328 OA 
ENDBRANCH  15  21
ENDBRANCH  14  15
ENDBRANCH  12  14
ENDBRANCH   9  10
ENDBRANCH   7   9
ENDBRANCH   6   7
ENDBRANCH   4   6
TORSDOF 7
ENDMDL
MODEL      287
REMARK 921   NORMALIZED FREE ENERGY PREDICTED BY IDOCK:   -2.67 KCAL/MOL
REMARK 922        TOTAL FREE ENERGY PREDICTED BY IDOCK:   -5.39 KCAL/MOL
REMARK 923 INTER-LIGAND FREE ENERGY PREDICTED BY IDOCK:   -4.94 KCAL/MOL
REMARK 924 INTRA-LIGAND FREE ENERGY PREDICTED BY IDOCK:   -0.45 KCAL/MOL
REMARK 927      BINDING AFFINITY PREDICTED BY RF-SCORE:    0.00 PKD
ROOT
HETATM    1  C   UNL     1     -12.396  14.120  66.745  1.00  0.00    -0.333 C  
HETATM    2  C   UNL     1     -11.647  12.951  66.096  1.00  0.00    -0.423 C  
HETATM    3  C   UNL     1     -12.310  12.577  64.777  1.00  0.00    -0.544 C  
HETATM    4  C   UNL     1     -10.184  13.312  65.891  1.00  0.00    -0.293 C  
HETATM    5  O   UNL     1      -9.691  14.382  66.227  1.00  0.00    -0.286 OA 
ENDROOT
BRANCH   4   6
HETATM    6  O   UNL     1      -9.471  12.275  65.357  1.00  0.00    -0.124 OA 
BRANCH   6   7
HETATM    7  C   UNL     1      -9.065  11.308  66.336  1.00  0.00    -0.192 C  
HETATM    8  C   UNL     1      -7.768  10.640  65.881  1.00  0.00    -0.146 C  
BRANCH   7   9
HETATM    9  O   UNL     1      -8.686  11.901  67.590  1.00  0.00    -0.150 OA 
BRANCH   9  10
HETATM   10  C   UNL     1      -8.331  11.036  68.561  1.00  0.00    -0.149 C  
HETATM   11  O   UNL     1      -7.340  11.118  69.262  1.00  0.00    -0.121 OA 
HETATM   12  N   UNL     1      -9.330  10.111  68.678  1.00  0.00    -0.154 N  
HETATM   13  H   UNL     1     -10.122  10.162  68.037  1.00  0.00     0.000 HD 
BRANCH  12  14
HETATM   14  C   UNL     1      -9.311   9.063  69.677  1.00  0.00    -0.167 C  
BRANCH  14  15
HETATM   15  C   UNL     1      -8.798   7.686  69.136  1.00  0.00    -0.139 C  
HETATM   16  C   UNL     1      -9.604   6.515  69.758  1.00  0.00    -0.161 C  
HETATM   17  C   UNL     1      -8.974   7.683  67.590  1.00  0.00    -0.127 C  
HETATM   18  C   UNL     1     -10.430   7.583  67.129  1.00  0.00    -0.407 C  
HETATM   19  C   UNL     1     -11.052   6.439  69.280  1.00  0.00    -0.437 C  
HETATM   20  C   UNL     1     -11.129   6.386  67.759  1.00  0.00    -0.376 C  
BRANCH  15  21
HETATM   21  C   UNL     1      -7.289   7.550  69.497  1.00  0.00    -0.084 C  
HETATM   22  O   UNL     1      -6.243   5.692  68.348  1.00  0.00    -0.027 OA 
HETATM   23  C   UNL     1      -6.704   6.154  69.381  1.00  0.00    -0.060 C  
HETATM   24  O   UNL     1      -6.726   5.454  70.536  1.00  0.00    -0.043 OA 
ENDBRANCH  15  21
ENDBRANCH  14  15
ENDBRANCH  12  14
ENDBRANCH   9  10
ENDBRANCH   7   9
ENDBRANCH   6   7
ENDBRANCH   4   6
TORSDOF 7
ENDMDL
MODEL      288
REMARK 921   NORMALIZED FREE ENERGY PREDICTED BY IDOCK:   -2.67 KCAL/MOL
REMARK 922        TOTAL FREE ENERGY PREDICTED BY IDOCK:   -5.39 KCAL/MOL
REMARK 923 INTER-LIGAND FREE ENERGY PREDICTED BY IDOCK:   -5.00 KCAL/MOL
REMARK 924 INTRA-LIGAND FREE ENERGY PREDICTED BY IDOCK:   -0.39 KCAL/MOL
REMARK 927      BINDING AFFINITY PREDICTED BY RF-SCORE:    0.00 PKD
ROOT
HETATM    1  C   UNL     1      -8.733   9.500  63.843  1.00  0.00    -0.238 C  
HETATM    2  C   UNL     1      -8.687   8.873  65.241  1.00  0.00    -0.220 C  
HETATM    3  C   UNL     1      -8.483   7.368  65.129  1.00  0.00    -0.033 C  
HETATM    4  C   UNL     1      -7.587   9.515  66.071  1.00  0.00    -0.100 C  
HETATM    5  O   UNL     1      -6.867  10.421  65.667  1.00  0.00    -0.126 OA 
ENDROOT
BRANCH   4   6
HETATM    6  O   UNL     1      -7.545   9.015  67.342  1.00  0.00    -0.088 OA 
BRANCH   6   7
HETATM    7  C   UNL     1      -8.195   9.862  68.302  1.00  0.00    -0.109 C  
HETATM    8  C   UNL     1      -7.365  11.130  68.502  1.00  0.00    -0.104 C  
BRANCH   7   9
HETATM    9  O   UNL     1      -9.451  10.383  67.833  1.00  0.00    -0.138 OA 
BRANCH   9  10
HETATM   10  C   UNL     1     -10.550   9.734  68.268  1.00  0.00    -0.229 C  
HETATM   11  O   UNL     1     -11.698   9.991  67.960  1.00  0.00    -0.086 OA 
HETATM   12  N   UNL     1     -10.134   8.683  69.035  1.00  0.00    -0.194 N  
HETATM   13  H   UNL     1      -9.135   8.566  69.206  1.00  0.00     0.000 HD 
BRANCH  12  14
HETATM   14  C   UNL     1     -11.054   7.727  69.615  1.00  0.00    -0.042 C  
BRANCH  14  15
HETATM   15  C   UNL     1     -11.104   7.768  71.179  1.00  0.00    -0.269 C  
HETATM   16  C   UNL     1     -11.067   9.233  71.694  1.00  0.00    -0.438 C  
HETATM   17  C   UNL     1     -12.424   7.084  71.636  1.00  0.00    -0.413 C  
HETATM   18  C   UNL     1     -13.684   7.903  71.344  1.00  0.00    -0.328 C  
HETATM   19  C   UNL     1     -12.336  10.026  71.390  1.00  0.00    -0.512 C  
HETATM   20  C   UNL     1     -13.573   9.310  71.917  1.00  0.00    -0.494 C  
BRANCH  15  21
HETATM   21  C   UNL     1      -9.880   6.977  71.729  1.00  0.00    -0.169 C  
HETATM   22  O   UNL     1     -10.331   5.995  73.896  1.00  0.00    -0.240 OA 
HETATM   23  C   UNL     1      -9.785   6.869  73.240  1.00  0.00    -0.185 C  
HETATM   24  O   UNL     1      -9.028   7.831  73.811  1.00  0.00    -0.243 OA 
ENDBRANCH  15  21
ENDBRANCH  14  15
ENDBRANCH  12  14
ENDBRANCH   9  10
ENDBRANCH   7   9
ENDBRANCH   6   7
ENDBRANCH   4   6
TORSDOF 7
ENDMDL
MODEL      289
REMARK 921   NORMALIZED FREE ENERGY PREDICTED BY IDOCK:   -2.62 KCAL/MOL
REMARK 922        TOTAL FREE ENERGY PREDICTED BY IDOCK:   -5.33 KCAL/MOL
REMARK 923 INTER-LIGAND FREE ENERGY PREDICTED BY IDOCK:   -4.46 KCAL/MOL
REMARK 924 INTRA-LIGAND FREE ENERGY PREDICTED BY IDOCK:   -0.87 KCAL/MOL
REMARK 927      BINDING AFFINITY PREDICTED BY RF-SCORE:    0.00 PKD
ROOT
HETATM    1  C   UNL     1      -8.610   8.973  62.496  1.00  0.00    -0.210 C  
HETATM    2  C   UNL     1      -7.903   9.603  63.699  1.00  0.00    -0.138 C  
HETATM    3  C   UNL     1      -6.692  10.400  63.231  1.00  0.00    -0.058 C  
HETATM    4  C   UNL     1      -8.869  10.481  64.479  1.00  0.00    -0.200 C  
HETATM    5  O   UNL     1     -10.049  10.629  64.181  1.00  0.00    -0.333 OA 
ENDROOT
BRANCH   4   6
HETATM    6  O   UNL     1      -8.287  11.025  65.589  1.00  0.00    -0.149 OA 
BRANCH   6   7
HETATM    7  C   UNL     1      -8.450  10.216  66.764  1.00  0.00    -0.126 C  
HETATM    8  C   UNL     1      -7.076   9.774  67.269  1.00  0.00    -0.085 C  
BRANCH   7   9
HETATM    9  O   UNL     1      -8.973  10.949  67.884  1.00  0.00    -0.136 OA 
BRANCH   9  10
HETATM   10  C   UNL     1      -9.862  10.287  68.651  1.00  0.00    -0.173 C  
HETATM   11  O   UNL     1     -10.973   9.930  68.309  1.00  0.00    -0.240 OA 
HETATM   12  N   UNL     1      -9.253  10.005  69.842  1.00  0.00    -0.350 N  
HETATM   13  H   UNL     1      -8.306  10.348  70.000  1.00  0.00     0.000 HD 
BRANCH  12  14
HETATM   14  C   UNL     1      -9.899   9.238  70.886  1.00  0.00    -0.293 C  
BRANCH  14  15
HETATM   15  C   UNL     1      -9.538   7.715  70.865  1.00  0.00    -0.167 C  
HETATM   16  C   UNL     1      -9.516   7.133  72.305  1.00  0.00    -0.157 C  
HETATM   17  C   UNL     1     -10.614   6.978  70.017  1.00  0.00    -0.251 C  
HETATM   18  C   UNL     1     -11.983   6.882  70.695  1.00  0.00    -0.400 C  
HETATM   19  C   UNL     1     -10.895   7.048  72.956  1.00  0.00    -0.342 C  
HETATM   20  C   UNL     1     -11.870   6.266  72.084  1.00  0.00    -0.365 C  
BRANCH  15  21
HETATM   21  C   UNL     1      -8.139   7.552  70.201  1.00  0.00    -0.119 C  
HETATM   22  O   UNL     1      -6.454   6.844  71.790  1.00  0.00    -0.048 OA 
HETATM   23  C   UNL     1      -6.944   7.739  71.118  1.00  0.00    -0.049 C  
HETATM   24  O   UNL     1      -6.451   8.997  71.127  1.00  0.00    -0.065 OA 
ENDBRANCH  15  21
ENDBRANCH  14  15
ENDBRANCH  12  14
ENDBRANCH   9  10
ENDBRANCH   7   9
ENDBRANCH   6   7
ENDBRANCH   4   6
TORSDOF 7
ENDMDL
MODEL      290
REMARK 921   NORMALIZED FREE ENERGY PREDICTED BY IDOCK:   -2.62 KCAL/MOL
REMARK 922        TOTAL FREE ENERGY PREDICTED BY IDOCK:   -5.33 KCAL/MOL
REMARK 923 INTER-LIGAND FREE ENERGY PREDICTED BY IDOCK:   -4.68 KCAL/MOL
REMARK 924 INTRA-LIGAND FREE ENERGY PREDICTED BY IDOCK:   -0.65 KCAL/MOL
REMARK 927      BINDING AFFINITY PREDICTED BY RF-SCORE:    0.00 PKD
ROOT
HETATM    1  C   UNL     1     -10.339   1.687  62.810  1.00  0.00    -0.107 C  
HETATM    2  C   UNL     1      -9.372   2.514  63.664  1.00  0.00    -0.103 C  
HETATM    3  C   UNL     1      -8.183   2.956  62.821  1.00  0.00    -0.074 C  
HETATM    4  C   UNL     1     -10.091   3.710  64.268  1.00  0.00    -0.212 C  
HETATM    5  O   UNL     1     -11.283   3.945  64.100  1.00  0.00    -0.328 OA 
ENDROOT
BRANCH   4   6
HETATM    6  O   UNL     1      -9.272   4.447  65.076  1.00  0.00    -0.145 OA 
BRANCH   6   7
HETATM    7  C   UNL     1      -9.789   4.606  66.406  1.00  0.00    -0.225 C  
HETATM    8  C   UNL     1      -9.390   3.397  67.252  1.00  0.00    -0.237 C  
BRANCH   7   9
HETATM    9  O   UNL     1      -9.183   5.698  67.118  1.00  0.00    -0.114 OA 
BRANCH   9  10
HETATM   10  C   UNL     1      -9.999   6.732  67.404  1.00  0.00    -0.148 C  
HETATM   11  O   UNL     1     -10.849   6.751  68.273  1.00  0.00    -0.234 OA 
HETATM   12  N   UNL     1      -9.633   7.782  66.608  1.00  0.00    -0.210 N  
HETATM   13  H   UNL     1      -8.888   7.641  65.925  1.00  0.00     0.000 HD 
BRANCH  12  14
HETATM   14  C   UNL     1     -10.259   9.084  66.697  1.00  0.00    -0.263 C  
BRANCH  14  15
HETATM   15  C   UNL     1      -9.666  10.137  65.701  1.00  0.00    -0.322 C  
HETATM   16  C   UNL     1     -10.776  11.090  65.182  1.00  0.00    -0.253 C  
HETATM   17  C   UNL     1      -8.582  10.957  66.458  1.00  0.00    -0.156 C  
HETATM   18  C   UNL     1      -9.148  11.921  67.504  1.00  0.00    -0.178 C  
HETATM   19  C   UNL     1     -11.321  12.041  66.245  1.00  0.00    -0.415 C  
HETATM   20  C   UNL     1     -10.200  12.840  66.897  1.00  0.00    -0.241 C  
BRANCH  15  21
HETATM   21  C   UNL     1      -9.016   9.373  64.510  1.00  0.00    -0.227 C  
HETATM   22  O   UNL     1      -6.830  10.253  63.950  1.00  0.00    -0.124 OA 
HETATM   23  C   UNL     1      -8.019  10.163  63.682  1.00  0.00    -0.160 C  
HETATM   24  O   UNL     1      -8.559  10.763  62.599  1.00  0.00    -0.202 OA 
ENDBRANCH  15  21
ENDBRANCH  14  15
ENDBRANCH  12  14
ENDBRANCH   9  10
ENDBRANCH   7   9
ENDBRANCH   6   7
ENDBRANCH   4   6
TORSDOF 7
ENDMDL
MODEL      291
REMARK 921   NORMALIZED FREE ENERGY PREDICTED BY IDOCK:   -2.62 KCAL/MOL
REMARK 922        TOTAL FREE ENERGY PREDICTED BY IDOCK:   -5.33 KCAL/MOL
REMARK 923 INTER-LIGAND FREE ENERGY PREDICTED BY IDOCK:   -4.12 KCAL/MOL
REMARK 924 INTRA-LIGAND FREE ENERGY PREDICTED BY IDOCK:   -1.21 KCAL/MOL
REMARK 927      BINDING AFFINITY PREDICTED BY RF-SCORE:    0.00 PKD
ROOT
HETATM    1  C   UNL     1      -9.352   7.415  73.745  1.00  0.00    -0.316 C  
HETATM    2  C   UNL     1      -9.482   8.519  72.692  1.00  0.00    -0.295 C  
HETATM    3  C   UNL     1      -8.128   8.783  72.046  1.00  0.00    -0.060 C  
HETATM    4  C   UNL     1     -10.521   8.135  71.650  1.00  0.00    -0.228 C  
HETATM    5  O   UNL     1     -11.168   7.094  71.683  1.00  0.00    -0.237 OA 
ENDROOT
BRANCH   4   6
HETATM    6  O   UNL     1     -10.701   9.118  70.718  1.00  0.00    -0.223 OA 
BRANCH   6   7
HETATM    7  C   UNL     1     -12.071   9.526  70.587  1.00  0.00    -0.162 C  
HETATM    8  C   UNL     1     -12.441  10.437  71.758  1.00  0.00    -0.400 C  
BRANCH   7   9
HETATM    9  O   UNL     1     -12.299  10.374  69.449  1.00  0.00    -0.120 OA 
BRANCH   9  10
HETATM   10  C   UNL     1     -11.197  10.930  68.906  1.00  0.00    -0.267 C  
HETATM   11  O   UNL     1     -10.561  11.855  69.372  1.00  0.00    -0.061 OA 
HETATM   12  N   UNL     1     -10.872  10.205  67.794  1.00  0.00    -0.279 N  
HETATM   13  H   UNL     1     -11.483   9.436  67.515  1.00  0.00     0.000 HD 
BRANCH  12  14
HETATM   14  C   UNL     1      -9.697  10.483  66.996  1.00  0.00    -0.177 C  
BRANCH  14  15
HETATM   15  C   UNL     1      -8.644   9.325  67.000  1.00  0.00    -0.128 C  
HETATM   16  C   UNL     1      -7.392   9.715  66.169  1.00  0.00    -0.098 C  
HETATM   17  C   UNL     1      -8.231   9.057  68.477  1.00  0.00    -0.112 C  
HETATM   18  C   UNL     1      -7.365  10.158  69.091  1.00  0.00    -0.089 C  
HETATM   19  C   UNL     1      -6.546  10.815  66.806  1.00  0.00    -0.105 C  
HETATM   20  C   UNL     1      -6.143  10.447  68.229  1.00  0.00    -0.043 C  
BRANCH  15  21
HETATM   21  C   UNL     1      -9.311   8.053  66.399  1.00  0.00    -0.259 C  
HETATM   22  O   UNL     1     -10.699   6.902  68.015  1.00  0.00    -0.211 OA 
HETATM   23  C   UNL     1      -9.652   6.953  67.386  1.00  0.00    -0.136 C  
HETATM   24  O   UNL     1      -8.692   6.012  67.513  1.00  0.00    -0.110 OA 
ENDBRANCH  15  21
ENDBRANCH  14  15
ENDBRANCH  12  14
ENDBRANCH   9  10
ENDBRANCH   7   9
ENDBRANCH   6   7
ENDBRANCH   4   6
TORSDOF 7
ENDMDL
MODEL      292
REMARK 921   NORMALIZED FREE ENERGY PREDICTED BY IDOCK:   -2.61 KCAL/MOL
REMARK 922        TOTAL FREE ENERGY PREDICTED BY IDOCK:   -5.31 KCAL/MOL
REMARK 923 INTER-LIGAND FREE ENERGY PREDICTED BY IDOCK:   -5.22 KCAL/MOL
REMARK 924 INTRA-LIGAND FREE ENERGY PREDICTED BY IDOCK:   -0.09 KCAL/MOL
REMARK 927      BINDING AFFINITY PREDICTED BY RF-SCORE:    0.00 PKD
ROOT
HETATM    1  C   UNL     1     -12.880  11.796  63.143  1.00  0.00    -0.089 C  
HETATM    2  C   UNL     1     -11.692  12.127  64.051  1.00  0.00    -0.515 C  
HETATM    3  C   UNL     1     -10.427  12.280  63.216  1.00  0.00    -0.296 C  
HETATM    4  C   UNL     1     -11.975  13.388  64.853  1.00  0.00    -0.378 C  
HETATM    5  O   UNL     1     -13.023  14.019  64.783  1.00  0.00    -0.686 OA 
ENDROOT
BRANCH   4   6
HETATM    6  O   UNL     1     -10.956  13.689  65.712  1.00  0.00    -0.278 OA 
BRANCH   6   7
HETATM    7  C   UNL     1     -11.073  13.026  66.979  1.00  0.00    -0.281 C  
HETATM    8  C   UNL     1     -12.125  13.740  67.828  1.00  0.00    -0.325 C  
BRANCH   7   9
HETATM    9  O   UNL     1     -11.610  11.697  66.871  1.00  0.00    -0.507 OA 
BRANCH   9  10
HETATM   10  C   UNL     1     -10.924  10.736  67.523  1.00  0.00    -0.312 C  
HETATM   11  O   UNL     1     -11.196  10.285  68.619  1.00  0.00    -0.245 OA 
HETATM   12  N   UNL     1      -9.933  10.297  66.691  1.00  0.00    -0.207 N  
HETATM   13  H   UNL     1      -9.819  10.750  65.784  1.00  0.00     0.000 HD 
BRANCH  12  14
HETATM   14  C   UNL     1      -9.040   9.215  67.044  1.00  0.00    -0.123 C  
BRANCH  14  15
HETATM   15  C   UNL     1      -7.534   9.514  66.735  1.00  0.00    -0.094 C  
HETATM   16  C   UNL     1      -7.349  10.982  66.267  1.00  0.00    -0.097 C  
HETATM   17  C   UNL     1      -6.718   9.270  68.037  1.00  0.00    -0.060 C  
HETATM   18  C   UNL     1      -6.945  10.327  69.121  1.00  0.00    -0.066 C  
HETATM   19  C   UNL     1      -7.580  12.015  67.368  1.00  0.00    -0.151 C  
HETATM   20  C   UNL     1      -6.704  11.732  68.582  1.00  0.00    -0.073 C  
BRANCH  15  21
HETATM   21  C   UNL     1      -7.059   8.533  65.622  1.00  0.00    -0.079 C  
HETATM   22  O   UNL     1      -8.526   8.563  63.695  1.00  0.00    -0.134 OA 
HETATM   23  C   UNL     1      -8.142   7.994  64.707  1.00  0.00    -0.143 C  
HETATM   24  O   UNL     1      -8.654   6.808  65.102  1.00  0.00    -0.078 OA 
ENDBRANCH  15  21
ENDBRANCH  14  15
ENDBRANCH  12  14
ENDBRANCH   9  10
ENDBRANCH   7   9
ENDBRANCH   6   7
ENDBRANCH   4   6
TORSDOF 7
ENDMDL
MODEL      293
REMARK 921   NORMALIZED FREE ENERGY PREDICTED BY IDOCK:   -2.61 KCAL/MOL
REMARK 922        TOTAL FREE ENERGY PREDICTED BY IDOCK:   -5.31 KCAL/MOL
REMARK 923 INTER-LIGAND FREE ENERGY PREDICTED BY IDOCK:   -4.51 KCAL/MOL
REMARK 924 INTRA-LIGAND FREE ENERGY PREDICTED BY IDOCK:   -0.80 KCAL/MOL
REMARK 927      BINDING AFFINITY PREDICTED BY RF-SCORE:    0.00 PKD
ROOT
HETATM    1  C   UNL     1      -9.957   5.915  66.527  1.00  0.00    -0.196 C  
HETATM    2  C   UNL     1      -8.673   6.574  66.013  1.00  0.00    -0.155 C  
HETATM    3  C   UNL     1      -8.482   6.255  64.535  1.00  0.00     0.080 C  
HETATM    4  C   UNL     1      -8.719   8.076  66.248  1.00  0.00    -0.153 C  
HETATM    5  O   UNL     1      -9.652   8.652  66.796  1.00  0.00    -0.171 OA 
ENDROOT
BRANCH   4   6
HETATM    6  O   UNL     1      -7.569   8.694  65.844  1.00  0.00    -0.086 OA 
BRANCH   6   7
HETATM    7  C   UNL     1      -7.806   9.802  64.962  1.00  0.00    -0.128 C  
HETATM    8  C   UNL     1      -6.809   9.748  63.804  1.00  0.00    -0.119 C  
BRANCH   7   9
HETATM    9  O   UNL     1      -9.073   9.723  64.287  1.00  0.00    -0.233 OA 
BRANCH   9  10
HETATM   10  C   UNL     1      -9.812  10.850  64.301  1.00  0.00    -0.310 C  
HETATM   11  O   UNL     1     -10.736  11.106  63.553  1.00  0.00    -0.368 OA 
HETATM   12  N   UNL     1      -9.399  11.604  65.364  1.00  0.00    -0.372 N  
HETATM   13  H   UNL     1      -8.619  11.268  65.928  1.00  0.00     0.000 HD 
BRANCH  12  14
HETATM   14  C   UNL     1     -10.026  12.859  65.721  1.00  0.00    -0.254 C  
BRANCH  14  15
HETATM   15  C   UNL     1      -9.550  13.431  67.098  1.00  0.00    -0.241 C  
HETATM   16  C   UNL     1     -10.067  14.881  67.301  1.00  0.00    -0.235 C  
HETATM   17  C   UNL     1     -10.113  12.511  68.220  1.00  0.00    -0.228 C  
HETATM   18  C   UNL     1     -11.624  12.635  68.428  1.00  0.00    -0.370 C  
HETATM   19  C   UNL     1     -11.577  14.975  67.507  1.00  0.00    -0.315 C  
HETATM   20  C   UNL     1     -12.034  14.084  68.656  1.00  0.00    -0.389 C  
BRANCH  15  21
HETATM   21  C   UNL     1      -7.993  13.409  67.128  1.00  0.00    -0.068 C  
HETATM   22  O   UNL     1      -7.132  11.422  68.213  1.00  0.00    -0.071 OA 
HETATM   23  C   UNL     1      -7.363  12.621  68.261  1.00  0.00    -0.116 C  
HETATM   24  O   UNL     1      -7.065  13.367  69.347  1.00  0.00    -0.010 OA 
ENDBRANCH  15  21
ENDBRANCH  14  15
ENDBRANCH  12  14
ENDBRANCH   9  10
ENDBRANCH   7   9
ENDBRANCH   6   7
ENDBRANCH   4   6
TORSDOF 7
ENDMDL
MODEL      294
REMARK 921   NORMALIZED FREE ENERGY PREDICTED BY IDOCK:   -2.60 KCAL/MOL
REMARK 922        TOTAL FREE ENERGY PREDICTED BY IDOCK:   -5.30 KCAL/MOL
REMARK 923 INTER-LIGAND FREE ENERGY PREDICTED BY IDOCK:   -5.07 KCAL/MOL
REMARK 924 INTRA-LIGAND FREE ENERGY PREDICTED BY IDOCK:   -0.23 KCAL/MOL
REMARK 927      BINDING AFFINITY PREDICTED BY RF-SCORE:    0.00 PKD
ROOT
HETATM    1  C   UNL     1     -10.125   6.457  72.102  1.00  0.00    -0.195 C  
HETATM    2  C   UNL     1      -9.661   7.243  70.871  1.00  0.00    -0.170 C  
HETATM    3  C   UNL     1      -8.342   6.676  70.360  1.00  0.00    -0.127 C  
HETATM    4  C   UNL     1     -10.729   7.207  69.789  1.00  0.00    -0.239 C  
HETATM    5  O   UNL     1     -11.810   6.644  69.915  1.00  0.00    -0.340 OA 
ENDROOT
BRANCH   4   6
HETATM    6  O   UNL     1     -10.371   7.938  68.691  1.00  0.00    -0.203 OA 
BRANCH   6   7
HETATM    7  C   UNL     1     -10.021   7.123  67.562  1.00  0.00    -0.167 C  
HETATM    8  C   UNL     1     -11.217   6.252  67.178  1.00  0.00    -0.260 C  
BRANCH   7   9
HETATM    9  O   UNL     1      -9.795   7.888  66.365  1.00  0.00    -0.216 OA 
BRANCH   9  10
HETATM   10  C   UNL     1      -8.978   8.951  66.499  1.00  0.00    -0.155 C  
HETATM   11  O   UNL     1      -7.768   8.912  66.611  1.00  0.00    -0.097 OA 
HETATM   12  N   UNL     1      -9.743  10.078  66.387  1.00  0.00    -0.198 N  
HETATM   13  H   UNL     1     -10.752   9.976  66.279  1.00  0.00     0.000 HD 
BRANCH  12  14
HETATM   14  C   UNL     1      -9.178  11.411  66.416  1.00  0.00    -0.197 C  
BRANCH  14  15
HETATM   15  C   UNL     1      -9.321  12.126  67.802  1.00  0.00    -0.193 C  
HETATM   16  C   UNL     1      -7.933  12.558  68.345  1.00  0.00    -0.139 C  
HETATM   17  C   UNL     1     -10.222  13.380  67.604  1.00  0.00    -0.228 C  
HETATM   18  C   UNL     1      -9.548  14.514  66.828  1.00  0.00    -0.274 C  
HETATM   19  C   UNL     1      -7.285  13.691  67.553  1.00  0.00    -0.169 C  
HETATM   20  C   UNL     1      -8.213  14.896  67.454  1.00  0.00    -0.217 C  
BRANCH  15  21
HETATM   21  C   UNL     1     -10.001  11.138  68.795  1.00  0.00    -0.207 C  
HETATM   22  O   UNL     1     -12.367  10.880  68.347  1.00  0.00    -0.477 OA 
HETATM   23  C   UNL     1     -11.482  11.359  69.040  1.00  0.00    -0.300 C  
HETATM   24  O   UNL     1     -11.751  12.136  70.112  1.00  0.00    -0.303 OA 
ENDBRANCH  15  21
ENDBRANCH  14  15
ENDBRANCH  12  14
ENDBRANCH   9  10
ENDBRANCH   7   9
ENDBRANCH   6   7
ENDBRANCH   4   6
TORSDOF 7
ENDMDL
MODEL      295
REMARK 921   NORMALIZED FREE ENERGY PREDICTED BY IDOCK:   -2.60 KCAL/MOL
REMARK 922        TOTAL FREE ENERGY PREDICTED BY IDOCK:   -5.30 KCAL/MOL
REMARK 923 INTER-LIGAND FREE ENERGY PREDICTED BY IDOCK:   -4.22 KCAL/MOL
REMARK 924 INTRA-LIGAND FREE ENERGY PREDICTED BY IDOCK:   -1.07 KCAL/MOL
REMARK 927      BINDING AFFINITY PREDICTED BY RF-SCORE:    0.00 PKD
ROOT
HETATM    1  C   UNL     1      -5.499   8.596  69.469  1.00  0.00    -0.030 C  
HETATM    2  C   UNL     1      -6.197   8.160  70.761  1.00  0.00    -0.033 C  
HETATM    3  C   UNL     1      -5.191   8.106  71.903  1.00  0.00    -0.035 C  
HETATM    4  C   UNL     1      -7.344   9.105  71.085  1.00  0.00    -0.067 C  
HETATM    5  O   UNL     1      -7.661  10.060  70.385  1.00  0.00    -0.228 OA 
ENDROOT
BRANCH   4   6
HETATM    6  O   UNL     1      -8.023   8.722  72.208  1.00  0.00    -0.350 OA 
BRANCH   6   7
HETATM    7  C   UNL     1      -8.841   7.561  72.001  1.00  0.00    -0.117 C  
HETATM    8  C   UNL     1      -8.495   6.505  73.051  1.00  0.00    -0.121 C  
BRANCH   7   9
HETATM    9  O   UNL     1     -10.236   7.804  72.251  1.00  0.00    -0.200 OA 
BRANCH   9  10
HETATM   10  C   UNL     1     -11.066   7.550  71.220  1.00  0.00    -0.246 C  
HETATM   11  O   UNL     1     -12.128   8.102  71.007  1.00  0.00    -0.286 OA 
HETATM   12  N   UNL     1     -10.454   6.635  70.410  1.00  0.00    -0.205 N  
HETATM   13  H   UNL     1      -9.550   6.257  70.695  1.00  0.00     0.000 HD 
BRANCH  12  14
HETATM   14  C   UNL     1     -11.036   6.180  69.166  1.00  0.00    -0.378 C  
BRANCH  14  15
HETATM   15  C   UNL     1     -10.166   6.506  67.906  1.00  0.00    -0.198 C  
HETATM   16  C   UNL     1      -8.677   6.705  68.301  1.00  0.00    -0.118 C  
HETATM   17  C   UNL     1     -10.291   5.312  66.915  1.00  0.00    -0.303 C  
HETATM   18  C   UNL     1      -9.568   4.044  67.373  1.00  0.00    -0.222 C  
HETATM   19  C   UNL     1      -7.981   5.423  68.753  1.00  0.00    -0.087 C  
HETATM   20  C   UNL     1      -8.108   4.327  67.703  1.00  0.00    -0.095 C  
BRANCH  15  21
HETATM   21  C   UNL     1     -10.723   7.801  67.247  1.00  0.00    -0.326 C  
HETATM   22  O   UNL     1      -9.176   8.742  65.638  1.00  0.00    -0.217 OA 
HETATM   23  C   UNL     1      -9.685   8.790  66.748  1.00  0.00    -0.221 C  
HETATM   24  O   UNL     1      -9.369   9.751  67.643  1.00  0.00    -0.139 OA 
ENDBRANCH  15  21
ENDBRANCH  14  15
ENDBRANCH  12  14
ENDBRANCH   9  10
ENDBRANCH   7   9
ENDBRANCH   6   7
ENDBRANCH   4   6
TORSDOF 7
ENDMDL
MODEL      296
REMARK 921   NORMALIZED FREE ENERGY PREDICTED BY IDOCK:   -2.57 KCAL/MOL
REMARK 922        TOTAL FREE ENERGY PREDICTED BY IDOCK:   -5.25 KCAL/MOL
REMARK 923 INTER-LIGAND FREE ENERGY PREDICTED BY IDOCK:   -4.05 KCAL/MOL
REMARK 924 INTRA-LIGAND FREE ENERGY PREDICTED BY IDOCK:   -1.20 KCAL/MOL
REMARK 927      BINDING AFFINITY PREDICTED BY RF-SCORE:    0.00 PKD
ROOT
HETATM    1  C   UNL     1      -9.318   8.038  73.290  1.00  0.00    -0.344 C  
HETATM    2  C   UNL     1      -9.077   8.503  71.850  1.00  0.00    -0.314 C  
HETATM    3  C   UNL     1      -7.860   7.793  71.272  1.00  0.00    -0.086 C  
HETATM    4  C   UNL     1     -10.313   8.252  71.001  1.00  0.00    -0.191 C  
HETATM    5  O   UNL     1     -11.352   7.767  71.434  1.00  0.00    -0.244 OA 
ENDROOT
BRANCH   4   6
HETATM    6  O   UNL     1     -10.153   8.698  69.719  1.00  0.00    -0.190 OA 
BRANCH   6   7
HETATM    7  C   UNL     1     -11.281   9.446  69.239  1.00  0.00     0.046 C  
HETATM    8  C   UNL     1     -11.179  10.888  69.735  1.00  0.00    -0.351 C  
BRANCH   7   9
HETATM    9  O   UNL     1     -11.282   9.606  67.810  1.00  0.00    -0.142 OA 
BRANCH   9  10
HETATM   10  C   UNL     1     -10.143   9.251  67.182  1.00  0.00    -0.236 C  
HETATM   11  O   UNL     1      -9.131   9.921  67.108  1.00  0.00    -0.137 OA 
HETATM   12  N   UNL     1     -10.300   7.971  66.732  1.00  0.00    -0.397 N  
HETATM   13  H   UNL     1     -11.198   7.509  66.872  1.00  0.00     0.000 HD 
BRANCH  12  14
HETATM   14  C   UNL     1      -9.241   7.243  66.065  1.00  0.00    -0.029 C  
BRANCH  14  15
HETATM   15  C   UNL     1      -8.971   5.825  66.672  1.00  0.00    -0.123 C  
HETATM   16  C   UNL     1     -10.260   4.960  66.648  1.00  0.00    -0.291 C  
HETATM   17  C   UNL     1      -7.863   5.141  65.820  1.00  0.00    -0.095 C  
HETATM   18  C   UNL     1      -8.327   4.711  64.426  1.00  0.00    -0.118 C  
HETATM   19  C   UNL     1     -10.699   4.545  65.245  1.00  0.00    -0.145 C  
HETATM   20  C   UNL     1      -9.572   3.837  64.502  1.00  0.00    -0.171 C  
BRANCH  15  21
HETATM   21  C   UNL     1      -8.476   6.005  68.137  1.00  0.00    -0.115 C  
HETATM   22  O   UNL     1      -8.307   3.892  69.308  1.00  0.00    -0.060 OA 
HETATM   23  C   UNL     1      -8.914   4.937  69.122  1.00  0.00    -0.098 C  
HETATM   24  O   UNL     1     -10.045   5.241  69.794  1.00  0.00    -0.217 OA 
ENDBRANCH  15  21
ENDBRANCH  14  15
ENDBRANCH  12  14
ENDBRANCH   9  10
ENDBRANCH   7   9
ENDBRANCH   6   7
ENDBRANCH   4   6
TORSDOF 7
ENDMDL
MODEL      297
REMARK 921   NORMALIZED FREE ENERGY PREDICTED BY IDOCK:   -2.56 KCAL/MOL
REMARK 922        TOTAL FREE ENERGY PREDICTED BY IDOCK:   -5.24 KCAL/MOL
REMARK 923 INTER-LIGAND FREE ENERGY PREDICTED BY IDOCK:   -5.25 KCAL/MOL
REMARK 924 INTRA-LIGAND FREE ENERGY PREDICTED BY IDOCK:    0.01 KCAL/MOL
REMARK 927      BINDING AFFINITY PREDICTED BY RF-SCORE:    0.00 PKD
ROOT
HETATM    1  C   UNL     1     -10.622  14.897  66.444  1.00  0.00    -0.307 C  
HETATM    2  C   UNL     1     -11.048  14.146  67.710  1.00  0.00    -0.292 C  
HETATM    3  C   UNL     1     -11.784  15.091  68.651  1.00  0.00    -0.363 C  
HETATM    4  C   UNL     1     -11.913  12.950  67.347  1.00  0.00    -0.300 C  
HETATM    5  O   UNL     1     -12.197  12.636  66.197  1.00  0.00    -0.568 OA 
ENDROOT
BRANCH   4   6
HETATM    6  O   UNL     1     -12.274  12.226  68.449  1.00  0.00    -0.282 OA 
BRANCH   6   7
HETATM    7  C   UNL     1     -11.196  11.448  68.989  1.00  0.00    -0.256 C  
HETATM    8  C   UNL     1     -11.746  10.476  70.033  1.00  0.00    -0.394 C  
BRANCH   7   9
HETATM    9  O   UNL     1     -10.602  10.563  68.023  1.00  0.00    -0.184 OA 
BRANCH   9  10
HETATM   10  C   UNL     1      -9.407  10.041  68.368  1.00  0.00    -0.138 C  
HETATM   11  O   UNL     1      -8.512  10.629  68.944  1.00  0.00    -0.139 OA 
HETATM   12  N   UNL     1      -9.426   8.714  68.043  1.00  0.00    -0.139 N  
HETATM   13  H   UNL     1     -10.249   8.336  67.575  1.00  0.00     0.000 HD 
BRANCH  12  14
HETATM   14  C   UNL     1      -8.323   7.823  68.337  1.00  0.00    -0.125 C  
BRANCH  14  15
HETATM   15  C   UNL     1      -8.759   6.339  68.580  1.00  0.00    -0.112 C  
HETATM   16  C   UNL     1     -10.295   6.243  68.788  1.00  0.00    -0.245 C  
HETATM   17  C   UNL     1      -8.344   5.507  67.332  1.00  0.00    -0.103 C  
HETATM   18  C   UNL     1      -9.185   5.792  66.086  1.00  0.00    -0.169 C  
HETATM   19  C   UNL     1     -11.108   6.531  67.528  1.00  0.00    -0.396 C  
HETATM   20  C   UNL     1     -10.673   5.637  66.374  1.00  0.00    -0.229 C  
BRANCH  15  21
HETATM   21  C   UNL     1      -8.014   5.810  69.840  1.00  0.00    -0.096 C  
HETATM   22  O   UNL     1      -9.362   4.246  71.106  1.00  0.00    -0.130 OA 
HETATM   23  C   UNL     1      -8.894   5.370  70.995  1.00  0.00    -0.139 C  
HETATM   24  O   UNL     1      -9.118   6.335  71.913  1.00  0.00    -0.143 OA 
ENDBRANCH  15  21
ENDBRANCH  14  15
ENDBRANCH  12  14
ENDBRANCH   9  10
ENDBRANCH   7   9
ENDBRANCH   6   7
ENDBRANCH   4   6
TORSDOF 7
ENDMDL
MODEL      298
REMARK 921   NORMALIZED FREE ENERGY PREDICTED BY IDOCK:   -2.56 KCAL/MOL
REMARK 922        TOTAL FREE ENERGY PREDICTED BY IDOCK:   -5.23 KCAL/MOL
REMARK 923 INTER-LIGAND FREE ENERGY PREDICTED BY IDOCK:   -5.21 KCAL/MOL
REMARK 924 INTRA-LIGAND FREE ENERGY PREDICTED BY IDOCK:   -0.02 KCAL/MOL
REMARK 927      BINDING AFFINITY PREDICTED BY RF-SCORE:    0.00 PKD
ROOT
HETATM    1  C   UNL     1     -10.927  11.316  63.800  1.00  0.00    -0.381 C  
HETATM    2  C   UNL     1     -10.067  11.141  65.055  1.00  0.00    -0.338 C  
HETATM    3  C   UNL     1      -8.734  10.502  64.687  1.00  0.00    -0.193 C  
HETATM    4  C   UNL     1      -9.860  12.481  65.745  1.00  0.00    -0.234 C  
HETATM    5  O   UNL     1     -10.344  13.535  65.347  1.00  0.00    -0.299 OA 
ENDROOT
BRANCH   4   6
HETATM    6  O   UNL     1      -9.136  12.359  66.897  1.00  0.00    -0.200 OA 
BRANCH   6   7
HETATM    7  C   UNL     1      -9.946  12.430  68.081  1.00  0.00    -0.215 C  
HETATM    8  C   UNL     1     -10.233  13.895  68.410  1.00  0.00    -0.243 C  
BRANCH   7   9
HETATM    9  O   UNL     1     -11.264  11.888  67.894  1.00  0.00    -0.227 OA 
BRANCH   9  10
HETATM   10  C   UNL     1     -11.596  10.866  68.708  1.00  0.00    -0.309 C  
HETATM   11  O   UNL     1     -12.556  10.831  69.454  1.00  0.00    -0.314 OA 
HETATM   12  N   UNL     1     -10.717   9.846  68.473  1.00  0.00    -0.223 N  
HETATM   13  H   UNL     1      -9.960   9.997  67.807  1.00  0.00     0.000 HD 
BRANCH  12  14
HETATM   14  C   UNL     1     -10.819   8.561  69.131  1.00  0.00    -0.029 C  
BRANCH  14  15
HETATM   15  C   UNL     1      -9.583   8.211  70.026  1.00  0.00    -0.171 C  
HETATM   16  C   UNL     1      -8.757   7.056  69.399  1.00  0.00    -0.133 C  
HETATM   17  C   UNL     1      -8.698   9.486  70.142  1.00  0.00    -0.258 C  
HETATM   18  C   UNL     1      -7.955   9.848  68.853  1.00  0.00    -0.096 C  
HETATM   19  C   UNL     1      -8.026   7.444  68.116  1.00  0.00    -0.123 C  
HETATM   20  C   UNL     1      -7.144   8.668  68.333  1.00  0.00    -0.077 C  
BRANCH  15  21
HETATM   21  C   UNL     1     -10.100   7.797  71.435  1.00  0.00    -0.211 C  
HETATM   22  O   UNL     1     -12.454   7.229  71.411  1.00  0.00    -0.346 OA 
HETATM   23  C   UNL     1     -11.576   8.031  71.695  1.00  0.00    -0.275 C  
HETATM   24  O   UNL     1     -11.849   9.216  72.283  1.00  0.00    -0.312 OA 
ENDBRANCH  15  21
ENDBRANCH  14  15
ENDBRANCH  12  14
ENDBRANCH   9  10
ENDBRANCH   7   9
ENDBRANCH   6   7
ENDBRANCH   4   6
TORSDOF 7
ENDMDL
MODEL      299
REMARK 921   NORMALIZED FREE ENERGY PREDICTED BY IDOCK:   -2.55 KCAL/MOL
REMARK 922        TOTAL FREE ENERGY PREDICTED BY IDOCK:   -5.23 KCAL/MOL
REMARK 923 INTER-LIGAND FREE ENERGY PREDICTED BY IDOCK:   -4.01 KCAL/MOL
REMARK 924 INTRA-LIGAND FREE ENERGY PREDICTED BY IDOCK:   -1.22 KCAL/MOL
REMARK 927      BINDING AFFINITY PREDICTED BY RF-SCORE:    0.00 PKD
ROOT
HETATM    1  C   UNL     1      -9.600   7.863  73.204  1.00  0.00    -0.352 C  
HETATM    2  C   UNL     1      -9.347   8.696  71.943  1.00  0.00    -0.357 C  
HETATM    3  C   UNL     1      -7.874   8.626  71.560  1.00  0.00    -0.163 C  
HETATM    4  C   UNL     1     -10.232   8.212  70.805  1.00  0.00    -0.194 C  
HETATM    5  O   UNL     1     -11.043   7.298  70.911  1.00  0.00    -0.248 OA 
ENDROOT
BRANCH   4   6
HETATM    6  O   UNL     1     -10.070   8.962  69.674  1.00  0.00    -0.189 OA 
BRANCH   6   7
HETATM    7  C   UNL     1     -11.292   9.560  69.215  1.00  0.00     0.095 C  
HETATM    8  C   UNL     1     -11.462  10.930  69.871  1.00  0.00    -0.402 C  
BRANCH   7   9
HETATM    9  O   UNL     1     -11.268   9.885  67.815  1.00  0.00    -0.225 OA 
BRANCH   9  10
HETATM   10  C   UNL     1     -10.130   9.573  67.163  1.00  0.00    -0.229 C  
HETATM   11  O   UNL     1      -9.195  10.325  66.961  1.00  0.00    -0.148 OA 
HETATM   12  N   UNL     1     -10.177   8.242  66.860  1.00  0.00    -0.296 N  
HETATM   13  H   UNL     1     -11.017   7.715  67.100  1.00  0.00     0.000 HD 
BRANCH  12  14
HETATM   14  C   UNL     1      -9.083   7.549  66.214  1.00  0.00    -0.157 C  
BRANCH  14  15
HETATM   15  C   UNL     1      -8.828   6.109  66.774  1.00  0.00    -0.122 C  
HETATM   16  C   UNL     1      -7.580   5.471  66.108  1.00  0.00    -0.091 C  
HETATM   17  C   UNL     1      -8.603   6.226  68.310  1.00  0.00    -0.117 C  
HETATM   18  C   UNL     1      -7.266   6.863  68.696  1.00  0.00    -0.088 C  
HETATM   19  C   UNL     1      -6.261   6.126  66.513  1.00  0.00    -0.037 C  
HETATM   20  C   UNL     1      -6.099   6.150  68.027  1.00  0.00    -0.024 C  
BRANCH  15  21
HETATM   21  C   UNL     1     -10.090   5.242  66.489  1.00  0.00    -0.260 C  
HETATM   22  O   UNL     1      -9.522   2.935  66.022  1.00  0.00    -0.088 OA 
HETATM   23  C   UNL     1      -9.874   4.029  65.605  1.00  0.00    -0.179 C  
HETATM   24  O   UNL     1     -10.113   4.255  64.295  1.00  0.00    -0.139 OA 
ENDBRANCH  15  21
ENDBRANCH  14  15
ENDBRANCH  12  14
ENDBRANCH   9  10
ENDBRANCH   7   9
ENDBRANCH   6   7
ENDBRANCH   4   6
TORSDOF 7
ENDMDL
MODEL      300
REMARK 921   NORMALIZED FREE ENERGY PREDICTED BY IDOCK:   -2.54 KCAL/MOL
REMARK 922        TOTAL FREE ENERGY PREDICTED BY IDOCK:   -5.21 KCAL/MOL
REMARK 923 INTER-LIGAND FREE ENERGY PREDICTED BY IDOCK:   -4.50 KCAL/MOL
REMARK 924 INTRA-LIGAND FREE ENERGY PREDICTED BY IDOCK:   -0.70 KCAL/MOL
REMARK 927      BINDING AFFINITY PREDICTED BY RF-SCORE:    0.00 PKD
ROOT
HETATM    1  C   UNL     1      -9.593   3.140  70.593  1.00  0.00    -0.212 C  
HETATM    2  C   UNL     1      -9.071   4.530  70.971  1.00  0.00    -0.185 C  
HETATM    3  C   UNL     1      -7.657   4.717  70.437  1.00  0.00    -0.054 C  
HETATM    4  C   UNL     1     -10.005   5.607  70.439  1.00  0.00    -0.206 C  
HETATM    5  O   UNL     1     -11.036   5.371  69.819  1.00  0.00    -0.246 OA 
ENDROOT
BRANCH   4   6
HETATM    6  O   UNL     1      -9.598   6.861  70.796  1.00  0.00    -0.165 OA 
BRANCH   6   7
HETATM    7  C   UNL     1     -10.686   7.723  71.161  1.00  0.00    -0.227 C  
HETATM    8  C   UNL     1     -10.912   7.641  72.671  1.00  0.00    -0.405 C  
BRANCH   7   9
HETATM    9  O   UNL     1     -10.390   9.117  70.966  1.00  0.00    -0.242 OA 
BRANCH   9  10
HETATM   10  C   UNL     1      -9.174   9.388  70.450  1.00  0.00    -0.257 C  
HETATM   11  O   UNL     1      -8.162   9.609  71.088  1.00  0.00    -0.239 OA 
HETATM   12  N   UNL     1      -9.265   9.272  69.092  1.00  0.00    -0.146 N  
HETATM   13  H   UNL     1     -10.174   9.064  68.678  1.00  0.00     0.000 HD 
BRANCH  12  14
HETATM   14  C   UNL     1      -8.123   9.431  68.217  1.00  0.00    -0.109 C  
BRANCH  14  15
HETATM   15  C   UNL     1      -8.430   9.114  66.715  1.00  0.00    -0.125 C  
HETATM   16  C   UNL     1      -7.665   7.844  66.252  1.00  0.00    -0.092 C  
HETATM   17  C   UNL     1      -9.963   8.883  66.577  1.00  0.00    -0.358 C  
HETATM   18  C   UNL     1     -10.453   7.571  67.195  1.00  0.00    -0.407 C  
HETATM   19  C   UNL     1      -8.176   6.551  66.883  1.00  0.00    -0.113 C  
HETATM   20  C   UNL     1      -9.672   6.379  66.655  1.00  0.00    -0.197 C  
BRANCH  15  21
HETATM   21  C   UNL     1      -8.001  10.340  65.857  1.00  0.00    -0.137 C  
HETATM   22  O   UNL     1      -8.067   9.860  63.484  1.00  0.00    -0.141 OA 
HETATM   23  C   UNL     1      -7.405  10.023  64.498  1.00  0.00    -0.142 C  
HETATM   24  O   UNL     1      -6.056   9.940  64.496  1.00  0.00    -0.096 OA 
ENDBRANCH  15  21
ENDBRANCH  14  15
ENDBRANCH  12  14
ENDBRANCH   9  10
ENDBRANCH   7   9
ENDBRANCH   6   7
ENDBRANCH   4   6
TORSDOF 7
ENDMDL
MODEL      301
REMARK 921   NORMALIZED FREE ENERGY PREDICTED BY IDOCK:   -2.53 KCAL/MOL
REMARK 922        TOTAL FREE ENERGY PREDICTED BY IDOCK:   -5.19 KCAL/MOL
REMARK 923 INTER-LIGAND FREE ENERGY PREDICTED BY IDOCK:   -5.13 KCAL/MOL
REMARK 924 INTRA-LIGAND FREE ENERGY PREDICTED BY IDOCK:   -0.06 KCAL/MOL
REMARK 927      BINDING AFFINITY PREDICTED BY RF-SCORE:    0.00 PKD
ROOT
HETATM    1  C   UNL     1     -11.639  10.752  70.005  1.00  0.00    -0.417 C  
HETATM    2  C   UNL     1     -11.250   9.393  70.597  1.00  0.00    -0.345 C  
HETATM    3  C   UNL     1      -9.769   9.388  70.954  1.00  0.00    -0.320 C  
HETATM    4  C   UNL     1     -12.108   9.081  71.813  1.00  0.00    -0.368 C  
HETATM    5  O   UNL     1     -12.996   9.817  72.228  1.00  0.00    -0.397 OA 
ENDROOT
BRANCH   4   6
HETATM    6  O   UNL     1     -11.822   7.854  72.341  1.00  0.00    -0.335 OA 
BRANCH   6   7
HETATM    7  C   UNL     1     -12.516   6.783  71.684  1.00  0.00    -0.351 C  
HETATM    8  C   UNL     1     -13.890   7.274  71.230  1.00  0.00    -0.332 C  
BRANCH   7   9
HETATM    9  O   UNL     1     -11.900   6.390  70.445  1.00  0.00    -0.382 OA 
BRANCH   9  10
HETATM   10  C   UNL     1     -10.646   5.904  70.546  1.00  0.00    -0.275 C  
HETATM   11  O   UNL     1     -10.243   5.146  71.406  1.00  0.00    -0.201 OA 
HETATM   12  N   UNL     1      -9.945   6.339  69.457  1.00  0.00    -0.159 N  
HETATM   13  H   UNL     1     -10.406   6.963  68.794  1.00  0.00     0.000 HD 
BRANCH  12  14
HETATM   14  C   UNL     1      -8.573   5.949  69.205  1.00  0.00    -0.112 C  
BRANCH  14  15
HETATM   15  C   UNL     1      -8.380   5.144  67.876  1.00  0.00    -0.097 C  
HETATM   16  C   UNL     1      -6.926   4.614  67.759  1.00  0.00    -0.060 C  
HETATM   17  C   UNL     1      -9.376   3.949  67.890  1.00  0.00    -0.227 C  
HETATM   18  C   UNL     1      -9.009   2.844  68.883  1.00  0.00    -0.186 C  
HETATM   19  C   UNL     1      -6.588   3.512  68.761  1.00  0.00    -0.040 C  
HETATM   20  C   UNL     1      -7.580   2.360  68.670  1.00  0.00    -0.047 C  
BRANCH  15  21
HETATM   21  C   UNL     1      -8.704   6.088  66.681  1.00  0.00    -0.123 C  
HETATM   22  O   UNL     1      -7.420   8.139  66.767  1.00  0.00    -0.087 OA 
HETATM   23  C   UNL     1      -8.489   7.570  66.929  1.00  0.00    -0.122 C  
HETATM   24  O   UNL     1      -9.596   8.223  67.343  1.00  0.00    -0.148 OA 
ENDBRANCH  15  21
ENDBRANCH  14  15
ENDBRANCH  12  14
ENDBRANCH   9  10
ENDBRANCH   7   9
ENDBRANCH   6   7
ENDBRANCH   4   6
TORSDOF 7
ENDMDL
MODEL      302
REMARK 921   NORMALIZED FREE ENERGY PREDICTED BY IDOCK:   -2.49 KCAL/MOL
REMARK 922        TOTAL FREE ENERGY PREDICTED BY IDOCK:   -5.15 KCAL/MOL
REMARK 923 INTER-LIGAND FREE ENERGY PREDICTED BY IDOCK:   -4.97 KCAL/MOL
REMARK 924 INTRA-LIGAND FREE ENERGY PREDICTED BY IDOCK:   -0.18 KCAL/MOL
REMARK 927      BINDING AFFINITY PREDICTED BY RF-SCORE:    0.00 PKD
ROOT
HETATM    1  C   UNL     1      -9.749   5.921  66.670  1.00  0.00    -0.184 C  
HETATM    2  C   UNL     1      -8.575   6.904  66.722  1.00  0.00    -0.120 C  
HETATM    3  C   UNL     1      -7.881   6.957  65.367  1.00  0.00    -0.115 C  
HETATM    4  C   UNL     1      -9.060   8.282  67.143  1.00  0.00    -0.139 C  
HETATM    5  O   UNL     1     -10.226   8.540  67.420  1.00  0.00    -0.218 OA 
ENDROOT
BRANCH   4   6
HETATM    6  O   UNL     1      -8.033   9.177  67.247  1.00  0.00    -0.101 OA 
BRANCH   6   7
HETATM    7  C   UNL     1      -8.195  10.322  66.396  1.00  0.00    -0.129 C  
HETATM    8  C   UNL     1      -6.978  10.447  65.480  1.00  0.00    -0.134 C  
BRANCH   7   9
HETATM    9  O   UNL     1      -9.276  10.177  65.459  1.00  0.00    -0.166 OA 
BRANCH   9  10
HETATM   10  C   UNL     1      -9.833  11.327  65.029  1.00  0.00    -0.261 C  
HETATM   11  O   UNL     1     -10.530  11.456  64.041  1.00  0.00    -0.315 OA 
HETATM   12  N   UNL     1      -9.554  12.294  65.954  1.00  0.00    -0.326 N  
HETATM   13  H   UNL     1      -8.968  12.052  66.753  1.00  0.00     0.000 HD 
BRANCH  12  14
HETATM   14  C   UNL     1     -10.057  13.646  65.845  1.00  0.00    -0.310 C  
BRANCH  14  15
HETATM   15  C   UNL     1      -9.960  14.464  67.177  1.00  0.00    -0.253 C  
HETATM   16  C   UNL     1      -8.652  14.122  67.940  1.00  0.00    -0.178 C  
HETATM   17  C   UNL     1      -9.976  15.977  66.813  1.00  0.00    -0.265 C  
HETATM   18  C   UNL     1      -8.690  16.471  66.146  1.00  0.00    -0.335 C  
HETATM   19  C   UNL     1      -7.386  14.627  67.251  1.00  0.00    -0.122 C  
HETATM   20  C   UNL     1      -7.465  16.125  66.981  1.00  0.00    -0.264 C  
BRANCH  15  21
HETATM   21  C   UNL     1     -11.198  14.118  68.056  1.00  0.00    -0.302 C  
HETATM   22  O   UNL     1     -12.130  16.080  69.128  1.00  0.00    -0.293 OA 
HETATM   23  C   UNL     1     -11.469  15.056  69.218  1.00  0.00    -0.307 C  
HETATM   24  O   UNL     1     -10.917  14.658  70.385  1.00  0.00    -0.132 OA 
ENDBRANCH  15  21
ENDBRANCH  14  15
ENDBRANCH  12  14
ENDBRANCH   9  10
ENDBRANCH   7   9
ENDBRANCH   6   7
ENDBRANCH   4   6
TORSDOF 7
ENDMDL
MODEL      303
REMARK 921   NORMALIZED FREE ENERGY PREDICTED BY IDOCK:   -2.49 KCAL/MOL
REMARK 922        TOTAL FREE ENERGY PREDICTED BY IDOCK:   -5.14 KCAL/MOL
REMARK 923 INTER-LIGAND FREE ENERGY PREDICTED BY IDOCK:   -6.26 KCAL/MOL
REMARK 924 INTRA-LIGAND FREE ENERGY PREDICTED BY IDOCK:    1.13 KCAL/MOL
REMARK 927      BINDING AFFINITY PREDICTED BY RF-SCORE:    0.00 PKD
ROOT
HETATM    1  C   UNL     1      -8.597   7.559  72.554  1.00  0.00    -0.149 C  
HETATM    2  C   UNL     1      -9.134   8.705  71.690  1.00  0.00    -0.318 C  
HETATM    3  C   UNL     1      -8.008   9.293  70.850  1.00  0.00    -0.161 C  
HETATM    4  C   UNL     1     -10.274   8.214  70.812  1.00  0.00    -0.194 C  
HETATM    5  O   UNL     1     -10.702   7.065  70.827  1.00  0.00    -0.220 OA 
ENDROOT
BRANCH   4   6
HETATM    6  O   UNL     1     -10.812   9.220  70.059  1.00  0.00    -0.227 OA 
BRANCH   6   7
HETATM    7  C   UNL     1     -12.195   9.467  70.355  1.00  0.00     0.114 C  
HETATM    8  C   UNL     1     -12.555   8.798  71.682  1.00  0.00    -0.393 C  
BRANCH   7   9
HETATM    9  O   UNL     1     -12.475  10.852  70.618  1.00  0.00    -0.322 OA 
BRANCH   9  10
HETATM   10  C   UNL     1     -11.990  11.727  69.715  1.00  0.00    -0.322 C  
HETATM   11  O   UNL     1     -11.996  11.582  68.507  1.00  0.00    -0.472 OA 
HETATM   12  N   UNL     1     -11.582  12.841  70.393  1.00  0.00    -0.502 N  
HETATM   13  H   UNL     1     -11.645  12.844  71.411  1.00  0.00     0.000 HD 
BRANCH  12  14
HETATM   14  C   UNL     1     -11.066  14.016  69.725  1.00  0.00    -0.047 C  
BRANCH  14  15
HETATM   15  C   UNL     1     -11.930  15.302  69.953  1.00  0.00    -0.373 C  
HETATM   16  C   UNL     1     -13.401  14.927  70.280  1.00  0.00     0.124 C  
HETATM   17  C   UNL     1     -11.312  16.091  71.143  1.00  0.00    -0.413 C  
HETATM   18  C   UNL     1     -11.522  15.428  72.506  1.00  0.00    -0.441 C  
HETATM   19  C   UNL     1     -13.581  14.268  71.646  1.00  0.00    -0.461 C  
HETATM   20  C   UNL     1     -12.996  15.132  72.756  1.00  0.00    -0.522 C  
BRANCH  15  21
HETATM   21  C   UNL     1     -11.873  16.166  68.659  1.00  0.00    -0.083 C  
HETATM   22  O   UNL     1      -9.619  16.364  67.795  1.00  0.00    -0.228 OA 
HETATM   23  C   UNL     1     -10.557  16.873  68.391  1.00  0.00    -0.365 C  
HETATM   24  O   UNL     1     -10.506  18.136  68.867  1.00  0.00    -0.282 OA 
ENDBRANCH  15  21
ENDBRANCH  14  15
ENDBRANCH  12  14
ENDBRANCH   9  10
ENDBRANCH   7   9
ENDBRANCH   6   7
ENDBRANCH   4   6
TORSDOF 7
ENDMDL
MODEL      304
REMARK 921   NORMALIZED FREE ENERGY PREDICTED BY IDOCK:   -2.47 KCAL/MOL
REMARK 922        TOTAL FREE ENERGY PREDICTED BY IDOCK:   -5.11 KCAL/MOL
REMARK 923 INTER-LIGAND FREE ENERGY PREDICTED BY IDOCK:   -4.88 KCAL/MOL
REMARK 924 INTRA-LIGAND FREE ENERGY PREDICTED BY IDOCK:   -0.23 KCAL/MOL
REMARK 927      BINDING AFFINITY PREDICTED BY RF-SCORE:    0.00 PKD
ROOT
HETATM    1  C   UNL     1      -9.963   4.337  70.860  1.00  0.00    -0.225 C  
HETATM    2  C   UNL     1      -9.190   4.840  69.637  1.00  0.00    -0.180 C  
HETATM    3  C   UNL     1      -8.639   3.659  68.848  1.00  0.00    -0.119 C  
HETATM    4  C   UNL     1     -10.085   5.710  68.767  1.00  0.00    -0.186 C  
HETATM    5  O   UNL     1     -11.250   5.977  69.039  1.00  0.00    -0.367 OA 
ENDROOT
BRANCH   4   6
HETATM    6  O   UNL     1      -9.416   6.217  67.689  1.00  0.00    -0.117 OA 
BRANCH   6   7
HETATM    7  C   UNL     1      -9.373   5.312  66.576  1.00  0.00    -0.143 C  
HETATM    8  C   UNL     1     -10.800   4.979  66.140  1.00  0.00    -0.160 C  
BRANCH   7   9
HETATM    9  O   UNL     1      -8.814   5.903  65.391  1.00  0.00    -0.144 OA 
BRANCH   9  10
HETATM   10  C   UNL     1      -8.145   7.059  65.575  1.00  0.00    -0.132 C  
HETATM   11  O   UNL     1      -6.938   7.179  65.653  1.00  0.00    -0.058 OA 
HETATM   12  N   UNL     1      -9.060   8.074  65.561  1.00  0.00    -0.403 N  
HETATM   13  H   UNL     1     -10.049   7.840  65.472  1.00  0.00     0.000 HD 
BRANCH  12  14
HETATM   14  C   UNL     1      -8.681   9.467  65.666  1.00  0.00    -0.149 C  
BRANCH  14  15
HETATM   15  C   UNL     1      -9.835  10.397  66.172  1.00  0.00    -0.278 C  
HETATM   16  C   UNL     1     -10.674   9.688  67.269  1.00  0.00    -0.284 C  
HETATM   17  C   UNL     1      -9.190  11.688  66.756  1.00  0.00    -0.190 C  
HETATM   18  C   UNL     1      -8.466  11.474  68.087  1.00  0.00    -0.154 C  
HETATM   19  C   UNL     1      -9.927   9.490  68.586  1.00  0.00    -0.181 C  
HETATM   20  C   UNL     1      -9.376  10.809  69.112  1.00  0.00    -0.141 C  
BRANCH  15  21
HETATM   21  C   UNL     1     -10.739  10.761  64.957  1.00  0.00    -0.160 C  
HETATM   22  O   UNL     1      -9.444  11.472  63.039  1.00  0.00    -0.367 OA 
HETATM   23  C   UNL     1     -10.163  11.770  63.981  1.00  0.00    -0.348 C  
HETATM   24  O   UNL     1     -10.522  13.046  64.236  1.00  0.00    -0.395 OA 
ENDBRANCH  15  21
ENDBRANCH  14  15
ENDBRANCH  12  14
ENDBRANCH   9  10
ENDBRANCH   7   9
ENDBRANCH   6   7
ENDBRANCH   4   6
TORSDOF 7
ENDMDL
MODEL      305
REMARK 921   NORMALIZED FREE ENERGY PREDICTED BY IDOCK:   -2.45 KCAL/MOL
REMARK 922        TOTAL FREE ENERGY PREDICTED BY IDOCK:   -5.08 KCAL/MOL
REMARK 923 INTER-LIGAND FREE ENERGY PREDICTED BY IDOCK:   -5.17 KCAL/MOL
REMARK 924 INTRA-LIGAND FREE ENERGY PREDICTED BY IDOCK:    0.08 KCAL/MOL
REMARK 927      BINDING AFFINITY PREDICTED BY RF-SCORE:    0.00 PKD
ROOT
HETATM    1  C   UNL     1      -7.505   4.032  64.314  1.00  0.00    -0.071 C  
HETATM    2  C   UNL     1      -8.928   4.583  64.456  1.00  0.00    -0.152 C  
HETATM    3  C   UNL     1      -9.916   3.652  63.765  1.00  0.00    -0.182 C  
HETATM    4  C   UNL     1      -9.280   4.763  65.925  1.00  0.00    -0.149 C  
HETATM    5  O   UNL     1      -8.509   4.519  66.846  1.00  0.00    -0.106 OA 
ENDROOT
BRANCH   4   6
HETATM    6  O   UNL     1     -10.526   5.298  66.091  1.00  0.00    -0.238 OA 
BRANCH   6   7
HETATM    7  C   UNL     1     -10.500   6.629  66.630  1.00  0.00    -0.152 C  
HETATM    8  C   UNL     1     -11.053   6.609  68.054  1.00  0.00    -0.296 C  
BRANCH   7   9
HETATM    9  O   UNL     1      -9.166   7.132  66.820  1.00  0.00    -0.145 OA 
BRANCH   9  10
HETATM   10  C   UNL     1      -8.814   8.162  66.024  1.00  0.00    -0.172 C  
HETATM   11  O   UNL     1      -7.841   8.200  65.295  1.00  0.00    -0.100 OA 
HETATM   12  N   UNL     1      -9.795   9.109  66.113  1.00  0.00    -0.287 N  
HETATM   13  H   UNL     1     -10.572   8.950  66.753  1.00  0.00     0.000 HD 
BRANCH  12  14
HETATM   14  C   UNL     1      -9.774  10.329  65.335  1.00  0.00    -0.278 C  
BRANCH  14  15
HETATM   15  C   UNL     1     -10.628  11.487  65.954  1.00  0.00    -0.318 C  
HETATM   16  C   UNL     1     -10.926  11.212  67.452  1.00  0.00    -0.347 C  
HETATM   17  C   UNL     1      -9.820  12.809  65.812  1.00  0.00    -0.222 C  
HETATM   18  C   UNL     1      -8.605  12.897  66.739  1.00  0.00    -0.071 C  
HETATM   19  C   UNL     1      -9.696  11.308  68.353  1.00  0.00    -0.194 C  
HETATM   20  C   UNL     1      -8.997  12.652  68.191  1.00  0.00    -0.199 C  
BRANCH  15  21
HETATM   21  C   UNL     1     -11.961  11.594  65.155  1.00  0.00     0.187 C  
HETATM   22  O   UNL     1     -11.805  13.183  63.334  1.00  0.00    -0.510 OA 
HETATM   23  C   UNL     1     -12.210  12.918  64.456  1.00  0.00    -0.426 C  
HETATM   24  O   UNL     1     -12.935  13.794  65.184  1.00  0.00    -0.738 OA 
ENDBRANCH  15  21
ENDBRANCH  14  15
ENDBRANCH  12  14
ENDBRANCH   9  10
ENDBRANCH   7   9
ENDBRANCH   6   7
ENDBRANCH   4   6
TORSDOF 7
ENDMDL
MODEL      306
REMARK 921   NORMALIZED FREE ENERGY PREDICTED BY IDOCK:   -2.42 KCAL/MOL
REMARK 922        TOTAL FREE ENERGY PREDICTED BY IDOCK:   -5.05 KCAL/MOL
REMARK 923 INTER-LIGAND FREE ENERGY PREDICTED BY IDOCK:   -4.43 KCAL/MOL
REMARK 924 INTRA-LIGAND FREE ENERGY PREDICTED BY IDOCK:   -0.62 KCAL/MOL
REMARK 927      BINDING AFFINITY PREDICTED BY RF-SCORE:    0.00 PKD
ROOT
HETATM    1  C   UNL     1     -11.944  12.798  66.026  1.00  0.00    -0.491 C  
HETATM    2  C   UNL     1     -10.544  13.404  65.876  1.00  0.00    -0.286 C  
HETATM    3  C   UNL     1     -10.602  14.629  64.974  1.00  0.00    -0.461 C  
HETATM    4  C   UNL     1      -9.973  13.754  67.242  1.00  0.00    -0.239 C  
HETATM    5  O   UNL     1     -10.558  13.550  68.299  1.00  0.00    -0.236 OA 
ENDROOT
BRANCH   4   6
HETATM    6  O   UNL     1      -8.704  14.254  67.154  1.00  0.00    -0.208 OA 
BRANCH   6   7
HETATM    7  C   UNL     1      -7.698  13.309  67.548  1.00  0.00    -0.171 C  
HETATM    8  C   UNL     1      -7.055  13.771  68.856  1.00  0.00    -0.107 C  
BRANCH   7   9
HETATM    9  O   UNL     1      -8.241  12.026  67.904  1.00  0.00    -0.135 OA 
BRANCH   9  10
HETATM   10  C   UNL     1      -7.496  10.959  67.549  1.00  0.00    -0.097 C  
HETATM   11  O   UNL     1      -6.621  10.950  66.705  1.00  0.00    -0.100 OA 
HETATM   12  N   UNL     1      -7.835   9.924  68.375  1.00  0.00    -0.084 N  
HETATM   13  H   UNL     1      -8.579  10.067  69.058  1.00  0.00     0.000 HD 
BRANCH  12  14
HETATM   14  C   UNL     1      -7.180   8.635  68.319  1.00  0.00    -0.086 C  
BRANCH  14  15
HETATM   15  C   UNL     1      -8.172   7.424  68.288  1.00  0.00    -0.125 C  
HETATM   16  C   UNL     1      -7.411   6.082  68.462  1.00  0.00    -0.087 C  
HETATM   17  C   UNL     1      -9.188   7.607  69.452  1.00  0.00    -0.149 C  
HETATM   18  C   UNL     1      -8.590   7.379  70.842  1.00  0.00    -0.135 C  
HETATM   19  C   UNL     1      -6.826   5.881  69.858  1.00  0.00    -0.064 C  
HETATM   20  C   UNL     1      -7.898   6.024  70.931  1.00  0.00    -0.107 C  
BRANCH  15  21
HETATM   21  C   UNL     1      -8.923   7.441  66.923  1.00  0.00    -0.150 C  
HETATM   22  O   UNL     1     -10.733   9.050  66.900  1.00  0.00    -0.215 OA 
HETATM   23  C   UNL     1     -10.373   7.884  66.970  1.00  0.00    -0.341 C  
HETATM   24  O   UNL     1     -11.254   6.867  67.091  1.00  0.00    -0.352 OA 
ENDBRANCH  15  21
ENDBRANCH  14  15
ENDBRANCH  12  14
ENDBRANCH   9  10
ENDBRANCH   7   9
ENDBRANCH   6   7
ENDBRANCH   4   6
TORSDOF 7
ENDMDL
MODEL      307
REMARK 921   NORMALIZED FREE ENERGY PREDICTED BY IDOCK:   -2.42 KCAL/MOL
REMARK 922        TOTAL FREE ENERGY PREDICTED BY IDOCK:   -5.04 KCAL/MOL
REMARK 923 INTER-LIGAND FREE ENERGY PREDICTED BY IDOCK:   -4.35 KCAL/MOL
REMARK 924 INTRA-LIGAND FREE ENERGY PREDICTED BY IDOCK:   -0.70 KCAL/MOL
REMARK 927      BINDING AFFINITY PREDICTED BY RF-SCORE:    0.00 PKD
ROOT
HETATM    1  C   UNL     1     -12.661   7.112  71.520  1.00  0.00    -0.433 C  
HETATM    2  C   UNL     1     -11.380   7.777  71.006  1.00  0.00    -0.287 C  
HETATM    3  C   UNL     1     -10.665   8.483  72.151  1.00  0.00    -0.426 C  
HETATM    4  C   UNL     1     -10.477   6.744  70.350  1.00  0.00    -0.206 C  
HETATM    5  O   UNL     1     -10.765   5.558  70.239  1.00  0.00    -0.294 OA 
ENDROOT
BRANCH   4   6
HETATM    6  O   UNL     1      -9.343   7.307  69.836  1.00  0.00    -0.154 OA 
BRANCH   6   7
HETATM    7  C   UNL     1      -8.195   7.133  70.680  1.00  0.00    -0.117 C  
HETATM    8  C   UNL     1      -7.719   5.683  70.594  1.00  0.00    -0.092 C  
BRANCH   7   9
HETATM    9  O   UNL     1      -7.045   7.866  70.225  1.00  0.00    -0.048 OA 
BRANCH   9  10
HETATM   10  C   UNL     1      -7.285   8.802  69.285  1.00  0.00    -0.062 C  
HETATM   11  O   UNL     1      -7.374  10.000  69.477  1.00  0.00    -0.084 OA 
HETATM   12  N   UNL     1      -7.311   8.174  68.071  1.00  0.00    -0.094 N  
HETATM   13  H   UNL     1      -7.207   7.160  68.043  1.00  0.00     0.000 HD 
BRANCH  12  14
HETATM   14  C   UNL     1      -7.482   8.890  66.825  1.00  0.00    -0.083 C  
BRANCH  14  15
HETATM   15  C   UNL     1      -8.788   8.507  66.051  1.00  0.00    -0.208 C  
HETATM   16  C   UNL     1     -10.029   9.176  66.700  1.00  0.00    -0.343 C  
HETATM   17  C   UNL     1      -8.635   8.995  64.581  1.00  0.00    -0.190 C  
HETATM   18  C   UNL     1      -8.708  10.515  64.419  1.00  0.00    -0.187 C  
HETATM   19  C   UNL     1     -10.077  10.692  66.521  1.00  0.00    -0.275 C  
HETATM   20  C   UNL     1      -9.975  11.078  65.051  1.00  0.00    -0.340 C  
BRANCH  15  21
HETATM   21  C   UNL     1      -8.938   6.957  66.081  1.00  0.00    -0.157 C  
HETATM   22  O   UNL     1      -6.824   5.830  65.730  1.00  0.00    -0.057 OA 
HETATM   23  C   UNL     1      -7.909   6.176  65.286  1.00  0.00    -0.105 C  
HETATM   24  O   UNL     1      -8.297   5.880  64.027  1.00  0.00    -0.102 OA 
ENDBRANCH  15  21
ENDBRANCH  14  15
ENDBRANCH  12  14
ENDBRANCH   9  10
ENDBRANCH   7   9
ENDBRANCH   6   7
ENDBRANCH   4   6
TORSDOF 7
ENDMDL
MODEL      308
REMARK 921   NORMALIZED FREE ENERGY PREDICTED BY IDOCK:   -2.41 KCAL/MOL
REMARK 922        TOTAL FREE ENERGY PREDICTED BY IDOCK:   -5.03 KCAL/MOL
REMARK 923 INTER-LIGAND FREE ENERGY PREDICTED BY IDOCK:   -5.13 KCAL/MOL
REMARK 924 INTRA-LIGAND FREE ENERGY PREDICTED BY IDOCK:    0.10 KCAL/MOL
REMARK 927      BINDING AFFINITY PREDICTED BY RF-SCORE:    0.00 PKD
ROOT
HETATM    1  C   UNL     1      -5.408  10.496  70.918  1.00  0.00    -0.089 C  
HETATM    2  C   UNL     1      -6.355  10.383  69.719  1.00  0.00    -0.079 C  
HETATM    3  C   UNL     1      -5.651   9.682  68.565  1.00  0.00    -0.039 C  
HETATM    4  C   UNL     1      -7.624   9.644  70.117  1.00  0.00    -0.158 C  
HETATM    5  O   UNL     1      -7.845   9.228  71.249  1.00  0.00    -0.322 OA 
ENDROOT
BRANCH   4   6
HETATM    6  O   UNL     1      -8.516   9.564  69.085  1.00  0.00    -0.119 OA 
BRANCH   6   7
HETATM    7  C   UNL     1      -9.445   8.479  69.228  1.00  0.00    -0.158 C  
HETATM    8  C   UNL     1      -8.756   7.313  69.938  1.00  0.00    -0.141 C  
BRANCH   7   9
HETATM    9  O   UNL     1     -10.535   8.784  70.114  1.00  0.00    -0.202 OA 
BRANCH   9  10
HETATM   10  C   UNL     1     -11.200   9.926  69.849  1.00  0.00    -0.250 C  
HETATM   11  O   UNL     1     -11.589  10.733  70.671  1.00  0.00    -0.322 OA 
HETATM   12  N   UNL     1     -11.271  10.057  68.490  1.00  0.00    -0.474 N  
HETATM   13  H   UNL     1     -10.890   9.313  67.906  1.00  0.00     0.000 HD 
BRANCH  12  14
HETATM   14  C   UNL     1     -11.865  11.210  67.848  1.00  0.00    -0.082 C  
BRANCH  14  15
HETATM   15  C   UNL     1     -10.817  12.247  67.319  1.00  0.00    -0.283 C  
HETATM   16  C   UNL     1     -11.478  13.242  66.327  1.00  0.00    -0.358 C  
HETATM   17  C   UNL     1     -10.252  13.024  68.543  1.00  0.00    -0.218 C  
HETATM   18  C   UNL     1     -11.246  14.002  69.173  1.00  0.00    -0.308 C  
HETATM   19  C   UNL     1     -12.464  14.206  66.983  1.00  0.00    -0.092 C  
HETATM   20  C   UNL     1     -11.813  14.961  68.134  1.00  0.00    -0.307 C  
BRANCH  15  21
HETATM   21  C   UNL     1      -9.670  11.467  66.612  1.00  0.00    -0.221 C  
HETATM   22  O   UNL     1     -10.319  10.691  64.412  1.00  0.00    -0.363 OA 
HETATM   23  C   UNL     1     -10.104  10.435  65.587  1.00  0.00    -0.269 C  
HETATM   24  O   UNL     1     -10.228   9.186  66.085  1.00  0.00    -0.272 OA 
ENDBRANCH  15  21
ENDBRANCH  14  15
ENDBRANCH  12  14
ENDBRANCH   9  10
ENDBRANCH   7   9
ENDBRANCH   6   7
ENDBRANCH   4   6
TORSDOF 7
ENDMDL
MODEL      309
REMARK 921   NORMALIZED FREE ENERGY PREDICTED BY IDOCK:   -2.38 KCAL/MOL
REMARK 922        TOTAL FREE ENERGY PREDICTED BY IDOCK:   -4.99 KCAL/MOL
REMARK 923 INTER-LIGAND FREE ENERGY PREDICTED BY IDOCK:   -4.95 KCAL/MOL
REMARK 924 INTRA-LIGAND FREE ENERGY PREDICTED BY IDOCK:   -0.03 KCAL/MOL
REMARK 927      BINDING AFFINITY PREDICTED BY RF-SCORE:    0.00 PKD
ROOT
HETATM    1  C   UNL     1     -11.943  11.082  69.460  1.00  0.00    -0.413 C  
HETATM    2  C   UNL     1     -11.703   9.835  70.318  1.00  0.00    -0.253 C  
HETATM    3  C   UNL     1     -10.220   9.702  70.637  1.00  0.00    -0.346 C  
HETATM    4  C   UNL     1     -12.534   9.902  71.590  1.00  0.00    -0.415 C  
HETATM    5  O   UNL     1     -13.298  10.822  71.858  1.00  0.00    -0.427 OA 
ENDROOT
BRANCH   4   6
HETATM    6  O   UNL     1     -12.383   8.784  72.361  1.00  0.00    -0.378 OA 
BRANCH   6   7
HETATM    7  C   UNL     1     -13.258   7.713  71.975  1.00  0.00    -0.168 C  
HETATM    8  C   UNL     1     -14.398   8.272  71.125  1.00  0.00    -0.251 C  
BRANCH   7   9
HETATM    9  O   UNL     1     -12.636   6.772  71.083  1.00  0.00    -0.353 OA 
BRANCH   9  10
HETATM   10  C   UNL     1     -11.539   6.153  71.562  1.00  0.00    -0.241 C  
HETATM   11  O   UNL     1     -11.425   5.656  72.666  1.00  0.00    -0.296 OA 
HETATM   12  N   UNL     1     -10.620   6.098  70.552  1.00  0.00    -0.236 N  
HETATM   13  H   UNL     1     -10.845   6.541  69.661  1.00  0.00     0.000 HD 
BRANCH  12  14
HETATM   14  C   UNL     1      -9.340   5.437  70.696  1.00  0.00    -0.162 C  
BRANCH  14  15
HETATM   15  C   UNL     1      -9.116   4.269  69.678  1.00  0.00    -0.179 C  
HETATM   16  C   UNL     1     -10.012   4.452  68.423  1.00  0.00    -0.070 C  
HETATM   17  C   UNL     1      -7.617   4.278  69.260  1.00  0.00    -0.054 C  
HETATM   18  C   UNL     1      -7.230   5.449  68.354  1.00  0.00    -0.071 C  
HETATM   19  C   UNL     1      -9.602   5.627  67.538  1.00  0.00    -0.124 C  
HETATM   20  C   UNL     1      -8.137   5.528  67.133  1.00  0.00    -0.101 C  
BRANCH  15  21
HETATM   21  C   UNL     1      -9.459   2.927  70.389  1.00  0.00    -0.201 C  
HETATM   22  O   UNL     1      -9.483   3.154  72.800  1.00  0.00    -0.097 OA 
HETATM   23  C   UNL     1      -8.910   2.762  71.794  1.00  0.00    -0.075 C  
HETATM   24  O   UNL     1      -7.718   2.129  71.847  1.00  0.00    -0.043 OA 
ENDBRANCH  15  21
ENDBRANCH  14  15
ENDBRANCH  12  14
ENDBRANCH   9  10
ENDBRANCH   7   9
ENDBRANCH   6   7
ENDBRANCH   4   6
TORSDOF 7
ENDMDL
MODEL      310
REMARK 921   NORMALIZED FREE ENERGY PREDICTED BY IDOCK:   -2.36 KCAL/MOL
REMARK 922        TOTAL FREE ENERGY PREDICTED BY IDOCK:   -4.95 KCAL/MOL
REMARK 923 INTER-LIGAND FREE ENERGY PREDICTED BY IDOCK:   -4.14 KCAL/MOL
REMARK 924 INTRA-LIGAND FREE ENERGY PREDICTED BY IDOCK:   -0.81 KCAL/MOL
REMARK 927      BINDING AFFINITY PREDICTED BY RF-SCORE:    0.00 PKD
ROOT
HETATM    1  C   UNL     1     -12.100  14.240  68.165  1.00  0.00    -0.275 C  
HETATM    2  C   UNL     1     -10.991  15.297  68.127  1.00  0.00    -0.292 C  
HETATM    3  C   UNL     1     -10.450  15.533  69.531  1.00  0.00    -0.263 C  
HETATM    4  C   UNL     1      -9.884  14.865  67.178  1.00  0.00    -0.231 C  
HETATM    5  O   UNL     1      -9.908  13.826  66.529  1.00  0.00    -0.273 OA 
ENDROOT
BRANCH   4   6
HETATM    6  O   UNL     1      -8.897  15.806  67.080  1.00  0.00    -0.185 OA 
BRANCH   6   7
HETATM    7  C   UNL     1      -7.580  15.237  67.032  1.00  0.00    -0.126 C  
HETATM    8  C   UNL     1      -6.553  16.306  67.403  1.00  0.00    -0.212 C  
BRANCH   7   9
HETATM    9  O   UNL     1      -7.364  14.233  68.038  1.00  0.00    -0.112 OA 
BRANCH   9  10
HETATM   10  C   UNL     1      -6.822  13.078  67.603  1.00  0.00    -0.154 C  
HETATM   11  O   UNL     1      -5.684  12.932  67.198  1.00  0.00    -0.347 OA 
HETATM   12  N   UNL     1      -7.747  12.090  67.791  1.00  0.00    -0.129 N  
HETATM   13  H   UNL     1      -8.665  12.342  68.155  1.00  0.00     0.000 HD 
BRANCH  12  14
HETATM   14  C   UNL     1      -7.475  10.700  67.492  1.00  0.00    -0.093 C  
BRANCH  14  15
HETATM   15  C   UNL     1      -8.276   9.695  68.387  1.00  0.00    -0.106 C  
HETATM   16  C   UNL     1      -9.800   9.982  68.310  1.00  0.00    -0.163 C  
HETATM   17  C   UNL     1      -7.986   8.256  67.870  1.00  0.00    -0.123 C  
HETATM   18  C   UNL     1      -8.637   7.935  66.523  1.00  0.00    -0.149 C  
HETATM   19  C   UNL     1     -10.423   9.652  66.955  1.00  0.00    -0.302 C  
HETATM   20  C   UNL     1     -10.135   8.211  66.552  1.00  0.00    -0.286 C  
BRANCH  15  21
HETATM   21  C   UNL     1      -7.777   9.840  69.855  1.00  0.00    -0.162 C  
HETATM   22  O   UNL     1      -5.968   8.310  70.357  1.00  0.00    -0.028 OA 
HETATM   23  C   UNL     1      -7.150   8.601  70.467  1.00  0.00    -0.044 C  
HETATM   24  O   UNL     1      -8.017   7.835  71.164  1.00  0.00    -0.087 OA 
ENDBRANCH  15  21
ENDBRANCH  14  15
ENDBRANCH  12  14
ENDBRANCH   9  10
ENDBRANCH   7   9
ENDBRANCH   6   7
ENDBRANCH   4   6
TORSDOF 7
ENDMDL
MODEL      311
REMARK 921   NORMALIZED FREE ENERGY PREDICTED BY IDOCK:   -2.34 KCAL/MOL
REMARK 922        TOTAL FREE ENERGY PREDICTED BY IDOCK:   -4.94 KCAL/MOL
REMARK 923 INTER-LIGAND FREE ENERGY PREDICTED BY IDOCK:   -3.90 KCAL/MOL
REMARK 924 INTRA-LIGAND FREE ENERGY PREDICTED BY IDOCK:   -1.03 KCAL/MOL
REMARK 927      BINDING AFFINITY PREDICTED BY RF-SCORE:    0.00 PKD
ROOT
HETATM    1  C   UNL     1      -8.728   3.324  66.849  1.00  0.00    -0.134 C  
HETATM    2  C   UNL     1      -8.079   4.663  66.483  1.00  0.00    -0.103 C  
HETATM    3  C   UNL     1      -7.231   4.503  65.229  1.00  0.00    -0.068 C  
HETATM    4  C   UNL     1      -9.145   5.731  66.292  1.00  0.00    -0.147 C  
HETATM    5  O   UNL     1     -10.346   5.531  66.439  1.00  0.00    -0.220 OA 
ENDROOT
BRANCH   4   6
HETATM    6  O   UNL     1      -8.602   6.953  66.010  1.00  0.00    -0.137 OA 
BRANCH   6   7
HETATM    7  C   UNL     1      -7.945   7.550  67.138  1.00  0.00    -0.117 C  
HETATM    8  C   UNL     1      -6.552   8.022  66.721  1.00  0.00    -0.056 C  
BRANCH   7   9
HETATM    9  O   UNL     1      -8.571   8.769  67.573  1.00  0.00    -0.125 OA 
BRANCH   9  10
HETATM   10  C   UNL     1      -9.635   8.620  68.388  1.00  0.00    -0.147 C  
HETATM   11  O   UNL     1     -10.607   9.350  68.432  1.00  0.00    -0.218 OA 
HETATM   12  N   UNL     1      -9.467   7.454  69.080  1.00  0.00    -0.148 N  
HETATM   13  H   UNL     1      -8.608   6.921  68.940  1.00  0.00     0.000 HD 
BRANCH  12  14
HETATM   14  C   UNL     1     -10.459   6.944  70.003  1.00  0.00    -0.207 C  
BRANCH  14  15
HETATM   15  C   UNL     1      -9.849   6.157  71.211  1.00  0.00    -0.204 C  
HETATM   16  C   UNL     1      -8.407   6.645  71.517  1.00  0.00    -0.120 C  
HETATM   17  C   UNL     1     -10.760   6.399  72.450  1.00  0.00    -0.255 C  
HETATM   18  C   UNL     1     -10.664   7.814  73.025  1.00  0.00    -0.446 C  
HETATM   19  C   UNL     1      -8.343   8.059  72.091  1.00  0.00    -0.188 C  
HETATM   20  C   UNL     1      -9.220   8.192  73.329  1.00  0.00    -0.316 C  
BRANCH  15  21
HETATM   21  C   UNL     1      -9.837   4.642  70.853  1.00  0.00    -0.272 C  
HETATM   22  O   UNL     1      -9.607   3.243  72.816  1.00  0.00    -0.109 OA 
HETATM   23  C   UNL     1      -9.098   3.737  71.822  1.00  0.00    -0.111 C  
HETATM   24  O   UNL     1      -7.809   3.511  71.486  1.00  0.00    -0.055 OA 
ENDBRANCH  15  21
ENDBRANCH  14  15
ENDBRANCH  12  14
ENDBRANCH   9  10
ENDBRANCH   7   9
ENDBRANCH   6   7
ENDBRANCH   4   6
TORSDOF 7
ENDMDL
MODEL      312
REMARK 921   NORMALIZED FREE ENERGY PREDICTED BY IDOCK:   -2.34 KCAL/MOL
REMARK 922        TOTAL FREE ENERGY PREDICTED BY IDOCK:   -4.93 KCAL/MOL
REMARK 923 INTER-LIGAND FREE ENERGY PREDICTED BY IDOCK:   -4.39 KCAL/MOL
REMARK 924 INTRA-LIGAND FREE ENERGY PREDICTED BY IDOCK:   -0.54 KCAL/MOL
REMARK 927      BINDING AFFINITY PREDICTED BY RF-SCORE:    0.00 PKD
ROOT
HETATM    1  C   UNL     1     -12.362  13.813  66.830  1.00  0.00    -0.328 C  
HETATM    2  C   UNL     1     -11.777  12.716  65.935  1.00  0.00    -0.470 C  
HETATM    3  C   UNL     1     -12.682  12.489  64.732  1.00  0.00    -0.415 C  
HETATM    4  C   UNL     1     -10.368  13.087  65.500  1.00  0.00    -0.294 C  
HETATM    5  O   UNL     1      -9.793  14.112  65.847  1.00  0.00    -0.304 OA 
ENDROOT
BRANCH   4   6
HETATM    6  O   UNL     1      -9.793  12.109  64.737  1.00  0.00    -0.225 OA 
BRANCH   6   7
HETATM    7  C   UNL     1      -9.275  11.020  65.516  1.00  0.00    -0.213 C  
HETATM    8  C   UNL     1      -9.224   9.759  64.652  1.00  0.00    -0.312 C  
BRANCH   7   9
HETATM    9  O   UNL     1      -7.897  11.199  65.887  1.00  0.00    -0.091 OA 
BRANCH   9  10
HETATM   10  C   UNL     1      -7.280  10.106  66.379  1.00  0.00    -0.108 C  
HETATM   11  O   UNL     1      -6.385   9.488  65.836  1.00  0.00    -0.071 OA 
HETATM   12  N   UNL     1      -7.772   9.881  67.634  1.00  0.00    -0.091 N  
HETATM   13  H   UNL     1      -8.515  10.486  67.984  1.00  0.00     0.000 HD 
BRANCH  12  14
HETATM   14  C   UNL     1      -7.281   8.820  68.487  1.00  0.00    -0.074 C  
BRANCH  14  15
HETATM   15  C   UNL     1      -8.257   7.601  68.601  1.00  0.00    -0.128 C  
HETATM   16  C   UNL     1      -7.687   6.366  67.853  1.00  0.00    -0.104 C  
HETATM   17  C   UNL     1      -8.431   7.266  70.111  1.00  0.00    -0.138 C  
HETATM   18  C   UNL     1      -7.195   6.633  70.755  1.00  0.00    -0.070 C  
HETATM   19  C   UNL     1      -6.455   5.755  68.518  1.00  0.00    -0.042 C  
HETATM   20  C   UNL     1      -6.731   5.409  69.976  1.00  0.00    -0.047 C  
BRANCH  15  21
HETATM   21  C   UNL     1      -9.628   8.012  67.989  1.00  0.00    -0.170 C  
HETATM   22  O   UNL     1     -11.445   6.647  68.826  1.00  0.00    -0.172 OA 
HETATM   23  C   UNL     1     -10.676   6.917  67.916  1.00  0.00    -0.232 C  
HETATM   24  O   UNL     1     -10.698   6.256  66.737  1.00  0.00    -0.290 OA 
ENDBRANCH  15  21
ENDBRANCH  14  15
ENDBRANCH  12  14
ENDBRANCH   9  10
ENDBRANCH   7   9
ENDBRANCH   6   7
ENDBRANCH   4   6
TORSDOF 7
ENDMDL
MODEL      313
REMARK 921   NORMALIZED FREE ENERGY PREDICTED BY IDOCK:   -2.31 KCAL/MOL
REMARK 922        TOTAL FREE ENERGY PREDICTED BY IDOCK:   -4.89 KCAL/MOL
REMARK 923 INTER-LIGAND FREE ENERGY PREDICTED BY IDOCK:   -4.88 KCAL/MOL
REMARK 924 INTRA-LIGAND FREE ENERGY PREDICTED BY IDOCK:   -0.01 KCAL/MOL
REMARK 927      BINDING AFFINITY PREDICTED BY RF-SCORE:    0.00 PKD
ROOT
HETATM    1  C   UNL     1     -10.624  14.935  66.449  1.00  0.00    -0.307 C  
HETATM    2  C   UNL     1     -11.012  14.166  67.716  1.00  0.00    -0.274 C  
HETATM    3  C   UNL     1     -11.720  15.097  68.693  1.00  0.00    -0.364 C  
HETATM    4  C   UNL     1     -11.888  12.974  67.363  1.00  0.00    -0.357 C  
HETATM    5  O   UNL     1     -12.205  12.676  66.217  1.00  0.00    -0.562 OA 
ENDROOT
BRANCH   4   6
HETATM    6  O   UNL     1     -12.216  12.234  68.464  1.00  0.00    -0.240 OA 
BRANCH   6   7
HETATM    7  C   UNL     1     -11.134  11.418  68.937  1.00  0.00    -0.233 C  
HETATM    8  C   UNL     1     -11.669  10.403  69.946  1.00  0.00    -0.341 C  
BRANCH   7   9
HETATM    9  O   UNL     1     -10.576  10.576  67.913  1.00  0.00    -0.197 OA 
BRANCH   9  10
HETATM   10  C   UNL     1      -9.382  10.020  68.203  1.00  0.00    -0.131 C  
HETATM   11  O   UNL     1      -8.473  10.557  68.805  1.00  0.00    -0.125 OA 
HETATM   12  N   UNL     1      -9.419   8.719  67.784  1.00  0.00    -0.140 N  
HETATM   13  H   UNL     1     -10.253   8.383  67.303  1.00  0.00     0.000 HD 
BRANCH  12  14
HETATM   14  C   UNL     1      -8.321   7.800  67.997  1.00  0.00    -0.124 C  
BRANCH  14  15
HETATM   15  C   UNL     1      -8.768   6.306  68.134  1.00  0.00    -0.115 C  
HETATM   16  C   UNL     1      -8.700   5.843  69.615  1.00  0.00    -0.128 C  
HETATM   17  C   UNL     1     -10.231   6.193  67.615  1.00  0.00    -0.214 C  
HETATM   18  C   UNL     1     -11.271   6.830  68.539  1.00  0.00    -0.155 C  
HETATM   19  C   UNL     1      -9.750   6.494  70.513  1.00  0.00    -0.186 C  
HETATM   20  C   UNL     1     -11.154   6.290  69.959  1.00  0.00    -0.455 C  
BRANCH  15  21
HETATM   21  C   UNL     1      -7.826   5.430  67.256  1.00  0.00    -0.101 C  
HETATM   22  O   UNL     1      -7.431   3.252  68.238  1.00  0.00    -0.053 OA 
HETATM   23  C   UNL     1      -7.021   4.377  67.995  1.00  0.00    -0.056 C  
HETATM   24  O   UNL     1      -5.788   4.788  68.362  1.00  0.00    -0.023 OA 
ENDBRANCH  15  21
ENDBRANCH  14  15
ENDBRANCH  12  14
ENDBRANCH   9  10
ENDBRANCH   7   9
ENDBRANCH   6   7
ENDBRANCH   4   6
TORSDOF 7
ENDMDL
MODEL      314
REMARK 921   NORMALIZED FREE ENERGY PREDICTED BY IDOCK:   -2.31 KCAL/MOL
REMARK 922        TOTAL FREE ENERGY PREDICTED BY IDOCK:   -4.88 KCAL/MOL
REMARK 923 INTER-LIGAND FREE ENERGY PREDICTED BY IDOCK:   -4.92 KCAL/MOL
REMARK 924 INTRA-LIGAND FREE ENERGY PREDICTED BY IDOCK:    0.04 KCAL/MOL
REMARK 927      BINDING AFFINITY PREDICTED BY RF-SCORE:    0.00 PKD
ROOT
HETATM    1  C   UNL     1     -12.608   7.192  71.683  1.00  0.00    -0.410 C  
HETATM    2  C   UNL     1     -11.926   7.708  70.411  1.00  0.00     0.059 C  
HETATM    3  C   UNL     1     -11.000   8.868  70.753  1.00  0.00    -0.305 C  
HETATM    4  C   UNL     1     -11.165   6.582  69.727  1.00  0.00    -0.395 C  
HETATM    5  O   UNL     1     -11.136   5.429  70.140  1.00  0.00    -0.170 OA 
ENDROOT
BRANCH   4   6
HETATM    6  O   UNL     1     -10.582   6.993  68.562  1.00  0.00    -0.200 OA 
BRANCH   6   7
HETATM    7  C   UNL     1      -9.237   7.463  68.741  1.00  0.00    -0.144 C  
HETATM    8  C   UNL     1      -8.259   6.335  68.414  1.00  0.00    -0.116 C  
BRANCH   7   9
HETATM    9  O   UNL     1      -8.867   8.481  67.795  1.00  0.00    -0.136 OA 
BRANCH   9  10
HETATM   10  C   UNL     1      -9.710   9.529  67.707  1.00  0.00    -0.147 C  
HETATM   11  O   UNL     1     -10.847   9.495  67.276  1.00  0.00    -0.251 OA 
HETATM   12  N   UNL     1      -9.093  10.607  68.275  1.00  0.00    -0.147 N  
HETATM   13  H   UNL     1      -8.138  10.501  68.616  1.00  0.00     0.000 HD 
BRANCH  12  14
HETATM   14  C   UNL     1      -9.741  11.894  68.413  1.00  0.00    -0.201 C  
BRANCH  14  15
HETATM   15  C   UNL     1      -9.357  12.917  67.291  1.00  0.00    -0.212 C  
HETATM   16  C   UNL     1      -9.947  12.481  65.923  1.00  0.00    -0.269 C  
HETATM   17  C   UNL     1      -9.932  14.307  67.692  1.00  0.00    -0.225 C  
HETATM   18  C   UNL     1     -11.455  14.406  67.583  1.00  0.00    -0.369 C  
HETATM   19  C   UNL     1     -11.468  12.591  65.842  1.00  0.00    -0.417 C  
HETATM   20  C   UNL     1     -11.938  13.996  66.197  1.00  0.00    -0.440 C  
BRANCH  15  21
HETATM   21  C   UNL     1      -7.804  12.991  67.206  1.00  0.00    -0.132 C  
HETATM   22  O   UNL     1      -6.748  12.383  69.299  1.00  0.00    -0.104 OA 
HETATM   23  C   UNL     1      -7.081  13.258  68.513  1.00  0.00    -0.105 C  
HETATM   24  O   UNL     1      -6.822  14.564  68.740  1.00  0.00    -0.084 OA 
ENDBRANCH  15  21
ENDBRANCH  14  15
ENDBRANCH  12  14
ENDBRANCH   9  10
ENDBRANCH   7   9
ENDBRANCH   6   7
ENDBRANCH   4   6
TORSDOF 7
ENDMDL
MODEL      315
REMARK 921   NORMALIZED FREE ENERGY PREDICTED BY IDOCK:   -2.28 KCAL/MOL
REMARK 922        TOTAL FREE ENERGY PREDICTED BY IDOCK:   -4.85 KCAL/MOL
REMARK 923 INTER-LIGAND FREE ENERGY PREDICTED BY IDOCK:   -5.55 KCAL/MOL
REMARK 924 INTRA-LIGAND FREE ENERGY PREDICTED BY IDOCK:    0.71 KCAL/MOL
REMARK 927      BINDING AFFINITY PREDICTED BY RF-SCORE:    0.00 PKD
ROOT
HETATM    1  C   UNL     1      -8.557  10.192  65.383  1.00  0.00    -0.165 C  
HETATM    2  C   UNL     1      -9.306  11.361  66.031  1.00  0.00    -0.235 C  
HETATM    3  C   UNL     1     -10.662  11.543  65.361  1.00  0.00    -0.335 C  
HETATM    4  C   UNL     1      -9.461  11.125  67.525  1.00  0.00    -0.168 C  
HETATM    5  O   UNL     1      -9.019  10.143  68.111  1.00  0.00    -0.121 OA 
ENDROOT
BRANCH   4   6
HETATM    6  O   UNL     1     -10.084  12.171  68.147  1.00  0.00    -0.194 OA 
BRANCH   6   7
HETATM    7  C   UNL     1     -11.482  11.936  68.377  1.00  0.00    -0.299 C  
HETATM    8  C   UNL     1     -11.679  11.403  69.796  1.00  0.00    -0.418 C  
BRANCH   7   9
HETATM    9  O   UNL     1     -12.260  13.145  68.387  1.00  0.00    -0.248 OA 
BRANCH   9  10
HETATM   10  C   UNL     1     -11.714  14.185  69.048  1.00  0.00    -0.324 C  
HETATM   11  O   UNL     1     -11.785  14.387  70.245  1.00  0.00    -0.277 OA 
HETATM   12  N   UNL     1     -10.988  14.913  68.147  1.00  0.00    -0.263 N  
HETATM   13  H   UNL     1     -10.996  14.628  67.167  1.00  0.00     0.000 HD 
BRANCH  12  14
HETATM   14  C   UNL     1     -10.208  16.071  68.527  1.00  0.00    -0.236 C  
BRANCH  14  15
HETATM   15  C   UNL     1      -9.337  16.654  67.363  1.00  0.00    -0.223 C  
HETATM   16  C   UNL     1      -8.674  15.513  66.546  1.00  0.00    -0.340 C  
HETATM   17  C   UNL     1     -10.269  17.490  66.439  1.00  0.00    -0.354 C  
HETATM   18  C   UNL     1     -11.235  16.647  65.603  1.00  0.00     0.292 C  
HETATM   19  C   UNL     1      -9.661  14.690  65.722  1.00  0.00    -0.331 C  
HETATM   20  C   UNL     1     -10.494  15.580  64.808  1.00  0.00    -0.155 C  
BRANCH  15  21
HETATM   21  C   UNL     1      -8.243  17.574  67.983  1.00  0.00    -0.239 C  
HETATM   22  O   UNL     1      -9.202  19.458  69.164  1.00  0.00    -0.323 OA 
HETATM   23  C   UNL     1      -8.631  19.029  68.173  1.00  0.00    -0.320 C  
HETATM   24  O   UNL     1      -8.281  19.828  67.142  1.00  0.00    -0.277 OA 
ENDBRANCH  15  21
ENDBRANCH  14  15
ENDBRANCH  12  14
ENDBRANCH   9  10
ENDBRANCH   7   9
ENDBRANCH   6   7
ENDBRANCH   4   6
TORSDOF 7
ENDMDL
MODEL      316
REMARK 921   NORMALIZED FREE ENERGY PREDICTED BY IDOCK:   -2.27 KCAL/MOL
REMARK 922        TOTAL FREE ENERGY PREDICTED BY IDOCK:   -4.83 KCAL/MOL
REMARK 923 INTER-LIGAND FREE ENERGY PREDICTED BY IDOCK:   -4.96 KCAL/MOL
REMARK 924 INTRA-LIGAND FREE ENERGY PREDICTED BY IDOCK:    0.13 KCAL/MOL
REMARK 927      BINDING AFFINITY PREDICTED BY RF-SCORE:    0.00 PKD
ROOT
HETATM    1  C   UNL     1      -8.811   7.603  73.674  1.00  0.00    -0.295 C  
HETATM    2  C   UNL     1      -8.639   8.267  72.304  1.00  0.00    -0.257 C  
HETATM    3  C   UNL     1      -7.161   8.514  72.029  1.00  0.00    -0.108 C  
HETATM    4  C   UNL     1      -9.262   7.404  71.218  1.00  0.00    -0.150 C  
HETATM    5  O   UNL     1      -9.836   6.343  71.435  1.00  0.00    -0.176 OA 
ENDROOT
BRANCH   4   6
HETATM    6  O   UNL     1      -9.170   7.986  69.985  1.00  0.00    -0.154 OA 
BRANCH   6   7
HETATM    7  C   UNL     1     -10.311   8.794  69.659  1.00  0.00    -0.213 C  
HETATM    8  C   UNL     1     -10.097  10.210  70.194  1.00  0.00    -0.197 C  
BRANCH   7   9
HETATM    9  O   UNL     1     -10.459   9.014  68.245  1.00  0.00    -0.212 OA 
BRANCH   9  10
HETATM   10  C   UNL     1     -11.027  10.184  67.894  1.00  0.00    -0.277 C  
HETATM   11  O   UNL     1     -12.083  10.619  68.314  1.00  0.00    -0.423 OA 
HETATM   12  N   UNL     1     -10.160  10.833  67.060  1.00  0.00    -0.200 N  
HETATM   13  H   UNL     1      -9.294  10.364  66.794  1.00  0.00     0.000 HD 
BRANCH  12  14
HETATM   14  C   UNL     1     -10.422  12.157  66.538  1.00  0.00    -0.225 C  
BRANCH  14  15
HETATM   15  C   UNL     1      -9.557  13.279  67.206  1.00  0.00    -0.234 C  
HETATM   16  C   UNL     1      -9.760  14.637  66.480  1.00  0.00    -0.297 C  
HETATM   17  C   UNL     1     -10.000  13.406  68.692  1.00  0.00    -0.139 C  
HETATM   18  C   UNL     1     -11.381  14.039  68.878  1.00  0.00    -0.314 C  
HETATM   19  C   UNL     1     -11.145  15.245  66.684  1.00  0.00    -0.276 C  
HETATM   20  C   UNL     1     -11.475  15.382  68.165  1.00  0.00    -0.352 C  
BRANCH  15  21
HETATM   21  C   UNL     1      -8.061  12.852  67.134  1.00  0.00    -0.122 C  
HETATM   22  O   UNL     1      -7.493  11.236  68.846  1.00  0.00    -0.112 OA 
HETATM   23  C   UNL     1      -7.442  12.387  68.439  1.00  0.00    -0.123 C  
HETATM   24  O   UNL     1      -6.810  13.364  69.125  1.00  0.00    -0.108 OA 
ENDBRANCH  15  21
ENDBRANCH  14  15
ENDBRANCH  12  14
ENDBRANCH   9  10
ENDBRANCH   7   9
ENDBRANCH   6   7
ENDBRANCH   4   6
TORSDOF 7
ENDMDL
MODEL      317
REMARK 921   NORMALIZED FREE ENERGY PREDICTED BY IDOCK:   -2.23 KCAL/MOL
REMARK 922        TOTAL FREE ENERGY PREDICTED BY IDOCK:   -4.78 KCAL/MOL
REMARK 923 INTER-LIGAND FREE ENERGY PREDICTED BY IDOCK:   -3.60 KCAL/MOL
REMARK 924 INTRA-LIGAND FREE ENERGY PREDICTED BY IDOCK:   -1.18 KCAL/MOL
REMARK 927      BINDING AFFINITY PREDICTED BY RF-SCORE:    0.00 PKD
ROOT
HETATM    1  C   UNL     1      -7.906  10.965  66.400  1.00  0.00    -0.154 C  
HETATM    2  C   UNL     1      -8.755   9.730  66.081  1.00  0.00    -0.150 C  
HETATM    3  C   UNL     1      -9.945  10.126  65.217  1.00  0.00    -0.381 C  
HETATM    4  C   UNL     1      -7.908   8.670  65.396  1.00  0.00    -0.101 C  
HETATM    5  O   UNL     1      -6.711   8.798  65.162  1.00  0.00    -0.064 OA 
ENDROOT
BRANCH   4   6
HETATM    6  O   UNL     1      -8.619   7.532  65.138  1.00  0.00    -0.082 OA 
BRANCH   6   7
HETATM    7  C   UNL     1      -8.883   6.755  66.315  1.00  0.00    -0.147 C  
HETATM    8  C   UNL     1      -9.913   5.673  65.987  1.00  0.00    -0.032 C  
BRANCH   7   9
HETATM    9  O   UNL     1      -7.749   5.984  66.747  1.00  0.00    -0.097 OA 
BRANCH   9  10
HETATM   10  C   UNL     1      -7.373   6.168  68.029  1.00  0.00    -0.088 C  
HETATM   11  O   UNL     1      -6.251   6.011  68.473  1.00  0.00    -0.029 OA 
HETATM   12  N   UNL     1      -8.452   6.654  68.712  1.00  0.00    -0.123 N  
HETATM   13  H   UNL     1      -9.338   6.757  68.217  1.00  0.00     0.000 HD 
BRANCH  12  14
HETATM   14  C   UNL     1      -8.387   7.030  70.108  1.00  0.00    -0.138 C  
BRANCH  14  15
HETATM   15  C   UNL     1      -8.499   8.573  70.351  1.00  0.00    -0.138 C  
HETATM   16  C   UNL     1      -9.759   9.152  69.652  1.00  0.00    -0.183 C  
HETATM   17  C   UNL     1      -8.594   8.811  71.886  1.00  0.00    -0.169 C  
HETATM   18  C   UNL     1      -9.929   8.383  72.501  1.00  0.00    -0.356 C  
HETATM   19  C   UNL     1     -11.076   8.709  70.287  1.00  0.00    -0.230 C  
HETATM   20  C   UNL     1     -11.104   9.027  71.777  1.00  0.00    -0.444 C  
BRANCH  15  21
HETATM   21  C   UNL     1      -7.216   9.252  69.790  1.00  0.00    -0.066 C  
HETATM   22  O   UNL     1      -5.243   8.668  71.067  1.00  0.00    -0.028 OA 
HETATM   23  C   UNL     1      -6.101   9.493  70.791  1.00  0.00    -0.073 C  
HETATM   24  O   UNL     1      -6.128  10.719  71.357  1.00  0.00    -0.326 OA 
ENDBRANCH  15  21
ENDBRANCH  14  15
ENDBRANCH  12  14
ENDBRANCH   9  10
ENDBRANCH   7   9
ENDBRANCH   6   7
ENDBRANCH   4   6
TORSDOF 7
ENDMDL
MODEL      318
REMARK 921   NORMALIZED FREE ENERGY PREDICTED BY IDOCK:   -2.21 KCAL/MOL
REMARK 922        TOTAL FREE ENERGY PREDICTED BY IDOCK:   -4.75 KCAL/MOL
REMARK 923 INTER-LIGAND FREE ENERGY PREDICTED BY IDOCK:   -4.55 KCAL/MOL
REMARK 924 INTRA-LIGAND FREE ENERGY PREDICTED BY IDOCK:   -0.20 KCAL/MOL
REMARK 927      BINDING AFFINITY PREDICTED BY RF-SCORE:    0.00 PKD
ROOT
HETATM    1  C   UNL     1      -8.527   8.077  73.949  1.00  0.00    -0.321 C  
HETATM    2  C   UNL     1      -9.269   7.225  72.914  1.00  0.00    -0.185 C  
HETATM    3  C   UNL     1     -10.305   6.349  73.608  1.00  0.00    -0.301 C  
HETATM    4  C   UNL     1      -9.919   8.115  71.866  1.00  0.00    -0.212 C  
HETATM    5  O   UNL     1      -9.827   9.337  71.857  1.00  0.00    -0.235 OA 
ENDROOT
BRANCH   4   6
HETATM    6  O   UNL     1     -10.552   7.388  70.897  1.00  0.00    -0.220 OA 
BRANCH   6   7
HETATM    7  C   UNL     1      -9.741   7.179  69.731  1.00  0.00    -0.165 C  
HETATM    8  C   UNL     1      -9.100   5.793  69.802  1.00  0.00    -0.151 C  
BRANCH   7   9
HETATM    9  O   UNL     1     -10.509   7.105  68.517  1.00  0.00    -0.195 OA 
BRANCH   9  10
HETATM   10  C   UNL     1      -9.920   7.625  67.422  1.00  0.00    -0.192 C  
HETATM   11  O   UNL     1      -9.566   7.002  66.439  1.00  0.00    -0.169 OA 
HETATM   12  N   UNL     1      -9.884   8.982  67.575  1.00  0.00    -0.168 N  
HETATM   13  H   UNL     1     -10.229   9.386  68.446  1.00  0.00     0.000 HD 
BRANCH  12  14
HETATM   14  C   UNL     1      -9.374   9.870  66.552  1.00  0.00    -0.164 C  
BRANCH  14  15
HETATM   15  C   UNL     1      -8.989  11.291  67.084  1.00  0.00    -0.155 C  
HETATM   16  C   UNL     1      -9.909  12.379  66.467  1.00  0.00    -0.244 C  
HETATM   17  C   UNL     1      -9.151  11.283  68.632  1.00  0.00    -0.153 C  
HETATM   18  C   UNL     1     -10.605  11.246  69.106  1.00  0.00    -0.222 C  
HETATM   19  C   UNL     1     -11.354  12.318  66.958  1.00  0.00    -0.395 C  
HETATM   20  C   UNL     1     -11.421  12.369  68.479  1.00  0.00    -0.350 C  
BRANCH  15  21
HETATM   21  C   UNL     1      -7.504  11.570  66.709  1.00  0.00    -0.118 C  
HETATM   22  O   UNL     1      -6.564   9.805  65.344  1.00  0.00    -0.080 OA 
HETATM   23  C   UNL     1      -6.649  10.347  66.435  1.00  0.00    -0.099 C  
HETATM   24  O   UNL     1      -5.970   9.900  67.514  1.00  0.00    -0.053 OA 
ENDBRANCH  15  21
ENDBRANCH  14  15
ENDBRANCH  12  14
ENDBRANCH   9  10
ENDBRANCH   7   9
ENDBRANCH   6   7
ENDBRANCH   4   6
TORSDOF 7
ENDMDL
MODEL      319
REMARK 921   NORMALIZED FREE ENERGY PREDICTED BY IDOCK:   -2.19 KCAL/MOL
REMARK 922        TOTAL FREE ENERGY PREDICTED BY IDOCK:   -4.71 KCAL/MOL
REMARK 923 INTER-LIGAND FREE ENERGY PREDICTED BY IDOCK:   -4.21 KCAL/MOL
REMARK 924 INTRA-LIGAND FREE ENERGY PREDICTED BY IDOCK:   -0.50 KCAL/MOL
REMARK 927      BINDING AFFINITY PREDICTED BY RF-SCORE:    0.00 PKD
ROOT
HETATM    1  C   UNL     1      -9.055   3.268  70.430  1.00  0.00    -0.191 C  
HETATM    2  C   UNL     1      -8.492   4.686  70.576  1.00  0.00    -0.104 C  
HETATM    3  C   UNL     1      -7.405   4.923  69.536  1.00  0.00    -0.056 C  
HETATM    4  C   UNL     1      -9.607   5.712  70.448  1.00  0.00    -0.170 C  
HETATM    5  O   UNL     1     -10.786   5.421  70.276  1.00  0.00    -0.285 OA 
ENDROOT
BRANCH   4   6
HETATM    6  O   UNL     1      -9.152   6.989  70.620  1.00  0.00    -0.156 OA 
BRANCH   6   7
HETATM    7  C   UNL     1     -10.061   7.816  71.362  1.00  0.00    -0.182 C  
HETATM    8  C   UNL     1      -9.836   7.600  72.858  1.00  0.00    -0.299 C  
BRANCH   7   9
HETATM    9  O   UNL     1      -9.798   9.221  71.206  1.00  0.00    -0.289 OA 
BRANCH   9  10
HETATM   10  C   UNL     1      -8.724   9.533  70.454  1.00  0.00    -0.223 C  
HETATM   11  O   UNL     1      -7.592   9.705  70.864  1.00  0.00    -0.309 OA 
HETATM   12  N   UNL     1      -9.118   9.525  69.146  1.00  0.00    -0.145 N  
HETATM   13  H   UNL     1     -10.100   9.350  68.931  1.00  0.00     0.000 HD 
BRANCH  12  14
HETATM   14  C   UNL     1      -8.198   9.755  68.052  1.00  0.00    -0.109 C  
BRANCH  14  15
HETATM   15  C   UNL     1      -8.341  11.168  67.394  1.00  0.00    -0.135 C  
HETATM   16  C   UNL     1      -8.670  11.042  65.882  1.00  0.00    -0.182 C  
HETATM   17  C   UNL     1      -9.493  11.921  68.120  1.00  0.00    -0.195 C  
HETATM   18  C   UNL     1     -10.889  11.377  67.805  1.00  0.00    -0.281 C  
HETATM   19  C   UNL     1     -10.068  10.498  65.597  1.00  0.00    -0.333 C  
HETATM   20  C   UNL     1     -11.136  11.324  66.303  1.00  0.00    -0.229 C  
BRANCH  15  21
HETATM   21  C   UNL     1      -7.002  11.938  67.588  1.00  0.00    -0.112 C  
HETATM   22  O   UNL     1      -6.610  12.513  69.907  1.00  0.00    -0.029 OA 
HETATM   23  C   UNL     1      -6.939  12.868  68.785  1.00  0.00    -0.103 C  
HETATM   24  O   UNL     1      -7.274  14.146  68.506  1.00  0.00    -0.095 OA 
ENDBRANCH  15  21
ENDBRANCH  14  15
ENDBRANCH  12  14
ENDBRANCH   9  10
ENDBRANCH   7   9
ENDBRANCH   6   7
ENDBRANCH   4   6
TORSDOF 7
ENDMDL
MODEL      320
REMARK 921   NORMALIZED FREE ENERGY PREDICTED BY IDOCK:   -2.11 KCAL/MOL
REMARK 922        TOTAL FREE ENERGY PREDICTED BY IDOCK:   -4.60 KCAL/MOL
REMARK 923 INTER-LIGAND FREE ENERGY PREDICTED BY IDOCK:   -4.66 KCAL/MOL
REMARK 924 INTRA-LIGAND FREE ENERGY PREDICTED BY IDOCK:    0.06 KCAL/MOL
REMARK 927      BINDING AFFINITY PREDICTED BY RF-SCORE:    0.00 PKD
ROOT
HETATM    1  C   UNL     1      -6.123  15.549  69.787  1.00  0.00    -0.153 C  
HETATM    2  C   UNL     1      -7.299  14.630  69.440  1.00  0.00    -0.135 C  
HETATM    3  C   UNL     1      -8.473  15.458  68.934  1.00  0.00    -0.205 C  
HETATM    4  C   UNL     1      -6.874  13.594  68.411  1.00  0.00    -0.102 C  
HETATM    5  O   UNL     1      -5.739  13.510  67.956  1.00  0.00    -0.102 OA 
ENDROOT
BRANCH   4   6
HETATM    6  O   UNL     1      -7.885  12.725  68.111  1.00  0.00    -0.127 OA 
BRANCH   6   7
HETATM    7  C   UNL     1      -7.546  11.355  68.374  1.00  0.00    -0.123 C  
HETATM    8  C   UNL     1      -6.628  11.286  69.594  1.00  0.00    -0.136 C  
BRANCH   7   9
HETATM    9  O   UNL     1      -8.674  10.565  68.788  1.00  0.00    -0.137 OA 
BRANCH   9  10
HETATM   10  C   UNL     1      -8.522   9.230  68.680  1.00  0.00    -0.123 C  
HETATM   11  O   UNL     1      -7.881   8.652  67.823  1.00  0.00    -0.101 OA 
HETATM   12  N   UNL     1      -9.134   8.655  69.758  1.00  0.00    -0.148 N  
HETATM   13  H   UNL     1      -9.627   9.255  70.419  1.00  0.00     0.000 HD 
BRANCH  12  14
HETATM   14  C   UNL     1      -9.109   7.228  70.000  1.00  0.00    -0.148 C  
BRANCH  14  15
HETATM   15  C   UNL     1     -10.470   6.653  70.518  1.00  0.00    -0.240 C  
HETATM   16  C   UNL     1     -10.232   5.517  71.549  1.00  0.00    -0.270 C  
HETATM   17  C   UNL     1     -11.258   7.815  71.188  1.00  0.00    -0.285 C  
HETATM   18  C   UNL     1     -10.676   8.270  72.528  1.00  0.00    -0.411 C  
HETATM   19  C   UNL     1      -9.652   6.000  72.876  1.00  0.00    -0.158 C  
HETATM   20  C   UNL     1     -10.513   7.098  73.488  1.00  0.00    -0.422 C  
BRANCH  15  21
HETATM   21  C   UNL     1     -11.268   6.109  69.296  1.00  0.00    -0.438 C  
HETATM   22  O   UNL     1      -9.809   5.387  67.503  1.00  0.00    -0.133 OA 
HETATM   23  C   UNL     1     -10.579   6.225  67.949  1.00  0.00    -0.262 C  
HETATM   24  O   UNL     1     -10.897   7.345  67.265  1.00  0.00    -0.301 OA 
ENDBRANCH  15  21
ENDBRANCH  14  15
ENDBRANCH  12  14
ENDBRANCH   9  10
ENDBRANCH   7   9
ENDBRANCH   6   7
ENDBRANCH   4   6
TORSDOF 7
ENDMDL
MODEL      321
REMARK 921   NORMALIZED FREE ENERGY PREDICTED BY IDOCK:   -2.10 KCAL/MOL
REMARK 922        TOTAL FREE ENERGY PREDICTED BY IDOCK:   -4.59 KCAL/MOL
REMARK 923 INTER-LIGAND FREE ENERGY PREDICTED BY IDOCK:   -4.52 KCAL/MOL
REMARK 924 INTRA-LIGAND FREE ENERGY PREDICTED BY IDOCK:   -0.07 KCAL/MOL
REMARK 927      BINDING AFFINITY PREDICTED BY RF-SCORE:    0.00 PKD
ROOT
HETATM    1  C   UNL     1     -12.676   7.461  71.406  1.00  0.00    -0.408 C  
HETATM    2  C   UNL     1     -11.778   8.422  70.621  1.00  0.00    -0.159 C  
HETATM    3  C   UNL     1     -11.617   9.728  71.389  1.00  0.00    -0.452 C  
HETATM    4  C   UNL     1     -10.427   7.778  70.348  1.00  0.00    -0.221 C  
HETATM    5  O   UNL     1     -10.132   6.640  70.696  1.00  0.00    -0.183 OA 
ENDROOT
BRANCH   4   6
HETATM    6  O   UNL     1      -9.613   8.588  69.607  1.00  0.00    -0.167 OA 
BRANCH   6   7
HETATM    7  C   UNL     1      -8.515   9.123  70.361  1.00  0.00    -0.199 C  
HETATM    8  C   UNL     1      -7.309   8.194  70.228  1.00  0.00    -0.059 C  
BRANCH   7   9
HETATM    9  O   UNL     1      -8.016  10.361  69.827  1.00  0.00    -0.150 OA 
BRANCH   9  10
HETATM   10  C   UNL     1      -8.759  10.914  68.847  1.00  0.00    -0.140 C  
HETATM   11  O   UNL     1      -9.778  11.560  69.002  1.00  0.00    -0.109 OA 
HETATM   12  N   UNL     1      -8.108  10.702  67.664  1.00  0.00    -0.107 N  
HETATM   13  H   UNL     1      -7.247  10.155  67.670  1.00  0.00     0.000 HD 
BRANCH  12  14
HETATM   14  C   UNL     1      -8.592  11.222  66.402  1.00  0.00    -0.174 C  
BRANCH  14  15
HETATM   15  C   UNL     1      -8.792  10.124  65.303  1.00  0.00    -0.201 C  
HETATM   16  C   UNL     1      -7.680  10.215  64.224  1.00  0.00    -0.131 C  
HETATM   17  C   UNL     1      -8.737   8.733  65.999  1.00  0.00    -0.193 C  
HETATM   18  C   UNL     1      -7.339   8.330  66.475  1.00  0.00    -0.081 C  
HETATM   19  C   UNL     1      -6.297   9.807  64.727  1.00  0.00    -0.097 C  
HETATM   20  C   UNL     1      -6.323   8.414  65.343  1.00  0.00    -0.048 C  
BRANCH  15  21
HETATM   21  C   UNL     1     -10.190  10.334  64.651  1.00  0.00    -0.204 C  
HETATM   22  O   UNL     1     -10.241  12.282  63.213  1.00  0.00    -0.402 OA 
HETATM   23  C   UNL     1     -10.540  11.763  64.278  1.00  0.00    -0.335 C  
HETATM   24  O   UNL     1     -11.229  12.425  65.232  1.00  0.00    -0.299 OA 
ENDBRANCH  15  21
ENDBRANCH  14  15
ENDBRANCH  12  14
ENDBRANCH   9  10
ENDBRANCH   7   9
ENDBRANCH   6   7
ENDBRANCH   4   6
TORSDOF 7
ENDMDL
MODEL      322
REMARK 921   NORMALIZED FREE ENERGY PREDICTED BY IDOCK:   -2.07 KCAL/MOL
REMARK 922        TOTAL FREE ENERGY PREDICTED BY IDOCK:   -4.54 KCAL/MOL
REMARK 923 INTER-LIGAND FREE ENERGY PREDICTED BY IDOCK:   -5.26 KCAL/MOL
REMARK 924 INTRA-LIGAND FREE ENERGY PREDICTED BY IDOCK:    0.72 KCAL/MOL
REMARK 927      BINDING AFFINITY PREDICTED BY RF-SCORE:    0.00 PKD
ROOT
HETATM    1  C   UNL     1     -11.914  14.537  67.554  1.00  0.00    -0.358 C  
HETATM    2  C   UNL     1     -11.718  13.474  66.469  1.00  0.00    -0.408 C  
HETATM    3  C   UNL     1     -12.229  13.996  65.132  1.00  0.00    -0.446 C  
HETATM    4  C   UNL     1     -10.253  13.076  66.378  1.00  0.00    -0.280 C  
HETATM    5  O   UNL     1      -9.375  13.537  67.098  1.00  0.00    -0.222 OA 
ENDROOT
BRANCH   4   6
HETATM    6  O   UNL     1     -10.045  12.093  65.451  1.00  0.00    -0.250 OA 
BRANCH   6   7
HETATM    7  C   UNL     1     -10.158  10.771  65.998  1.00  0.00    -0.249 C  
HETATM    8  C   UNL     1      -8.913  10.460  66.829  1.00  0.00    -0.153 C  
BRANCH   7   9
HETATM    9  O   UNL     1     -11.216  10.650  66.965  1.00  0.00    -0.266 OA 
BRANCH   9  10
HETATM   10  C   UNL     1     -10.843  10.217  68.186  1.00  0.00    -0.265 C  
HETATM   11  O   UNL     1     -10.744  10.903  69.186  1.00  0.00    -0.203 OA 
HETATM   12  N   UNL     1     -10.695   8.861  68.117  1.00  0.00    -0.435 N  
HETATM   13  H   UNL     1     -10.823   8.399  67.217  1.00  0.00     0.000 HD 
BRANCH  12  14
HETATM   14  C   UNL     1     -10.363   8.052  69.271  1.00  0.00    -0.220 C  
BRANCH  14  15
HETATM   15  C   UNL     1      -9.080   7.175  69.079  1.00  0.00    -0.132 C  
HETATM   16  C   UNL     1      -8.973   6.102  70.195  1.00  0.00    -0.149 C  
HETATM   17  C   UNL     1      -9.179   6.480  67.690  1.00  0.00    -0.113 C  
HETATM   18  C   UNL     1     -10.229   5.370  67.622  1.00  0.00    -0.236 C  
HETATM   19  C   UNL     1     -10.033   5.007  70.103  1.00  0.00    -0.328 C  
HETATM   20  C   UNL     1     -10.024   4.345  68.730  1.00  0.00    -0.081 C  
BRANCH  15  21
HETATM   21  C   UNL     1      -7.837   8.111  69.115  1.00  0.00    -0.107 C  
HETATM   22  O   UNL     1      -6.815   8.183  71.309  1.00  0.00    -0.048 OA 
HETATM   23  C   UNL     1      -7.509   8.726  70.463  1.00  0.00    -0.075 C  
HETATM   24  O   UNL     1      -8.049   9.950  70.653  1.00  0.00    -0.240 OA 
ENDBRANCH  15  21
ENDBRANCH  14  15
ENDBRANCH  12  14
ENDBRANCH   9  10
ENDBRANCH   7   9
ENDBRANCH   6   7
ENDBRANCH   4   6
TORSDOF 7
ENDMDL
MODEL      323
REMARK 921   NORMALIZED FREE ENERGY PREDICTED BY IDOCK:   -2.06 KCAL/MOL
REMARK 922        TOTAL FREE ENERGY PREDICTED BY IDOCK:   -4.54 KCAL/MOL
REMARK 923 INTER-LIGAND FREE ENERGY PREDICTED BY IDOCK:   -3.79 KCAL/MOL
REMARK 924 INTRA-LIGAND FREE ENERGY PREDICTED BY IDOCK:   -0.75 KCAL/MOL
REMARK 927      BINDING AFFINITY PREDICTED BY RF-SCORE:    0.00 PKD
ROOT
HETATM    1  C   UNL     1     -11.552  12.733  64.019  1.00  0.00    -0.488 C  
HETATM    2  C   UNL     1     -11.115  13.157  65.424  1.00  0.00    -0.299 C  
HETATM    3  C   UNL     1     -12.301  13.733  66.186  1.00  0.00    -0.496 C  
HETATM    4  C   UNL     1     -10.508  11.976  66.166  1.00  0.00    -0.236 C  
HETATM    5  O   UNL     1     -10.377  10.859  65.680  1.00  0.00    -0.250 OA 
ENDROOT
BRANCH   4   6
HETATM    6  O   UNL     1     -10.062  12.326  67.410  1.00  0.00    -0.199 OA 
BRANCH   6   7
HETATM    7  C   UNL     1      -9.126  13.415  67.385  1.00  0.00    -0.216 C  
HETATM    8  C   UNL     1      -9.122  14.108  68.748  1.00  0.00    -0.071 C  
BRANCH   7   9
HETATM    9  O   UNL     1      -7.762  12.981  67.252  1.00  0.00    -0.160 OA 
BRANCH   9  10
HETATM   10  C   UNL     1      -7.369  12.020  68.111  1.00  0.00    -0.094 C  
HETATM   11  O   UNL     1      -6.871  12.202  69.206  1.00  0.00    -0.103 OA 
HETATM   12  N   UNL     1      -7.720  10.814  67.573  1.00  0.00    -0.103 N  
HETATM   13  H   UNL     1      -8.149  10.797  66.648  1.00  0.00     0.000 HD 
BRANCH  12  14
HETATM   14  C   UNL     1      -7.507   9.560  68.263  1.00  0.00    -0.078 C  
BRANCH  14  15
HETATM   15  C   UNL     1      -8.831   8.847  68.700  1.00  0.00    -0.137 C  
HETATM   16  C   UNL     1      -9.577   8.267  67.468  1.00  0.00    -0.194 C  
HETATM   17  C   UNL     1      -8.457   7.696  69.678  1.00  0.00    -0.135 C  
HETATM   18  C   UNL     1      -7.767   6.507  69.005  1.00  0.00    -0.109 C  
HETATM   19  C   UNL     1      -8.867   7.082  66.818  1.00  0.00    -0.130 C  
HETATM   20  C   UNL     1      -8.587   5.982  67.834  1.00  0.00    -0.113 C  
BRANCH  15  21
HETATM   21  C   UNL     1      -9.730   9.889  69.428  1.00  0.00    -0.228 C  
HETATM   22  O   UNL     1     -11.425   8.830  70.797  1.00  0.00    -0.275 OA 
HETATM   23  C   UNL     1     -11.135   9.428  69.771  1.00  0.00    -0.172 C  
HETATM   24  O   UNL     1     -12.059   9.744  68.838  1.00  0.00     0.495 OA 
ENDBRANCH  15  21
ENDBRANCH  14  15
ENDBRANCH  12  14
ENDBRANCH   9  10
ENDBRANCH   7   9
ENDBRANCH   6   7
ENDBRANCH   4   6
TORSDOF 7
ENDMDL
MODEL      324
REMARK 921   NORMALIZED FREE ENERGY PREDICTED BY IDOCK:   -2.06 KCAL/MOL
REMARK 922        TOTAL FREE ENERGY PREDICTED BY IDOCK:   -4.53 KCAL/MOL
REMARK 923 INTER-LIGAND FREE ENERGY PREDICTED BY IDOCK:   -3.93 KCAL/MOL
REMARK 924 INTRA-LIGAND FREE ENERGY PREDICTED BY IDOCK:   -0.60 KCAL/MOL
REMARK 927      BINDING AFFINITY PREDICTED BY RF-SCORE:    0.00 PKD
ROOT
HETATM    1  C   UNL     1      -9.689   3.892  71.068  1.00  0.00    -0.252 C  
HETATM    2  C   UNL     1      -9.053   4.644  69.894  1.00  0.00    -0.161 C  
HETATM    3  C   UNL     1      -8.952   3.725  68.683  1.00  0.00    -0.176 C  
HETATM    4  C   UNL     1      -9.858   5.893  69.569  1.00  0.00    -0.169 C  
HETATM    5  O   UNL     1     -10.857   6.241  70.188  1.00  0.00    -0.254 OA 
ENDROOT
BRANCH   4   6
HETATM    6  O   UNL     1      -9.295   6.617  68.556  1.00  0.00    -0.127 OA 
BRANCH   6   7
HETATM    7  C   UNL     1      -9.787   6.248  67.259  1.00  0.00    -0.137 C  
HETATM    8  C   UNL     1     -11.261   6.637  67.149  1.00  0.00    -0.306 C  
BRANCH   7   9
HETATM    9  O   UNL     1      -9.185   7.002  66.193  1.00  0.00    -0.152 OA 
BRANCH   9  10
HETATM   10  C   UNL     1      -8.163   7.805  66.552  1.00  0.00    -0.124 C  
HETATM   11  O   UNL     1      -6.985   7.504  66.550  1.00  0.00    -0.067 OA 
HETATM   12  N   UNL     1      -8.682   9.040  66.822  1.00  0.00    -0.122 N  
HETATM   13  H   UNL     1      -9.693   9.168  66.772  1.00  0.00     0.000 HD 
BRANCH  12  14
HETATM   14  C   UNL     1      -7.855  10.173  67.177  1.00  0.00    -0.099 C  
BRANCH  14  15
HETATM   15  C   UNL     1      -8.316  10.907  68.482  1.00  0.00    -0.142 C  
HETATM   16  C   UNL     1      -8.648   9.884  69.601  1.00  0.00    -0.207 C  
HETATM   17  C   UNL     1      -7.156  11.835  68.945  1.00  0.00    -0.114 C  
HETATM   18  C   UNL     1      -5.949  11.087  69.516  1.00  0.00    -0.064 C  
HETATM   19  C   UNL     1      -7.425   9.153  70.152  1.00  0.00    -0.082 C  
HETATM   20  C   UNL     1      -6.365  10.136  70.631  1.00  0.00    -0.093 C  
BRANCH  15  21
HETATM   21  C   UNL     1      -9.574  11.760  68.145  1.00  0.00    -0.193 C  
HETATM   22  O   UNL     1     -11.353  11.431  69.755  1.00  0.00    -0.274 OA 
HETATM   23  C   UNL     1     -10.899  11.211  68.642  1.00  0.00    -0.209 C  
HETATM   24  O   UNL     1     -11.553  10.452  67.736  1.00  0.00    -0.405 OA 
ENDBRANCH  15  21
ENDBRANCH  14  15
ENDBRANCH  12  14
ENDBRANCH   9  10
ENDBRANCH   7   9
ENDBRANCH   6   7
ENDBRANCH   4   6
TORSDOF 7
ENDMDL
MODEL      325
REMARK 921   NORMALIZED FREE ENERGY PREDICTED BY IDOCK:   -2.02 KCAL/MOL
REMARK 922        TOTAL FREE ENERGY PREDICTED BY IDOCK:   -4.48 KCAL/MOL
REMARK 923 INTER-LIGAND FREE ENERGY PREDICTED BY IDOCK:   -3.81 KCAL/MOL
REMARK 924 INTRA-LIGAND FREE ENERGY PREDICTED BY IDOCK:   -0.67 KCAL/MOL
REMARK 927      BINDING AFFINITY PREDICTED BY RF-SCORE:    0.00 PKD
ROOT
HETATM    1  C   UNL     1      -6.362  16.234  69.042  1.00  0.00    -0.153 C  
HETATM    2  C   UNL     1      -7.838  15.826  69.106  1.00  0.00    -0.227 C  
HETATM    3  C   UNL     1      -8.723  17.054  68.939  1.00  0.00    -0.202 C  
HETATM    4  C   UNL     1      -8.143  14.781  68.045  1.00  0.00    -0.139 C  
HETATM    5  O   UNL     1      -7.306  14.326  67.274  1.00  0.00    -0.170 OA 
ENDROOT
BRANCH   4   6
HETATM    6  O   UNL     1      -9.441  14.357  68.102  1.00  0.00    -0.192 OA 
BRANCH   6   7
HETATM    7  C   UNL     1      -9.564  12.927  68.144  1.00  0.00    -0.223 C  
HETATM    8  C   UNL     1     -10.894  12.553  68.799  1.00  0.00    -0.276 C  
BRANCH   7   9
HETATM    9  O   UNL     1      -9.681  12.334  66.839  1.00  0.00    -0.204 OA 
BRANCH   9  10
HETATM   10  C   UNL     1      -9.633  10.987  66.805  1.00  0.00    -0.190 C  
HETATM   11  O   UNL     1     -10.356  10.264  66.146  1.00  0.00    -0.235 OA 
HETATM   12  N   UNL     1      -8.569  10.590  67.564  1.00  0.00    -0.122 N  
HETATM   13  H   UNL     1      -8.028  11.301  68.057  1.00  0.00     0.000 HD 
BRANCH  12  14
HETATM   14  C   UNL     1      -8.178   9.203  67.697  1.00  0.00    -0.108 C  
BRANCH  14  15
HETATM   15  C   UNL     1      -8.643   8.543  69.039  1.00  0.00    -0.130 C  
HETATM   16  C   UNL     1      -7.684   7.393  69.448  1.00  0.00    -0.106 C  
HETATM   17  C   UNL     1      -8.644   9.643  70.139  1.00  0.00    -0.243 C  
HETATM   18  C   UNL     1      -7.247  10.090  70.574  1.00  0.00    -0.048 C  
HETATM   19  C   UNL     1      -6.298   7.868  69.878  1.00  0.00    -0.030 C  
HETATM   20  C   UNL     1      -6.391   8.902  70.994  1.00  0.00    -0.056 C  
BRANCH  15  21
HETATM   21  C   UNL     1     -10.086   7.992  68.840  1.00  0.00    -0.209 C  
HETATM   22  O   UNL     1     -10.099   5.609  68.411  1.00  0.00    -0.149 OA 
HETATM   23  C   UNL     1     -10.207   6.747  67.981  1.00  0.00    -0.171 C  
HETATM   24  O   UNL     1     -10.457   7.002  66.678  1.00  0.00    -0.228 OA 
ENDBRANCH  15  21
ENDBRANCH  14  15
ENDBRANCH  12  14
ENDBRANCH   9  10
ENDBRANCH   7   9
ENDBRANCH   6   7
ENDBRANCH   4   6
TORSDOF 7
ENDMDL
MODEL      326
REMARK 921   NORMALIZED FREE ENERGY PREDICTED BY IDOCK:   -2.00 KCAL/MOL
REMARK 922        TOTAL FREE ENERGY PREDICTED BY IDOCK:   -4.44 KCAL/MOL
REMARK 923 INTER-LIGAND FREE ENERGY PREDICTED BY IDOCK:   -4.26 KCAL/MOL
REMARK 924 INTRA-LIGAND FREE ENERGY PREDICTED BY IDOCK:   -0.19 KCAL/MOL
REMARK 927      BINDING AFFINITY PREDICTED BY RF-SCORE:    0.00 PKD
ROOT
HETATM    1  C   UNL     1     -10.348  10.451  69.209  1.00  0.00    -0.250 C  
HETATM    2  C   UNL     1      -9.836   9.282  70.057  1.00  0.00    -0.232 C  
HETATM    3  C   UNL     1      -8.376   9.509  70.427  1.00  0.00    -0.226 C  
HETATM    4  C   UNL     1     -10.696   9.116  71.300  1.00  0.00    -0.331 C  
HETATM    5  O   UNL     1     -11.671   9.815  71.554  1.00  0.00    -0.379 OA 
ENDROOT
BRANCH   4   6
HETATM    6  O   UNL     1     -10.300   8.052  72.060  1.00  0.00    -0.205 OA 
BRANCH   6   7
HETATM    7  C   UNL     1     -10.783   6.795  71.564  1.00  0.00    -0.226 C  
HETATM    8  C   UNL     1     -12.257   6.636  71.937  1.00  0.00    -0.381 C  
BRANCH   7   9
HETATM    9  O   UNL     1     -10.817   6.732  70.128  1.00  0.00    -0.235 OA 
BRANCH   9  10
HETATM   10  C   UNL     1      -9.903   5.921  69.558  1.00  0.00    -0.169 C  
HETATM   11  O   UNL     1      -8.822   5.623  70.028  1.00  0.00    -0.126 OA 
HETATM   12  N   UNL     1     -10.451   5.422  68.409  1.00  0.00    -0.156 N  
HETATM   13  H   UNL     1     -11.379   5.741  68.131  1.00  0.00     0.000 HD 
BRANCH  12  14
HETATM   14  C   UNL     1      -9.767   4.459  67.573  1.00  0.00    -0.163 C  
BRANCH  14  15
HETATM   15  C   UNL     1      -9.113   5.086  66.296  1.00  0.00    -0.129 C  
HETATM   16  C   UNL     1      -7.566   4.971  66.356  1.00  0.00    -0.088 C  
HETATM   17  C   UNL     1      -9.649   4.315  65.055  1.00  0.00    -0.179 C  
HETATM   18  C   UNL     1      -9.101   2.892  64.920  1.00  0.00    -0.141 C  
HETATM   19  C   UNL     1      -7.047   3.541  66.218  1.00  0.00    -0.063 C  
HETATM   20  C   UNL     1      -7.578   2.881  64.952  1.00  0.00    -0.076 C  
BRANCH  15  21
HETATM   21  C   UNL     1      -9.536   6.582  66.212  1.00  0.00    -0.126 C  
HETATM   22  O   UNL     1      -8.029   7.878  64.829  1.00  0.00    -0.128 OA 
HETATM   23  C   UNL     1      -8.418   7.573  65.947  1.00  0.00    -0.147 C  
HETATM   24  O   UNL     1      -7.881   8.107  67.065  1.00  0.00    -0.101 OA 
ENDBRANCH  15  21
ENDBRANCH  14  15
ENDBRANCH  12  14
ENDBRANCH   9  10
ENDBRANCH   7   9
ENDBRANCH   6   7
ENDBRANCH   4   6
TORSDOF 7
ENDMDL
MODEL      327
REMARK 921   NORMALIZED FREE ENERGY PREDICTED BY IDOCK:   -1.99 KCAL/MOL
REMARK 922        TOTAL FREE ENERGY PREDICTED BY IDOCK:   -4.44 KCAL/MOL
REMARK 923 INTER-LIGAND FREE ENERGY PREDICTED BY IDOCK:   -4.17 KCAL/MOL
REMARK 924 INTRA-LIGAND FREE ENERGY PREDICTED BY IDOCK:   -0.27 KCAL/MOL
REMARK 927      BINDING AFFINITY PREDICTED BY RF-SCORE:    0.00 PKD
ROOT
HETATM    1  C   UNL     1      -9.697   3.400  71.276  1.00  0.00    -0.227 C  
HETATM    2  C   UNL     1      -9.055   3.983  70.013  1.00  0.00    -0.187 C  
HETATM    3  C   UNL     1      -8.914   2.897  68.954  1.00  0.00    -0.186 C  
HETATM    4  C   UNL     1      -9.879   5.151  69.494  1.00  0.00    -0.208 C  
HETATM    5  O   UNL     1     -10.896   5.565  70.039  1.00  0.00    -0.317 OA 
ENDROOT
BRANCH   4   6
HETATM    6  O   UNL     1      -9.312   5.729  68.393  1.00  0.00    -0.119 OA 
BRANCH   6   7
HETATM    7  C   UNL     1      -9.948   5.344  67.165  1.00  0.00    -0.174 C  
HETATM    8  C   UNL     1     -11.267   6.103  67.018  1.00  0.00    -0.192 C  
BRANCH   7   9
HETATM    9  O   UNL     1      -9.217   5.759  65.998  1.00  0.00    -0.161 OA 
BRANCH   9  10
HETATM   10  C   UNL     1      -8.207   6.625  66.221  1.00  0.00    -0.120 C  
HETATM   11  O   UNL     1      -7.027   6.340  66.294  1.00  0.00    -0.063 OA 
HETATM   12  N   UNL     1      -8.739   7.883  66.250  1.00  0.00    -0.147 N  
HETATM   13  H   UNL     1      -9.750   7.990  66.160  1.00  0.00     0.000 HD 
BRANCH  12  14
HETATM   14  C   UNL     1      -7.926   9.071  66.404  1.00  0.00    -0.103 C  
BRANCH  14  15
HETATM   15  C   UNL     1      -8.188   9.846  67.740  1.00  0.00    -0.114 C  
HETATM   16  C   UNL     1      -7.889  11.359  67.567  1.00  0.00    -0.126 C  
HETATM   17  C   UNL     1      -9.683   9.646  68.124  1.00  0.00    -0.164 C  
HETATM   18  C   UNL     1     -10.663  10.401  67.223  1.00  0.00    -0.331 C  
HETATM   19  C   UNL     1      -8.883  12.086  66.664  1.00  0.00    -0.191 C  
HETATM   20  C   UNL     1     -10.315  11.882  67.143  1.00  0.00    -0.235 C  
BRANCH  15  21
HETATM   21  C   UNL     1      -7.273   9.241  68.845  1.00  0.00    -0.073 C  
HETATM   22  O   UNL     1      -8.309   9.327  71.032  1.00  0.00    -0.255 OA 
HETATM   23  C   UNL     1      -7.487   9.777  70.249  1.00  0.00    -0.164 C  
HETATM   24  O   UNL     1      -6.674  10.806  70.572  1.00  0.00    -0.312 OA 
ENDBRANCH  15  21
ENDBRANCH  14  15
ENDBRANCH  12  14
ENDBRANCH   9  10
ENDBRANCH   7   9
ENDBRANCH   6   7
ENDBRANCH   4   6
TORSDOF 7
ENDMDL
MODEL      328
REMARK 921   NORMALIZED FREE ENERGY PREDICTED BY IDOCK:   -1.94 KCAL/MOL
REMARK 922        TOTAL FREE ENERGY PREDICTED BY IDOCK:   -4.36 KCAL/MOL
REMARK 923 INTER-LIGAND FREE ENERGY PREDICTED BY IDOCK:   -5.31 KCAL/MOL
REMARK 924 INTRA-LIGAND FREE ENERGY PREDICTED BY IDOCK:    0.95 KCAL/MOL
REMARK 927      BINDING AFFINITY PREDICTED BY RF-SCORE:    0.00 PKD
ROOT
HETATM    1  C   UNL     1      -6.849   4.819  64.884  1.00  0.00    -0.049 C  
HETATM    2  C   UNL     1      -8.342   5.154  64.819  1.00  0.00    -0.143 C  
HETATM    3  C   UNL     1      -9.001   4.374  63.688  1.00  0.00    -0.139 C  
HETATM    4  C   UNL     1      -9.008   4.853  66.153  1.00  0.00    -0.125 C  
HETATM    5  O   UNL     1      -8.410   4.426  67.134  1.00  0.00    -0.101 OA 
ENDROOT
BRANCH   4   6
HETATM    6  O   UNL     1     -10.334   5.183  66.150  1.00  0.00    -0.233 OA 
BRANCH   6   7
HETATM    7  C   UNL     1     -10.621   6.366  66.911  1.00  0.00    -0.309 C  
HETATM    8  C   UNL     1     -10.734   6.001  68.391  1.00  0.00    -0.351 C  
BRANCH   7   9
HETATM    9  O   UNL     1      -9.540   7.314  66.905  1.00  0.00    -0.156 OA 
BRANCH   9  10
HETATM   10  C   UNL     1      -9.870   8.573  66.552  1.00  0.00    -0.272 C  
HETATM   11  O   UNL     1      -9.566   9.124  65.511  1.00  0.00    -0.257 OA 
HETATM   12  N   UNL     1     -10.684   9.077  67.526  1.00  0.00    -0.438 N  
HETATM   13  H   UNL     1     -10.877   8.504  68.348  1.00  0.00     0.000 HD 
BRANCH  12  14
HETATM   14  C   UNL     1     -11.283  10.392  67.439  1.00  0.00    -0.129 C  
BRANCH  14  15
HETATM   15  C   UNL     1     -10.963  11.313  68.665  1.00  0.00    -0.266 C  
HETATM   16  C   UNL     1     -11.931  11.020  69.842  1.00  0.00    -0.427 C  
HETATM   17  C   UNL     1      -9.498  11.032  69.106  1.00  0.00    -0.064 C  
HETATM   18  C   UNL     1      -9.301   9.673  69.782  1.00  0.00    -0.238 C  
HETATM   19  C   UNL     1     -11.712   9.658  70.498  1.00  0.00    -0.312 C  
HETATM   20  C   UNL     1     -10.266   9.489  70.947  1.00  0.00    -0.356 C  
BRANCH  15  21
HETATM   21  C   UNL     1     -11.104  12.796  68.212  1.00  0.00    -0.288 C  
HETATM   22  O   UNL     1      -9.385  13.432  66.629  1.00  0.00    -0.252 OA 
HETATM   23  C   UNL     1      -9.823  13.478  67.769  1.00  0.00    -0.233 C  
HETATM   24  O   UNL     1      -9.196  14.160  68.752  1.00  0.00    -0.172 OA 
ENDBRANCH  15  21
ENDBRANCH  14  15
ENDBRANCH  12  14
ENDBRANCH   9  10
ENDBRANCH   7   9
ENDBRANCH   6   7
ENDBRANCH   4   6
TORSDOF 7
ENDMDL
MODEL      329
REMARK 921   NORMALIZED FREE ENERGY PREDICTED BY IDOCK:   -1.93 KCAL/MOL
REMARK 922        TOTAL FREE ENERGY PREDICTED BY IDOCK:   -4.36 KCAL/MOL
REMARK 923 INTER-LIGAND FREE ENERGY PREDICTED BY IDOCK:   -4.32 KCAL/MOL
REMARK 924 INTRA-LIGAND FREE ENERGY PREDICTED BY IDOCK:   -0.04 KCAL/MOL
REMARK 927      BINDING AFFINITY PREDICTED BY RF-SCORE:    0.00 PKD
ROOT
HETATM    1  C   UNL     1      -6.724  15.377  69.376  1.00  0.00    -0.166 C  
HETATM    2  C   UNL     1      -7.816  14.341  69.091  1.00  0.00     0.018 C  
HETATM    3  C   UNL     1      -9.135  15.044  68.797  1.00  0.00    -0.197 C  
HETATM    4  C   UNL     1      -7.403  13.444  67.934  1.00  0.00    -0.140 C  
HETATM    5  O   UNL     1      -6.332  13.541  67.344  1.00  0.00    -0.289 OA 
ENDROOT
BRANCH   4   6
HETATM    6  O   UNL     1      -8.331  12.475  67.679  1.00  0.00    -0.149 OA 
BRANCH   6   7
HETATM    7  C   UNL     1      -7.848  11.149  67.944  1.00  0.00    -0.111 C  
HETATM    8  C   UNL     1      -7.358  11.069  69.390  1.00  0.00    -0.092 C  
BRANCH   7   9
HETATM    9  O   UNL     1      -8.887  10.155  67.911  1.00  0.00    -0.125 OA 
BRANCH   9  10
HETATM   10  C   UNL     1      -8.510   8.907  68.256  1.00  0.00    -0.130 C  
HETATM   11  O   UNL     1      -7.446   8.383  67.987  1.00  0.00    -0.094 OA 
HETATM   12  N   UNL     1      -9.496   8.379  69.041  1.00  0.00    -0.150 N  
HETATM   13  H   UNL     1     -10.338   8.930  69.207  1.00  0.00     0.000 HD 
BRANCH  12  14
HETATM   14  C   UNL     1      -9.392   7.069  69.648  1.00  0.00    -0.149 C  
BRANCH  14  15
HETATM   15  C   UNL     1     -10.670   6.184  69.458  1.00  0.00    -0.386 C  
HETATM   16  C   UNL     1     -11.261   6.366  68.034  1.00  0.00    -0.260 C  
HETATM   17  C   UNL     1     -10.261   4.698  69.672  1.00  0.00    -0.118 C  
HETATM   18  C   UNL     1      -9.410   4.118  68.540  1.00  0.00    -0.216 C  
HETATM   19  C   UNL     1     -10.392   5.777  66.925  1.00  0.00    -0.306 C  
HETATM   20  C   UNL     1     -10.084   4.308  67.187  1.00  0.00    -0.060 C  
BRANCH  15  21
HETATM   21  C   UNL     1     -11.719   6.602  70.531  1.00  0.00    -0.453 C  
HETATM   22  O   UNL     1     -11.191   8.742  71.534  1.00  0.00    -0.262 OA 
HETATM   23  C   UNL     1     -11.216   7.524  71.626  1.00  0.00    -0.243 C  
HETATM   24  O   UNL     1     -10.796   6.879  72.736  1.00  0.00    -0.241 OA 
ENDBRANCH  15  21
ENDBRANCH  14  15
ENDBRANCH  12  14
ENDBRANCH   9  10
ENDBRANCH   7   9
ENDBRANCH   6   7
ENDBRANCH   4   6
TORSDOF 7
ENDMDL
MODEL      330
REMARK 921   NORMALIZED FREE ENERGY PREDICTED BY IDOCK:   -1.93 KCAL/MOL
REMARK 922        TOTAL FREE ENERGY PREDICTED BY IDOCK:   -4.35 KCAL/MOL
REMARK 923 INTER-LIGAND FREE ENERGY PREDICTED BY IDOCK:   -4.34 KCAL/MOL
REMARK 924 INTRA-LIGAND FREE ENERGY PREDICTED BY IDOCK:   -0.01 KCAL/MOL
REMARK 927      BINDING AFFINITY PREDICTED BY RF-SCORE:    0.00 PKD
ROOT
HETATM    1  C   UNL     1      -5.128  16.364  71.871  1.00  0.00     0.411 C  
HETATM    2  C   UNL     1      -5.181  16.140  70.356  1.00  0.00    -0.178 C  
HETATM    3  C   UNL     1      -6.012  14.903  70.043  1.00  0.00    -0.143 C  
HETATM    4  C   UNL     1      -5.744  17.369  69.660  1.00  0.00    -0.230 C  
HETATM    5  O   UNL     1      -6.079  18.392  70.246  1.00  0.00    -0.149 OA 
ENDROOT
BRANCH   4   6
HETATM    6  O   UNL     1      -5.763  17.226  68.301  1.00  0.00    -0.132 OA 
BRANCH   6   7
HETATM    7  C   UNL     1      -6.739  18.061  67.660  1.00  0.00    -0.186 C  
HETATM    8  C   UNL     1      -6.262  18.404  66.249  1.00  0.00    -0.226 C  
BRANCH   7   9
HETATM    9  O   UNL     1      -7.983  17.384  67.413  1.00  0.00    -0.193 OA 
BRANCH   9  10
HETATM   10  C   UNL     1      -7.879  16.105  66.999  1.00  0.00    -0.223 C  
HETATM   11  O   UNL     1      -6.842  15.506  66.790  1.00  0.00    -0.165 OA 
HETATM   12  N   UNL     1      -9.140  15.581  66.951  1.00  0.00    -0.224 N  
HETATM   13  H   UNL     1      -9.931  16.188  67.166  1.00  0.00     0.000 HD 
BRANCH  12  14
HETATM   14  C   UNL     1      -9.398  14.199  66.607  1.00  0.00    -0.282 C  
BRANCH  14  15
HETATM   15  C   UNL     1     -10.849  13.723  66.956  1.00  0.00    -0.288 C  
HETATM   16  C   UNL     1     -11.906  14.609  66.243  1.00  0.00    -0.299 C  
HETATM   17  C   UNL     1     -10.996  12.247  66.485  1.00  0.00    -0.320 C  
HETATM   18  C   UNL     1     -11.058  12.082  64.965  1.00  0.00    -0.368 C  
HETATM   19  C   UNL     1     -11.947  14.423  64.728  1.00  0.00    -0.455 C  
HETATM   20  C   UNL     1     -12.146  12.959  64.357  1.00  0.00    -0.474 C  
BRANCH  15  21
HETATM   21  C   UNL     1     -11.034  13.806  68.500  1.00  0.00    -0.283 C  
HETATM   22  O   UNL     1     -13.056  14.990  69.112  1.00  0.00     0.648 OA 
HETATM   23  C   UNL     1     -11.838  14.988  69.008  1.00  0.00    -0.300 C  
HETATM   24  O   UNL     1     -11.087  16.056  69.351  1.00  0.00    -0.284 OA 
ENDBRANCH  15  21
ENDBRANCH  14  15
ENDBRANCH  12  14
ENDBRANCH   9  10
ENDBRANCH   7   9
ENDBRANCH   6   7
ENDBRANCH   4   6
TORSDOF 7
ENDMDL
MODEL      331
REMARK 921   NORMALIZED FREE ENERGY PREDICTED BY IDOCK:   -1.91 KCAL/MOL
REMARK 922        TOTAL FREE ENERGY PREDICTED BY IDOCK:   -4.32 KCAL/MOL
REMARK 923 INTER-LIGAND FREE ENERGY PREDICTED BY IDOCK:   -3.57 KCAL/MOL
REMARK 924 INTRA-LIGAND FREE ENERGY PREDICTED BY IDOCK:   -0.76 KCAL/MOL
REMARK 927      BINDING AFFINITY PREDICTED BY RF-SCORE:    0.00 PKD
ROOT
HETATM    1  C   UNL     1      -6.816   6.679  74.064  1.00  0.00    -0.072 C  
HETATM    2  C   UNL     1      -7.246   5.449  73.258  1.00  0.00    -0.094 C  
HETATM    3  C   UNL     1      -8.151   4.564  74.105  1.00  0.00    -0.096 C  
HETATM    4  C   UNL     1      -7.942   5.875  71.975  1.00  0.00    -0.107 C  
HETATM    5  O   UNL     1      -8.103   7.044  71.642  1.00  0.00    -0.103 OA 
ENDROOT
BRANCH   4   6
HETATM    6  O   UNL     1      -8.299   4.805  71.205  1.00  0.00    -0.100 OA 
BRANCH   6   7
HETATM    7  C   UNL     1      -8.390   5.122  69.808  1.00  0.00    -0.093 C  
HETATM    8  C   UNL     1      -7.796   3.975  68.989  1.00  0.00    -0.056 C  
BRANCH   7   9
HETATM    9  O   UNL     1      -9.745   5.176  69.330  1.00  0.00    -0.143 OA 
BRANCH   9  10
HETATM   10  C   UNL     1      -9.969   6.027  68.308  1.00  0.00    -0.147 C  
HETATM   11  O   UNL     1      -9.841   5.770  67.126  1.00  0.00    -0.126 OA 
HETATM   12  N   UNL     1     -10.456   7.189  68.835  1.00  0.00    -0.203 N  
HETATM   13  H   UNL     1     -10.531   7.273  69.849  1.00  0.00     0.000 HD 
BRANCH  12  14
HETATM   14  C   UNL     1     -10.870   8.306  68.013  1.00  0.00     0.059 C  
BRANCH  14  15
HETATM   15  C   UNL     1      -9.999   9.593  68.213  1.00  0.00    -0.178 C  
HETATM   16  C   UNL     1     -10.561  10.774  67.375  1.00  0.00    -0.287 C  
HETATM   17  C   UNL     1     -10.027   9.961  69.724  1.00  0.00    -0.275 C  
HETATM   18  C   UNL     1     -11.370  10.514  70.206  1.00  0.00    -0.407 C  
HETATM   19  C   UNL     1     -11.900  11.306  67.879  1.00  0.00    -0.209 C  
HETATM   20  C   UNL     1     -11.822  11.691  69.351  1.00  0.00    -0.408 C  
BRANCH  15  21
HETATM   21  C   UNL     1      -8.541   9.271  67.773  1.00  0.00    -0.117 C  
HETATM   22  O   UNL     1      -7.830  10.637  65.904  1.00  0.00    -0.151 OA 
HETATM   23  C   UNL     1      -8.209   9.552  66.319  1.00  0.00    -0.115 C  
HETATM   24  O   UNL     1      -8.361   8.484  65.506  1.00  0.00    -0.137 OA 
ENDBRANCH  15  21
ENDBRANCH  14  15
ENDBRANCH  12  14
ENDBRANCH   9  10
ENDBRANCH   7   9
ENDBRANCH   6   7
ENDBRANCH   4   6
TORSDOF 7
ENDMDL
MODEL      332
REMARK 921   NORMALIZED FREE ENERGY PREDICTED BY IDOCK:   -1.89 KCAL/MOL
REMARK 922        TOTAL FREE ENERGY PREDICTED BY IDOCK:   -4.29 KCAL/MOL
REMARK 923 INTER-LIGAND FREE ENERGY PREDICTED BY IDOCK:   -4.65 KCAL/MOL
REMARK 924 INTRA-LIGAND FREE ENERGY PREDICTED BY IDOCK:    0.36 KCAL/MOL
REMARK 927      BINDING AFFINITY PREDICTED BY RF-SCORE:    0.00 PKD
ROOT
HETATM    1  C   UNL     1      -8.705  14.753  66.783  1.00  0.00    -0.255 C  
HETATM    2  C   UNL     1      -9.178  13.912  67.973  1.00  0.00    -0.193 C  
HETATM    3  C   UNL     1     -10.666  14.139  68.211  1.00  0.00    -0.256 C  
HETATM    4  C   UNL     1      -8.882  12.440  67.730  1.00  0.00    -0.176 C  
HETATM    5  O   UNL     1      -8.320  12.013  66.727  1.00  0.00    -0.181 OA 
ENDROOT
BRANCH   4   6
HETATM    6  O   UNL     1      -9.247  11.661  68.792  1.00  0.00    -0.143 OA 
BRANCH   6   7
HETATM    7  C   UNL     1      -9.944  10.469  68.401  1.00  0.00    -0.164 C  
HETATM    8  C   UNL     1     -11.397  10.815  68.077  1.00  0.00    -0.378 C  
BRANCH   7   9
HETATM    9  O   UNL     1      -9.470   9.921  67.159  1.00  0.00    -0.153 OA 
BRANCH   9  10
HETATM   10  C   UNL     1      -8.772   8.771  67.258  1.00  0.00    -0.129 C  
HETATM   11  O   UNL     1      -7.654   8.576  66.822  1.00  0.00    -0.088 OA 
HETATM   12  N   UNL     1      -9.507   7.904  68.018  1.00  0.00    -0.148 N  
HETATM   13  H   UNL     1     -10.429   8.197  68.339  1.00  0.00     0.000 HD 
BRANCH  12  14
HETATM   14  C   UNL     1      -9.027   6.589  68.384  1.00  0.00    -0.125 C  
BRANCH  14  15
HETATM   15  C   UNL     1     -10.169   5.579  68.743  1.00  0.00    -0.270 C  
HETATM   16  C   UNL     1      -9.714   4.610  69.867  1.00  0.00    -0.279 C  
HETATM   17  C   UNL     1     -11.401   6.400  69.224  1.00  0.00    -0.405 C  
HETATM   18  C   UNL     1     -11.221   7.044  70.600  1.00  0.00    -0.327 C  
HETATM   19  C   UNL     1      -9.544   5.279  71.229  1.00  0.00    -0.212 C  
HETATM   20  C   UNL     1     -10.813   6.014  71.645  1.00  0.00    -0.314 C  
BRANCH  15  21
HETATM   21  C   UNL     1     -10.536   4.777  67.460  1.00  0.00     0.033 C  
HETATM   22  O   UNL     1      -9.179   2.787  67.212  1.00  0.00    -0.169 OA 
HETATM   23  C   UNL     1      -9.424   3.933  66.866  1.00  0.00    -0.202 C  
HETATM   24  O   UNL     1      -8.717   4.559  65.899  1.00  0.00    -0.117 OA 
ENDBRANCH  15  21
ENDBRANCH  14  15
ENDBRANCH  12  14
ENDBRANCH   9  10
ENDBRANCH   7   9
ENDBRANCH   6   7
ENDBRANCH   4   6
TORSDOF 7
ENDMDL
MODEL      333
REMARK 921   NORMALIZED FREE ENERGY PREDICTED BY IDOCK:   -1.86 KCAL/MOL
REMARK 922        TOTAL FREE ENERGY PREDICTED BY IDOCK:   -4.25 KCAL/MOL
REMARK 923 INTER-LIGAND FREE ENERGY PREDICTED BY IDOCK:   -3.57 KCAL/MOL
REMARK 924 INTRA-LIGAND FREE ENERGY PREDICTED BY IDOCK:   -0.68 KCAL/MOL
REMARK 927      BINDING AFFINITY PREDICTED BY RF-SCORE:    0.00 PKD
ROOT
HETATM    1  C   UNL     1      -8.054   1.824  72.436  1.00  0.00    -0.052 C  
HETATM    2  C   UNL     1      -8.142   3.310  72.072  1.00  0.00    -0.063 C  
HETATM    3  C   UNL     1      -8.050   3.481  70.562  1.00  0.00    -0.063 C  
HETATM    4  C   UNL     1      -9.430   3.911  72.615  1.00  0.00    -0.121 C  
HETATM    5  O   UNL     1     -10.254   3.281  73.268  1.00  0.00    -0.130 OA 
ENDROOT
BRANCH   4   6
HETATM    6  O   UNL     1      -9.522   5.248  72.351  1.00  0.00    -0.140 OA 
BRANCH   6   7
HETATM    7  C   UNL     1     -10.719   5.844  72.875  1.00  0.00    -0.249 C  
HETATM    8  C   UNL     1     -10.482   6.262  74.326  1.00  0.00    -0.216 C  
BRANCH   7   9
HETATM    9  O   UNL     1     -11.051   7.091  72.242  1.00  0.00    -0.236 OA 
BRANCH   9  10
HETATM   10  C   UNL     1     -10.007   7.798  71.763  1.00  0.00    -0.175 C  
HETATM   11  O   UNL     1      -9.358   8.618  72.383  1.00  0.00    -0.282 OA 
HETATM   12  N   UNL     1      -9.753   7.355  70.496  1.00  0.00    -0.176 N  
HETATM   13  H   UNL     1     -10.366   6.646  70.093  1.00  0.00     0.000 HD 
BRANCH  12  14
HETATM   14  C   UNL     1      -8.650   7.852  69.702  1.00  0.00    -0.133 C  
BRANCH  14  15
HETATM   15  C   UNL     1      -9.084   8.439  68.316  1.00  0.00    -0.139 C  
HETATM   16  C   UNL     1      -7.967   9.342  67.726  1.00  0.00    -0.100 C  
HETATM   17  C   UNL     1      -9.358   7.246  67.355  1.00  0.00    -0.148 C  
HETATM   18  C   UNL     1      -8.097   6.505  66.907  1.00  0.00    -0.113 C  
HETATM   19  C   UNL     1      -6.722   8.576  67.286  1.00  0.00    -0.063 C  
HETATM   20  C   UNL     1      -7.075   7.463  66.307  1.00  0.00    -0.070 C  
BRANCH  15  21
HETATM   21  C   UNL     1     -10.388   9.265  68.521  1.00  0.00    -0.237 C  
HETATM   22  O   UNL     1     -10.811  10.771  66.672  1.00  0.00    -0.237 OA 
HETATM   23  C   UNL     1     -10.436  10.612  67.824  1.00  0.00    -0.221 C  
HETATM   24  O   UNL     1     -10.029  11.643  68.596  1.00  0.00    -0.209 OA 
ENDBRANCH  15  21
ENDBRANCH  14  15
ENDBRANCH  12  14
ENDBRANCH   9  10
ENDBRANCH   7   9
ENDBRANCH   6   7
ENDBRANCH   4   6
TORSDOF 7
ENDMDL
MODEL      334
REMARK 921   NORMALIZED FREE ENERGY PREDICTED BY IDOCK:   -1.85 KCAL/MOL
REMARK 922        TOTAL FREE ENERGY PREDICTED BY IDOCK:   -4.24 KCAL/MOL
REMARK 923 INTER-LIGAND FREE ENERGY PREDICTED BY IDOCK:   -3.50 KCAL/MOL
REMARK 924 INTRA-LIGAND FREE ENERGY PREDICTED BY IDOCK:   -0.74 KCAL/MOL
REMARK 927      BINDING AFFINITY PREDICTED BY RF-SCORE:    0.00 PKD
ROOT
HETATM    1  C   UNL     1      -8.180   7.877  74.188  1.00  0.00    -0.303 C  
HETATM    2  C   UNL     1      -9.180   7.174  73.265  1.00  0.00    -0.193 C  
HETATM    3  C   UNL     1     -10.418   6.767  74.054  1.00  0.00    -0.302 C  
HETATM    4  C   UNL     1      -9.547   8.078  72.098  1.00  0.00    -0.215 C  
HETATM    5  O   UNL     1      -9.078   9.197  71.928  1.00  0.00    -0.354 OA 
ENDROOT
BRANCH   4   6
HETATM    6  O   UNL     1     -10.403   7.467  71.225  1.00  0.00    -0.194 OA 
BRANCH   6   7
HETATM    7  C   UNL     1      -9.764   6.462  70.422  1.00  0.00    -0.165 C  
HETATM    8  C   UNL     1     -10.651   5.218  70.370  1.00  0.00    -0.278 C  
BRANCH   7   9
HETATM    9  O   UNL     1      -9.662   6.831  69.036  1.00  0.00    -0.145 OA 
BRANCH   9  10
HETATM   10  C   UNL     1      -8.444   6.678  68.481  1.00  0.00    -0.122 C  
HETATM   11  O   UNL     1      -7.438   7.288  68.790  1.00  0.00    -0.096 OA 
HETATM   12  N   UNL     1      -8.524   5.653  67.581  1.00  0.00    -0.103 N  
HETATM   13  H   UNL     1      -9.429   5.209  67.424  1.00  0.00     0.000 HD 
BRANCH  12  14
HETATM   14  C   UNL     1      -7.376   5.170  66.843  1.00  0.00    -0.086 C  
BRANCH  14  15
HETATM   15  C   UNL     1      -7.654   4.950  65.318  1.00  0.00    -0.078 C  
HETATM   16  C   UNL     1      -8.395   6.172  64.711  1.00  0.00    -0.070 C  
HETATM   17  C   UNL     1      -6.284   4.758  64.604  1.00  0.00    -0.030 C  
HETATM   18  C   UNL     1      -5.449   6.036  64.504  1.00  0.00    -0.017 C  
HETATM   19  C   UNL     1      -7.538   7.432  64.622  1.00  0.00    -0.105 C  
HETATM   20  C   UNL     1      -6.244   7.167  63.863  1.00  0.00    -0.044 C  
BRANCH  15  21
HETATM   21  C   UNL     1      -8.519   3.665  65.158  1.00  0.00    -0.105 C  
HETATM   22  O   UNL     1      -9.197   3.304  62.861  1.00  0.00    -0.091 OA 
HETATM   23  C   UNL     1      -9.490   3.661  63.993  1.00  0.00    -0.146 C  
HETATM   24  O   UNL     1     -10.733   4.085  64.313  1.00  0.00    -0.259 OA 
ENDBRANCH  15  21
ENDBRANCH  14  15
ENDBRANCH  12  14
ENDBRANCH   9  10
ENDBRANCH   7   9
ENDBRANCH   6   7
ENDBRANCH   4   6
TORSDOF 7
ENDMDL
MODEL      335
REMARK 921   NORMALIZED FREE ENERGY PREDICTED BY IDOCK:   -1.83 KCAL/MOL
REMARK 922        TOTAL FREE ENERGY PREDICTED BY IDOCK:   -4.20 KCAL/MOL
REMARK 923 INTER-LIGAND FREE ENERGY PREDICTED BY IDOCK:   -3.91 KCAL/MOL
REMARK 924 INTRA-LIGAND FREE ENERGY PREDICTED BY IDOCK:   -0.30 KCAL/MOL
REMARK 927      BINDING AFFINITY PREDICTED BY RF-SCORE:    0.00 PKD
ROOT
HETATM    1  C   UNL     1     -10.300   1.774  62.582  1.00  0.00    -0.103 C  
HETATM    2  C   UNL     1      -9.296   2.431  63.535  1.00  0.00    -0.097 C  
HETATM    3  C   UNL     1      -8.077   2.907  62.757  1.00  0.00    -0.073 C  
HETATM    4  C   UNL     1      -9.953   3.581  64.282  1.00  0.00    -0.191 C  
HETATM    5  O   UNL     1     -11.128   3.903  64.142  1.00  0.00    -0.333 OA 
ENDROOT
BRANCH   4   6
HETATM    6  O   UNL     1      -9.102   4.164  65.178  1.00  0.00    -0.127 OA 
BRANCH   6   7
HETATM    7  C   UNL     1      -8.908   3.378  66.363  1.00  0.00    -0.135 C  
HETATM    8  C   UNL     1      -7.448   3.478  66.804  1.00  0.00    -0.076 C  
BRANCH   7   9
HETATM    9  O   UNL     1      -9.614   3.897  67.504  1.00  0.00    -0.190 OA 
BRANCH   9  10
HETATM   10  C   UNL     1      -9.202   5.102  67.945  1.00  0.00    -0.115 C  
HETATM   11  O   UNL     1      -9.200   6.134  67.303  1.00  0.00    -0.118 OA 
HETATM   12  N   UNL     1      -8.883   4.972  69.268  1.00  0.00    -0.091 N  
HETATM   13  H   UNL     1      -8.943   4.049  69.697  1.00  0.00     0.000 HD 
BRANCH  12  14
HETATM   14  C   UNL     1      -8.463   6.092  70.083  1.00  0.00    -0.127 C  
BRANCH  14  15
HETATM   15  C   UNL     1      -9.274   6.241  71.415  1.00  0.00    -0.153 C  
HETATM   16  C   UNL     1      -8.533   5.550  72.591  1.00  0.00    -0.117 C  
HETATM   17  C   UNL     1      -9.431   7.760  71.713  1.00  0.00    -0.191 C  
HETATM   18  C   UNL     1      -8.136   8.445  72.154  1.00  0.00    -0.192 C  
HETATM   19  C   UNL     1      -7.246   6.255  73.010  1.00  0.00    -0.087 C  
HETATM   20  C   UNL     1      -7.501   7.722  73.334  1.00  0.00    -0.144 C  
BRANCH  15  21
HETATM   21  C   UNL     1     -10.675   5.594  71.210  1.00  0.00    -0.312 C  
HETATM   22  O   UNL     1     -11.862   6.566  69.336  1.00  0.00    -0.209 OA 
HETATM   23  C   UNL     1     -11.720   6.472  70.546  1.00  0.00    -0.375 C  
HETATM   24  O   UNL     1     -12.501   7.149  71.416  1.00  0.00    -0.350 OA 
ENDBRANCH  15  21
ENDBRANCH  14  15
ENDBRANCH  12  14
ENDBRANCH   9  10
ENDBRANCH   7   9
ENDBRANCH   6   7
ENDBRANCH   4   6
TORSDOF 7
ENDMDL
MODEL      336
REMARK 921   NORMALIZED FREE ENERGY PREDICTED BY IDOCK:   -1.79 KCAL/MOL
REMARK 922        TOTAL FREE ENERGY PREDICTED BY IDOCK:   -4.15 KCAL/MOL
REMARK 923 INTER-LIGAND FREE ENERGY PREDICTED BY IDOCK:   -3.93 KCAL/MOL
REMARK 924 INTRA-LIGAND FREE ENERGY PREDICTED BY IDOCK:   -0.22 KCAL/MOL
REMARK 927      BINDING AFFINITY PREDICTED BY RF-SCORE:    0.00 PKD
ROOT
HETATM    1  C   UNL     1      -9.002   9.126  62.337  1.00  0.00    -0.163 C  
HETATM    2  C   UNL     1      -8.019   9.748  63.335  1.00  0.00    -0.147 C  
HETATM    3  C   UNL     1      -8.418  11.188  63.628  1.00  0.00     0.283 C  
HETATM    4  C   UNL     1      -7.971   8.922  64.612  1.00  0.00    -0.132 C  
HETATM    5  O   UNL     1      -8.618   7.896  64.785  1.00  0.00    -0.051 OA 
ENDROOT
BRANCH   4   6
HETATM    6  O   UNL     1      -7.069   9.419  65.510  1.00  0.00    -0.084 OA 
BRANCH   6   7
HETATM    7  C   UNL     1      -7.652   9.715  66.788  1.00  0.00    -0.098 C  
HETATM    8  C   UNL     1      -6.767  10.719  67.527  1.00  0.00    -0.073 C  
BRANCH   7   9
HETATM    9  O   UNL     1      -8.903  10.418  66.686  1.00  0.00    -0.133 OA 
BRANCH   9  10
HETATM   10  C   UNL     1      -9.441  10.822  67.854  1.00  0.00    -0.157 C  
HETATM   11  O   UNL     1      -9.321  10.261  68.927  1.00  0.00    -0.159 OA 
HETATM   12  N   UNL     1     -10.059  12.020  67.633  1.00  0.00    -0.194 N  
HETATM   13  H   UNL     1     -10.076  12.395  66.684  1.00  0.00     0.000 HD 
BRANCH  12  14
HETATM   14  C   UNL     1     -10.691  12.780  68.691  1.00  0.00    -0.246 C  
BRANCH  14  15
HETATM   15  C   UNL     1     -11.135  14.217  68.258  1.00  0.00    -0.276 C  
HETATM   16  C   UNL     1     -12.234  14.766  69.207  1.00  0.00    -0.234 C  
HETATM   17  C   UNL     1      -9.884  15.142  68.312  1.00  0.00    -0.223 C  
HETATM   18  C   UNL     1      -9.410  15.465  69.731  1.00  0.00    -0.122 C  
HETATM   19  C   UNL     1     -11.733  15.080  70.615  1.00  0.00    -0.357 C  
HETATM   20  C   UNL     1     -10.543  16.031  70.577  1.00  0.00    -0.026 C  
BRANCH  15  21
HETATM   21  C   UNL     1     -11.675  14.144  66.799  1.00  0.00    -0.432 C  
HETATM   22  O   UNL     1      -9.899  13.811  65.186  1.00  0.00    -0.226 OA 
HETATM   23  C   UNL     1     -10.704  14.566  65.711  1.00  0.00    -0.315 C  
HETATM   24  O   UNL     1     -10.809  15.865  65.356  1.00  0.00    -0.364 OA 
ENDBRANCH  15  21
ENDBRANCH  14  15
ENDBRANCH  12  14
ENDBRANCH   9  10
ENDBRANCH   7   9
ENDBRANCH   6   7
ENDBRANCH   4   6
TORSDOF 7
ENDMDL
MODEL      337
REMARK 921   NORMALIZED FREE ENERGY PREDICTED BY IDOCK:   -1.77 KCAL/MOL
REMARK 922        TOTAL FREE ENERGY PREDICTED BY IDOCK:   -4.13 KCAL/MOL
REMARK 923 INTER-LIGAND FREE ENERGY PREDICTED BY IDOCK:   -3.17 KCAL/MOL
REMARK 924 INTRA-LIGAND FREE ENERGY PREDICTED BY IDOCK:   -0.96 KCAL/MOL
REMARK 927      BINDING AFFINITY PREDICTED BY RF-SCORE:    0.00 PKD
ROOT
HETATM    1  C   UNL     1      -7.632   8.108  74.442  1.00  0.00    -0.268 C  
HETATM    2  C   UNL     1      -7.333   7.806  72.970  1.00  0.00    -0.119 C  
HETATM    3  C   UNL     1      -6.835   6.374  72.824  1.00  0.00    -0.070 C  
HETATM    4  C   UNL     1      -8.572   8.045  72.121  1.00  0.00    -0.155 C  
HETATM    5  O   UNL     1      -9.640   8.445  72.569  1.00  0.00    -0.271 OA 
ENDROOT
BRANCH   4   6
HETATM    6  O   UNL     1      -8.333   7.831  70.792  1.00  0.00    -0.113 OA 
BRANCH   6   7
HETATM    7  C   UNL     1      -8.957   8.806  69.944  1.00  0.00    -0.152 C  
HETATM    8  C   UNL     1      -8.074  10.051  69.868  1.00  0.00    -0.180 C  
BRANCH   7   9
HETATM    9  O   UNL     1      -9.030   8.391  68.569  1.00  0.00    -0.136 OA 
BRANCH   9  10
HETATM   10  C   UNL     1      -8.122   7.471  68.189  1.00  0.00    -0.124 C  
HETATM   11  O   UNL     1      -7.028   7.703  67.710  1.00  0.00    -0.072 OA 
HETATM   12  N   UNL     1      -8.611   6.241  68.529  1.00  0.00    -0.114 N  
HETATM   13  H   UNL     1      -9.542   6.182  68.942  1.00  0.00     0.000 HD 
BRANCH  12  14
HETATM   14  C   UNL     1      -7.862   5.019  68.326  1.00  0.00    -0.086 C  
BRANCH  14  15
HETATM   15  C   UNL     1      -8.722   3.839  67.761  1.00  0.00    -0.122 C  
HETATM   16  C   UNL     1      -9.841   4.370  66.824  1.00  0.00    -0.241 C  
HETATM   17  C   UNL     1      -7.776   2.893  66.965  1.00  0.00    -0.075 C  
HETATM   18  C   UNL     1      -7.285   3.477  65.638  1.00  0.00    -0.071 C  
HETATM   19  C   UNL     1      -9.322   4.945  65.508  1.00  0.00    -0.163 C  
HETATM   20  C   UNL     1      -8.450   3.936  64.771  1.00  0.00    -0.105 C  
BRANCH  15  21
HETATM   21  C   UNL     1      -9.350   3.071  68.961  1.00  0.00    -0.226 C  
HETATM   22  O   UNL     1      -9.599   4.482  70.914  1.00  0.00    -0.153 OA 
HETATM   23  C   UNL     1      -8.990   3.591  70.341  1.00  0.00    -0.101 C  
HETATM   24  O   UNL     1      -7.927   2.972  70.900  1.00  0.00    -0.052 OA 
ENDBRANCH  15  21
ENDBRANCH  14  15
ENDBRANCH  12  14
ENDBRANCH   9  10
ENDBRANCH   7   9
ENDBRANCH   6   7
ENDBRANCH   4   6
TORSDOF 7
ENDMDL
MODEL      338
REMARK 921   NORMALIZED FREE ENERGY PREDICTED BY IDOCK:   -1.77 KCAL/MOL
REMARK 922        TOTAL FREE ENERGY PREDICTED BY IDOCK:   -4.12 KCAL/MOL
REMARK 923 INTER-LIGAND FREE ENERGY PREDICTED BY IDOCK:   -4.67 KCAL/MOL
REMARK 924 INTRA-LIGAND FREE ENERGY PREDICTED BY IDOCK:    0.55 KCAL/MOL
REMARK 927      BINDING AFFINITY PREDICTED BY RF-SCORE:    0.00 PKD
ROOT
HETATM    1  C   UNL     1      -8.174   9.649  66.557  1.00  0.00    -0.119 C  
HETATM    2  C   UNL     1      -8.805  10.916  67.145  1.00  0.00    -0.135 C  
HETATM    3  C   UNL     1      -9.733  11.556  66.121  1.00  0.00    -0.249 C  
HETATM    4  C   UNL     1      -9.549  10.587  68.430  1.00  0.00    -0.160 C  
HETATM    5  O   UNL     1      -9.602   9.465  68.920  1.00  0.00    -0.151 OA 
ENDROOT
BRANCH   4   6
HETATM    6  O   UNL     1     -10.086  11.702  69.010  1.00  0.00    -0.138 OA 
BRANCH   6   7
HETATM    7  C   UNL     1     -11.513  11.774  68.875  1.00  0.00    -0.297 C  
HETATM    8  C   UNL     1     -12.168  11.358  70.192  1.00  0.00    -0.401 C  
BRANCH   7   9
HETATM    9  O   UNL     1     -11.994  13.117  68.698  1.00  0.00    -0.328 OA 
BRANCH   9  10
HETATM   10  C   UNL     1     -11.455  14.042  69.517  1.00  0.00    -0.275 C  
HETATM   11  O   UNL     1     -11.961  14.475  70.535  1.00  0.00    -0.281 OA 
HETATM   12  N   UNL     1     -10.203  14.330  69.051  1.00  0.00    -0.363 N  
HETATM   13  H   UNL     1      -9.887  13.884  68.190  1.00  0.00     0.000 HD 
BRANCH  12  14
HETATM   14  C   UNL     1      -9.307  15.241  69.731  1.00  0.00    -0.075 C  
BRANCH  14  15
HETATM   15  C   UNL     1      -8.113  15.730  68.844  1.00  0.00    -0.207 C  
HETATM   16  C   UNL     1      -6.775  15.649  69.627  1.00  0.00    -0.178 C  
HETATM   17  C   UNL     1      -8.043  14.816  67.587  1.00  0.00    -0.183 C  
HETATM   18  C   UNL     1      -7.548  13.397  67.877  1.00  0.00    -0.151 C  
HETATM   19  C   UNL     1      -6.305  14.222  69.901  1.00  0.00    -0.150 C  
HETATM   20  C   UNL     1      -6.214  13.415  68.613  1.00  0.00    -0.088 C  
BRANCH  15  21
HETATM   21  C   UNL     1      -8.393  17.200  68.414  1.00  0.00    -0.251 C  
HETATM   22  O   UNL     1      -6.388  18.324  67.653  1.00  0.00    -0.182 OA 
HETATM   23  C   UNL     1      -7.223  18.159  68.529  1.00  0.00    -0.268 C  
HETATM   24  O   UNL     1      -7.182  18.836  69.698  1.00  0.00    -0.035 OA 
ENDBRANCH  15  21
ENDBRANCH  14  15
ENDBRANCH  12  14
ENDBRANCH   9  10
ENDBRANCH   7   9
ENDBRANCH   6   7
ENDBRANCH   4   6
TORSDOF 7
ENDMDL
MODEL      339
REMARK 921   NORMALIZED FREE ENERGY PREDICTED BY IDOCK:   -1.73 KCAL/MOL
REMARK 922        TOTAL FREE ENERGY PREDICTED BY IDOCK:   -4.07 KCAL/MOL
REMARK 923 INTER-LIGAND FREE ENERGY PREDICTED BY IDOCK:   -4.03 KCAL/MOL
REMARK 924 INTRA-LIGAND FREE ENERGY PREDICTED BY IDOCK:   -0.05 KCAL/MOL
REMARK 927      BINDING AFFINITY PREDICTED BY RF-SCORE:    0.00 PKD
ROOT
HETATM    1  C   UNL     1     -10.973   2.075  62.753  1.00  0.00    -0.214 C  
HETATM    2  C   UNL     1      -9.828   2.388  63.722  1.00  0.00    -0.140 C  
HETATM    3  C   UNL     1      -8.547   2.658  62.942  1.00  0.00    -0.081 C  
HETATM    4  C   UNL     1     -10.192   3.573  64.604  1.00  0.00    -0.092 C  
HETATM    5  O   UNL     1     -11.265   4.162  64.546  1.00  0.00    -0.328 OA 
ENDROOT
BRANCH   4   6
HETATM    6  O   UNL     1      -9.213   3.854  65.515  1.00  0.00    -0.136 OA 
BRANCH   6   7
HETATM    7  C   UNL     1      -9.322   3.076  66.716  1.00  0.00    -0.094 C  
HETATM    8  C   UNL     1      -7.927   2.652  67.173  1.00  0.00    -0.074 C  
BRANCH   7   9
HETATM    9  O   UNL     1      -9.800   3.838  67.838  1.00  0.00    -0.109 OA 
BRANCH   9  10
HETATM   10  C   UNL     1      -9.189   5.023  68.040  1.00  0.00    -0.119 C  
HETATM   11  O   UNL     1      -8.422   5.571  67.271  1.00  0.00    -0.111 OA 
HETATM   12  N   UNL     1      -9.661   5.538  69.214  1.00  0.00    -0.148 N  
HETATM   13  H   UNL     1     -10.318   4.983  69.763  1.00  0.00     0.000 HD 
BRANCH  12  14
HETATM   14  C   UNL     1      -9.267   6.840  69.710  1.00  0.00    -0.146 C  
BRANCH  14  15
HETATM   15  C   UNL     1     -10.426   7.893  69.707  1.00  0.00    -0.233 C  
HETATM   16  C   UNL     1      -9.938   9.251  70.280  1.00  0.00    -0.262 C  
HETATM   17  C   UNL     1     -10.898   8.082  68.237  1.00  0.00     0.026 C  
HETATM   18  C   UNL     1      -9.900   8.835  67.354  1.00  0.00    -0.250 C  
HETATM   19  C   UNL     1      -8.944   9.980  69.378  1.00  0.00    -0.205 C  
HETATM   20  C   UNL     1      -9.508  10.169  67.975  1.00  0.00    -0.156 C  
BRANCH  15  21
HETATM   21  C   UNL     1     -11.596   7.337  70.571  1.00  0.00    -0.292 C  
HETATM   22  O   UNL     1     -11.201   7.642  72.941  1.00  0.00    -0.363 OA 
HETATM   23  C   UNL     1     -11.230   6.893  71.976  1.00  0.00    -0.257 C  
HETATM   24  O   UNL     1     -10.939   5.578  72.077  1.00  0.00    -0.242 OA 
ENDBRANCH  15  21
ENDBRANCH  14  15
ENDBRANCH  12  14
ENDBRANCH   9  10
ENDBRANCH   7   9
ENDBRANCH   6   7
ENDBRANCH   4   6
TORSDOF 7
ENDMDL
MODEL      340
REMARK 921   NORMALIZED FREE ENERGY PREDICTED BY IDOCK:   -1.69 KCAL/MOL
REMARK 922        TOTAL FREE ENERGY PREDICTED BY IDOCK:   -4.01 KCAL/MOL
REMARK 923 INTER-LIGAND FREE ENERGY PREDICTED BY IDOCK:   -4.56 KCAL/MOL
REMARK 924 INTRA-LIGAND FREE ENERGY PREDICTED BY IDOCK:    0.54 KCAL/MOL
REMARK 927      BINDING AFFINITY PREDICTED BY RF-SCORE:    0.00 PKD
ROOT
HETATM    1  C   UNL     1      -5.126  16.379  71.673  1.00  0.00     0.153 C  
HETATM    2  C   UNL     1      -5.388  15.988  70.215  1.00  0.00    -0.159 C  
HETATM    3  C   UNL     1      -6.122  14.655  70.158  1.00  0.00    -0.158 C  
HETATM    4  C   UNL     1      -6.178  17.080  69.509  1.00  0.00    -0.237 C  
HETATM    5  O   UNL     1      -6.525  18.126  70.045  1.00  0.00    -0.062 OA 
ENDROOT
BRANCH   4   6
HETATM    6  O   UNL     1      -6.390  16.788  68.191  1.00  0.00    -0.133 OA 
BRANCH   6   7
HETATM    7  C   UNL     1      -7.670  17.233  67.716  1.00  0.00    -0.190 C  
HETATM    8  C   UNL     1      -7.617  17.394  66.196  1.00  0.00    -0.321 C  
BRANCH   7   9
HETATM    9  O   UNL     1      -8.707  16.253  67.890  1.00  0.00    -0.173 OA 
BRANCH   9  10
HETATM   10  C   UNL     1      -8.333  14.970  67.709  1.00  0.00    -0.150 C  
HETATM   11  O   UNL     1      -7.288  14.595  67.213  1.00  0.00    -0.193 OA 
HETATM   12  N   UNL     1      -9.292  14.176  68.271  1.00  0.00    -0.199 N  
HETATM   13  H   UNL     1     -10.119  14.617  68.672  1.00  0.00     0.000 HD 
BRANCH  12  14
HETATM   14  C   UNL     1      -9.181  12.733  68.319  1.00  0.00    -0.186 C  
BRANCH  14  15
HETATM   15  C   UNL     1     -10.477  11.986  67.857  1.00  0.00    -0.221 C  
HETATM   16  C   UNL     1     -10.562  10.577  68.505  1.00  0.00    -0.234 C  
HETATM   17  C   UNL     1     -11.704  12.839  68.292  1.00  0.00    -0.388 C  
HETATM   18  C   UNL     1     -11.961  12.835  69.801  1.00  0.00    -0.362 C  
HETATM   19  C   UNL     1     -10.820  10.604  70.010  1.00  0.00    -0.280 C  
HETATM   20  C   UNL     1     -12.066  11.415  70.341  1.00  0.00    -0.473 C  
BRANCH  15  21
HETATM   21  C   UNL     1     -10.444  11.860  66.305  1.00  0.00    -0.274 C  
HETATM   22  O   UNL     1     -10.458   9.550  65.578  1.00  0.00     0.095 OA 
HETATM   23  C   UNL     1      -9.832  10.584  65.756  1.00  0.00    -0.237 C  
HETATM   24  O   UNL     1      -8.517  10.687  65.467  1.00  0.00    -0.173 OA 
ENDBRANCH  15  21
ENDBRANCH  14  15
ENDBRANCH  12  14
ENDBRANCH   9  10
ENDBRANCH   7   9
ENDBRANCH   6   7
ENDBRANCH   4   6
TORSDOF 7
ENDMDL
MODEL      341
REMARK 921   NORMALIZED FREE ENERGY PREDICTED BY IDOCK:   -1.68 KCAL/MOL
REMARK 922        TOTAL FREE ENERGY PREDICTED BY IDOCK:   -4.00 KCAL/MOL
REMARK 923 INTER-LIGAND FREE ENERGY PREDICTED BY IDOCK:   -3.97 KCAL/MOL
REMARK 924 INTRA-LIGAND FREE ENERGY PREDICTED BY IDOCK:   -0.03 KCAL/MOL
REMARK 927      BINDING AFFINITY PREDICTED BY RF-SCORE:    0.00 PKD
ROOT
HETATM    1  C   UNL     1     -10.992   2.186  62.716  1.00  0.00    -0.219 C  
HETATM    2  C   UNL     1      -9.914   2.648  63.702  1.00  0.00    -0.145 C  
HETATM    3  C   UNL     1      -8.615   2.928  62.957  1.00  0.00    -0.085 C  
HETATM    4  C   UNL     1     -10.386   3.877  64.462  1.00  0.00    -0.220 C  
HETATM    5  O   UNL     1     -11.487   4.394  64.309  1.00  0.00    -0.022 OA 
ENDROOT
BRANCH   4   6
HETATM    6  O   UNL     1      -9.469   4.292  65.387  1.00  0.00    -0.153 OA 
BRANCH   6   7
HETATM    7  C   UNL     1      -9.405   3.437  66.538  1.00  0.00    -0.155 C  
HETATM    8  C   UNL     1      -7.955   3.332  67.010  1.00  0.00    -0.079 C  
BRANCH   7   9
HETATM    9  O   UNL     1     -10.068   3.991  67.688  1.00  0.00    -0.020 OA 
BRANCH   9  10
HETATM   10  C   UNL     1      -9.742   5.264  67.991  1.00  0.00    -0.141 C  
HETATM   11  O   UNL     1      -9.268   6.081  67.225  1.00  0.00    -0.115 OA 
HETATM   12  N   UNL     1     -10.130   5.495  69.281  1.00  0.00    -0.201 N  
HETATM   13  H   UNL     1     -10.533   4.725  69.816  1.00  0.00     0.000 HD 
BRANCH  12  14
HETATM   14  C   UNL     1      -9.992   6.787  69.918  1.00  0.00    -0.172 C  
BRANCH  14  15
HETATM   15  C   UNL     1     -10.466   6.808  71.410  1.00  0.00    -0.238 C  
HETATM   16  C   UNL     1     -10.345   8.236  72.007  1.00  0.00    -0.350 C  
HETATM   17  C   UNL     1     -11.952   6.347  71.448  1.00  0.00    -0.307 C  
HETATM   18  C   UNL     1     -12.937   7.371  70.879  1.00  0.00    -0.103 C  
HETATM   19  C   UNL     1     -11.340   9.236  71.422  1.00  0.00    -0.434 C  
HETATM   20  C   UNL     1     -12.771   8.729  71.549  1.00  0.00    -0.372 C  
BRANCH  15  21
HETATM   21  C   UNL     1      -9.583   5.813  72.219  1.00  0.00    -0.164 C  
HETATM   22  O   UNL     1      -7.298   6.588  72.429  1.00  0.00    -0.088 OA 
HETATM   23  C   UNL     1      -8.099   5.833  71.899  1.00  0.00    -0.112 C  
HETATM   24  O   UNL     1      -7.727   4.926  70.970  1.00  0.00    -0.078 OA 
ENDBRANCH  15  21
ENDBRANCH  14  15
ENDBRANCH  12  14
ENDBRANCH   9  10
ENDBRANCH   7   9
ENDBRANCH   6   7
ENDBRANCH   4   6
TORSDOF 7
ENDMDL
MODEL      342
REMARK 921   NORMALIZED FREE ENERGY PREDICTED BY IDOCK:   -1.58 KCAL/MOL
REMARK 922        TOTAL FREE ENERGY PREDICTED BY IDOCK:   -3.86 KCAL/MOL
REMARK 923 INTER-LIGAND FREE ENERGY PREDICTED BY IDOCK:   -3.80 KCAL/MOL
REMARK 924 INTRA-LIGAND FREE ENERGY PREDICTED BY IDOCK:   -0.06 KCAL/MOL
REMARK 927      BINDING AFFINITY PREDICTED BY RF-SCORE:    0.00 PKD
ROOT
HETATM    1  C   UNL     1      -9.829  10.994  68.716  1.00  0.00    -0.206 C  
HETATM    2  C   UNL     1      -9.335   9.753  69.467  1.00  0.00    -0.226 C  
HETATM    3  C   UNL     1      -7.876   9.935  69.866  1.00  0.00    -0.182 C  
HETATM    4  C   UNL     1     -10.208   9.492  70.685  1.00  0.00    -0.297 C  
HETATM    5  O   UNL     1     -11.179  10.176  70.989  1.00  0.00    -0.339 OA 
ENDROOT
BRANCH   4   6
HETATM    6  O   UNL     1      -9.827   8.364  71.356  1.00  0.00    -0.169 OA 
BRANCH   6   7
HETATM    7  C   UNL     1     -10.512   7.185  70.908  1.00  0.00    -0.210 C  
HETATM    8  C   UNL     1     -12.021   7.425  70.962  1.00  0.00    -0.337 C  
BRANCH   7   9
HETATM    9  O   UNL     1     -10.291   6.900  69.516  1.00  0.00    -0.193 OA 
BRANCH   9  10
HETATM   10  C   UNL     1     -10.198   5.594  69.196  1.00  0.00    -0.236 C  
HETATM   11  O   UNL     1     -10.305   4.661  69.969  1.00  0.00    -0.205 OA 
HETATM   12  N   UNL     1     -10.061   5.508  67.839  1.00  0.00    -0.163 N  
HETATM   13  H   UNL     1     -10.000   6.371  67.298  1.00  0.00     0.000 HD 
BRANCH  12  14
HETATM   14  C   UNL     1     -10.000   4.243  67.139  1.00  0.00    -0.104 C  
BRANCH  14  15
HETATM   15  C   UNL     1      -8.748   4.097  66.210  1.00  0.00    -0.115 C  
HETATM   16  C   UNL     1      -8.156   2.664  66.304  1.00  0.00    -0.084 C  
HETATM   17  C   UNL     1      -9.198   4.385  64.749  1.00  0.00    -0.157 C  
HETATM   18  C   UNL     1     -10.068   3.284  64.137  1.00  0.00    -0.175 C  
HETATM   19  C   UNL     1      -9.045   1.588  65.685  1.00  0.00    -0.073 C  
HETATM   20  C   UNL     1      -9.393   1.923  64.240  1.00  0.00    -0.132 C  
BRANCH  15  21
HETATM   21  C   UNL     1      -7.685   5.145  66.652  1.00  0.00    -0.092 C  
HETATM   22  O   UNL     1      -5.502   4.148  66.975  1.00  0.00    -0.012 OA 
HETATM   23  C   UNL     1      -6.522   4.607  67.466  1.00  0.00    -0.045 C  
HETATM   24  O   UNL     1      -6.705   4.687  68.802  1.00  0.00    -0.047 OA 
ENDBRANCH  15  21
ENDBRANCH  14  15
ENDBRANCH  12  14
ENDBRANCH   9  10
ENDBRANCH   7   9
ENDBRANCH   6   7
ENDBRANCH   4   6
TORSDOF 7
ENDMDL
MODEL      343
REMARK 921   NORMALIZED FREE ENERGY PREDICTED BY IDOCK:   -1.51 KCAL/MOL
REMARK 922        TOTAL FREE ENERGY PREDICTED BY IDOCK:   -3.76 KCAL/MOL
REMARK 923 INTER-LIGAND FREE ENERGY PREDICTED BY IDOCK:   -3.97 KCAL/MOL
REMARK 924 INTRA-LIGAND FREE ENERGY PREDICTED BY IDOCK:    0.20 KCAL/MOL
REMARK 927      BINDING AFFINITY PREDICTED BY RF-SCORE:    0.00 PKD
ROOT
HETATM    1  C   UNL     1      -9.820  10.218  65.131  1.00  0.00    -0.389 C  
HETATM    2  C   UNL     1      -8.335  10.103  65.487  1.00  0.00    -0.160 C  
HETATM    3  C   UNL     1      -8.004  11.039  66.643  1.00  0.00    -0.156 C  
HETATM    4  C   UNL     1      -7.984   8.663  65.831  1.00  0.00    -0.105 C  
HETATM    5  O   UNL     1      -8.788   7.739  65.797  1.00  0.00    -0.160 OA 
ENDROOT
BRANCH   4   6
HETATM    6  O   UNL     1      -6.655   8.511  66.109  1.00  0.00    -0.056 OA 
BRANCH   6   7
HETATM    7  C   UNL     1      -6.413   7.725  67.285  1.00  0.00    -0.056 C  
HETATM    8  C   UNL     1      -6.003   8.647  68.434  1.00  0.00    -0.042 C  
BRANCH   7   9
HETATM    9  O   UNL     1      -7.601   7.098  67.797  1.00  0.00    -0.105 OA 
BRANCH   9  10
HETATM   10  C   UNL     1      -7.452   6.427  68.957  1.00  0.00    -0.095 C  
HETATM   11  O   UNL     1      -6.465   5.804  69.300  1.00  0.00    -0.041 OA 
HETATM   12  N   UNL     1      -8.568   6.654  69.713  1.00  0.00    -0.135 N  
HETATM   13  H   UNL     1      -9.324   7.211  69.315  1.00  0.00     0.000 HD 
BRANCH  12  14
HETATM   14  C   UNL     1      -8.719   6.137  71.057  1.00  0.00    -0.132 C  
BRANCH  14  15
HETATM   15  C   UNL     1      -9.736   6.943  71.932  1.00  0.00    -0.166 C  
HETATM   16  C   UNL     1     -10.076   6.170  73.235  1.00  0.00    -0.205 C  
HETATM   17  C   UNL     1      -9.083   8.311  72.288  1.00  0.00    -0.289 C  
HETATM   18  C   UNL     1      -7.938   8.210  73.298  1.00  0.00    -0.234 C  
HETATM   19  C   UNL     1      -8.916   6.086  74.224  1.00  0.00    -0.131 C  
HETATM   20  C   UNL     1      -8.374   7.471  74.557  1.00  0.00    -0.241 C  
BRANCH  15  21
HETATM   21  C   UNL     1     -11.027   7.176  71.094  1.00  0.00    -0.272 C  
HETATM   22  O   UNL     1     -10.821   9.082  69.615  1.00  0.00    -0.231 OA 
HETATM   23  C   UNL     1     -11.276   8.603  70.643  1.00  0.00    -0.252 C  
HETATM   24  O   UNL     1     -12.063   9.314  71.480  1.00  0.00    -0.314 OA 
ENDBRANCH  15  21
ENDBRANCH  14  15
ENDBRANCH  12  14
ENDBRANCH   9  10
ENDBRANCH   7   9
ENDBRANCH   6   7
ENDBRANCH   4   6
TORSDOF 7
ENDMDL
MODEL      344
REMARK 921   NORMALIZED FREE ENERGY PREDICTED BY IDOCK:   -1.51 KCAL/MOL
REMARK 922        TOTAL FREE ENERGY PREDICTED BY IDOCK:   -3.76 KCAL/MOL
REMARK 923 INTER-LIGAND FREE ENERGY PREDICTED BY IDOCK:   -4.86 KCAL/MOL
REMARK 924 INTRA-LIGAND FREE ENERGY PREDICTED BY IDOCK:    1.10 KCAL/MOL
REMARK 927      BINDING AFFINITY PREDICTED BY RF-SCORE:    0.00 PKD
ROOT
HETATM    1  C   UNL     1     -11.640  10.758  70.026  1.00  0.00    -0.417 C  
HETATM    2  C   UNL     1     -11.220   9.416  70.632  1.00  0.00    -0.345 C  
HETATM    3  C   UNL     1      -9.742   9.452  71.002  1.00  0.00    -0.293 C  
HETATM    4  C   UNL     1     -12.080   9.092  71.844  1.00  0.00    -0.378 C  
HETATM    5  O   UNL     1     -12.990   9.808  72.246  1.00  0.00    -0.397 OA 
ENDROOT
BRANCH   4   6
HETATM    6  O   UNL     1     -11.766   7.877  72.386  1.00  0.00    -0.333 OA 
BRANCH   6   7
HETATM    7  C   UNL     1     -12.423   6.782  71.730  1.00  0.00    -0.349 C  
HETATM    8  C   UNL     1     -13.783   7.247  71.210  1.00  0.00    -0.328 C  
BRANCH   7   9
HETATM    9  O   UNL     1     -11.755   6.365  70.527  1.00  0.00    -0.386 OA 
BRANCH   9  10
HETATM   10  C   UNL     1     -10.538   5.812  70.698  1.00  0.00    -0.277 C  
HETATM   11  O   UNL     1     -10.250   4.961  71.518  1.00  0.00    -0.201 OA 
HETATM   12  N   UNL     1      -9.717   6.305  69.723  1.00  0.00    -0.159 N  
HETATM   13  H   UNL     1     -10.087   7.007  69.081  1.00  0.00     0.000 HD 
BRANCH  12  14
HETATM   14  C   UNL     1      -8.345   5.873  69.565  1.00  0.00    -0.114 C  
BRANCH  14  15
HETATM   15  C   UNL     1      -8.020   5.316  68.138  1.00  0.00    -0.091 C  
HETATM   16  C   UNL     1      -8.955   4.128  67.784  1.00  0.00    -0.142 C  
HETATM   17  C   UNL     1      -8.226   6.469  67.114  1.00  0.00    -0.113 C  
HETATM   18  C   UNL     1      -9.692   6.845  66.886  1.00  0.00    -0.222 C  
HETATM   19  C   UNL     1     -10.411   4.532  67.561  1.00  0.00     0.079 C  
HETATM   20  C   UNL     1     -10.524   5.627  66.507  1.00  0.00    -0.309 C  
BRANCH  15  21
HETATM   21  C   UNL     1      -6.534   4.851  68.120  1.00  0.00    -0.041 C  
HETATM   22  O   UNL     1      -6.049   3.284  69.901  1.00  0.00    -0.022 OA 
HETATM   23  C   UNL     1      -5.959   4.418  69.456  1.00  0.00    -0.018 C  
HETATM   24  O   UNL     1      -5.320   5.404  70.123  1.00  0.00    -0.004 OA 
ENDBRANCH  15  21
ENDBRANCH  14  15
ENDBRANCH  12  14
ENDBRANCH   9  10
ENDBRANCH   7   9
ENDBRANCH   6   7
ENDBRANCH   4   6
TORSDOF 7
ENDMDL
MODEL      345
REMARK 921   NORMALIZED FREE ENERGY PREDICTED BY IDOCK:   -1.45 KCAL/MOL
REMARK 922        TOTAL FREE ENERGY PREDICTED BY IDOCK:   -3.67 KCAL/MOL
REMARK 923 INTER-LIGAND FREE ENERGY PREDICTED BY IDOCK:   -4.09 KCAL/MOL
REMARK 924 INTRA-LIGAND FREE ENERGY PREDICTED BY IDOCK:    0.42 KCAL/MOL
REMARK 927      BINDING AFFINITY PREDICTED BY RF-SCORE:    0.00 PKD
ROOT
HETATM    1  C   UNL     1      -8.490   7.698  71.613  1.00  0.00    -0.120 C  
HETATM    2  C   UNL     1      -8.063   8.503  70.382  1.00  0.00    -0.108 C  
HETATM    3  C   UNL     1      -6.547   8.468  70.237  1.00  0.00    -0.039 C  
HETATM    4  C   UNL     1      -8.745   7.962  69.135  1.00  0.00    -0.138 C  
HETATM    5  O   UNL     1      -9.539   7.028  69.142  1.00  0.00    -0.150 OA 
ENDROOT
BRANCH   4   6
HETATM    6  O   UNL     1      -8.426   8.686  68.020  1.00  0.00    -0.125 OA 
BRANCH   6   7
HETATM    7  C   UNL     1      -9.251   9.849  67.849  1.00  0.00    -0.130 C  
HETATM    8  C   UNL     1     -10.454   9.758  68.789  1.00  0.00    -0.240 C  
BRANCH   7   9
HETATM    9  O   UNL     1      -8.610  11.062  68.280  1.00  0.00    -0.130 OA 
BRANCH   9  10
HETATM   10  C   UNL     1      -9.063  12.195  67.707  1.00  0.00    -0.189 C  
HETATM   11  O   UNL     1     -10.202  12.400  67.334  1.00  0.00    -0.206 OA 
HETATM   12  N   UNL     1      -8.038  13.099  67.710  1.00  0.00    -0.150 N  
HETATM   13  H   UNL     1      -7.129  12.807  68.068  1.00  0.00     0.000 HD 
BRANCH  12  14
HETATM   14  C   UNL     1      -8.192  14.455  67.228  1.00  0.00    -0.203 C  
BRANCH  14  15
HETATM   15  C   UNL     1      -8.227  15.530  68.366  1.00  0.00    -0.145 C  
HETATM   16  C   UNL     1      -7.333  15.097  69.560  1.00  0.00    -0.210 C  
HETATM   17  C   UNL     1      -7.703  16.871  67.776  1.00  0.00    -0.184 C  
HETATM   18  C   UNL     1      -6.199  16.882  67.495  1.00  0.00    -0.180 C  
HETATM   19  C   UNL     1      -5.838  15.119  69.251  1.00  0.00    -0.097 C  
HETATM   20  C   UNL     1      -5.402  16.483  68.730  1.00  0.00    -0.121 C  
BRANCH  15  21
HETATM   21  C   UNL     1      -9.702  15.698  68.835  1.00  0.00    -0.220 C  
HETATM   22  O   UNL     1     -11.277  15.362  67.027  1.00  0.00    -0.312 OA 
HETATM   23  C   UNL     1     -10.691  16.135  67.770  1.00  0.00    -0.325 C  
HETATM   24  O   UNL     1     -10.881  17.471  67.713  1.00  0.00    -0.368 OA 
ENDBRANCH  15  21
ENDBRANCH  14  15
ENDBRANCH  12  14
ENDBRANCH   9  10
ENDBRANCH   7   9
ENDBRANCH   6   7
ENDBRANCH   4   6
TORSDOF 7
ENDMDL
MODEL      346
REMARK 921   NORMALIZED FREE ENERGY PREDICTED BY IDOCK:   -1.44 KCAL/MOL
REMARK 922        TOTAL FREE ENERGY PREDICTED BY IDOCK:   -3.66 KCAL/MOL
REMARK 923 INTER-LIGAND FREE ENERGY PREDICTED BY IDOCK:   -2.94 KCAL/MOL
REMARK 924 INTRA-LIGAND FREE ENERGY PREDICTED BY IDOCK:   -0.72 KCAL/MOL
REMARK 927      BINDING AFFINITY PREDICTED BY RF-SCORE:    0.00 PKD
ROOT
HETATM    1  C   UNL     1     -13.980   9.580  72.591  1.00  0.00    -0.137 C  
HETATM    2  C   UNL     1     -12.776  10.481  72.300  1.00  0.00     0.044 C  
HETATM    3  C   UNL     1     -12.067  10.010  71.036  1.00  0.00    -0.469 C  
HETATM    4  C   UNL     1     -13.220  11.930  72.172  1.00  0.00    -0.261 C  
HETATM    5  O   UNL     1     -14.379  12.303  72.310  1.00  0.00     0.270 OA 
ENDROOT
BRANCH   4   6
HETATM    6  O   UNL     1     -12.165  12.773  71.959  1.00  0.00     0.435 OA 
BRANCH   6   7
HETATM    7  C   UNL     1     -12.295  13.544  70.755  1.00  0.00    -0.363 C  
HETATM    8  C   UNL     1     -12.244  15.032  71.099  1.00  0.00    -0.381 C  
BRANCH   7   9
HETATM    9  O   UNL     1     -11.176  13.391  69.865  1.00  0.00    -0.080 OA 
BRANCH   9  10
HETATM   10  C   UNL     1     -11.477  12.992  68.613  1.00  0.00    -0.307 C  
HETATM   11  O   UNL     1     -12.246  13.548  67.853  1.00  0.00    -0.305 OA 
HETATM   12  N   UNL     1     -10.692  11.912  68.322  1.00  0.00    -0.213 N  
HETATM   13  H   UNL     1     -10.072  11.548  69.046  1.00  0.00     0.000 HD 
BRANCH  12  14
HETATM   14  C   UNL     1     -10.704  11.264  67.028  1.00  0.00    -0.260 C  
BRANCH  14  15
HETATM   15  C   UNL     1      -9.291  11.156  66.363  1.00  0.00    -0.207 C  
HETATM   16  C   UNL     1      -9.276  10.050  65.274  1.00  0.00    -0.268 C  
HETATM   17  C   UNL     1      -8.959  12.533  65.717  1.00  0.00     0.341 C  
HETATM   18  C   UNL     1      -9.780  12.848  64.465  1.00  0.00     0.115 C  
HETATM   19  C   UNL     1     -10.102  10.391  64.036  1.00  0.00    -0.216 C  
HETATM   20  C   UNL     1      -9.676  11.726  63.439  1.00  0.00    -0.341 C  
BRANCH  15  21
HETATM   21  C   UNL     1      -8.250  10.828  67.474  1.00  0.00    -0.112 C  
HETATM   22  O   UNL     1      -6.008  10.609  66.585  1.00  0.00    -0.063 OA 
HETATM   23  C   UNL     1      -7.015  10.072  67.022  1.00  0.00    -0.088 C  
HETATM   24  O   UNL     1      -7.115   8.731  67.152  1.00  0.00    -0.074 OA 
ENDBRANCH  15  21
ENDBRANCH  14  15
ENDBRANCH  12  14
ENDBRANCH   9  10
ENDBRANCH   7   9
ENDBRANCH   6   7
ENDBRANCH   4   6
TORSDOF 7
ENDMDL
MODEL      347
REMARK 921   NORMALIZED FREE ENERGY PREDICTED BY IDOCK:   -1.40 KCAL/MOL
REMARK 922        TOTAL FREE ENERGY PREDICTED BY IDOCK:   -3.60 KCAL/MOL
REMARK 923 INTER-LIGAND FREE ENERGY PREDICTED BY IDOCK:   -2.99 KCAL/MOL
REMARK 924 INTRA-LIGAND FREE ENERGY PREDICTED BY IDOCK:   -0.61 KCAL/MOL
REMARK 927      BINDING AFFINITY PREDICTED BY RF-SCORE:    0.00 PKD
ROOT
HETATM    1  C   UNL     1      -9.109   9.218  62.827  1.00  0.00    -0.030 C  
HETATM    2  C   UNL     1      -8.285   9.718  64.018  1.00  0.00    -0.158 C  
HETATM    3  C   UNL     1      -7.072  10.493  63.521  1.00  0.00     0.076 C  
HETATM    4  C   UNL     1      -9.147  10.575  64.932  1.00  0.00    -0.205 C  
HETATM    5  O   UNL     1     -10.335  10.800  64.736  1.00  0.00    -0.321 OA 
ENDROOT
BRANCH   4   6
HETATM    6  O   UNL     1      -8.458  11.002  66.033  1.00  0.00    -0.167 OA 
BRANCH   6   7
HETATM    7  C   UNL     1      -7.844   9.930  66.763  1.00  0.00    -0.109 C  
HETATM    8  C   UNL     1      -6.600  10.454  67.481  1.00  0.00    -0.066 C  
BRANCH   7   9
HETATM    9  O   UNL     1      -8.654   9.453  67.851  1.00  0.00    -0.120 OA 
BRANCH   9  10
HETATM   10  C   UNL     1      -8.814   8.116  67.918  1.00  0.00    -0.131 C  
HETATM   11  O   UNL     1      -8.424   7.310  67.095  1.00  0.00    -0.116 OA 
HETATM   12  N   UNL     1      -9.403   7.828  69.116  1.00  0.00    -0.151 N  
HETATM   13  H   UNL     1      -9.670   8.599  69.729  1.00  0.00     0.000 HD 
BRANCH  12  14
HETATM   14  C   UNL     1      -9.664   6.473  69.552  1.00  0.00    -0.151 C  
BRANCH  14  15
HETATM   15  C   UNL     1      -8.995   6.110  70.920  1.00  0.00    -0.144 C  
HETATM   16  C   UNL     1     -10.070   5.885  72.017  1.00  0.00    -0.223 C  
HETATM   17  C   UNL     1      -8.168   4.807  70.720  1.00  0.00    -0.086 C  
HETATM   18  C   UNL     1      -9.021   3.550  70.541  1.00  0.00    -0.160 C  
HETATM   19  C   UNL     1     -10.906   4.623  71.814  1.00  0.00     0.119 C  
HETATM   20  C   UNL     1     -10.020   3.391  71.680  1.00  0.00    -0.177 C  
BRANCH  15  21
HETATM   21  C   UNL     1      -8.050   7.279  71.329  1.00  0.00    -0.102 C  
HETATM   22  O   UNL     1      -7.786   7.439  73.730  1.00  0.00    -0.103 OA 
HETATM   23  C   UNL     1      -8.287   7.874  72.704  1.00  0.00    -0.147 C  
HETATM   24  O   UNL     1      -9.107   8.947  72.704  1.00  0.00    -0.321 OA 
ENDBRANCH  15  21
ENDBRANCH  14  15
ENDBRANCH  12  14
ENDBRANCH   9  10
ENDBRANCH   7   9
ENDBRANCH   6   7
ENDBRANCH   4   6
TORSDOF 7
ENDMDL
MODEL      348
REMARK 921   NORMALIZED FREE ENERGY PREDICTED BY IDOCK:   -1.37 KCAL/MOL
REMARK 922        TOTAL FREE ENERGY PREDICTED BY IDOCK:   -3.56 KCAL/MOL
REMARK 923 INTER-LIGAND FREE ENERGY PREDICTED BY IDOCK:   -3.91 KCAL/MOL
REMARK 924 INTRA-LIGAND FREE ENERGY PREDICTED BY IDOCK:    0.35 KCAL/MOL
REMARK 927      BINDING AFFINITY PREDICTED BY RF-SCORE:    0.00 PKD
ROOT
HETATM    1  C   UNL     1      -6.513  15.553  68.604  1.00  0.00    -0.102 C  
HETATM    2  C   UNL     1      -7.692  14.596  68.813  1.00  0.00    -0.137 C  
HETATM    3  C   UNL     1      -8.989  15.268  68.383  1.00  0.00    -0.184 C  
HETATM    4  C   UNL     1      -7.464  13.303  68.046  1.00  0.00    -0.138 C  
HETATM    5  O   UNL     1      -6.460  13.072  67.381  1.00  0.00    -0.166 OA 
ENDROOT
BRANCH   4   6
HETATM    6  O   UNL     1      -8.473  12.403  68.245  1.00  0.00    -0.171 OA 
BRANCH   6   7
HETATM    7  C   UNL     1      -8.020  11.168  68.818  1.00  0.00    -0.144 C  
HETATM    8  C   UNL     1      -6.990  11.463  69.909  1.00  0.00     0.119 C  
BRANCH   7   9
HETATM    9  O   UNL     1      -9.050  10.473  69.542  1.00  0.00    -0.152 OA 
BRANCH   9  10
HETATM   10  C   UNL     1      -8.907   9.135  69.620  1.00  0.00    -0.151 C  
HETATM   11  O   UNL     1      -8.619   8.394  68.699  1.00  0.00    -0.130 OA 
HETATM   12  N   UNL     1      -9.046   8.778  70.932  1.00  0.00    -0.188 N  
HETATM   13  H   UNL     1      -9.272   9.502  71.614  1.00  0.00     0.000 HD 
BRANCH  12  14
HETATM   14  C   UNL     1      -8.885   7.415  71.392  1.00  0.00    -0.126 C  
BRANCH  14  15
HETATM   15  C   UNL     1      -9.987   6.957  72.406  1.00  0.00    -0.181 C  
HETATM   16  C   UNL     1     -10.924   8.140  72.772  1.00  0.00    -0.401 C  
HETATM   17  C   UNL     1     -10.812   5.821  71.736  1.00  0.00    -0.311 C  
HETATM   18  C   UNL     1     -11.725   6.298  70.604  1.00  0.00    -0.285 C  
HETATM   19  C   UNL     1     -11.823   8.594  71.624  1.00  0.00    -0.389 C  
HETATM   20  C   UNL     1     -12.633   7.431  71.065  1.00  0.00    -0.264 C  
BRANCH  15  21
HETATM   21  C   UNL     1      -9.282   6.417  73.684  1.00  0.00    -0.143 C  
HETATM   22  O   UNL     1      -6.869   6.491  73.494  1.00  0.00    -0.076 OA 
HETATM   23  C   UNL     1      -7.897   5.831  73.480  1.00  0.00    -0.105 C  
HETATM   24  O   UNL     1      -7.890   4.494  73.286  1.00  0.00    -0.089 OA 
ENDBRANCH  15  21
ENDBRANCH  14  15
ENDBRANCH  12  14
ENDBRANCH   9  10
ENDBRANCH   7   9
ENDBRANCH   6   7
ENDBRANCH   4   6
TORSDOF 7
ENDMDL
MODEL      349
REMARK 921   NORMALIZED FREE ENERGY PREDICTED BY IDOCK:   -1.33 KCAL/MOL
REMARK 922        TOTAL FREE ENERGY PREDICTED BY IDOCK:   -3.50 KCAL/MOL
REMARK 923 INTER-LIGAND FREE ENERGY PREDICTED BY IDOCK:   -3.52 KCAL/MOL
REMARK 924 INTRA-LIGAND FREE ENERGY PREDICTED BY IDOCK:    0.01 KCAL/MOL
REMARK 927      BINDING AFFINITY PREDICTED BY RF-SCORE:    0.00 PKD
ROOT
HETATM    1  C   UNL     1     -11.876   9.241  70.503  1.00  0.00    -0.173 C  
HETATM    2  C   UNL     1     -12.860  10.321  70.963  1.00  0.00    -0.490 C  
HETATM    3  C   UNL     1     -12.640  10.629  72.439  1.00  0.00     0.626 C  
HETATM    4  C   UNL     1     -12.704  11.573  70.113  1.00  0.00     0.038 C  
HETATM    5  O   UNL     1     -11.913  11.671  69.182  1.00  0.00    -0.323 OA 
ENDROOT
BRANCH   4   6
HETATM    6  O   UNL     1     -13.599  12.545  70.463  1.00  0.00     1.016 OA 
BRANCH   6   7
HETATM    7  C   UNL     1     -13.037  13.866  70.428  1.00  0.00     0.099 C  
HETATM    8  C   UNL     1     -13.774  14.756  71.428  1.00  0.00    -0.504 C  
BRANCH   7   9
HETATM    9  O   UNL     1     -11.682  13.914  70.907  1.00  0.00    -0.211 OA 
BRANCH   9  10
HETATM   10  C   UNL     1     -10.793  14.503  70.082  1.00  0.00     0.061 C  
HETATM   11  O   UNL     1      -9.976  15.347  70.400  1.00  0.00    -0.134 OA 
HETATM   12  N   UNL     1     -10.910  13.913  68.856  1.00  0.00    -0.256 N  
HETATM   13  H   UNL     1     -11.629  13.201  68.722  1.00  0.00     0.000 HD 
BRANCH  12  14
HETATM   14  C   UNL     1     -10.056  14.256  67.739  1.00  0.00    -0.231 C  
BRANCH  14  15
HETATM   15  C   UNL     1     -10.807  14.978  66.570  1.00  0.00    -0.320 C  
HETATM   16  C   UNL     1     -10.068  14.760  65.222  1.00  0.00    -0.388 C  
HETATM   17  C   UNL     1     -12.243  14.385  66.483  1.00  0.00    -0.358 C  
HETATM   18  C   UNL     1     -12.295  12.955  65.942  1.00  0.00    -0.378 C  
HETATM   19  C   UNL     1     -10.137  13.325  64.705  1.00  0.00    -0.250 C  
HETATM   20  C   UNL     1     -11.579  12.844  64.602  1.00  0.00    -0.392 C  
BRANCH  15  21
HETATM   21  C   UNL     1     -10.882  16.498  66.899  1.00  0.00    -0.083 C  
HETATM   22  O   UNL     1     -10.585  17.873  64.928  1.00  0.00    -0.306 OA 
HETATM   23  C   UNL     1     -10.121  17.418  65.962  1.00  0.00    -0.262 C  
HETATM   24  O   UNL     1      -8.867  17.705  66.375  1.00  0.00    -0.296 OA 
ENDBRANCH  15  21
ENDBRANCH  14  15
ENDBRANCH  12  14
ENDBRANCH   9  10
ENDBRANCH   7   9
ENDBRANCH   6   7
ENDBRANCH   4   6
TORSDOF 7
ENDMDL
MODEL      350
REMARK 921   NORMALIZED FREE ENERGY PREDICTED BY IDOCK:   -1.17 KCAL/MOL
REMARK 922        TOTAL FREE ENERGY PREDICTED BY IDOCK:   -3.28 KCAL/MOL
REMARK 923 INTER-LIGAND FREE ENERGY PREDICTED BY IDOCK:   -5.28 KCAL/MOL
REMARK 924 INTRA-LIGAND FREE ENERGY PREDICTED BY IDOCK:    1.99 KCAL/MOL
REMARK 927      BINDING AFFINITY PREDICTED BY RF-SCORE:    0.00 PKD
ROOT
HETATM    1  C   UNL     1      -8.470   7.777  71.615  1.00  0.00    -0.128 C  
HETATM    2  C   UNL     1      -8.068   8.870  70.619  1.00  0.00    -0.161 C  
HETATM    3  C   UNL     1      -6.573   9.144  70.723  1.00  0.00    -0.074 C  
HETATM    4  C   UNL     1      -8.454   8.462  69.205  1.00  0.00    -0.125 C  
HETATM    5  O   UNL     1      -9.026   7.414  68.929  1.00  0.00    -0.132 OA 
ENDROOT
BRANCH   4   6
HETATM    6  O   UNL     1      -8.154   9.433  68.292  1.00  0.00    -0.107 OA 
BRANCH   6   7
HETATM    7  C   UNL     1      -8.916  10.636  68.478  1.00  0.00    -0.156 C  
HETATM    8  C   UNL     1      -9.854  10.460  69.673  1.00  0.00    -0.179 C  
BRANCH   7   9
HETATM    9  O   UNL     1      -8.109  11.757  68.878  1.00  0.00    -0.088 OA 
BRANCH   9  10
HETATM   10  C   UNL     1      -8.506  12.957  68.408  1.00  0.00    -0.115 C  
HETATM   11  O   UNL     1      -7.776  13.882  68.109  1.00  0.00    -0.117 OA 
HETATM   12  N   UNL     1      -9.861  12.909  68.240  1.00  0.00    -0.229 N  
HETATM   13  H   UNL     1     -10.359  12.063  68.517  1.00  0.00     0.000 HD 
BRANCH  12  14
HETATM   14  C   UNL     1     -10.618  14.011  67.685  1.00  0.00    -0.249 C  
BRANCH  14  15
HETATM   15  C   UNL     1     -10.414  14.204  66.145  1.00  0.00    -0.297 C  
HETATM   16  C   UNL     1      -9.790  12.933  65.508  1.00  0.00    -0.159 C  
HETATM   17  C   UNL     1     -11.806  14.482  65.507  1.00  0.00    -0.330 C  
HETATM   18  C   UNL     1     -12.727  13.260  65.467  1.00  0.00    -0.429 C  
HETATM   19  C   UNL     1     -10.732  11.730  65.480  1.00  0.00    -0.329 C  
HETATM   20  C   UNL     1     -12.047  12.076  64.792  1.00  0.00    -0.282 C  
BRANCH  15  21
HETATM   21  C   UNL     1      -9.477  15.428  65.924  1.00  0.00    -0.369 C  
HETATM   22  O   UNL     1      -9.940  17.221  67.485  1.00  0.00    -0.278 OA 
HETATM   23  C   UNL     1     -10.034  16.773  66.352  1.00  0.00    -0.304 C  
HETATM   24  O   UNL     1     -10.646  17.454  65.359  1.00  0.00    -0.638 OA 
ENDBRANCH  15  21
ENDBRANCH  14  15
ENDBRANCH  12  14
ENDBRANCH   9  10
ENDBRANCH   7   9
ENDBRANCH   6   7
ENDBRANCH   4   6
TORSDOF 7
ENDMDL
MODEL      351
REMARK 921   NORMALIZED FREE ENERGY PREDICTED BY IDOCK:   -1.15 KCAL/MOL
REMARK 922        TOTAL FREE ENERGY PREDICTED BY IDOCK:   -3.26 KCAL/MOL
REMARK 923 INTER-LIGAND FREE ENERGY PREDICTED BY IDOCK:   -3.18 KCAL/MOL
REMARK 924 INTRA-LIGAND FREE ENERGY PREDICTED BY IDOCK:   -0.07 KCAL/MOL
REMARK 927      BINDING AFFINITY PREDICTED BY RF-SCORE:    0.00 PKD
ROOT
HETATM    1  C   UNL     1      -6.252  16.257  68.929  1.00  0.00    -0.138 C  
HETATM    2  C   UNL     1      -7.650  15.629  68.919  1.00  0.00    -0.173 C  
HETATM    3  C   UNL     1      -8.701  16.705  68.680  1.00  0.00    -0.250 C  
HETATM    4  C   UNL     1      -7.731  14.538  67.863  1.00  0.00    -0.140 C  
HETATM    5  O   UNL     1      -6.791  14.209  67.148  1.00  0.00    -0.165 OA 
ENDROOT
BRANCH   4   6
HETATM    6  O   UNL     1      -8.950  13.921  67.855  1.00  0.00    -0.173 OA 
BRANCH   6   7
HETATM    7  C   UNL     1      -8.856  12.491  67.938  1.00  0.00    -0.185 C  
HETATM    8  C   UNL     1      -7.680  12.112  68.837  1.00  0.00     0.036 C  
BRANCH   7   9
HETATM    9  O   UNL     1      -9.973  11.892  68.618  1.00  0.00    -0.207 OA 
BRANCH   9  10
HETATM   10  C   UNL     1     -10.038  10.547  68.561  1.00  0.00    -0.173 C  
HETATM   11  O   UNL     1     -10.343   9.808  69.478  1.00  0.00    -0.201 OA 
HETATM   12  N   UNL     1      -9.794  10.174  67.269  1.00  0.00    -0.176 N  
HETATM   13  H   UNL     1      -9.564  10.896  66.587  1.00  0.00     0.000 HD 
BRANCH  12  14
HETATM   14  C   UNL     1      -9.850   8.796  66.831  1.00  0.00    -0.229 C  
BRANCH  14  15
HETATM   15  C   UNL     1      -8.455   8.084  66.812  1.00  0.00    -0.128 C  
HETATM   16  C   UNL     1      -8.385   7.039  65.666  1.00  0.00    -0.137 C  
HETATM   17  C   UNL     1      -7.364   9.172  66.598  1.00  0.00    -0.086 C  
HETATM   18  C   UNL     1      -7.341   9.762  65.185  1.00  0.00    -0.122 C  
HETATM   19  C   UNL     1      -8.363   7.655  64.269  1.00  0.00     0.074 C  
HETATM   20  C   UNL     1      -7.233   8.668  64.131  1.00  0.00    -0.092 C  
BRANCH  15  21
HETATM   21  C   UNL     1      -8.243   7.385  68.187  1.00  0.00    -0.124 C  
HETATM   22  O   UNL     1      -8.962   5.073  68.155  1.00  0.00    -0.105 OA 
HETATM   23  C   UNL     1      -9.175   6.228  68.494  1.00  0.00    -0.123 C  
HETATM   24  O   UNL     1     -10.276   6.581  69.192  1.00  0.00    -0.164 OA 
ENDBRANCH  15  21
ENDBRANCH  14  15
ENDBRANCH  12  14
ENDBRANCH   9  10
ENDBRANCH   7   9
ENDBRANCH   6   7
ENDBRANCH   4   6
TORSDOF 7
ENDMDL
MODEL      352
REMARK 921   NORMALIZED FREE ENERGY PREDICTED BY IDOCK:   -0.62 KCAL/MOL
REMARK 922        TOTAL FREE ENERGY PREDICTED BY IDOCK:   -2.50 KCAL/MOL
REMARK 923 INTER-LIGAND FREE ENERGY PREDICTED BY IDOCK:   -2.87 KCAL/MOL
REMARK 924 INTRA-LIGAND FREE ENERGY PREDICTED BY IDOCK:    0.37 KCAL/MOL
REMARK 927      BINDING AFFINITY PREDICTED BY RF-SCORE:    0.00 PKD
ROOT
HETATM    1  C   UNL     1      -6.770   8.568  72.861  1.00  0.00    -0.073 C  
HETATM    2  C   UNL     1      -7.176   7.889  71.549  1.00  0.00    -0.067 C  
HETATM    3  C   UNL     1      -7.365   6.395  71.774  1.00  0.00    -0.088 C  
HETATM    4  C   UNL     1      -8.442   8.525  70.996  1.00  0.00    -0.156 C  
HETATM    5  O   UNL     1      -9.024   9.462  71.529  1.00  0.00    -0.268 OA 
ENDROOT
BRANCH   4   6
HETATM    6  O   UNL     1      -8.810   7.977  69.799  1.00  0.00    -0.142 OA 
BRANCH   6   7
HETATM    7  C   UNL     1     -10.103   7.354  69.840  1.00  0.00    -0.195 C  
HETATM    8  C   UNL     1     -11.049   8.206  70.686  1.00  0.00    -0.264 C  
BRANCH   7   9
HETATM    9  O   UNL     1     -10.760   7.337  68.561  1.00  0.00    -0.194 OA 
BRANCH   9  10
HETATM   10  C   UNL     1     -10.015   7.755  67.517  1.00  0.00    -0.185 C  
HETATM   11  O   UNL     1      -9.879   8.908  67.155  1.00  0.00    -0.175 OA 
HETATM   12  N   UNL     1      -9.368   6.666  67.007  1.00  0.00    -0.136 N  
HETATM   13  H   UNL     1      -9.556   5.749  67.414  1.00  0.00     0.000 HD 
BRANCH  12  14
HETATM   14  C   UNL     1      -8.425   6.759  65.912  1.00  0.00    -0.144 C  
BRANCH  14  15
HETATM   15  C   UNL     1      -7.629   5.437  65.651  1.00  0.00    -0.082 C  
HETATM   16  C   UNL     1      -8.325   4.229  66.335  1.00  0.00    -0.105 C  
HETATM   17  C   UNL     1      -7.572   5.207  64.113  1.00  0.00    -0.069 C  
HETATM   18  C   UNL     1      -8.910   4.797  63.494  1.00  0.00    -0.104 C  
HETATM   19  C   UNL     1      -9.658   3.842  65.697  1.00  0.00    -0.166 C  
HETATM   20  C   UNL     1      -9.500   3.585  64.204  1.00  0.00    -0.142 C  
BRANCH  15  21
HETATM   21  C   UNL     1      -6.188   5.613  66.213  1.00  0.00    -0.034 C  
HETATM   22  O   UNL     1      -6.164   5.751  68.631  1.00  0.00    -0.026 OA 
HETATM   23  C   UNL     1      -6.080   6.319  67.552  1.00  0.00    -0.018 C  
HETATM   24  O   UNL     1      -5.872   7.650  67.454  1.00  0.00    -0.034 OA 
ENDBRANCH  15  21
ENDBRANCH  14  15
ENDBRANCH  12  14
ENDBRANCH   9  10
ENDBRANCH   7   9
ENDBRANCH   6   7
ENDBRANCH   4   6
TORSDOF 7
ENDMDL
MODEL      353
REMARK 921   NORMALIZED FREE ENERGY PREDICTED BY IDOCK:    0.07 KCAL/MOL
REMARK 922        TOTAL FREE ENERGY PREDICTED BY IDOCK:   -1.53 KCAL/MOL
REMARK 923 INTER-LIGAND FREE ENERGY PREDICTED BY IDOCK:   -3.26 KCAL/MOL
REMARK 924 INTRA-LIGAND FREE ENERGY PREDICTED BY IDOCK:    1.73 KCAL/MOL
REMARK 927      BINDING AFFINITY PREDICTED BY RF-SCORE:    0.00 PKD
ROOT
HETATM    1  C   UNL     1     -11.039  12.766  64.475  1.00  0.00    -0.365 C  
HETATM    2  C   UNL     1      -9.919  12.568  65.502  1.00  0.00    -0.248 C  
HETATM    3  C   UNL     1      -9.880  13.750  66.462  1.00  0.00    -0.294 C  
HETATM    4  C   UNL     1     -10.116  11.260  66.252  1.00  0.00    -0.230 C  
HETATM    5  O   UNL     1     -11.034  10.478  66.032  1.00  0.00    -0.011 OA 
ENDROOT
BRANCH   4   6
HETATM    6  O   UNL     1      -9.109  11.024  67.146  1.00  0.00    -0.145 OA 
BRANCH   6   7
HETATM    7  C   UNL     1      -9.464  10.067  68.154  1.00  0.00    -0.138 C  
HETATM    8  C   UNL     1     -10.084   8.838  67.489  1.00  0.00    -0.281 C  
BRANCH   7   9
HETATM    9  O   UNL     1      -8.323   9.513  68.831  1.00  0.00    -0.115 OA 
BRANCH   9  10
HETATM   10  C   UNL     1      -8.329   8.173  68.984  1.00  0.00    -0.128 C  
HETATM   11  O   UNL     1      -8.918   7.558  69.852  1.00  0.00    -0.141 OA 
HETATM   12  N   UNL     1      -7.639   7.633  67.936  1.00  0.00    -0.114 N  
HETATM   13  H   UNL     1      -7.202   8.262  67.261  1.00  0.00     0.000 HD 
BRANCH  12  14
HETATM   14  C   UNL     1      -7.502   6.205  67.745  1.00  0.00    -0.089 C  
BRANCH  14  15
HETATM   15  C   UNL     1      -7.888   5.722  66.306  1.00  0.00    -0.101 C  
HETATM   16  C   UNL     1      -7.873   6.907  65.304  1.00  0.00    -0.118 C  
HETATM   17  C   UNL     1      -6.851   4.648  65.866  1.00  0.00    -0.058 C  
HETATM   18  C   UNL     1      -5.464   5.213  65.554  1.00  0.00    -0.013 C  
HETATM   19  C   UNL     1      -6.476   7.450  65.011  1.00  0.00    -0.037 C  
HETATM   20  C   UNL     1      -5.542   6.344  64.536  1.00  0.00    -0.025 C  
BRANCH  15  21
HETATM   21  C   UNL     1      -9.310   5.090  66.367  1.00  0.00    -0.145 C  
HETATM   22  O   UNL     1      -9.615   3.722  68.341  1.00  0.00    -0.162 OA 
HETATM   23  C   UNL     1      -9.424   3.787  67.136  1.00  0.00    -0.202 C  
HETATM   24  O   UNL     1      -9.304   2.683  66.367  1.00  0.00    -0.097 OA 
ENDBRANCH  15  21
ENDBRANCH  14  15
ENDBRANCH  12  14
ENDBRANCH   9  10
ENDBRANCH   7   9
ENDBRANCH   6   7
ENDBRANCH   4   6
TORSDOF 7
ENDMDL
MODEL      354
REMARK 921   NORMALIZED FREE ENERGY PREDICTED BY IDOCK:    0.12 KCAL/MOL
REMARK 922        TOTAL FREE ENERGY PREDICTED BY IDOCK:   -1.47 KCAL/MOL
REMARK 923 INTER-LIGAND FREE ENERGY PREDICTED BY IDOCK:   -1.90 KCAL/MOL
REMARK 924 INTRA-LIGAND FREE ENERGY PREDICTED BY IDOCK:    0.43 KCAL/MOL
REMARK 927      BINDING AFFINITY PREDICTED BY RF-SCORE:    0.00 PKD
ROOT
HETATM    1  C   UNL     1      -6.016  18.238  65.719  1.00  0.00    -0.262 C  
HETATM    2  C   UNL     1      -6.377  16.892  66.356  1.00  0.00    -0.043 C  
HETATM    3  C   UNL     1      -5.157  15.980  66.369  1.00  0.00     1.418 C  
HETATM    4  C   UNL     1      -6.920  17.101  67.761  1.00  0.00    -0.149 C  
HETATM    5  O   UNL     1      -7.062  18.202  68.280  1.00  0.00    -0.231 OA 
ENDROOT
BRANCH   4   6
HETATM    6  O   UNL     1      -7.299  15.925  68.344  1.00  0.00    -0.120 OA 
BRANCH   6   7
HETATM    7  C   UNL     1      -8.544  15.421  67.838  1.00  0.00    -0.155 C  
HETATM    8  C   UNL     1      -8.828  14.055  68.464  1.00  0.00    -0.160 C  
BRANCH   7   9
HETATM    9  O   UNL     1      -9.678  16.199  68.258  1.00  0.00    -0.214 OA 
BRANCH   9  10
HETATM   10  C   UNL     1     -10.845  15.529  68.340  1.00  0.00    -0.273 C  
HETATM   11  O   UNL     1     -11.187  14.602  67.631  1.00  0.00    -0.295 OA 
HETATM   12  N   UNL     1     -11.527  16.016  69.419  1.00  0.00    -0.343 N  
HETATM   13  H   UNL     1     -11.122  16.791  69.945  1.00  0.00     0.000 HD 
BRANCH  12  14
HETATM   14  C   UNL     1     -12.801  15.477  69.846  1.00  0.00     0.080 C  
BRANCH  14  15
HETATM   15  C   UNL     1     -12.678  14.340  70.916  1.00  0.00    -0.427 C  
HETATM   16  C   UNL     1     -11.580  14.682  71.959  1.00  0.00    -0.004 C  
HETATM   17  C   UNL     1     -14.054  14.200  71.628  1.00  0.00    -0.431 C  
HETATM   18  C   UNL     1     -14.392  15.362  72.564  1.00  0.00    -0.356 C  
HETATM   19  C   UNL     1     -11.944  15.844  72.881  1.00  0.00    -0.609 C  
HETATM   20  C   UNL     1     -13.278  15.599  73.576  1.00  0.00    -0.561 C  
BRANCH  15  21
HETATM   21  C   UNL     1     -12.324  13.013  70.182  1.00  0.00    -0.270 C  
HETATM   22  O   UNL     1     -13.488  11.112  71.127  1.00  0.00     0.003 OA 
HETATM   23  C   UNL     1     -12.451  11.746  71.006  1.00  0.00    -0.309 C  
HETATM   24  O   UNL     1     -11.301  11.361  71.602  1.00  0.00     1.814 OA 
ENDBRANCH  15  21
ENDBRANCH  14  15
ENDBRANCH  12  14
ENDBRANCH   9  10
ENDBRANCH   7   9
ENDBRANCH   6   7
ENDBRANCH   4   6
TORSDOF 7
ENDMDL
MODEL      355
REMARK 921   NORMALIZED FREE ENERGY PREDICTED BY IDOCK:    0.66 KCAL/MOL
REMARK 922        TOTAL FREE ENERGY PREDICTED BY IDOCK:   -0.70 KCAL/MOL
REMARK 923 INTER-LIGAND FREE ENERGY PREDICTED BY IDOCK:   -1.65 KCAL/MOL
REMARK 924 INTRA-LIGAND FREE ENERGY PREDICTED BY IDOCK:    0.95 KCAL/MOL
REMARK 927      BINDING AFFINITY PREDICTED BY RF-SCORE:    0.00 PKD
ROOT
HETATM    1  C   UNL     1      -8.267  15.045  66.826  1.00  0.00    -0.124 C  
HETATM    2  C   UNL     1      -7.986  14.094  67.995  1.00  0.00    -0.149 C  
HETATM    3  C   UNL     1      -9.263  13.861  68.792  1.00  0.00    -0.013 C  
HETATM    4  C   UNL     1      -7.412  12.782  67.482  1.00  0.00    -0.154 C  
HETATM    5  O   UNL     1      -7.192  12.550  66.299  1.00  0.00     0.722 OA 
ENDROOT
BRANCH   4   6
HETATM    6  O   UNL     1      -7.104  11.925  68.500  1.00  0.00    -0.077 OA 
BRANCH   6   7
HETATM    7  C   UNL     1      -7.411  10.556  68.195  1.00  0.00    -0.088 C  
HETATM    8  C   UNL     1      -8.816  10.228  68.699  1.00  0.00    -0.137 C  
BRANCH   7   9
HETATM    9  O   UNL     1      -7.519  10.305  66.784  1.00  0.00    -0.101 OA 
BRANCH   9  10
HETATM   10  C   UNL     1      -7.047   9.113  66.366  1.00  0.00    -0.084 C  
HETATM   11  O   UNL     1      -5.980   8.922  65.815  1.00  0.00    -0.050 OA 
HETATM   12  N   UNL     1      -7.937   8.154  66.760  1.00  0.00    -0.102 N  
HETATM   13  H   UNL     1      -8.793   8.445  67.232  1.00  0.00     0.000 HD 
BRANCH  12  14
HETATM   14  C   UNL     1      -7.713   6.742  66.534  1.00  0.00    -0.102 C  
BRANCH  14  15
HETATM   15  C   UNL     1      -9.024   5.931  66.260  1.00  0.00    -0.153 C  
HETATM   16  C   UNL     1      -9.046   4.619  67.090  1.00  0.00    -0.129 C  
HETATM   17  C   UNL     1     -10.233   6.826  66.660  1.00  0.00    -0.211 C  
HETATM   18  C   UNL     1     -10.393   7.018  68.170  1.00  0.00    -0.226 C  
HETATM   19  C   UNL     1      -9.207   4.842  68.592  1.00  0.00    -0.168 C  
HETATM   20  C   UNL     1     -10.442   5.680  68.896  1.00  0.00    -0.310 C  
BRANCH  15  21
HETATM   21  C   UNL     1      -9.089   5.604  64.739  1.00  0.00     0.242 C  
HETATM   22  O   UNL     1      -8.370   3.341  64.263  1.00  0.00    -0.089 OA 
HETATM   23  C   UNL     1      -8.126   4.538  64.249  1.00  0.00    -0.100 C  
HETATM   24  O   UNL     1      -6.959   5.028  63.779  1.00  0.00    -0.046 OA 
ENDBRANCH  15  21
ENDBRANCH  14  15
ENDBRANCH  12  14
ENDBRANCH   9  10
ENDBRANCH   7   9
ENDBRANCH   6   7
ENDBRANCH   4   6
TORSDOF 7
ENDMDL
MODEL      356
REMARK 921   NORMALIZED FREE ENERGY PREDICTED BY IDOCK:    2.32 KCAL/MOL
REMARK 922        TOTAL FREE ENERGY PREDICTED BY IDOCK:    1.64 KCAL/MOL
REMARK 923 INTER-LIGAND FREE ENERGY PREDICTED BY IDOCK:   -0.34 KCAL/MOL
REMARK 924 INTRA-LIGAND FREE ENERGY PREDICTED BY IDOCK:    1.98 KCAL/MOL
REMARK 927      BINDING AFFINITY PREDICTED BY RF-SCORE:    0.00 PKD
ROOT
HETATM    1  C   UNL     1      -8.280  15.423  67.358  1.00  0.00    -0.205 C  
HETATM    2  C   UNL     1      -8.203  14.865  68.783  1.00  0.00    -0.161 C  
HETATM    3  C   UNL     1      -9.596  14.487  69.269  1.00  0.00     0.042 C  
HETATM    4  C   UNL     1      -7.263  13.671  68.832  1.00  0.00    -0.083 C  
HETATM    5  O   UNL     1      -6.646  13.248  67.861  1.00  0.00    -0.110 OA 
ENDROOT
BRANCH   4   6
HETATM    6  O   UNL     1      -7.131  13.173  70.098  1.00  0.00     0.574 OA 
BRANCH   6   7
HETATM    7  C   UNL     1      -6.907  11.755  70.125  1.00  0.00     0.533 C  
HETATM    8  C   UNL     1      -8.160  11.036  69.624  1.00  0.00     0.327 C  
BRANCH   7   9
HETATM    9  O   UNL     1      -5.905  11.326  69.187  1.00  0.00    -0.041 OA 
BRANCH   9  10
HETATM   10  C   UNL     1      -5.910  10.011  68.890  1.00  0.00    -0.034 C  
HETATM   11  O   UNL     1      -5.179   9.168  69.373  1.00  0.00    -0.035 OA 
HETATM   12  N   UNL     1      -6.945   9.785  68.026  1.00  0.00    -0.077 N  
HETATM   13  H   UNL     1      -7.498  10.580  67.706  1.00  0.00     0.000 HD 
BRANCH  12  14
HETATM   14  C   UNL     1      -7.287   8.463  67.547  1.00  0.00    -0.093 C  
BRANCH  14  15
HETATM   15  C   UNL     1      -7.292   8.339  65.986  1.00  0.00    -0.080 C  
HETATM   16  C   UNL     1      -8.707   7.967  65.467  1.00  0.00    -0.134 C  
HETATM   17  C   UNL     1      -6.859   9.712  65.395  1.00  0.00    -0.094 C  
HETATM   18  C   UNL     1      -7.912  10.813  65.542  1.00  0.00    -0.064 C  
HETATM   19  C   UNL     1      -9.736   9.084  65.625  1.00  0.00    -0.178 C  
HETATM   20  C   UNL     1      -9.255  10.374  64.973  1.00  0.00    -0.256 C  
BRANCH  15  21
HETATM   21  C   UNL     1      -6.266   7.241  65.579  1.00  0.00    -0.038 C  
HETATM   22  O   UNL     1      -7.277   5.042  65.481  1.00  0.00    -0.066 OA 
HETATM   23  C   UNL     1      -6.565   5.838  66.075  1.00  0.00    -0.044 C  
HETATM   24  O   UNL     1      -5.963   5.530  67.244  1.00  0.00    -0.020 OA 
ENDBRANCH  15  21
ENDBRANCH  14  15
ENDBRANCH  12  14
ENDBRANCH   9  10
ENDBRANCH   7   9
ENDBRANCH   6   7
ENDBRANCH   4   6
TORSDOF 7
ENDMDL
MODEL      357
REMARK 921   NORMALIZED FREE ENERGY PREDICTED BY IDOCK:    2.81 KCAL/MOL
REMARK 922        TOTAL FREE ENERGY PREDICTED BY IDOCK:    2.32 KCAL/MOL
REMARK 923 INTER-LIGAND FREE ENERGY PREDICTED BY IDOCK:    0.35 KCAL/MOL
REMARK 924 INTRA-LIGAND FREE ENERGY PREDICTED BY IDOCK:    1.97 KCAL/MOL
REMARK 927      BINDING AFFINITY PREDICTED BY RF-SCORE:    0.00 PKD
ROOT
HETATM    1  C   UNL     1      -6.167  15.635  72.621  1.00  0.00     2.307 C  
HETATM    2  C   UNL     1      -6.235  15.198  71.154  1.00  0.00     0.426 C  
HETATM    3  C   UNL     1      -7.667  14.832  70.787  1.00  0.00     1.575 C  
HETATM    4  C   UNL     1      -5.701  16.298  70.250  1.00  0.00    -0.151 C  
HETATM    5  O   UNL     1      -5.262  17.366  70.662  1.00  0.00    -0.243 OA 
ENDROOT
BRANCH   4   6
HETATM    6  O   UNL     1      -5.701  15.927  68.935  1.00  0.00    -0.106 OA 
BRANCH   6   7
HETATM    7  C   UNL     1      -6.957  16.166  68.283  1.00  0.00    -0.124 C  
HETATM    8  C   UNL     1      -6.703  16.609  66.842  1.00  0.00    -0.247 C  
BRANCH   7   9
HETATM    9  O   UNL     1      -7.738  14.971  68.109  1.00  0.00    -0.105 OA 
BRANCH   9  10
HETATM   10  C   UNL     1      -7.107  13.947  67.500  1.00  0.00    -0.158 C  
HETATM   11  O   UNL     1      -5.925  13.903  67.218  1.00  0.00    -0.318 OA 
HETATM   12  N   UNL     1      -8.013  12.935  67.348  1.00  0.00    -0.179 N  
HETATM   13  H   UNL     1      -8.977  13.092  67.642  1.00  0.00     0.000 HD 
BRANCH  12  14
HETATM   14  C   UNL     1      -7.659  11.648  66.786  1.00  0.00    -0.104 C  
BRANCH  14  15
HETATM   15  C   UNL     1      -8.845  10.627  66.751  1.00  0.00    -0.146 C  
HETATM   16  C   UNL     1     -10.194  11.339  67.040  1.00  0.00    -0.250 C  
HETATM   17  C   UNL     1      -8.883   9.984  65.335  1.00  0.00    -0.199 C  
HETATM   18  C   UNL     1      -9.363  10.931  64.233  1.00  0.00    -0.259 C  
HETATM   19  C   UNL     1     -10.648  12.277  65.924  1.00  0.00    -0.290 C  
HETATM   20  C   UNL     1     -10.708  11.553  64.585  1.00  0.00    -0.379 C  
BRANCH  15  21
HETATM   21  C   UNL     1      -8.579   9.530  67.824  1.00  0.00    -0.115 C  
HETATM   22  O   UNL     1     -10.628   8.501  68.603  1.00  0.00    -0.198 OA 
HETATM   23  C   UNL     1      -9.706   9.277  68.807  1.00  0.00    -0.157 C  
HETATM   24  O   UNL     1      -9.603   9.985  69.953  1.00  0.00    -0.226 OA 
ENDBRANCH  15  21
ENDBRANCH  14  15
ENDBRANCH  12  14
ENDBRANCH   9  10
ENDBRANCH   7   9
ENDBRANCH   6   7
ENDBRANCH   4   6
TORSDOF 7
ENDMDL
MODEL      358
REMARK 921   NORMALIZED FREE ENERGY PREDICTED BY IDOCK:    5.76 KCAL/MOL
REMARK 922        TOTAL FREE ENERGY PREDICTED BY IDOCK:    6.49 KCAL/MOL
REMARK 923 INTER-LIGAND FREE ENERGY PREDICTED BY IDOCK:   -1.12 KCAL/MOL
REMARK 924 INTRA-LIGAND FREE ENERGY PREDICTED BY IDOCK:    7.61 KCAL/MOL
REMARK 927      BINDING AFFINITY PREDICTED BY RF-SCORE:    0.00 PKD
ROOT
HETATM    1  C   UNL     1      -8.282  15.424  67.364  1.00  0.00    -0.205 C  
HETATM    2  C   UNL     1      -8.201  14.877  68.793  1.00  0.00    -0.161 C  
HETATM    3  C   UNL     1      -9.590  14.488  69.281  1.00  0.00     0.042 C  
HETATM    4  C   UNL     1      -7.248  13.692  68.851  1.00  0.00    -0.083 C  
HETATM    5  O   UNL     1      -6.627  13.268  67.884  1.00  0.00    -0.110 OA 
ENDROOT
BRANCH   4   6
HETATM    6  O   UNL     1      -7.112  13.206  70.121  1.00  0.00     0.574 OA 
BRANCH   6   7
HETATM    7  C   UNL     1      -6.876  11.790  70.159  1.00  0.00     0.533 C  
HETATM    8  C   UNL     1      -8.123  11.056  69.666  1.00  0.00     0.327 C  
BRANCH   7   9
HETATM    9  O   UNL     1      -5.872  11.362  69.222  1.00  0.00    -0.045 OA 
BRANCH   9  10
HETATM   10  C   UNL     1      -5.870  10.046  68.931  1.00  0.00    -0.034 C  
HETATM   11  O   UNL     1      -5.133   9.209  69.417  1.00  0.00    -0.035 OA 
HETATM   12  N   UNL     1      -6.905   9.810  68.071  1.00  0.00    -0.072 N  
HETATM   13  H   UNL     1      -7.464  10.600  67.749  1.00  0.00     0.000 HD 
BRANCH  12  14
HETATM   14  C   UNL     1      -7.241   8.483  67.599  1.00  0.00    -0.084 C  
BRANCH  14  15
HETATM   15  C   UNL     1      -8.717   8.060  67.905  1.00  0.00    -0.128 C  
HETATM   16  C   UNL     1      -8.753   6.822  68.842  1.00  0.00    -0.129 C  
HETATM   17  C   UNL     1      -9.428   9.261  68.594  1.00  0.00    -0.148 C  
HETATM   18  C   UNL     1      -8.961   9.522  70.028  1.00  0.00    -0.249 C  
HETATM   19  C   UNL     1      -8.283   7.112  70.266  1.00  0.00    -0.131 C  
HETATM   20  C   UNL     1      -9.066   8.264  70.882  1.00  0.00    -0.176 C  
BRANCH  15  21
HETATM   21  C   UNL     1      -9.422   7.731  66.556  1.00  0.00    -0.262 C  
HETATM   22  O   UNL     1     -11.404   6.375  66.872  1.00  0.00    -0.304 OA 
HETATM   23  C   UNL     1     -10.234   6.449  66.528  1.00  0.00    -0.081 C  
HETATM   24  O   UNL     1      -9.548   5.377  66.075  1.00  0.00    -0.158 OA 
ENDBRANCH  15  21
ENDBRANCH  14  15
ENDBRANCH  12  14
ENDBRANCH   9  10
ENDBRANCH   7   9
ENDBRANCH   6   7
ENDBRANCH   4   6
TORSDOF 7
ENDMDL
MODEL      359
REMARK 921   NORMALIZED FREE ENERGY PREDICTED BY IDOCK:    6.55 KCAL/MOL
REMARK 922        TOTAL FREE ENERGY PREDICTED BY IDOCK:    7.60 KCAL/MOL
REMARK 923 INTER-LIGAND FREE ENERGY PREDICTED BY IDOCK:   -3.02 KCAL/MOL
REMARK 924 INTRA-LIGAND FREE ENERGY PREDICTED BY IDOCK:   10.62 KCAL/MOL
REMARK 927      BINDING AFFINITY PREDICTED BY RF-SCORE:    0.00 PKD
ROOT
HETATM    1  C   UNL     1     -10.823  14.656  70.825  1.00  0.00     0.241 C  
HETATM    2  C   UNL     1     -10.739  14.722  69.297  1.00  0.00    -0.263 C  
HETATM    3  C   UNL     1     -10.912  13.329  68.706  1.00  0.00    -0.294 C  
HETATM    4  C   UNL     1     -11.785  15.682  68.752  1.00  0.00    -0.370 C  
HETATM    5  O   UNL     1     -12.559  16.320  69.457  1.00  0.00     0.135 OA 
ENDROOT
BRANCH   4   6
HETATM    6  O   UNL     1     -11.710  15.804  67.393  1.00  0.00    -0.025 OA 
BRANCH   6   7
HETATM    7  C   UNL     1     -11.117  14.663  66.757  1.00  0.00    -0.335 C  
HETATM    8  C   UNL     1     -10.270  15.126  65.572  1.00  0.00    -0.405 C  
BRANCH   7   9
HETATM    9  O   UNL     1     -10.152  13.994  67.587  1.00  0.00    -0.236 OA 
BRANCH   9  10
HETATM   10  C   UNL     1      -9.196  13.305  66.932  1.00  0.00    -0.241 C  
HETATM   11  O   UNL     1      -8.138  13.754  66.536  1.00  0.00     0.348 OA 
HETATM   12  N   UNL     1      -9.590  11.997  66.880  1.00  0.00    -0.199 N  
HETATM   13  H   UNL     1     -10.500  11.745  67.265  1.00  0.00     0.000 HD 
BRANCH  12  14
HETATM   14  C   UNL     1      -8.767  10.957  66.301  1.00  0.00    -0.171 C  
BRANCH  14  15
HETATM   15  C   UNL     1      -7.985  10.109  67.360  1.00  0.00    -0.110 C  
HETATM   16  C   UNL     1      -8.424  10.486  68.801  1.00  0.00    -0.141 C  
HETATM   17  C   UNL     1      -8.291   8.607  67.093  1.00  0.00    -0.107 C  
HETATM   18  C   UNL     1      -9.714   8.186  67.466  1.00  0.00    -0.207 C  
HETATM   19  C   UNL     1      -9.847  10.053  69.146  1.00  0.00    -0.213 C  
HETATM   20  C   UNL     1     -10.043   8.561  68.906  1.00  0.00    -0.213 C  
BRANCH  15  21
HETATM   21  C   UNL     1      -6.462  10.380  67.177  1.00  0.00    -0.072 C  
HETATM   22  O   UNL     1      -5.673   9.696  64.992  1.00  0.00    -0.061 OA 
HETATM   23  C   UNL     1      -5.743   9.477  66.192  1.00  0.00    -0.053 C  
HETATM   24  O   UNL     1      -5.167   8.394  66.760  1.00  0.00    -0.030 OA 
ENDBRANCH  15  21
ENDBRANCH  14  15
ENDBRANCH  12  14
ENDBRANCH   9  10
ENDBRANCH   7   9
ENDBRANCH   6   7
ENDBRANCH   4   6
TORSDOF 7
ENDMDL
MODEL      360
REMARK 921   NORMALIZED FREE ENERGY PREDICTED BY IDOCK:    9.46 KCAL/MOL
REMARK 922        TOTAL FREE ENERGY PREDICTED BY IDOCK:   11.70 KCAL/MOL
REMARK 923 INTER-LIGAND FREE ENERGY PREDICTED BY IDOCK:    7.64 KCAL/MOL
REMARK 924 INTRA-LIGAND FREE ENERGY PREDICTED BY IDOCK:    4.05 KCAL/MOL
REMARK 927      BINDING AFFINITY PREDICTED BY RF-SCORE:    0.00 PKD
ROOT
HETATM    1  C   UNL     1      -6.038  18.155  65.653  1.00  0.00    -0.265 C  
HETATM    2  C   UNL     1      -6.404  16.700  65.963  1.00  0.00     1.010 C  
HETATM    3  C   UNL     1      -5.248  15.782  65.584  1.00  0.00     5.334 C  
HETATM    4  C   UNL     1      -6.765  16.548  67.433  1.00  0.00    -0.164 C  
HETATM    5  O   UNL     1      -6.778  17.478  68.232  1.00  0.00    -0.185 OA 
ENDROOT
BRANCH   4   6
HETATM    6  O   UNL     1      -7.143  15.271  67.739  1.00  0.00    -0.127 OA 
BRANCH   6   7
HETATM    7  C   UNL     1      -8.497  14.980  67.362  1.00  0.00    -0.184 C  
HETATM    8  C   UNL     1      -8.748  13.478  67.497  1.00  0.00    -0.208 C  
BRANCH   7   9
HETATM    9  O   UNL     1      -9.465  15.540  68.266  1.00  0.00    -0.196 OA 
BRANCH   9  10
HETATM   10  C   UNL     1     -10.632  14.871  68.358  1.00  0.00    -0.244 C  
HETATM   11  O   UNL     1     -10.968  13.926  67.671  1.00  0.00    -0.258 OA 
HETATM   12  N   UNL     1     -11.321  15.384  69.421  1.00  0.00    -0.284 N  
HETATM   13  H   UNL     1     -10.920  16.171  69.930  1.00  0.00     0.000 HD 
BRANCH  12  14
HETATM   14  C   UNL     1     -12.596  14.853  69.854  1.00  0.00    -0.167 C  
BRANCH  14  15
HETATM   15  C   UNL     1     -12.475  13.695  70.901  1.00  0.00    -0.448 C  
HETATM   16  C   UNL     1     -13.242  12.434  70.420  1.00  0.00     0.819 C  
HETATM   17  C   UNL     1     -10.965  13.359  71.071  1.00  0.00     2.634 C  
HETATM   18  C   UNL     1     -10.346  12.646  69.867  1.00  0.00     1.476 C  
HETATM   19  C   UNL     1     -12.602  11.743  69.218  1.00  0.00     0.395 C  
HETATM   20  C   UNL     1     -11.142  11.403  69.490  1.00  0.00    -0.274 C  
BRANCH  15  21
HETATM   21  C   UNL     1     -13.062  14.195  72.254  1.00  0.00    -0.514 C  
HETATM   22  O   UNL     1     -12.508  16.512  72.686  1.00  0.00    -0.322 OA 
HETATM   23  C   UNL     1     -12.310  15.330  72.923  1.00  0.00    -0.408 C  
HETATM   24  O   UNL     1     -11.391  14.923  73.826  1.00  0.00     0.223 OA 
ENDBRANCH  15  21
ENDBRANCH  14  15
ENDBRANCH  12  14
ENDBRANCH   9  10
ENDBRANCH   7   9
ENDBRANCH   6   7
ENDBRANCH   4   6
TORSDOF 7
ENDMDL
MODEL      361
REMARK 921   NORMALIZED FREE ENERGY PREDICTED BY IDOCK:   16.22 KCAL/MOL
REMARK 922        TOTAL FREE ENERGY PREDICTED BY IDOCK:   21.22 KCAL/MOL
REMARK 923 INTER-LIGAND FREE ENERGY PREDICTED BY IDOCK:    8.48 KCAL/MOL
REMARK 924 INTRA-LIGAND FREE ENERGY PREDICTED BY IDOCK:   12.75 KCAL/MOL
REMARK 927      BINDING AFFINITY PREDICTED BY RF-SCORE:    0.00 PKD
ROOT
HETATM    1  C   UNL     1      -7.823  15.700  67.200  1.00  0.00    -0.253 C  
HETATM    2  C   UNL     1      -8.336  15.407  68.614  1.00  0.00    -0.168 C  
HETATM    3  C   UNL     1      -9.845  15.604  68.671  1.00  0.00    -0.210 C  
HETATM    4  C   UNL     1      -7.951  13.996  69.032  1.00  0.00     0.055 C  
HETATM    5  O   UNL     1      -7.302  13.229  68.330  1.00  0.00    -0.097 OA 
ENDROOT
BRANCH   4   6
HETATM    6  O   UNL     1      -8.350  13.713  70.308  1.00  0.00     2.301 OA 
BRANCH   6   7
HETATM    7  C   UNL     1      -7.972  12.396  70.737  1.00  0.00     6.543 C  
HETATM    8  C   UNL     1      -8.790  11.359  69.968  1.00  0.00     2.074 C  
BRANCH   7   9
HETATM    9  O   UNL     1      -6.621  12.055  70.380  1.00  0.00    -0.029 OA 
BRANCH   9  10
HETATM   10  C   UNL     1      -6.362  10.736  70.276  1.00  0.00    -0.142 C  
HETATM   11  O   UNL     1      -5.742  10.066  71.080  1.00  0.00    -0.078 OA 
HETATM   12  N   UNL     1      -7.001  10.274  69.161  1.00  0.00    -0.060 N  
HETATM   13  H   UNL     1      -7.505  10.939  68.574  1.00  0.00     0.000 HD 
BRANCH  12  14
HETATM   14  C   UNL     1      -6.993   8.878  68.778  1.00  0.00    -0.063 C  
BRANCH  14  15
HETATM   15  C   UNL     1      -8.416   8.226  68.740  1.00  0.00    -0.125 C  
HETATM   16  C   UNL     1      -9.041   8.181  70.160  1.00  0.00    -0.147 C  
HETATM   17  C   UNL     1      -9.311   9.084  67.799  1.00  0.00    -0.156 C  
HETATM   18  C   UNL     1      -9.697  10.446  68.379  1.00  0.00    -0.167 C  
HETATM   19  C   UNL     1      -9.417   9.554  70.713  1.00  0.00    -0.237 C  
HETATM   20  C   UNL     1     -10.336  10.301  69.754  1.00  0.00    -0.287 C  
BRANCH  15  21
HETATM   21  C   UNL     1      -8.279   6.784  68.169  1.00  0.00    -0.114 C  
HETATM   22  O   UNL     1      -5.972   6.194  67.728  1.00  0.00    -0.015 OA 
HETATM   23  C   UNL     1      -7.065   6.529  67.296  1.00  0.00    -0.077 C  
HETATM   24  O   UNL     1      -7.294   6.697  65.975  1.00  0.00    -0.073 OA 
ENDBRANCH  15  21
ENDBRANCH  14  15
ENDBRANCH  12  14
ENDBRANCH   9  10
ENDBRANCH   7   9
ENDBRANCH   6   7
ENDBRANCH   4   6
TORSDOF 7
ENDMDL
MODEL      362
REMARK 921   NORMALIZED FREE ENERGY PREDICTED BY IDOCK:   16.79 KCAL/MOL
REMARK 922        TOTAL FREE ENERGY PREDICTED BY IDOCK:   22.03 KCAL/MOL
REMARK 923 INTER-LIGAND FREE ENERGY PREDICTED BY IDOCK:   -1.81 KCAL/MOL
REMARK 924 INTRA-LIGAND FREE ENERGY PREDICTED BY IDOCK:   23.83 KCAL/MOL
REMARK 927      BINDING AFFINITY PREDICTED BY RF-SCORE:    0.00 PKD
ROOT
HETATM    1  C   UNL     1     -11.151  14.938  66.241  1.00  0.00    -0.340 C  
HETATM    2  C   UNL     1     -10.522  13.543  66.159  1.00  0.00    -0.296 C  
HETATM    3  C   UNL     1     -11.246  12.590  67.101  1.00  0.00    -0.352 C  
HETATM    4  C   UNL     1     -10.557  13.032  64.728  1.00  0.00    -0.362 C  
HETATM    5  O   UNL     1     -11.009  13.672  63.785  1.00  0.00    -0.039 OA 
ENDROOT
BRANCH   4   6
HETATM    6  O   UNL     1      -9.961  11.808  64.605  1.00  0.00    -0.249 OA 
BRANCH   6   7
HETATM    7  C   UNL     1      -9.289  11.387  65.802  1.00  0.00    -0.228 C  
HETATM    8  C   UNL     1      -7.797  11.226  65.515  1.00  0.00     0.343 C  
BRANCH   7   9
HETATM    9  O   UNL     1      -9.301  12.388  66.835  1.00  0.00    -0.200 OA 
BRANCH   9  10
HETATM   10  C   UNL     1      -8.110  12.956  67.110  1.00  0.00    -0.117 C  
HETATM   11  O   UNL     1      -7.035  12.388  67.124  1.00  0.00    -0.143 OA 
HETATM   12  N   UNL     1      -8.318  14.297  67.272  1.00  0.00    -0.202 N  
HETATM   13  H   UNL     1      -9.273  14.654  67.220  1.00  0.00     0.000 HD 
BRANCH  12  14
HETATM   14  C   UNL     1      -7.239  15.231  67.514  1.00  0.00    -0.197 C  
BRANCH  14  15
HETATM   15  C   UNL     1      -7.701  16.726  67.572  1.00  0.00    -0.188 C  
HETATM   16  C   UNL     1      -8.545  16.993  68.847  1.00  0.00    -0.196 C  
HETATM   17  C   UNL     1      -6.428  17.621  67.588  1.00  0.00    -0.177 C  
HETATM   18  C   UNL     1      -5.647  17.570  68.903  1.00  0.00    -0.163 C  
HETATM   19  C   UNL     1      -7.741  16.937  70.144  1.00  0.00     1.848 C  
HETATM   20  C   UNL     1      -6.546  17.881  70.093  1.00  0.00     0.501 C  
BRANCH  15  21
HETATM   21  C   UNL     1      -8.544  17.029  66.298  1.00  0.00    -0.298 C  
HETATM   22  O   UNL     1     -10.905  17.230  66.796  1.00  0.00    -0.147 OA 
HETATM   23  C   UNL     1      -9.989  16.567  66.335  1.00  0.00    -0.303 C  
HETATM   24  O   UNL     1     -10.186  15.343  65.798  1.00  0.00    -0.301 OA 
ENDBRANCH  15  21
ENDBRANCH  14  15
ENDBRANCH  12  14
ENDBRANCH   9  10
ENDBRANCH   7   9
ENDBRANCH   6   7
ENDBRANCH   4   6
TORSDOF 7
ENDMDL
MODEL      363
REMARK 921   NORMALIZED FREE ENERGY PREDICTED BY IDOCK:   18.53 KCAL/MOL
REMARK 922        TOTAL FREE ENERGY PREDICTED BY IDOCK:   24.48 KCAL/MOL
REMARK 923 INTER-LIGAND FREE ENERGY PREDICTED BY IDOCK:   16.91 KCAL/MOL
REMARK 924 INTRA-LIGAND FREE ENERGY PREDICTED BY IDOCK:    7.56 KCAL/MOL
REMARK 927      BINDING AFFINITY PREDICTED BY RF-SCORE:    0.00 PKD
ROOT
HETATM    1  C   UNL     1      -5.762  18.303  64.899  1.00  0.00    -0.100 C  
HETATM    2  C   UNL     1      -6.195  16.845  65.085  1.00  0.00     3.160 C  
HETATM    3  C   UNL     1      -5.130  15.911  64.524  1.00  0.00     9.867 C  
HETATM    4  C   UNL     1      -6.459  16.556  66.554  1.00  0.00     0.177 C  
HETATM    5  O   UNL     1      -6.357  17.393  67.443  1.00  0.00    -0.133 OA 
ENDROOT
BRANCH   4   6
HETATM    6  O   UNL     1      -6.895  15.276  66.755  1.00  0.00    -0.063 OA 
BRANCH   6   7
HETATM    7  C   UNL     1      -8.300  15.115  66.510  1.00  0.00    -0.025 C  
HETATM    8  C   UNL     1      -8.648  13.627  66.524  1.00  0.00     0.187 C  
BRANCH   7   9
HETATM    9  O   UNL     1      -9.119  15.637  67.570  1.00  0.00    -0.189 OA 
BRANCH   9  10
HETATM   10  C   UNL     1     -10.313  15.033  67.735  1.00  0.00    -0.245 C  
HETATM   11  O   UNL     1     -11.363  15.378  67.226  1.00  0.00    -0.309 OA 
HETATM   12  N   UNL     1     -10.111  13.914  68.493  1.00  0.00    -0.236 N  
HETATM   13  H   UNL     1      -9.173  13.726  68.847  1.00  0.00     0.000 HD 
BRANCH  12  14
HETATM   14  C   UNL     1     -11.174  12.985  68.812  1.00  0.00    -0.282 C  
BRANCH  14  15
HETATM   15  C   UNL     1     -11.432  11.915  67.698  1.00  0.00    -0.387 C  
HETATM   16  C   UNL     1     -12.932  11.885  67.298  1.00  0.00     4.250 C  
HETATM   17  C   UNL     1     -10.566  12.292  66.461  1.00  0.00    -0.263 C  
HETATM   18  C   UNL     1     -11.060  13.531  65.710  1.00  0.00    -0.295 C  
HETATM   19  C   UNL     1     -13.396  13.133  66.550  1.00  0.00     2.981 C  
HETATM   20  C   UNL     1     -12.528  13.397  65.326  1.00  0.00    -0.532 C  
BRANCH  15  21
HETATM   21  C   UNL     1     -10.996  10.524  68.244  1.00  0.00    -0.314 C  
HETATM   22  O   UNL     1      -9.003  10.668  69.613  1.00  0.00    -0.049 OA 
HETATM   23  C   UNL     1      -9.517  10.365  68.547  1.00  0.00    -0.159 C  
HETATM   24  O   UNL     1      -8.802   9.843  67.527  1.00  0.00    -0.128 OA 
ENDBRANCH  15  21
ENDBRANCH  14  15
ENDBRANCH  12  14
ENDBRANCH   9  10
ENDBRANCH   7   9
ENDBRANCH   6   7
ENDBRANCH   4   6
TORSDOF 7
ENDMDL
MODEL      364
REMARK 921   NORMALIZED FREE ENERGY PREDICTED BY IDOCK:   19.06 KCAL/MOL
REMARK 922        TOTAL FREE ENERGY PREDICTED BY IDOCK:   25.23 KCAL/MOL
REMARK 923 INTER-LIGAND FREE ENERGY PREDICTED BY IDOCK:   21.00 KCAL/MOL
REMARK 924 INTRA-LIGAND FREE ENERGY PREDICTED BY IDOCK:    4.23 KCAL/MOL
REMARK 927      BINDING AFFINITY PREDICTED BY RF-SCORE:    0.00 PKD
ROOT
HETATM    1  C   UNL     1      -5.762  18.303  64.899  1.00  0.00    -0.100 C  
HETATM    2  C   UNL     1      -6.196  16.846  65.088  1.00  0.00     3.160 C  
HETATM    3  C   UNL     1      -5.135  15.910  64.524  1.00  0.00     9.867 C  
HETATM    4  C   UNL     1      -6.454  16.559  66.559  1.00  0.00     0.177 C  
HETATM    5  O   UNL     1      -6.346  17.397  67.447  1.00  0.00    -0.133 OA 
ENDROOT
BRANCH   4   6
HETATM    6  O   UNL     1      -6.890  15.280  66.763  1.00  0.00    -0.063 OA 
BRANCH   6   7
HETATM    7  C   UNL     1      -8.296  15.120  66.525  1.00  0.00    -0.025 C  
HETATM    8  C   UNL     1      -8.647  13.632  66.542  1.00  0.00     0.187 C  
BRANCH   7   9
HETATM    9  O   UNL     1      -9.110  15.644  67.589  1.00  0.00    -0.189 OA 
BRANCH   9  10
HETATM   10  C   UNL     1     -10.430  15.726  67.327  1.00  0.00    -0.308 C  
HETATM   11  O   UNL     1     -11.008  16.697  66.877  1.00  0.00    -0.132 OA 
HETATM   12  N   UNL     1     -10.977  14.497  67.564  1.00  0.00    -0.285 N  
HETATM   13  H   UNL     1     -10.377  13.756  67.927  1.00  0.00     0.000 HD 
BRANCH  12  14
HETATM   14  C   UNL     1     -12.374  14.204  67.321  1.00  0.00    -0.147 C  
BRANCH  14  15
HETATM   15  C   UNL     1     -12.687  13.813  65.838  1.00  0.00    -0.452 C  
HETATM   16  C   UNL     1     -13.841  14.683  65.270  1.00  0.00     2.333 C  
HETATM   17  C   UNL     1     -11.396  14.039  64.999  1.00  0.00    -0.342 C  
HETATM   18  C   UNL     1     -11.047  15.513  64.779  1.00  0.00    -0.421 C  
HETATM   19  C   UNL     1     -13.464  16.147  65.060  1.00  0.00     4.045 C  
HETATM   20  C   UNL     1     -12.223  16.278  64.186  1.00  0.00     0.863 C  
BRANCH  15  21
HETATM   21  C   UNL     1     -13.084  12.307  65.802  1.00  0.00     2.264 C  
HETATM   22  O   UNL     1     -11.777  10.984  67.353  1.00  0.00    -0.539 OA 
HETATM   23  C   UNL     1     -11.997  11.326  66.201  1.00  0.00     1.192 C  
HETATM   24  O   UNL     1     -11.284  10.844  65.160  1.00  0.00     0.045 OA 
ENDBRANCH  15  21
ENDBRANCH  14  15
ENDBRANCH  12  14
ENDBRANCH   9  10
ENDBRANCH   7   9
ENDBRANCH   6   7
ENDBRANCH   4   6
TORSDOF 7
ENDMDL
MODEL      365
REMARK 921   NORMALIZED FREE ENERGY PREDICTED BY IDOCK:   23.29 KCAL/MOL
REMARK 922        TOTAL FREE ENERGY PREDICTED BY IDOCK:   31.19 KCAL/MOL
REMARK 923 INTER-LIGAND FREE ENERGY PREDICTED BY IDOCK:   27.50 KCAL/MOL
REMARK 924 INTRA-LIGAND FREE ENERGY PREDICTED BY IDOCK:    3.68 KCAL/MOL
REMARK 927      BINDING AFFINITY PREDICTED BY RF-SCORE:    0.00 PKD
ROOT
HETATM    1  C   UNL     1     -11.141  10.911  73.014  1.00  0.00    10.210 C  
HETATM    2  C   UNL     1     -12.001  12.125  72.649  1.00  0.00     4.471 C  
HETATM    3  C   UNL     1     -11.958  13.151  73.775  1.00  0.00     6.194 C  
HETATM    4  C   UNL     1     -11.528  12.732  71.337  1.00  0.00     2.537 C  
HETATM    5  O   UNL     1     -10.602  12.281  70.672  1.00  0.00     2.380 OA 
ENDROOT
BRANCH   4   6
HETATM    6  O   UNL     1     -12.302  13.790  70.953  1.00  0.00    -0.349 OA 
BRANCH   6   7
HETATM    7  C   UNL     1     -11.533  14.919  70.510  1.00  0.00    -0.262 C  
HETATM    8  C   UNL     1     -12.210  16.207  70.977  1.00  0.00    -0.157 C  
BRANCH   7   9
HETATM    9  O   UNL     1     -10.242  15.000  71.137  1.00  0.00     0.422 OA 
BRANCH   9  10
HETATM   10  C   UNL     1      -9.189  15.072  70.298  1.00  0.00     0.748 C  
HETATM   11  O   UNL     1      -8.792  16.075  69.737  1.00  0.00    -0.041 OA 
HETATM   12  N   UNL     1      -8.596  13.841  70.270  1.00  0.00     2.092 N  
HETATM   13  H   UNL     1      -9.021  13.081  70.801  1.00  0.00     0.000 HD 
BRANCH  12  14
HETATM   14  C   UNL     1      -7.390  13.573  69.517  1.00  0.00     0.364 C  
BRANCH  14  15
HETATM   15  C   UNL     1      -7.640  12.793  68.182  1.00  0.00    -0.134 C  
HETATM   16  C   UNL     1      -6.430  11.882  67.841  1.00  0.00    -0.068 C  
HETATM   17  C   UNL     1      -8.917  11.923  68.367  1.00  0.00    -0.163 C  
HETATM   18  C   UNL     1      -8.724  10.726  69.301  1.00  0.00    -0.044 C  
HETATM   19  C   UNL     1      -6.263  10.696  68.788  1.00  0.00    -0.043 C  
HETATM   20  C   UNL     1      -7.541   9.870  68.868  1.00  0.00    -0.083 C  
BRANCH  15  21
HETATM   21  C   UNL     1      -7.868  13.830  67.043  1.00  0.00     0.105 C  
HETATM   22  O   UNL     1      -6.302  15.673  67.164  1.00  0.00    -0.308 OA 
HETATM   23  C   UNL     1      -7.434  15.252  67.346  1.00  0.00    -0.209 C  
HETATM   24  O   UNL     1      -8.422  16.034  67.835  1.00  0.00    -0.160 OA 
ENDBRANCH  15  21
ENDBRANCH  14  15
ENDBRANCH  12  14
ENDBRANCH   9  10
ENDBRANCH   7   9
ENDBRANCH   6   7
ENDBRANCH   4   6
TORSDOF 7
ENDMDL
