MODEL        1
REMARK 921   NORMALIZED FREE ENERGY PREDICTED BY IDOCK:   -7.44 KCAL/MOL
REMARK 922        TOTAL FREE ENERGY PREDICTED BY IDOCK:   -7.96 KCAL/MOL
REMARK 923 INTER-LIGAND FREE ENERGY PREDICTED BY IDOCK:   -7.87 KCAL/MOL
REMARK 924 INTRA-LIGAND FREE ENERGY PREDICTED BY IDOCK:   -0.09 KCAL/MOL
REMARK 927      BINDING AFFINITY PREDICTED BY RF-SCORE:    0.00 PKD
ROOT
HETATM    1  C   UNL     1      -9.841  14.565  66.152  1.00  0.00    -0.318 C  
HETATM    2  C   UNL     1     -10.375  14.457  64.710  1.00  0.00    -0.352 C  
HETATM    3  C   UNL     1     -11.728  15.191  64.796  1.00  0.00    -0.331 C  
HETATM    4  O   UNL     1     -12.047  15.813  63.588  1.00  0.00    -1.126 OA 
HETATM    5  C   UNL     1     -12.547  14.090  65.331  1.00  0.00    -0.529 C  
HETATM    6  C   UNL     1     -11.878  13.618  66.428  1.00  0.00    -0.433 C  
HETATM    7  H   UNL     1     -12.881  16.266  63.642  1.00  0.00     0.000 HD 
HETATM    8  C   UNL     1     -10.854  14.442  67.433  1.00  0.00    -0.293 C  
HETATM    9  C   UNL     1     -12.147  14.192  68.303  1.00  0.00    -0.297 C  
HETATM   10  C   UNL     1     -11.826  13.958  69.756  1.00  0.00    -0.329 C  
HETATM   11  N   UNL     1     -12.218  15.178  70.422  1.00  0.00    -0.319 NA 
HETATM   12  C   UNL     1     -12.714  14.886  71.753  1.00  0.00    -0.331 C  
HETATM   13  C   UNL     1     -11.089  16.084  70.421  1.00  0.00    -0.364 C  
HETATM   14  C   UNL     1     -10.722  16.667  69.057  1.00  0.00    -0.343 A  
HETATM   15  C   UNL     1     -10.606  15.971  67.820  1.00  0.00    -0.309 A  
HETATM   16  C   UNL     1      -9.831  16.681  66.900  1.00  0.00    -0.263 A  
HETATM   17  C   UNL     1      -9.448  18.053  66.945  1.00  0.00    -0.288 A  
HETATM   18  O   UNL     1      -9.235  15.874  65.988  1.00  0.00    -0.322 OA 
HETATM   19  C   UNL     1     -10.246  18.025  69.171  1.00  0.00    -0.157 A  
HETATM   20  C   UNL     1      -9.667  18.736  68.128  1.00  0.00    -0.384 A  
ENDROOT
BRANCH  17  21
HETATM   21  O   UNL     1      -8.839  18.593  65.841  1.00  0.00    -0.475 OA 
HETATM   22  C   UNL     1      -7.788  19.539  66.057  1.00  0.00    -0.308 C  
ENDBRANCH  17  21
TORSDOF 1
ENDMDL
MODEL        2
REMARK 921   NORMALIZED FREE ENERGY PREDICTED BY IDOCK:   -7.37 KCAL/MOL
REMARK 922        TOTAL FREE ENERGY PREDICTED BY IDOCK:   -7.89 KCAL/MOL
REMARK 923 INTER-LIGAND FREE ENERGY PREDICTED BY IDOCK:   -7.81 KCAL/MOL
REMARK 924 INTRA-LIGAND FREE ENERGY PREDICTED BY IDOCK:   -0.08 KCAL/MOL
REMARK 927      BINDING AFFINITY PREDICTED BY RF-SCORE:    0.00 PKD
ROOT
HETATM    1  C   UNL     1      -9.923  13.750  65.810  1.00  0.00    -0.275 C  
HETATM    2  C   UNL     1     -10.443  13.655  64.362  1.00  0.00    -0.322 C  
HETATM    3  C   UNL     1     -11.933  14.019  64.515  1.00  0.00    -0.448 C  
HETATM    4  O   UNL     1     -12.420  14.658  63.374  1.00  0.00    -1.035 OA 
HETATM    5  C   UNL     1     -12.444  12.702  64.933  1.00  0.00    -0.564 C  
HETATM    6  C   UNL     1     -11.657  12.305  65.981  1.00  0.00    -0.451 C  
HETATM    7  H   UNL     1     -13.339  14.882  63.468  1.00  0.00     0.000 HD 
HETATM    8  C   UNL     1     -10.848  13.255  67.068  1.00  0.00    -0.278 C  
HETATM    9  C   UNL     1     -12.022  12.608  67.902  1.00  0.00    -0.307 C  
HETATM   10  C   UNL     1     -11.624  12.320  69.326  1.00  0.00    -0.324 C  
HETATM   11  N   UNL     1     -12.291  13.333  70.109  1.00  0.00    -0.276 NA 
HETATM   12  C   UNL     1     -12.673  12.799  71.402  1.00  0.00    -0.255 C  
HETATM   13  C   UNL     1     -11.421  14.487  70.204  1.00  0.00    -0.242 C  
HETATM   14  C   UNL     1     -11.237  15.273  68.907  1.00  0.00    -0.291 A  
HETATM   15  C   UNL     1     -10.978  14.752  67.607  1.00  0.00    -0.292 A  
HETATM   16  C   UNL     1     -10.421  15.718  66.766  1.00  0.00    -0.305 A  
HETATM   17  C   UNL     1     -10.387  17.131  66.950  1.00  0.00    -0.308 A  
HETATM   18  O   UNL     1      -9.663  15.178  65.781  1.00  0.00    -0.324 OA 
HETATM   19  C   UNL     1     -11.109  16.689  69.158  1.00  0.00    -0.219 A  
HETATM   20  C   UNL     1     -10.745  17.620  68.194  1.00  0.00    -0.312 A  
ENDROOT
BRANCH  17  21
HETATM   21  O   UNL     1      -9.953  17.911  65.908  1.00  0.00    -0.533 OA 
HETATM   22  C   UNL     1     -10.415  19.264  65.852  1.00  0.00    -0.451 C  
ENDBRANCH  17  21
TORSDOF 1
ENDMDL
MODEL        3
REMARK 921   NORMALIZED FREE ENERGY PREDICTED BY IDOCK:   -7.05 KCAL/MOL
REMARK 922        TOTAL FREE ENERGY PREDICTED BY IDOCK:   -7.56 KCAL/MOL
REMARK 923 INTER-LIGAND FREE ENERGY PREDICTED BY IDOCK:   -7.47 KCAL/MOL
REMARK 924 INTRA-LIGAND FREE ENERGY PREDICTED BY IDOCK:   -0.08 KCAL/MOL
REMARK 927      BINDING AFFINITY PREDICTED BY RF-SCORE:    0.00 PKD
ROOT
HETATM    1  C   UNL     1     -11.783  14.904  67.631  1.00  0.00    -0.307 C  
HETATM    2  C   UNL     1     -10.562  15.138  66.720  1.00  0.00    -0.298 C  
HETATM    3  C   UNL     1      -9.380  14.785  67.644  1.00  0.00    -0.195 C  
HETATM    4  O   UNL     1      -8.308  14.260  66.922  1.00  0.00    -0.360 OA 
HETATM    5  C   UNL     1      -9.266  16.067  68.361  1.00  0.00    -0.196 C  
HETATM    6  C   UNL     1     -10.521  16.355  68.826  1.00  0.00    -0.300 C  
HETATM    7  H   UNL     1      -7.579  14.042  67.491  1.00  0.00     0.000 HD 
HETATM    8  C   UNL     1     -11.732  15.298  69.220  1.00  0.00    -0.359 C  
HETATM    9  C   UNL     1     -11.251  15.885  70.604  1.00  0.00    -0.402 C  
HETATM   10  C   UNL     1     -12.381  16.038  71.588  1.00  0.00    -0.416 C  
HETATM   11  N   UNL     1     -12.189  14.969  72.539  1.00  0.00    -0.352 NA 
HETATM   12  C   UNL     1     -12.614  15.390  73.861  1.00  0.00    -0.611 C  
HETATM   13  C   UNL     1     -12.895  13.798  72.062  1.00  0.00    -0.288 C  
HETATM   14  C   UNL     1     -12.288  13.129  70.829  1.00  0.00    -0.404 A  
HETATM   15  C   UNL     1     -11.825  13.761  69.640  1.00  0.00    -0.393 A  
HETATM   16  C   UNL     1     -11.768  12.866  68.570  1.00  0.00    -0.339 A  
HETATM   17  C   UNL     1     -11.807  11.441  68.610  1.00  0.00    -0.310 A  
HETATM   18  O   UNL     1     -11.894  13.481  67.368  1.00  0.00    -0.355 OA 
HETATM   19  C   UNL     1     -12.443  11.694  70.873  1.00  0.00    -0.440 A  
HETATM   20  C   UNL     1     -12.160  10.849  69.809  1.00  0.00    -0.409 A  
ENDROOT
BRANCH  17  21
HETATM   21  O   UNL     1     -11.550  10.753  67.452  1.00  0.00    -0.485 OA 
HETATM   22  C   UNL     1     -10.519   9.761  67.483  1.00  0.00    -0.251 C  
ENDBRANCH  17  21
TORSDOF 1
ENDMDL
MODEL        4
REMARK 921   NORMALIZED FREE ENERGY PREDICTED BY IDOCK:   -6.89 KCAL/MOL
REMARK 922        TOTAL FREE ENERGY PREDICTED BY IDOCK:   -7.38 KCAL/MOL
REMARK 923 INTER-LIGAND FREE ENERGY PREDICTED BY IDOCK:   -7.30 KCAL/MOL
REMARK 924 INTRA-LIGAND FREE ENERGY PREDICTED BY IDOCK:   -0.08 KCAL/MOL
REMARK 927      BINDING AFFINITY PREDICTED BY RF-SCORE:    0.00 PKD
ROOT
HETATM    1  C   UNL     1     -12.093  13.775  67.105  1.00  0.00    -0.378 C  
HETATM    2  C   UNL     1     -10.945  14.129  66.139  1.00  0.00    -0.309 C  
HETATM    3  C   UNL     1      -9.729  14.219  67.081  1.00  0.00    -0.254 C  
HETATM    4  O   UNL     1      -8.553  13.843  66.430  1.00  0.00    -0.424 OA 
HETATM    5  C   UNL     1      -9.927  15.594  67.572  1.00  0.00    -0.231 C  
HETATM    6  C   UNL     1     -11.222  15.657  68.012  1.00  0.00    -0.339 C  
HETATM    7  H   UNL     1      -7.802  13.899  67.011  1.00  0.00     0.000 HD 
HETATM    8  C   UNL     1     -12.160  14.430  68.605  1.00  0.00    -0.274 C  
HETATM    9  C   UNL     1     -11.850  15.335  69.860  1.00  0.00    -0.363 C  
HETATM   10  C   UNL     1     -13.000  15.385  70.832  1.00  0.00    -0.478 C  
HETATM   11  N   UNL     1     -12.580  14.563  71.943  1.00  0.00    -0.334 NA 
HETATM   12  C   UNL     1     -13.111  15.090  73.186  1.00  0.00    -0.511 C  
HETATM   13  C   UNL     1     -12.987  13.198  71.684  1.00  0.00    -0.335 C  
HETATM   14  C   UNL     1     -12.222  12.491  70.565  1.00  0.00    -0.382 A  
HETATM   15  C   UNL     1     -11.899  13.005  69.277  1.00  0.00    -0.370 A  
HETATM   16  C   UNL     1     -11.620  11.982  68.369  1.00  0.00    -0.311 A  
HETATM   17  C   UNL     1     -11.328  10.614  68.646  1.00  0.00    -0.281 A  
HETATM   18  O   UNL     1     -11.867  12.341  67.085  1.00  0.00    -0.511 OA 
HETATM   19  C   UNL     1     -12.041  11.088  70.851  1.00  0.00    -0.444 A  
HETATM   20  C   UNL     1     -11.552  10.165  69.935  1.00  0.00    -0.290 A  
ENDROOT
BRANCH  17  21
HETATM   21  O   UNL     1     -10.900   9.820  67.613  1.00  0.00    -0.282 OA 
HETATM   22  C   UNL     1     -10.427   8.508  67.934  1.00  0.00    -0.201 C  
ENDBRANCH  17  21
TORSDOF 1
ENDMDL
MODEL        5
REMARK 921   NORMALIZED FREE ENERGY PREDICTED BY IDOCK:   -6.73 KCAL/MOL
REMARK 922        TOTAL FREE ENERGY PREDICTED BY IDOCK:   -7.22 KCAL/MOL
REMARK 923 INTER-LIGAND FREE ENERGY PREDICTED BY IDOCK:   -7.12 KCAL/MOL
REMARK 924 INTRA-LIGAND FREE ENERGY PREDICTED BY IDOCK:   -0.10 KCAL/MOL
REMARK 927      BINDING AFFINITY PREDICTED BY RF-SCORE:    0.00 PKD
ROOT
HETATM    1  C   UNL     1     -10.050  13.807  66.147  1.00  0.00    -0.307 C  
HETATM    2  C   UNL     1     -10.488  14.161  64.712  1.00  0.00    -0.432 C  
HETATM    3  C   UNL     1     -12.025  14.177  64.822  1.00  0.00    -0.431 C  
HETATM    4  O   UNL     1     -12.589  15.094  63.935  1.00  0.00    -0.947 OA 
HETATM    5  C   UNL     1     -12.273  12.731  64.691  1.00  0.00    -0.510 C  
HETATM    6  C   UNL     1     -11.462  12.121  65.609  1.00  0.00    -0.408 C  
HETATM    7  H   UNL     1     -13.537  15.104  64.003  1.00  0.00     0.000 HD 
HETATM    8  C   UNL     1     -10.901  12.731  67.042  1.00  0.00    -0.282 C  
HETATM    9  C   UNL     1     -11.950  11.629  67.463  1.00  0.00    -0.044 C  
HETATM   10  C   UNL     1     -11.554  10.911  68.727  1.00  0.00    -0.309 C  
HETATM   11  N   UNL     1     -12.440  11.433  69.740  1.00  0.00    -0.160 NA 
HETATM   12  C   UNL     1     -12.753  10.403  70.713  1.00  0.00    -0.371 C  
HETATM   13  C   UNL     1     -11.825  12.604  70.330  1.00  0.00    -0.214 C  
HETATM   14  C   UNL     1     -11.757  13.831  69.421  1.00  0.00    -0.379 A  
HETATM   15  C   UNL     1     -11.351  13.878  68.057  1.00  0.00    -0.317 A  
HETATM   16  C   UNL     1     -10.970  15.167  67.677  1.00  0.00    -0.308 A  
HETATM   17  C   UNL     1     -11.230  16.396  68.350  1.00  0.00    -0.324 A  
HETATM   18  O   UNL     1     -10.083  15.168  66.652  1.00  0.00    -0.252 OA 
HETATM   19  C   UNL     1     -11.927  15.055  70.169  1.00  0.00    -0.366 A  
HETATM   20  C   UNL     1     -11.724  16.323  69.641  1.00  0.00    -0.081 A  
ENDROOT
BRANCH  17  21
HETATM   21  O   UNL     1     -10.924  17.567  67.704  1.00  0.00    -0.294 OA 
HETATM   22  C   UNL     1      -9.992  18.451  68.334  1.00  0.00    -0.379 C  
ENDBRANCH  17  21
TORSDOF 1
ENDMDL
MODEL        6
REMARK 921   NORMALIZED FREE ENERGY PREDICTED BY IDOCK:   -6.73 KCAL/MOL
REMARK 922        TOTAL FREE ENERGY PREDICTED BY IDOCK:   -7.21 KCAL/MOL
REMARK 923 INTER-LIGAND FREE ENERGY PREDICTED BY IDOCK:   -7.12 KCAL/MOL
REMARK 924 INTRA-LIGAND FREE ENERGY PREDICTED BY IDOCK:   -0.09 KCAL/MOL
REMARK 927      BINDING AFFINITY PREDICTED BY RF-SCORE:    0.00 PKD
ROOT
HETATM    1  C   UNL     1      -9.793  13.568  65.898  1.00  0.00    -0.241 C  
HETATM    2  C   UNL     1     -10.436  14.480  64.834  1.00  0.00    -0.435 C  
HETATM    3  C   UNL     1     -11.814  13.826  64.619  1.00  0.00    -0.402 C  
HETATM    4  O   UNL     1     -12.781  14.774  64.281  1.00  0.00    -0.691 OA 
HETATM    5  C   UNL     1     -11.415  12.768  63.674  1.00  0.00    -0.544 C  
HETATM    6  C   UNL     1     -10.359  12.119  64.254  1.00  0.00    -0.363 C  
HETATM    7  H   UNL     1     -13.631  14.371  64.148  1.00  0.00     0.000 HD 
HETATM    8  C   UNL     1     -10.026  11.948  65.865  1.00  0.00    -0.261 C  
HETATM    9  C   UNL     1     -10.458  10.504  65.393  1.00  0.00    -0.222 C  
HETATM   10  C   UNL     1      -9.705   9.416  66.112  1.00  0.00    -0.265 C  
HETATM   11  N   UNL     1     -10.660   8.856  67.039  1.00  0.00    -0.256 NA 
HETATM   12  C   UNL     1     -10.425   7.434  67.205  1.00  0.00    -0.315 C  
HETATM   13  C   UNL     1     -10.580   9.595  68.282  1.00  0.00    -0.225 C  
HETATM   14  C   UNL     1     -11.115  11.025  68.225  1.00  0.00    -0.316 A  
HETATM   15  C   UNL     1     -10.862  12.006  67.225  1.00  0.00    -0.290 A  
HETATM   16  C   UNL     1     -11.109  13.298  67.695  1.00  0.00    -0.269 A  
HETATM   17  C   UNL     1     -11.833  13.687  68.859  1.00  0.00    -0.364 A  
HETATM   18  O   UNL     1     -10.382  14.238  67.043  1.00  0.00    -0.263 OA 
HETATM   19  C   UNL     1     -11.751  11.403  69.465  1.00  0.00    -0.417 A  
HETATM   20  C   UNL     1     -12.158  12.696  69.768  1.00  0.00    -0.301 A  
ENDROOT
BRANCH  17  21
HETATM   21  O   UNL     1     -12.113  15.018  69.034  1.00  0.00    -0.281 OA 
HETATM   22  C   UNL     1     -12.441  15.462  70.354  1.00  0.00    -0.404 C  
ENDBRANCH  17  21
TORSDOF 1
ENDMDL
MODEL        7
REMARK 921   NORMALIZED FREE ENERGY PREDICTED BY IDOCK:   -6.69 KCAL/MOL
REMARK 922        TOTAL FREE ENERGY PREDICTED BY IDOCK:   -7.17 KCAL/MOL
REMARK 923 INTER-LIGAND FREE ENERGY PREDICTED BY IDOCK:   -7.07 KCAL/MOL
REMARK 924 INTRA-LIGAND FREE ENERGY PREDICTED BY IDOCK:   -0.10 KCAL/MOL
REMARK 927      BINDING AFFINITY PREDICTED BY RF-SCORE:    0.00 PKD
ROOT
HETATM    1  C   UNL     1     -10.268  13.352  68.485  1.00  0.00    -0.223 C  
HETATM    2  C   UNL     1     -10.679  14.121  67.214  1.00  0.00    -0.279 C  
HETATM    3  C   UNL     1     -11.995  13.427  66.811  1.00  0.00    -0.394 C  
HETATM    4  O   UNL     1     -12.865  14.316  66.178  1.00  0.00    -0.489 OA 
HETATM    5  C   UNL     1     -11.428  12.270  66.096  1.00  0.00    -0.429 C  
HETATM    6  C   UNL     1     -10.514  11.709  66.947  1.00  0.00    -0.262 C  
HETATM    7  H   UNL     1     -13.677  13.888  65.930  1.00  0.00     0.000 HD 
HETATM    8  C   UNL     1     -10.508  11.736  68.601  1.00  0.00    -0.242 C  
HETATM    9  C   UNL     1     -10.853  10.241  68.230  1.00  0.00    -0.300 C  
HETATM   10  C   UNL     1     -10.268   9.256  69.208  1.00  0.00    -0.206 C  
HETATM   11  N   UNL     1     -11.393   8.799  69.989  1.00  0.00    -0.110 NA 
HETATM   12  C   UNL     1     -11.211   7.410  70.367  1.00  0.00    -0.262 C  
HETATM   13  C   UNL     1     -11.552   9.681  71.126  1.00  0.00    -0.381 C  
HETATM   14  C   UNL     1     -12.051  11.088  70.794  1.00  0.00    -0.467 A  
HETATM   15  C   UNL     1     -11.595  11.945  69.752  1.00  0.00    -0.359 A  
HETATM   16  C   UNL     1     -11.916  13.280  70.007  1.00  0.00    -0.329 A  
HETATM   17  C   UNL     1     -12.852  13.797  70.950  1.00  0.00    -0.271 A  
HETATM   18  O   UNL     1     -11.065  14.146  69.402  1.00  0.00    -0.251 OA 
HETATM   19  C   UNL     1     -12.915  11.602  71.829  1.00  0.00    -0.483 A  
HETATM   20  C   UNL     1     -13.359  12.917  71.889  1.00  0.00    -0.530 A  
ENDROOT
BRANCH  17  21
HETATM   21  O   UNL     1     -13.146  15.135  70.905  1.00  0.00    -0.409 OA 
HETATM   22  C   UNL     1     -12.997  15.890  72.111  1.00  0.00    -0.398 C  
ENDBRANCH  17  21
TORSDOF 1
ENDMDL
MODEL        8
REMARK 921   NORMALIZED FREE ENERGY PREDICTED BY IDOCK:   -6.65 KCAL/MOL
REMARK 922        TOTAL FREE ENERGY PREDICTED BY IDOCK:   -7.14 KCAL/MOL
REMARK 923 INTER-LIGAND FREE ENERGY PREDICTED BY IDOCK:   -7.05 KCAL/MOL
REMARK 924 INTRA-LIGAND FREE ENERGY PREDICTED BY IDOCK:   -0.09 KCAL/MOL
REMARK 927      BINDING AFFINITY PREDICTED BY RF-SCORE:    0.00 PKD
ROOT
HETATM    1  C   UNL     1      -8.784  16.513  68.143  1.00  0.00    -0.194 C  
HETATM    2  C   UNL     1      -8.715  18.002  68.539  1.00  0.00    -0.304 C  
HETATM    3  C   UNL     1     -10.136  18.503  68.214  1.00  0.00    -0.390 C  
HETATM    4  O   UNL     1     -10.522  19.532  69.074  1.00  0.00    -0.539 OA 
HETATM    5  C   UNL     1      -9.967  18.734  66.769  1.00  0.00    -0.394 C  
HETATM    6  C   UNL     1      -9.445  17.578  66.257  1.00  0.00    -0.238 C  
HETATM    7  H   UNL     1     -11.398  19.841  68.874  1.00  0.00     0.000 HD 
HETATM    8  C   UNL     1      -9.630  16.035  66.825  1.00  0.00    -0.248 C  
HETATM    9  C   UNL     1     -10.467  16.069  65.487  1.00  0.00    -0.426 C  
HETATM   10  C   UNL     1     -10.423  14.758  64.747  1.00  0.00    -0.286 C  
HETATM   11  N   UNL     1     -11.723  14.168  64.962  1.00  0.00    -0.357 NA 
HETATM   12  C   UNL     1     -12.128  13.406  63.796  1.00  0.00    -0.456 C  
HETATM   13  C   UNL     1     -11.673  13.373  66.172  1.00  0.00    -0.368 C  
HETATM   14  C   UNL     1     -11.558  14.171  67.470  1.00  0.00    -0.396 A  
HETATM   15  C   UNL     1     -10.689  15.266  67.741  1.00  0.00    -0.286 A  
HETATM   16  C   UNL     1     -10.508  15.454  69.113  1.00  0.00    -0.239 A  
HETATM   17  C   UNL     1     -11.286  14.925  70.184  1.00  0.00    -0.260 A  
HETATM   18  O   UNL     1      -9.327  16.049  69.407  1.00  0.00    -0.254 OA 
HETATM   19  C   UNL     1     -12.282  13.538  68.547  1.00  0.00    -0.160 A  
HETATM   20  C   UNL     1     -12.200  13.932  69.877  1.00  0.00    -0.393 A  
ENDROOT
BRANCH  17  21
HETATM   21  O   UNL     1     -11.045  15.388  71.452  1.00  0.00    -0.364 OA 
HETATM   22  C   UNL     1     -12.044  16.212  72.061  1.00  0.00    -0.496 C  
ENDBRANCH  17  21
TORSDOF 1
ENDMDL
MODEL        9
REMARK 921   NORMALIZED FREE ENERGY PREDICTED BY IDOCK:   -6.58 KCAL/MOL
REMARK 922        TOTAL FREE ENERGY PREDICTED BY IDOCK:   -7.06 KCAL/MOL
REMARK 923 INTER-LIGAND FREE ENERGY PREDICTED BY IDOCK:   -6.97 KCAL/MOL
REMARK 924 INTRA-LIGAND FREE ENERGY PREDICTED BY IDOCK:   -0.09 KCAL/MOL
REMARK 927      BINDING AFFINITY PREDICTED BY RF-SCORE:    0.00 PKD
ROOT
HETATM    1  C   UNL     1     -10.531   9.013  71.451  1.00  0.00    -0.324 C  
HETATM    2  C   UNL     1     -11.428   8.340  72.509  1.00  0.00    -0.454 C  
HETATM    3  C   UNL     1     -12.751   8.134  71.746  1.00  0.00    -0.330 C  
HETATM    4  O   UNL     1     -13.426   6.998  72.196  1.00  0.00    -0.538 OA 
HETATM    5  C   UNL     1     -13.321   9.482  71.916  1.00  0.00    -0.518 C  
HETATM    6  C   UNL     1     -12.351  10.358  71.512  1.00  0.00    -0.468 C  
HETATM    7  H   UNL     1     -14.242   6.871  71.725  1.00  0.00     0.000 HD 
HETATM    8  C   UNL     1     -11.148  10.109  70.403  1.00  0.00    -0.393 C  
HETATM    9  C   UNL     1     -12.137  11.116  69.696  1.00  0.00    -0.406 C  
HETATM   10  C   UNL     1     -11.420  12.104  68.814  1.00  0.00    -0.307 C  
HETATM   11  N   UNL     1     -11.695  11.664  67.467  1.00  0.00    -0.590 NA 
HETATM   12  C   UNL     1     -11.790  12.804  66.575  1.00  0.00    -0.405 C  
HETATM   13  C   UNL     1     -10.669  10.719  67.074  1.00  0.00    -0.265 C  
HETATM   14  C   UNL     1     -10.726   9.366  67.781  1.00  0.00    -0.290 A  
HETATM   15  C   UNL     1     -10.904   9.121  69.172  1.00  0.00    -0.131 A  
HETATM   16  C   UNL     1     -10.456   7.849  69.534  1.00  0.00    -0.226 A  
HETATM   17  C   UNL     1     -10.165   6.743  68.683  1.00  0.00    -0.175 A  
HETATM   18  O   UNL     1     -10.079   7.779  70.834  1.00  0.00    -0.187 OA 
HETATM   19  C   UNL     1     -10.325   8.292  66.903  1.00  0.00    -0.391 A  
HETATM   20  C   UNL     1     -10.099   6.987  67.323  1.00  0.00    -0.265 A  
ENDROOT
BRANCH  17  21
HETATM   21  O   UNL     1      -9.915   5.526  69.264  1.00  0.00    -0.162 OA 
HETATM   22  C   UNL     1      -9.351   4.500  68.442  1.00  0.00    -0.142 C  
ENDBRANCH  17  21
TORSDOF 1
ENDMDL
MODEL       10
REMARK 921   NORMALIZED FREE ENERGY PREDICTED BY IDOCK:   -6.46 KCAL/MOL
REMARK 922        TOTAL FREE ENERGY PREDICTED BY IDOCK:   -6.93 KCAL/MOL
REMARK 923 INTER-LIGAND FREE ENERGY PREDICTED BY IDOCK:   -6.85 KCAL/MOL
REMARK 924 INTRA-LIGAND FREE ENERGY PREDICTED BY IDOCK:   -0.08 KCAL/MOL
REMARK 927      BINDING AFFINITY PREDICTED BY RF-SCORE:    0.00 PKD
ROOT
HETATM    1  C   UNL     1     -12.342  13.166  65.746  1.00  0.00    -0.435 C  
HETATM    2  C   UNL     1     -11.939  14.571  65.257  1.00  0.00    -0.353 C  
HETATM    3  C   UNL     1     -10.511  14.725  65.817  1.00  0.00    -0.334 C  
HETATM    4  O   UNL     1      -9.722  15.524  64.987  1.00  0.00    -0.246 OA 
HETATM    5  C   UNL     1     -10.852  15.147  67.187  1.00  0.00    -0.320 C  
HETATM    6  C   UNL     1     -11.746  14.223  67.657  1.00  0.00    -0.421 C  
HETATM    7  H   UNL     1      -8.842  15.619  65.332  1.00  0.00     0.000 HD 
HETATM    8  C   UNL     1     -11.891  12.632  67.227  1.00  0.00    -0.395 C  
HETATM    9  C   UNL     1     -11.314  12.595  68.696  1.00  0.00    -0.331 C  
HETATM   10  C   UNL     1     -11.835  11.426  69.490  1.00  0.00    -0.357 C  
HETATM   11  N   UNL     1     -10.726  10.505  69.562  1.00  0.00    -0.240 NA 
HETATM   12  C   UNL     1     -10.745   9.795  70.827  1.00  0.00    -0.323 C  
HETATM   13  C   UNL     1     -10.784   9.624  68.415  1.00  0.00    -0.209 C  
HETATM   14  C   UNL     1     -10.459  10.280  67.073  1.00  0.00    -0.304 A  
HETATM   15  C   UNL     1     -10.942  11.525  66.577  1.00  0.00    -0.346 A  
HETATM   16  C   UNL     1     -10.831  11.604  65.187  1.00  0.00    -0.288 A  
HETATM   17  C   UNL     1     -10.056  10.782  64.318  1.00  0.00    -0.361 A  
HETATM   18  O   UNL     1     -11.741  12.446  64.638  1.00  0.00    -0.337 OA 
HETATM   19  C   UNL     1      -9.762   9.372  66.193  1.00  0.00    -0.334 A  
HETATM   20  C   UNL     1      -9.510   9.629  64.852  1.00  0.00    -0.288 A  
ENDROOT
BRANCH  17  21
HETATM   21  O   UNL     1      -9.946  11.153  63.002  1.00  0.00    -0.326 OA 
HETATM   22  C   UNL     1      -8.674  10.987  62.368  1.00  0.00    -0.303 C  
ENDBRANCH  17  21
TORSDOF 1
ENDMDL
MODEL       11
REMARK 921   NORMALIZED FREE ENERGY PREDICTED BY IDOCK:   -6.30 KCAL/MOL
REMARK 922        TOTAL FREE ENERGY PREDICTED BY IDOCK:   -6.77 KCAL/MOL
REMARK 923 INTER-LIGAND FREE ENERGY PREDICTED BY IDOCK:   -6.67 KCAL/MOL
REMARK 924 INTRA-LIGAND FREE ENERGY PREDICTED BY IDOCK:   -0.10 KCAL/MOL
REMARK 927      BINDING AFFINITY PREDICTED BY RF-SCORE:    0.00 PKD
ROOT
HETATM    1  C   UNL     1     -11.756  12.378  67.826  1.00  0.00    -0.350 C  
HETATM    2  C   UNL     1     -10.395  12.260  67.112  1.00  0.00    -0.234 C  
HETATM    3  C   UNL     1      -9.392  12.503  68.256  1.00  0.00    -0.193 C  
HETATM    4  O   UNL     1      -8.206  11.798  68.052  1.00  0.00    -0.135 OA 
HETATM    5  C   UNL     1      -9.417  13.976  68.266  1.00  0.00    -0.216 C  
HETATM    6  C   UNL     1     -10.736  14.334  68.336  1.00  0.00    -0.257 C  
HETATM    7  H   UNL     1      -7.587  11.948  68.757  1.00  0.00     0.000 HD 
HETATM    8  C   UNL     1     -11.989  13.487  69.008  1.00  0.00    -0.376 C  
HETATM    9  C   UNL     1     -11.764  14.706  69.985  1.00  0.00    -0.348 C  
HETATM   10  C   UNL     1     -13.051  15.206  70.587  1.00  0.00    -0.337 C  
HETATM   11  N   UNL     1     -13.023  14.745  71.956  1.00  0.00    -0.313 NA 
HETATM   12  C   UNL     1     -13.676  15.705  72.824  1.00  0.00    -0.578 C  
HETATM   13  C   UNL     1     -13.624  13.428  72.010  1.00  0.00    -0.487 C  
HETATM   14  C   UNL     1     -12.803  12.311  71.366  1.00  0.00    -0.373 A  
HETATM   15  C   UNL     1     -12.143  12.336  70.105  1.00  0.00    -0.364 A  
HETATM   16  C   UNL     1     -11.892  11.048  69.628  1.00  0.00    -0.342 A  
HETATM   17  C   UNL     1     -11.926   9.820  70.350  1.00  0.00    -0.148 A  
HETATM   18  O   UNL     1     -11.809  10.999  68.276  1.00  0.00    -0.537 OA 
HETATM   19  C   UNL     1     -12.954  11.064  72.079  1.00  0.00    -0.398 A  
HETATM   20  C   UNL     1     -12.481   9.843  71.617  1.00  0.00    -0.507 A  
ENDROOT
BRANCH  17  21
HETATM   21  O   UNL     1     -11.464   8.689  69.728  1.00  0.00     0.020 OA 
HETATM   22  C   UNL     1     -10.084   8.349  69.904  1.00  0.00    -0.195 C  
ENDBRANCH  17  21
TORSDOF 1
ENDMDL
MODEL       12
REMARK 921   NORMALIZED FREE ENERGY PREDICTED BY IDOCK:   -6.24 KCAL/MOL
REMARK 922        TOTAL FREE ENERGY PREDICTED BY IDOCK:   -6.70 KCAL/MOL
REMARK 923 INTER-LIGAND FREE ENERGY PREDICTED BY IDOCK:   -6.61 KCAL/MOL
REMARK 924 INTRA-LIGAND FREE ENERGY PREDICTED BY IDOCK:   -0.08 KCAL/MOL
REMARK 927      BINDING AFFINITY PREDICTED BY RF-SCORE:    0.00 PKD
ROOT
HETATM    1  C   UNL     1     -11.401  11.599  66.942  1.00  0.00    -0.295 C  
HETATM    2  C   UNL     1     -10.431  10.416  66.750  1.00  0.00    -0.287 C  
HETATM    3  C   UNL     1      -9.259  10.787  67.679  1.00  0.00    -0.147 C  
HETATM    4  O   UNL     1      -8.643   9.648  68.200  1.00  0.00    -0.118 OA 
HETATM    5  C   UNL     1      -8.540  11.704  66.778  1.00  0.00    -0.180 C  
HETATM    6  C   UNL     1      -9.467  12.612  66.341  1.00  0.00    -0.231 C  
HETATM    7  H   UNL     1      -7.920   9.877  68.773  1.00  0.00     0.000 HD 
HETATM    8  C   UNL     1     -10.836  13.126  67.115  1.00  0.00    -0.271 C  
HETATM    9  C   UNL     1      -9.864  14.369  67.159  1.00  0.00    -0.254 C  
HETATM   10  C   UNL     1     -10.599  15.679  67.047  1.00  0.00    -0.311 C  
HETATM   11  N   UNL     1     -10.567  16.236  68.379  1.00  0.00    -0.285 NA 
HETATM   12  C   UNL     1     -10.488  17.683  68.317  1.00  0.00    -0.375 C  
HETATM   13  C   UNL     1     -11.726  15.760  69.105  1.00  0.00    -0.388 C  
HETATM   14  C   UNL     1     -11.704  14.275  69.468  1.00  0.00    -0.366 A  
HETATM   15  C   UNL     1     -11.351  13.182  68.626  1.00  0.00    -0.327 A  
HETATM   16  C   UNL     1     -11.867  11.976  69.104  1.00  0.00    -0.311 A  
HETATM   17  C   UNL     1     -12.385  11.693  70.402  1.00  0.00    -0.288 A  
HETATM   18  O   UNL     1     -12.057  11.063  68.120  1.00  0.00    -0.610 OA 
HETATM   19  C   UNL     1     -12.331  14.032  70.745  1.00  0.00    -0.443 A  
HETATM   20  C   UNL     1     -12.622  12.768  71.240  1.00  0.00    -0.347 A  
ENDROOT
BRANCH  17  21
HETATM   21  O   UNL     1     -12.669  10.389  70.716  1.00  0.00    -0.340 OA 
HETATM   22  C   UNL     1     -13.047  10.097  72.065  1.00  0.00    -0.437 C  
ENDBRANCH  17  21
TORSDOF 1
ENDMDL
MODEL       13
REMARK 921   NORMALIZED FREE ENERGY PREDICTED BY IDOCK:   -6.23 KCAL/MOL
REMARK 922        TOTAL FREE ENERGY PREDICTED BY IDOCK:   -6.69 KCAL/MOL
REMARK 923 INTER-LIGAND FREE ENERGY PREDICTED BY IDOCK:   -6.58 KCAL/MOL
REMARK 924 INTRA-LIGAND FREE ENERGY PREDICTED BY IDOCK:   -0.10 KCAL/MOL
REMARK 927      BINDING AFFINITY PREDICTED BY RF-SCORE:    0.00 PKD
ROOT
HETATM    1  C   UNL     1     -10.210   9.463  71.051  1.00  0.00    -0.299 C  
HETATM    2  C   UNL     1     -10.975   8.698  72.149  1.00  0.00    -0.434 C  
HETATM    3  C   UNL     1     -12.271   8.280  71.427  1.00  0.00    -0.299 C  
HETATM    4  O   UNL     1     -12.763   7.072  71.923  1.00  0.00    -0.418 OA 
HETATM    5  C   UNL     1     -13.027   9.535  71.579  1.00  0.00    -0.471 C  
HETATM    6  C   UNL     1     -12.204  10.532  71.126  1.00  0.00    -0.496 C  
HETATM    7  H   UNL     1     -13.562   6.814  71.477  1.00  0.00     0.000 HD 
HETATM    8  C   UNL     1     -11.004  10.428  69.992  1.00  0.00    -0.370 C  
HETATM    9  C   UNL     1     -12.145  11.260  69.287  1.00  0.00    -0.372 C  
HETATM   10  C   UNL     1     -11.600  12.316  68.362  1.00  0.00    -0.326 C  
HETATM   11  N   UNL     1     -11.838  11.802  67.034  1.00  0.00    -0.607 NA 
HETATM   12  C   UNL     1     -12.120  12.890  66.117  1.00  0.00    -0.393 C  
HETATM   13  C   UNL     1     -10.695  11.005  66.637  1.00  0.00    -0.249 C  
HETATM   14  C   UNL     1     -10.537   9.679  67.380  1.00  0.00    -0.333 A  
HETATM   15  C   UNL     1     -10.647   9.451  68.781  1.00  0.00    -0.234 A  
HETATM   16  C   UNL     1     -10.009   8.268  69.162  1.00  0.00    -0.196 A  
HETATM   17  C   UNL     1      -9.580   7.192  68.332  1.00  0.00    -0.137 A  
HETATM   18  O   UNL     1      -9.597   8.291  70.453  1.00  0.00    -0.166 OA 
HETATM   19  C   UNL     1     -10.005   8.649  66.518  1.00  0.00    -0.353 A  
HETATM   20  C   UNL     1      -9.581   7.405  66.965  1.00  0.00    -0.221 A  
ENDROOT
BRANCH  17  21
HETATM   21  O   UNL     1      -9.142   6.042  68.936  1.00  0.00    -0.122 OA 
HETATM   22  C   UNL     1      -7.767   5.683  68.765  1.00  0.00    -0.089 C  
ENDBRANCH  17  21
TORSDOF 1
ENDMDL
MODEL       14
REMARK 921   NORMALIZED FREE ENERGY PREDICTED BY IDOCK:   -6.15 KCAL/MOL
REMARK 922        TOTAL FREE ENERGY PREDICTED BY IDOCK:   -6.60 KCAL/MOL
REMARK 923 INTER-LIGAND FREE ENERGY PREDICTED BY IDOCK:   -6.55 KCAL/MOL
REMARK 924 INTRA-LIGAND FREE ENERGY PREDICTED BY IDOCK:   -0.05 KCAL/MOL
REMARK 927      BINDING AFFINITY PREDICTED BY RF-SCORE:    0.00 PKD
ROOT
HETATM    1  C   UNL     1     -12.128  13.157  66.120  1.00  0.00    -0.417 C  
HETATM    2  C   UNL     1     -12.719  12.353  64.945  1.00  0.00    -0.256 C  
HETATM    3  C   UNL     1     -11.647  12.519  63.850  1.00  0.00    -0.442 C  
HETATM    4  O   UNL     1     -11.591  11.400  63.018  1.00  0.00    -0.865 OA 
HETATM    5  C   UNL     1     -12.054  13.838  63.336  1.00  0.00    -0.122 C  
HETATM    6  C   UNL     1     -12.146  14.659  64.426  1.00  0.00    -0.481 C  
HETATM    7  H   UNL     1     -10.930  11.502  62.343  1.00  0.00     0.000 HD 
HETATM    8  C   UNL     1     -11.318  14.556  65.855  1.00  0.00    -0.341 C  
HETATM    9  C   UNL     1     -10.717  15.827  65.139  1.00  0.00    -0.455 C  
HETATM   10  C   UNL     1     -10.337  16.911  66.114  1.00  0.00    -0.320 C  
HETATM   11  N   UNL     1      -8.895  16.872  66.166  1.00  0.00    -0.463 NA 
HETATM   12  C   UNL     1      -8.363  18.207  66.367  1.00  0.00    -0.245 C  
HETATM   13  C   UNL     1      -8.498  15.940  67.201  1.00  0.00    -0.199 C  
HETATM   14  C   UNL     1      -8.762  14.468  66.887  1.00  0.00    -0.237 A  
HETATM   15  C   UNL     1      -9.949  13.897  66.346  1.00  0.00    -0.303 A  
HETATM   16  C   UNL     1     -10.031  12.528  66.613  1.00  0.00    -0.236 A  
HETATM   17  C   UNL     1      -8.993  11.652  67.046  1.00  0.00    -0.182 A  
HETATM   18  O   UNL     1     -11.309  12.078  66.641  1.00  0.00    -0.309 OA 
HETATM   19  C   UNL     1      -7.734  13.616  67.435  1.00  0.00    -0.156 A  
HETATM   20  C   UNL     1      -7.810  12.229  67.470  1.00  0.00    -0.166 A  
ENDROOT
BRANCH  17  21
HETATM   21  O   UNL     1      -9.249  10.305  67.068  1.00  0.00    -0.148 OA 
HETATM   22  C   UNL     1      -9.261   9.609  65.818  1.00  0.00    -0.210 C  
ENDBRANCH  17  21
TORSDOF 1
ENDMDL
MODEL       15
REMARK 921   NORMALIZED FREE ENERGY PREDICTED BY IDOCK:   -6.09 KCAL/MOL
REMARK 922        TOTAL FREE ENERGY PREDICTED BY IDOCK:   -6.54 KCAL/MOL
REMARK 923 INTER-LIGAND FREE ENERGY PREDICTED BY IDOCK:   -6.44 KCAL/MOL
REMARK 924 INTRA-LIGAND FREE ENERGY PREDICTED BY IDOCK:   -0.09 KCAL/MOL
REMARK 927      BINDING AFFINITY PREDICTED BY RF-SCORE:    0.00 PKD
ROOT
HETATM    1  C   UNL     1     -12.199  13.801  66.337  1.00  0.00    -0.436 C  
HETATM    2  C   UNL     1     -11.744  12.390  65.912  1.00  0.00    -0.476 C  
HETATM    3  C   UNL     1     -10.264  12.371  66.339  1.00  0.00    -0.234 C  
HETATM    4  O   UNL     1      -9.855  11.086  66.699  1.00  0.00    -0.191 OA 
HETATM    5  C   UNL     1      -9.685  13.061  65.174  1.00  0.00     0.033 C  
HETATM    6  C   UNL     1     -10.406  14.215  65.018  1.00  0.00    -0.443 C  
HETATM    7  H   UNL     1      -8.942  11.074  66.963  1.00  0.00     0.000 HD 
HETATM    8  C   UNL     1     -11.198  15.087  66.180  1.00  0.00    -0.307 C  
HETATM    9  C   UNL     1      -9.963  15.986  65.781  1.00  0.00    -0.382 C  
HETATM   10  C   UNL     1     -10.282  17.457  65.831  1.00  0.00    -0.256 C  
HETATM   11  N   UNL     1      -9.618  17.940  67.018  1.00  0.00    -0.276 NA 
HETATM   12  C   UNL     1      -9.156  19.300  66.818  1.00  0.00    -0.323 C  
HETATM   13  C   UNL     1     -10.525  17.806  68.139  1.00  0.00    -0.377 C  
HETATM   14  C   UNL     1     -10.799  16.371  68.588  1.00  0.00    -0.331 A  
HETATM   15  C   UNL     1     -11.099  15.248  67.765  1.00  0.00    -0.318 A  
HETATM   16  C   UNL     1     -11.731  14.234  68.488  1.00  0.00    -0.341 A  
HETATM   17  C   UNL     1     -11.809  14.078  69.903  1.00  0.00    -0.329 A  
HETATM   18  O   UNL     1     -12.514  13.448  67.709  1.00  0.00    -0.085 OA 
HETATM   19  C   UNL     1     -10.968  16.286  70.019  1.00  0.00    -0.356 A  
HETATM   20  C   UNL     1     -11.412  15.150  70.683  1.00  0.00    -0.345 A  
ENDROOT
BRANCH  17  21
HETATM   21  O   UNL     1     -12.321  12.907  70.400  1.00  0.00    -0.323 OA 
HETATM   22  C   UNL     1     -13.079  12.974  71.611  1.00  0.00    -0.347 C  
ENDBRANCH  17  21
TORSDOF 1
ENDMDL
MODEL       16
REMARK 921   NORMALIZED FREE ENERGY PREDICTED BY IDOCK:   -6.02 KCAL/MOL
REMARK 922        TOTAL FREE ENERGY PREDICTED BY IDOCK:   -6.47 KCAL/MOL
REMARK 923 INTER-LIGAND FREE ENERGY PREDICTED BY IDOCK:   -6.39 KCAL/MOL
REMARK 924 INTRA-LIGAND FREE ENERGY PREDICTED BY IDOCK:   -0.08 KCAL/MOL
REMARK 927      BINDING AFFINITY PREDICTED BY RF-SCORE:    0.00 PKD
ROOT
HETATM    1  C   UNL     1      -9.179   8.271  68.309  1.00  0.00    -0.134 C  
HETATM    2  C   UNL     1      -9.271   6.862  67.690  1.00  0.00    -0.119 C  
HETATM    3  C   UNL     1     -10.788   6.686  67.478  1.00  0.00    -0.342 C  
HETATM    4  O   UNL     1     -11.057   5.881  66.370  1.00  0.00    -0.722 OA 
HETATM    5  C   UNL     1     -11.156   6.264  68.840  1.00  0.00    -0.434 C  
HETATM    6  C   UNL     1     -10.620   7.198  69.686  1.00  0.00    -0.249 C  
HETATM    7  H   UNL     1     -11.992   5.773  66.240  1.00  0.00     0.000 HD 
HETATM    8  C   UNL     1     -10.305   8.793  69.378  1.00  0.00    -0.217 C  
HETATM    9  C   UNL     1     -11.529   8.815  70.375  1.00  0.00    -0.163 C  
HETATM   10  C   UNL     1     -11.480   9.988  71.319  1.00  0.00    -0.314 C  
HETATM   11  N   UNL     1     -12.496  10.893  70.836  1.00  0.00    -0.375 NA 
HETATM   12  C   UNL     1     -13.109  11.598  71.945  1.00  0.00    -0.385 C  
HETATM   13  C   UNL     1     -11.895  11.780  69.861  1.00  0.00    -0.348 C  
HETATM   14  C   UNL     1     -11.511  11.125  68.534  1.00  0.00    -0.371 A  
HETATM   15  C   UNL     1     -10.830   9.889  68.342  1.00  0.00    -0.263 A  
HETATM   16  C   UNL     1     -10.244   9.815  67.077  1.00  0.00    -0.229 A  
HETATM   17  C   UNL     1     -10.505  10.629  65.937  1.00  0.00    -0.174 A  
HETATM   18  O   UNL     1      -9.170   8.988  67.047  1.00  0.00    -0.130 OA 
HETATM   19  C   UNL     1     -11.700  12.028  67.423  1.00  0.00    -0.352 A  
HETATM   20  C   UNL     1     -11.258  11.773  66.131  1.00  0.00    -0.363 A  
ENDROOT
BRANCH  17  21
HETATM   21  O   UNL     1      -9.950  10.263  64.737  1.00  0.00    -0.331 OA 
HETATM   22  C   UNL     1     -10.257  11.062  63.590  1.00  0.00    -0.372 C  
ENDBRANCH  17  21
TORSDOF 1
ENDMDL
MODEL       17
REMARK 921   NORMALIZED FREE ENERGY PREDICTED BY IDOCK:   -5.88 KCAL/MOL
REMARK 922        TOTAL FREE ENERGY PREDICTED BY IDOCK:   -6.32 KCAL/MOL
REMARK 923 INTER-LIGAND FREE ENERGY PREDICTED BY IDOCK:   -6.23 KCAL/MOL
REMARK 924 INTRA-LIGAND FREE ENERGY PREDICTED BY IDOCK:   -0.08 KCAL/MOL
REMARK 927      BINDING AFFINITY PREDICTED BY RF-SCORE:    0.00 PKD
ROOT
HETATM    1  C   UNL     1     -11.754  13.249  66.533  1.00  0.00    -0.377 C  
HETATM    2  C   UNL     1     -12.377  12.345  65.450  1.00  0.00    -0.308 C  
HETATM    3  C   UNL     1     -11.441  12.570  64.246  1.00  0.00    -0.362 C  
HETATM    4  O   UNL     1     -11.358  11.429  63.446  1.00  0.00    -0.725 OA 
HETATM    5  C   UNL     1     -12.027  13.822  63.738  1.00  0.00    -0.365 C  
HETATM    6  C   UNL     1     -12.091  14.674  64.807  1.00  0.00    -0.428 C  
HETATM    7  H   UNL     1     -10.781  11.568  62.704  1.00  0.00     0.000 HD 
HETATM    8  C   UNL     1     -11.118  14.707  66.145  1.00  0.00    -0.334 C  
HETATM    9  C   UNL     1     -10.720  16.001  65.333  1.00  0.00    -0.399 C  
HETATM   10  C   UNL     1     -10.355  17.154  66.231  1.00  0.00    -0.313 C  
HETATM   11  N   UNL     1      -8.918  17.255  66.135  1.00  0.00    -0.475 NA 
HETATM   12  C   UNL     1      -8.504  18.642  66.240  1.00  0.00    -0.224 C  
HETATM   13  C   UNL     1      -8.328  16.407  67.150  1.00  0.00    -0.187 C  
HETATM   14  C   UNL     1      -8.476  14.905  66.910  1.00  0.00    -0.255 A  
HETATM   15  C   UNL     1      -9.648  14.202  66.511  1.00  0.00    -0.310 A  
HETATM   16  C   UNL     1      -9.566  12.844  66.826  1.00  0.00    -0.246 A  
HETATM   17  C   UNL     1      -8.409  12.089  67.175  1.00  0.00    -0.181 A  
HETATM   18  O   UNL     1     -10.784  12.274  66.999  1.00  0.00    -0.223 OA 
HETATM   19  C   UNL     1      -7.318  14.178  67.373  1.00  0.00    -0.143 A  
HETATM   20  C   UNL     1      -7.252  12.793  67.458  1.00  0.00    -0.154 A  
ENDROOT
BRANCH  17  21
HETATM   21  O   UNL     1      -8.526  10.726  67.264  1.00  0.00    -0.123 OA 
HETATM   22  C   UNL     1      -7.544   9.928  66.594  1.00  0.00    -0.103 C  
ENDBRANCH  17  21
TORSDOF 1
ENDMDL
MODEL       18
REMARK 921   NORMALIZED FREE ENERGY PREDICTED BY IDOCK:   -5.87 KCAL/MOL
REMARK 922        TOTAL FREE ENERGY PREDICTED BY IDOCK:   -6.31 KCAL/MOL
REMARK 923 INTER-LIGAND FREE ENERGY PREDICTED BY IDOCK:   -6.39 KCAL/MOL
REMARK 924 INTRA-LIGAND FREE ENERGY PREDICTED BY IDOCK:    0.08 KCAL/MOL
REMARK 927      BINDING AFFINITY PREDICTED BY RF-SCORE:    0.00 PKD
ROOT
HETATM    1  C   UNL     1     -11.570  10.950  68.244  1.00  0.00    -0.262 C  
HETATM    2  C   UNL     1     -10.638   9.727  68.364  1.00  0.00    -0.264 C  
HETATM    3  C   UNL     1      -9.591  10.202  69.390  1.00  0.00    -0.232 C  
HETATM    4  O   UNL     1      -9.105   9.138  70.151  1.00  0.00    -0.172 OA 
HETATM    5  C   UNL     1      -8.713  10.958  68.481  1.00  0.00    -0.153 C  
HETATM    6  C   UNL     1      -9.527  11.814  67.790  1.00  0.00    -0.181 C  
HETATM    7  H   UNL     1      -8.459   9.430  70.784  1.00  0.00     0.000 HD 
HETATM    8  C   UNL     1     -10.965  12.471  68.277  1.00  0.00    -0.270 C  
HETATM    9  C   UNL     1      -9.953  13.682  68.283  1.00  0.00    -0.236 C  
HETATM   10  C   UNL     1     -10.605  14.979  67.881  1.00  0.00    -0.259 C  
HETATM   11  N   UNL     1     -10.732  15.725  69.110  1.00  0.00    -0.230 NA 
HETATM   12  C   UNL     1     -10.579  17.145  68.855  1.00  0.00    -0.314 C  
HETATM   13  C   UNL     1     -12.002  15.391  69.721  1.00  0.00    -0.358 C  
HETATM   14  C   UNL     1     -12.097  13.976  70.292  1.00  0.00    -0.425 A  
HETATM   15  C   UNL     1     -11.682  12.762  69.675  1.00  0.00    -0.372 A  
HETATM   16  C   UNL     1     -12.314  11.653  70.241  1.00  0.00    -0.258 A  
HETATM   17  C   UNL     1     -13.020  11.578  71.477  1.00  0.00    -0.380 A  
HETATM   18  O   UNL     1     -12.407  10.610  69.380  1.00  0.00    -0.277 OA 
HETATM   19  C   UNL     1     -12.906  13.940  71.487  1.00  0.00    -0.441 A  
HETATM   20  C   UNL     1     -13.321  12.771  72.110  1.00  0.00    -0.593 A  
ENDROOT
BRANCH  17  21
HETATM   21  O   UNL     1     -13.403  10.342  71.930  1.00  0.00    -0.412 OA 
HETATM   22  C   UNL     1     -12.376   9.384  72.200  1.00  0.00    -0.298 C  
ENDBRANCH  17  21
TORSDOF 1
ENDMDL
MODEL       19
REMARK 921   NORMALIZED FREE ENERGY PREDICTED BY IDOCK:   -5.85 KCAL/MOL
REMARK 922        TOTAL FREE ENERGY PREDICTED BY IDOCK:   -6.29 KCAL/MOL
REMARK 923 INTER-LIGAND FREE ENERGY PREDICTED BY IDOCK:   -6.21 KCAL/MOL
REMARK 924 INTRA-LIGAND FREE ENERGY PREDICTED BY IDOCK:   -0.08 KCAL/MOL
REMARK 927      BINDING AFFINITY PREDICTED BY RF-SCORE:    0.00 PKD
ROOT
HETATM    1  C   UNL     1      -8.598  11.142  67.083  1.00  0.00    -0.139 C  
HETATM    2  C   UNL     1      -8.368  10.425  65.737  1.00  0.00    -0.158 C  
HETATM    3  C   UNL     1      -9.793   9.994  65.338  1.00  0.00    -0.314 C  
HETATM    4  O   UNL     1      -9.948   9.973  63.951  1.00  0.00    -0.476 OA 
HETATM    5  C   UNL     1      -9.886   8.761  66.139  1.00  0.00    -0.297 C  
HETATM    6  C   UNL     1      -9.538   9.110  67.416  1.00  0.00    -0.193 C  
HETATM    7  H   UNL     1     -10.827   9.707  63.705  1.00  0.00     0.000 HD 
HETATM    8  C   UNL     1      -9.704  10.582  68.153  1.00  0.00    -0.166 C  
HETATM    9  C   UNL     1     -10.775   9.662  68.859  1.00  0.00    -0.230 C  
HETATM   10  C   UNL     1     -10.947   9.995  70.317  1.00  0.00    -0.316 C  
HETATM   11  N   UNL     1     -12.216  10.680  70.392  1.00  0.00    -0.318 NA 
HETATM   12  C   UNL     1     -12.878  10.377  71.647  1.00  0.00    -0.474 C  
HETATM   13  C   UNL     1     -11.986  12.096  70.198  1.00  0.00    -0.314 C  
HETATM   14  C   UNL     1     -11.581  12.502  68.781  1.00  0.00    -0.366 A  
HETATM   15  C   UNL     1     -10.614  11.877  67.943  1.00  0.00    -0.229 A  
HETATM   16  C   UNL     1     -10.167  12.739  66.940  1.00  0.00    -0.236 A  
HETATM   17  C   UNL     1     -10.759  13.959  66.499  1.00  0.00    -0.277 A  
HETATM   18  O   UNL     1      -8.918  12.436  66.509  1.00  0.00    -0.207 OA 
HETATM   19  C   UNL     1     -12.125  13.790  68.422  1.00  0.00    -0.324 A  
HETATM   20  C   UNL     1     -11.771  14.492  67.278  1.00  0.00    -0.429 A  
ENDROOT
BRANCH  17  21
HETATM   21  O   UNL     1     -10.256  14.553  65.370  1.00  0.00    -0.343 OA 
HETATM   22  C   UNL     1     -11.008  15.623  64.790  1.00  0.00    -0.400 C  
ENDBRANCH  17  21
TORSDOF 1
ENDMDL
MODEL       20
REMARK 921   NORMALIZED FREE ENERGY PREDICTED BY IDOCK:   -5.85 KCAL/MOL
REMARK 922        TOTAL FREE ENERGY PREDICTED BY IDOCK:   -6.28 KCAL/MOL
REMARK 923 INTER-LIGAND FREE ENERGY PREDICTED BY IDOCK:   -6.20 KCAL/MOL
REMARK 924 INTRA-LIGAND FREE ENERGY PREDICTED BY IDOCK:   -0.08 KCAL/MOL
REMARK 927      BINDING AFFINITY PREDICTED BY RF-SCORE:    0.00 PKD
ROOT
HETATM    1  C   UNL     1     -13.852  14.847  70.962  1.00  0.00    -0.267 C  
HETATM    2  C   UNL     1     -13.787  15.875  72.108  1.00  0.00    -0.259 C  
HETATM    3  C   UNL     1     -12.395  15.615  72.716  1.00  0.00    -0.435 C  
HETATM    4  O   UNL     1     -11.845  16.782  73.247  1.00  0.00    -0.423 OA 
HETATM    5  C   UNL     1     -12.737  14.468  73.576  1.00  0.00    -0.329 C  
HETATM    6  C   UNL     1     -13.384  13.570  72.772  1.00  0.00    -0.401 C  
HETATM    7  H   UNL     1     -10.986  16.621  73.621  1.00  0.00     0.000 HD 
HETATM    8  C   UNL     1     -13.212  13.350  71.141  1.00  0.00    -0.176 C  
HETATM    9  C   UNL     1     -12.555  12.068  71.786  1.00  0.00    -0.142 C  
HETATM   10  C   UNL     1     -12.767  10.832  70.952  1.00  0.00    -0.384 C  
HETATM   11  N   UNL     1     -11.485  10.573  70.342  1.00  0.00    -0.323 NA 
HETATM   12  C   UNL     1     -11.277   9.144  70.195  1.00  0.00    -0.187 C  
HETATM   13  C   UNL     1     -11.421  11.289  69.085  1.00  0.00    -0.297 C  
HETATM   14  C   UNL     1     -11.323  12.809  69.206  1.00  0.00    -0.307 A  
HETATM   15  C   UNL     1     -12.088  13.663  70.050  1.00  0.00    -0.417 A  
HETATM   16  C   UNL     1     -12.078  14.983  69.595  1.00  0.00    -0.300 A  
HETATM   17  C   UNL     1     -11.198  15.580  68.645  1.00  0.00    -0.325 A  
HETATM   18  O   UNL     1     -13.177  15.676  69.980  1.00  0.00    -0.071 OA 
HETATM   19  C   UNL     1     -10.501  13.373  68.161  1.00  0.00    -0.250 A  
HETATM   20  C   UNL     1     -10.388  14.734  67.909  1.00  0.00    -0.240 A  
ENDROOT
BRANCH  17  21
HETATM   21  O   UNL     1     -11.247  16.940  68.481  1.00  0.00    -0.289 OA 
HETATM   22  C   UNL     1     -10.041  17.680  68.691  1.00  0.00    -0.377 C  
ENDBRANCH  17  21
TORSDOF 1
ENDMDL
MODEL       21
REMARK 921   NORMALIZED FREE ENERGY PREDICTED BY IDOCK:   -5.83 KCAL/MOL
REMARK 922        TOTAL FREE ENERGY PREDICTED BY IDOCK:   -6.26 KCAL/MOL
REMARK 923 INTER-LIGAND FREE ENERGY PREDICTED BY IDOCK:   -6.16 KCAL/MOL
REMARK 924 INTRA-LIGAND FREE ENERGY PREDICTED BY IDOCK:   -0.10 KCAL/MOL
REMARK 927      BINDING AFFINITY PREDICTED BY RF-SCORE:    0.00 PKD
ROOT
HETATM    1  C   UNL     1      -8.901  15.889  68.718  1.00  0.00    -0.213 C  
HETATM    2  C   UNL     1      -9.060  17.326  68.183  1.00  0.00    -0.257 C  
HETATM    3  C   UNL     1     -10.323  17.221  67.307  1.00  0.00    -0.331 C  
HETATM    4  O   UNL     1     -11.035  18.422  67.294  1.00  0.00    -0.337 OA 
HETATM    5  C   UNL     1      -9.703  16.684  66.083  1.00  0.00    -0.329 C  
HETATM    6  C   UNL     1      -8.969  15.597  66.474  1.00  0.00    -0.343 C  
HETATM    7  H   UNL     1     -11.814  18.357  66.754  1.00  0.00     0.000 HD 
HETATM    8  C   UNL     1      -9.234  14.598  67.767  1.00  0.00    -0.196 C  
HETATM    9  C   UNL     1      -9.584  13.716  66.505  1.00  0.00    -0.294 C  
HETATM   10  C   UNL     1      -9.216  12.269  66.695  1.00  0.00    -0.208 C  
HETATM   11  N   UNL     1     -10.474  11.591  66.899  1.00  0.00    -0.226 NA 
HETATM   12  C   UNL     1     -10.424  10.256  66.334  1.00  0.00    -0.163 C  
HETATM   13  C   UNL     1     -10.775  11.597  68.316  1.00  0.00    -0.213 C  
HETATM   14  C   UNL     1     -11.144  12.962  68.897  1.00  0.00    -0.301 A  
HETATM   15  C   UNL     1     -10.484  14.204  68.679  1.00  0.00    -0.250 A  
HETATM   16  C   UNL     1     -10.777  15.128  69.685  1.00  0.00    -0.278 A  
HETATM   17  C   UNL     1     -11.829  15.078  70.646  1.00  0.00    -0.313 A  
HETATM   18  O   UNL     1      -9.798  16.051  69.848  1.00  0.00    -0.190 OA 
HETATM   19  C   UNL     1     -12.141  12.844  69.935  1.00  0.00    -0.335 A  
HETATM   20  C   UNL     1     -12.526  13.889  70.765  1.00  0.00    -0.445 A  
ENDROOT
BRANCH  17  21
HETATM   21  O   UNL     1     -12.048  16.185  71.425  1.00  0.00    -0.432 OA 
HETATM   22  C   UNL     1     -11.942  16.031  72.844  1.00  0.00    -0.506 C  
ENDBRANCH  17  21
TORSDOF 1
ENDMDL
MODEL       22
REMARK 921   NORMALIZED FREE ENERGY PREDICTED BY IDOCK:   -5.73 KCAL/MOL
REMARK 922        TOTAL FREE ENERGY PREDICTED BY IDOCK:   -6.16 KCAL/MOL
REMARK 923 INTER-LIGAND FREE ENERGY PREDICTED BY IDOCK:   -6.48 KCAL/MOL
REMARK 924 INTRA-LIGAND FREE ENERGY PREDICTED BY IDOCK:    0.32 KCAL/MOL
REMARK 927      BINDING AFFINITY PREDICTED BY RF-SCORE:    0.00 PKD
ROOT
HETATM    1  C   UNL     1      -9.562  11.382  66.149  1.00  0.00    -0.218 C  
HETATM    2  C   UNL     1     -10.284  10.287  66.960  1.00  0.00    -0.282 C  
HETATM    3  C   UNL     1     -11.032  11.101  68.033  1.00  0.00    -0.252 C  
HETATM    4  O   UNL     1     -12.224  10.477  68.406  1.00  0.00    -0.787 OA 
HETATM    5  C   UNL     1      -9.927  11.278  68.991  1.00  0.00    -0.124 C  
HETATM    6  C   UNL     1      -8.876  11.776  68.270  1.00  0.00    -0.172 C  
HETATM    7  H   UNL     1     -12.685  10.978  69.068  1.00  0.00     0.000 HD 
HETATM    8  C   UNL     1      -8.925  12.694  66.894  1.00  0.00    -0.213 C  
HETATM    9  C   UNL     1      -8.428  13.687  68.016  1.00  0.00    -0.174 C  
HETATM   10  C   UNL     1      -7.438  14.695  67.495  1.00  0.00    -0.195 C  
HETATM   11  N   UNL     1      -8.176  15.934  67.422  1.00  0.00    -0.157 NA 
HETATM   12  C   UNL     1      -7.304  17.056  67.712  1.00  0.00    -0.160 C  
HETATM   13  C   UNL     1      -8.801  16.021  66.119  1.00  0.00    -0.331 C  
HETATM   14  C   UNL     1      -9.953  15.044  65.883  1.00  0.00    -0.353 A  
HETATM   15  C   UNL     1      -9.988  13.654  66.190  1.00  0.00    -0.314 A  
HETATM   16  C   UNL     1     -10.966  12.987  65.449  1.00  0.00    -0.275 A  
HETATM   17  C   UNL     1     -12.056  13.549  64.722  1.00  0.00    -0.404 A  
HETATM   18  O   UNL     1     -10.679  11.674  65.268  1.00  0.00    -0.279 OA 
HETATM   19  C   UNL     1     -10.984  15.630  65.058  1.00  0.00    -0.445 A  
HETATM   20  C   UNL     1     -12.051  14.918  64.526  1.00  0.00    -0.420 A  
ENDROOT
BRANCH  17  21
HETATM   21  O   UNL     1     -13.006  12.698  64.218  1.00  0.00    -0.730 OA 
HETATM   22  C   UNL     1     -12.633  11.860  63.119  1.00  0.00    -0.195 C  
ENDBRANCH  17  21
TORSDOF 1
ENDMDL
MODEL       23
REMARK 921   NORMALIZED FREE ENERGY PREDICTED BY IDOCK:   -5.63 KCAL/MOL
REMARK 922        TOTAL FREE ENERGY PREDICTED BY IDOCK:   -6.06 KCAL/MOL
REMARK 923 INTER-LIGAND FREE ENERGY PREDICTED BY IDOCK:   -5.96 KCAL/MOL
REMARK 924 INTRA-LIGAND FREE ENERGY PREDICTED BY IDOCK:   -0.10 KCAL/MOL
REMARK 927      BINDING AFFINITY PREDICTED BY RF-SCORE:    0.00 PKD
ROOT
HETATM    1  C   UNL     1     -13.386  15.031  70.333  1.00  0.00    -0.020 C  
HETATM    2  C   UNL     1     -13.579  15.704  71.706  1.00  0.00    -0.510 C  
HETATM    3  C   UNL     1     -12.328  15.250  72.482  1.00  0.00    -0.369 C  
HETATM    4  O   UNL     1     -11.927  16.212  73.410  1.00  0.00    -0.449 OA 
HETATM    5  C   UNL     1     -12.800  13.922  72.911  1.00  0.00    -0.269 C  
HETATM    6  C   UNL     1     -13.249  13.295  71.780  1.00  0.00    -0.495 C  
HETATM    7  H   UNL     1     -11.156  15.932  73.889  1.00  0.00     0.000 HD 
HETATM    8  C   UNL     1     -12.751  13.526  70.219  1.00  0.00    -0.118 C  
HETATM    9  C   UNL     1     -12.198  12.099  70.606  1.00  0.00    -0.392 C  
HETATM   10  C   UNL     1     -12.206  11.144  69.441  1.00  0.00    -0.259 C  
HETATM   11  N   UNL     1     -10.821  11.027  69.050  1.00  0.00    -0.214 NA 
HETATM   12  C   UNL     1     -10.547   9.688  68.563  1.00  0.00    -0.220 C  
HETATM   13  C   UNL     1     -10.529  12.057  68.076  1.00  0.00    -0.207 C  
HETATM   14  C   UNL     1     -10.501  13.483  68.624  1.00  0.00    -0.242 A  
HETATM   15  C   UNL     1     -11.442  14.094  69.501  1.00  0.00    -0.334 A  
HETATM   16  C   UNL     1     -11.380  15.488  69.435  1.00  0.00    -0.316 A  
HETATM   17  C   UNL     1     -10.347  16.297  68.879  1.00  0.00    -0.263 A  
HETATM   18  O   UNL     1     -12.554  16.079  69.769  1.00  0.00    -0.142 OA 
HETATM   19  C   UNL     1      -9.505  14.289  67.958  1.00  0.00    -0.204 A  
HETATM   20  C   UNL     1      -9.384  15.663  68.115  1.00  0.00    -0.194 A  
ENDROOT
BRANCH  17  21
HETATM   21  O   UNL     1     -10.402  17.652  69.087  1.00  0.00    -0.353 OA 
HETATM   22  C   UNL     1     -10.511  18.497  67.938  1.00  0.00    -0.384 C  
ENDBRANCH  17  21
TORSDOF 1
ENDMDL
MODEL       24
REMARK 921   NORMALIZED FREE ENERGY PREDICTED BY IDOCK:   -5.52 KCAL/MOL
REMARK 922        TOTAL FREE ENERGY PREDICTED BY IDOCK:   -5.93 KCAL/MOL
REMARK 923 INTER-LIGAND FREE ENERGY PREDICTED BY IDOCK:   -5.85 KCAL/MOL
REMARK 924 INTRA-LIGAND FREE ENERGY PREDICTED BY IDOCK:   -0.08 KCAL/MOL
REMARK 927      BINDING AFFINITY PREDICTED BY RF-SCORE:    0.00 PKD
ROOT
HETATM    1  C   UNL     1     -10.070  12.743  65.876  1.00  0.00    -0.276 C  
HETATM    2  C   UNL     1     -11.297  13.495  65.323  1.00  0.00    -0.304 C  
HETATM    3  C   UNL     1     -12.165  12.354  64.759  1.00  0.00    -0.423 C  
HETATM    4  O   UNL     1     -13.524  12.656  64.849  1.00  0.00    -0.599 OA 
HETATM    5  C   UNL     1     -11.501  12.191  63.454  1.00  0.00    -0.501 C  
HETATM    6  C   UNL     1     -10.165  12.055  63.722  1.00  0.00    -0.447 C  
HETATM    7  H   UNL     1     -14.060  11.952  64.502  1.00  0.00     0.000 HD 
HETATM    8  C   UNL     1      -9.454  11.448  65.086  1.00  0.00    -0.223 C  
HETATM    9  C   UNL     1      -9.187  10.355  63.979  1.00  0.00    -0.300 C  
HETATM   10  C   UNL     1      -7.854   9.676  64.150  1.00  0.00    -0.130 C  
HETATM   11  N   UNL     1      -8.170   8.364  64.664  1.00  0.00    -0.162 NA 
HETATM   12  C   UNL     1      -7.220   7.387  64.165  1.00  0.00    -0.080 C  
HETATM   13  C   UNL     1      -8.208   8.434  66.110  1.00  0.00    -0.113 C  
HETATM   14  C   UNL     1      -9.390   9.207  66.693  1.00  0.00    -0.228 A  
HETATM   15  C   UNL     1      -9.890  10.473  66.274  1.00  0.00    -0.269 A  
HETATM   16  C   UNL     1     -10.647  11.086  67.275  1.00  0.00    -0.245 A  
HETATM   17  C   UNL     1     -11.199  10.494  68.448  1.00  0.00    -0.279 A  
HETATM   18  O   UNL     1     -10.654  12.437  67.170  1.00  0.00    -0.221 OA 
HETATM   19  C   UNL     1      -9.846   8.624  67.933  1.00  0.00    -0.211 A  
HETATM   20  C   UNL     1     -10.773   9.219  68.778  1.00  0.00    -0.184 A  
ENDROOT
BRANCH  17  21
HETATM   21  O   UNL     1     -12.067  11.240  69.204  1.00  0.00    -0.336 OA 
HETATM   22  C   UNL     1     -12.631  10.627  70.367  1.00  0.00    -0.316 C  
ENDBRANCH  17  21
TORSDOF 1
ENDMDL
MODEL       25
REMARK 921   NORMALIZED FREE ENERGY PREDICTED BY IDOCK:   -5.51 KCAL/MOL
REMARK 922        TOTAL FREE ENERGY PREDICTED BY IDOCK:   -5.93 KCAL/MOL
REMARK 923 INTER-LIGAND FREE ENERGY PREDICTED BY IDOCK:   -5.84 KCAL/MOL
REMARK 924 INTRA-LIGAND FREE ENERGY PREDICTED BY IDOCK:   -0.09 KCAL/MOL
REMARK 927      BINDING AFFINITY PREDICTED BY RF-SCORE:    0.00 PKD
ROOT
HETATM    1  C   UNL     1     -10.420  14.300  69.116  1.00  0.00    -0.159 C  
HETATM    2  C   UNL     1     -11.464  13.869  70.165  1.00  0.00    -0.166 C  
HETATM    3  C   UNL     1     -12.586  14.908  69.969  1.00  0.00    -0.218 C  
HETATM    4  O   UNL     1     -13.839  14.364  70.257  1.00  0.00    -0.035 OA 
HETATM    5  C   UNL     1     -12.021  16.002  70.777  1.00  0.00    -0.339 C  
HETATM    6  C   UNL     1     -10.741  16.186  70.327  1.00  0.00    -0.235 C  
HETATM    7  H   UNL     1     -14.530  15.005  70.137  1.00  0.00     0.000 HD 
HETATM    8  C   UNL     1     -10.138  15.885  68.816  1.00  0.00    -0.221 C  
HETATM    9  C   UNL     1     -10.162  17.460  68.928  1.00  0.00    -0.352 C  
HETATM   10  C   UNL     1      -9.010  18.105  68.204  1.00  0.00    -0.290 C  
HETATM   11  N   UNL     1      -9.595  18.677  67.014  1.00  0.00    -0.295 NA 
HETATM   12  C   UNL     1      -8.907  19.903  66.655  1.00  0.00    -0.358 C  
HETATM   13  C   UNL     1      -9.567  17.681  65.964  1.00  0.00    -0.103 C  
HETATM   14  C   UNL     1     -10.524  16.505  66.156  1.00  0.00    -0.301 A  
HETATM   15  C   UNL     1     -10.741  15.748  67.343  1.00  0.00    -0.317 A  
HETATM   16  C   UNL     1     -11.305  14.502  67.064  1.00  0.00    -0.349 A  
HETATM   17  C   UNL     1     -11.936  14.070  65.861  1.00  0.00    -0.408 A  
HETATM   18  O   UNL     1     -11.013  13.574  68.008  1.00  0.00    -0.239 OA 
HETATM   19  C   UNL     1     -11.056  16.042  64.896  1.00  0.00    -0.381 A  
HETATM   20  C   UNL     1     -11.797  14.877  64.746  1.00  0.00    -0.385 A  
ENDROOT
BRANCH  17  21
HETATM   21  O   UNL     1     -12.588  12.864  65.867  1.00  0.00    -0.509 OA 
HETATM   22  C   UNL     1     -12.595  12.105  64.654  1.00  0.00    -0.175 C  
ENDBRANCH  17  21
TORSDOF 1
ENDMDL
MODEL       26
REMARK 921   NORMALIZED FREE ENERGY PREDICTED BY IDOCK:   -5.49 KCAL/MOL
REMARK 922        TOTAL FREE ENERGY PREDICTED BY IDOCK:   -5.90 KCAL/MOL
REMARK 923 INTER-LIGAND FREE ENERGY PREDICTED BY IDOCK:   -6.09 KCAL/MOL
REMARK 924 INTRA-LIGAND FREE ENERGY PREDICTED BY IDOCK:    0.19 KCAL/MOL
REMARK 927      BINDING AFFINITY PREDICTED BY RF-SCORE:    0.00 PKD
ROOT
HETATM    1  C   UNL     1     -10.290  14.006  67.589  1.00  0.00    -0.242 C  
HETATM    2  C   UNL     1      -9.688  15.420  67.704  1.00  0.00    -0.211 C  
HETATM    3  C   UNL     1      -8.638  15.432  66.577  1.00  0.00    -0.259 C  
HETATM    4  O   UNL     1      -8.478  16.712  66.044  1.00  0.00    -0.409 OA 
HETATM    5  C   UNL     1      -7.540  14.755  67.286  1.00  0.00    -0.195 C  
HETATM    6  C   UNL     1      -8.073  13.605  67.802  1.00  0.00    -0.173 C  
HETATM    7  H   UNL     1      -7.831  16.720  65.349  1.00  0.00     0.000 HD 
HETATM    8  C   UNL     1      -9.345  12.720  67.223  1.00  0.00    -0.200 C  
HETATM    9  C   UNL     1      -8.077  11.824  66.940  1.00  0.00    -0.160 C  
HETATM   10  C   UNL     1      -8.369  10.353  67.077  1.00  0.00    -0.127 C  
HETATM   11  N   UNL     1      -8.407   9.855  65.722  1.00  0.00    -0.124 NA 
HETATM   12  C   UNL     1      -7.902   8.496  65.671  1.00  0.00    -0.102 C  
HETATM   13  C   UNL     1      -9.762   9.977  65.225  1.00  0.00    -0.306 C  
HETATM   14  C   UNL     1     -10.234  11.407  64.966  1.00  0.00    -0.333 A  
HETATM   15  C   UNL     1     -10.074  12.540  65.814  1.00  0.00    -0.278 A  
HETATM   16  C   UNL     1     -10.993  13.547  65.507  1.00  0.00    -0.288 A  
HETATM   17  C   UNL     1     -11.787  13.686  64.332  1.00  0.00    -0.424 A  
HETATM   18  O   UNL     1     -11.267  14.343  66.569  1.00  0.00    -0.324 OA 
HETATM   19  C   UNL     1     -11.116  11.476  63.824  1.00  0.00    -0.471 A  
HETATM   20  C   UNL     1     -11.843  12.605  63.471  1.00  0.00    -0.619 A  
ENDROOT
BRANCH  17  21
HETATM   21  O   UNL     1     -12.487  14.852  64.156  1.00  0.00    -0.763 OA 
HETATM   22  C   UNL     1     -11.761  16.083  64.238  1.00  0.00    -0.081 C  
ENDBRANCH  17  21
TORSDOF 1
ENDMDL
MODEL       27
REMARK 921   NORMALIZED FREE ENERGY PREDICTED BY IDOCK:   -5.48 KCAL/MOL
REMARK 922        TOTAL FREE ENERGY PREDICTED BY IDOCK:   -5.89 KCAL/MOL
REMARK 923 INTER-LIGAND FREE ENERGY PREDICTED BY IDOCK:   -5.80 KCAL/MOL
REMARK 924 INTRA-LIGAND FREE ENERGY PREDICTED BY IDOCK:   -0.10 KCAL/MOL
REMARK 927      BINDING AFFINITY PREDICTED BY RF-SCORE:    0.00 PKD
ROOT
HETATM    1  C   UNL     1     -11.866  12.588  66.440  1.00  0.00    -0.381 C  
HETATM    2  C   UNL     1     -12.619  12.671  65.098  1.00  0.00    -0.459 C  
HETATM    3  C   UNL     1     -11.622  13.429  64.199  1.00  0.00    -0.398 C  
HETATM    4  O   UNL     1     -11.738  13.035  62.865  1.00  0.00    -0.772 OA 
HETATM    5  C   UNL     1     -11.939  14.804  64.622  1.00  0.00    -0.448 C  
HETATM    6  C   UNL     1     -11.869  14.806  65.989  1.00  0.00    -0.201 C  
HETATM    7  H   UNL     1     -11.123  13.502  62.311  1.00  0.00     0.000 HD 
HETATM    8  C   UNL     1     -10.948  13.838  66.966  1.00  0.00    -0.297 C  
HETATM    9  C   UNL     1     -10.284  15.266  67.081  1.00  0.00    -0.252 C  
HETATM   10  C   UNL     1      -9.729  15.532  68.456  1.00  0.00    -0.203 C  
HETATM   11  N   UNL     1      -8.297  15.425  68.304  1.00  0.00    -0.147 NA 
HETATM   12  C   UNL     1      -7.626  16.353  69.195  1.00  0.00    -0.225 C  
HETATM   13  C   UNL     1      -7.914  14.047  68.525  1.00  0.00    -0.141 C  
HETATM   14  C   UNL     1      -8.342  13.068  67.432  1.00  0.00    -0.194 A  
HETATM   15  C   UNL     1      -9.615  12.974  66.802  1.00  0.00    -0.248 A  
HETATM   16  C   UNL     1      -9.807  11.724  66.210  1.00  0.00    -0.221 A  
HETATM   17  C   UNL     1      -8.829  10.732  65.911  1.00  0.00    -0.179 A  
HETATM   18  O   UNL     1     -11.117  11.387  66.116  1.00  0.00    -0.278 OA 
HETATM   19  C   UNL     1      -7.361  12.026  67.239  1.00  0.00    -0.151 A  
HETATM   20  C   UNL     1      -7.566  10.901  66.452  1.00  0.00    -0.146 A  
ENDROOT
BRANCH  17  21
HETATM   21  O   UNL     1      -9.210   9.652  65.158  1.00  0.00    -0.214 OA 
HETATM   22  C   UNL     1      -9.027   9.730  63.741  1.00  0.00    -0.240 C  
ENDBRANCH  17  21
TORSDOF 1
ENDMDL
MODEL       28
REMARK 921   NORMALIZED FREE ENERGY PREDICTED BY IDOCK:   -5.45 KCAL/MOL
REMARK 922        TOTAL FREE ENERGY PREDICTED BY IDOCK:   -5.86 KCAL/MOL
REMARK 923 INTER-LIGAND FREE ENERGY PREDICTED BY IDOCK:   -5.76 KCAL/MOL
REMARK 924 INTRA-LIGAND FREE ENERGY PREDICTED BY IDOCK:   -0.10 KCAL/MOL
REMARK 927      BINDING AFFINITY PREDICTED BY RF-SCORE:    0.00 PKD
ROOT
HETATM    1  C   UNL     1     -10.098   9.247  66.362  1.00  0.00    -0.267 C  
HETATM    2  C   UNL     1      -8.686   8.650  66.521  1.00  0.00    -0.143 C  
HETATM    3  C   UNL     1      -7.818   9.899  66.768  1.00  0.00    -0.109 C  
HETATM    4  O   UNL     1      -6.727   9.607  67.588  1.00  0.00    -0.065 OA 
HETATM    5  C   UNL     1      -7.634  10.325  65.370  1.00  0.00    -0.146 C  
HETATM    6  C   UNL     1      -8.887  10.378  64.821  1.00  0.00    -0.211 C  
HETATM    7  H   UNL     1      -6.192  10.377  67.741  1.00  0.00     0.000 HD 
HETATM    8  C   UNL     1     -10.325  10.670  65.585  1.00  0.00    -0.285 C  
HETATM    9  C   UNL     1     -10.060  11.969  64.729  1.00  0.00    -0.286 C  
HETATM   10  C   UNL     1     -11.331  12.574  64.192  1.00  0.00    -0.380 C  
HETATM   11  N   UNL     1     -11.549  13.752  64.999  1.00  0.00    -0.329 NA 
HETATM   12  C   UNL     1     -12.168  14.796  64.206  1.00  0.00    -0.379 C  
HETATM   13  C   UNL     1     -12.333  13.377  66.157  1.00  0.00    -0.380 C  
HETATM   14  C   UNL     1     -11.602  12.516  67.188  1.00  0.00    -0.437 A  
HETATM   15  C   UNL     1     -10.784  11.377  66.942  1.00  0.00    -0.308 A  
HETATM   16  C   UNL     1     -10.658  10.578  68.080  1.00  0.00    -0.214 A  
HETATM   17  C   UNL     1     -10.961  10.915  69.431  1.00  0.00    -0.252 A  
HETATM   18  O   UNL     1     -10.405   9.280  67.781  1.00  0.00    -0.209 OA 
HETATM   19  C   UNL     1     -12.021  12.830  68.533  1.00  0.00    -0.265 A  
HETATM   20  C   UNL     1     -11.669  12.084  69.651  1.00  0.00    -0.405 A  
ENDROOT
BRANCH  17  21
HETATM   21  O   UNL     1     -10.587  10.041  70.418  1.00  0.00    -0.286 OA 
HETATM   22  C   UNL     1     -11.587   9.623  71.352  1.00  0.00    -0.400 C  
ENDBRANCH  17  21
TORSDOF 1
ENDMDL
MODEL       29
REMARK 921   NORMALIZED FREE ENERGY PREDICTED BY IDOCK:   -5.44 KCAL/MOL
REMARK 922        TOTAL FREE ENERGY PREDICTED BY IDOCK:   -5.86 KCAL/MOL
REMARK 923 INTER-LIGAND FREE ENERGY PREDICTED BY IDOCK:   -5.76 KCAL/MOL
REMARK 924 INTRA-LIGAND FREE ENERGY PREDICTED BY IDOCK:   -0.10 KCAL/MOL
REMARK 927      BINDING AFFINITY PREDICTED BY RF-SCORE:    0.00 PKD
ROOT
HETATM    1  C   UNL     1      -9.224  10.069  68.847  1.00  0.00    -0.169 C  
HETATM    2  C   UNL     1      -9.754  11.459  68.443  1.00  0.00    -0.203 C  
HETATM    3  C   UNL     1     -11.080  11.121  67.734  1.00  0.00    -0.285 C  
HETATM    4  O   UNL     1     -12.021  12.138  67.901  1.00  0.00    -0.489 OA 
HETATM    5  C   UNL     1     -10.543  10.785  66.404  1.00  0.00    -0.266 C  
HETATM    6  C   UNL     1      -9.550   9.867  66.616  1.00  0.00    -0.235 C  
HETATM    7  H   UNL     1     -12.838  11.930  67.464  1.00  0.00     0.000 HD 
HETATM    8  C   UNL     1      -9.413   8.779  67.855  1.00  0.00    -0.160 C  
HETATM    9  C   UNL     1      -9.749   7.898  66.589  1.00  0.00    -0.305 C  
HETATM   10  C   UNL     1      -9.063   6.558  66.624  1.00  0.00    -0.147 C  
HETATM   11  N   UNL     1     -10.110   5.615  66.940  1.00  0.00    -0.172 NA 
HETATM   12  C   UNL     1      -9.863   4.349  66.277  1.00  0.00    -0.231 C  
HETATM   13  C   UNL     1     -10.200   5.495  68.380  1.00  0.00    -0.180 C  
HETATM   14  C   UNL     1     -10.759   6.720  69.102  1.00  0.00    -0.287 A  
HETATM   15  C   UNL     1     -10.410   8.085  68.892  1.00  0.00    -0.222 A  
HETATM   16  C   UNL     1     -10.743   8.878  69.992  1.00  0.00    -0.228 A  
HETATM   17  C   UNL     1     -11.614   8.561  71.075  1.00  0.00    -0.279 A  
HETATM   18  O   UNL     1      -9.965   9.984  70.092  1.00  0.00    -0.252 OA 
HETATM   19  C   UNL     1     -11.551   6.345  70.250  1.00  0.00    -0.451 A  
HETATM   20  C   UNL     1     -12.022   7.244  71.197  1.00  0.00    -0.363 A  
ENDROOT
BRANCH  17  21
HETATM   21  O   UNL     1     -11.945   9.559  71.955  1.00  0.00    -0.370 OA 
HETATM   22  C   UNL     1     -13.157  10.280  71.717  1.00  0.00    -0.465 C  
ENDBRANCH  17  21
TORSDOF 1
ENDMDL
MODEL       30
REMARK 921   NORMALIZED FREE ENERGY PREDICTED BY IDOCK:   -5.38 KCAL/MOL
REMARK 922        TOTAL FREE ENERGY PREDICTED BY IDOCK:   -5.79 KCAL/MOL
REMARK 923 INTER-LIGAND FREE ENERGY PREDICTED BY IDOCK:   -5.70 KCAL/MOL
REMARK 924 INTRA-LIGAND FREE ENERGY PREDICTED BY IDOCK:   -0.09 KCAL/MOL
REMARK 927      BINDING AFFINITY PREDICTED BY RF-SCORE:    0.00 PKD
ROOT
HETATM    1  C   UNL     1     -12.223  10.240  69.341  1.00  0.00     0.191 C  
HETATM    2  C   UNL     1     -11.402   9.297  70.244  1.00  0.00    -0.238 C  
HETATM    3  C   UNL     1     -10.014   9.965  70.255  1.00  0.00    -0.203 C  
HETATM    4  O   UNL     1      -9.351   9.741  71.463  1.00  0.00    -0.129 OA 
HETATM    5  C   UNL     1      -9.496   9.428  68.985  1.00  0.00    -0.160 C  
HETATM    6  C   UNL     1     -10.450   9.697  68.041  1.00  0.00    -0.276 C  
HETATM    7  H   UNL     1      -8.495  10.153  71.470  1.00  0.00     0.000 HD 
HETATM    8  C   UNL     1     -11.546  10.936  68.022  1.00  0.00    -0.295 C  
HETATM    9  C   UNL     1     -10.526  11.291  66.871  1.00  0.00    -0.286 C  
HETATM   10  C   UNL     1     -11.190  11.972  65.704  1.00  0.00    -0.327 C  
HETATM   11  N   UNL     1     -10.789  13.356  65.806  1.00  0.00    -0.273 NA 
HETATM   12  C   UNL     1     -10.646  13.937  64.485  1.00  0.00    -0.354 C  
HETATM   13  C   UNL     1     -11.752  14.053  66.633  1.00  0.00    -0.399 C  
HETATM   14  C   UNL     1     -11.722  13.687  68.117  1.00  0.00    -0.392 A  
HETATM   15  C   UNL     1     -11.657  12.384  68.687  1.00  0.00    -0.365 A  
HETATM   16  C   UNL     1     -12.103  12.378  70.011  1.00  0.00    -0.263 A  
HETATM   17  C   UNL     1     -12.291  13.491  70.882  1.00  0.00    -0.356 A  
HETATM   18  O   UNL     1     -12.588  11.171  70.393  1.00  0.00    -0.293 OA 
HETATM   19  C   UNL     1     -12.018  14.828  68.951  1.00  0.00    -0.298 A  
HETATM   20  C   UNL     1     -12.246  14.753  70.318  1.00  0.00    -0.394 A  
ENDROOT
BRANCH  17  21
HETATM   21  O   UNL     1     -12.559  13.242  72.203  1.00  0.00    -0.094 OA 
HETATM   22  C   UNL     1     -13.250  14.253  72.944  1.00  0.00    -0.495 C  
ENDBRANCH  17  21
TORSDOF 1
ENDMDL
MODEL       31
REMARK 921   NORMALIZED FREE ENERGY PREDICTED BY IDOCK:   -5.38 KCAL/MOL
REMARK 922        TOTAL FREE ENERGY PREDICTED BY IDOCK:   -5.79 KCAL/MOL
REMARK 923 INTER-LIGAND FREE ENERGY PREDICTED BY IDOCK:   -5.69 KCAL/MOL
REMARK 924 INTRA-LIGAND FREE ENERGY PREDICTED BY IDOCK:   -0.10 KCAL/MOL
REMARK 927      BINDING AFFINITY PREDICTED BY RF-SCORE:    0.00 PKD
ROOT
HETATM    1  C   UNL     1     -10.949  10.616  67.600  1.00  0.00    -0.310 C  
HETATM    2  C   UNL     1     -10.813  11.568  68.805  1.00  0.00    -0.258 C  
HETATM    3  C   UNL     1      -9.720  12.548  68.338  1.00  0.00    -0.189 C  
HETATM    4  O   UNL     1      -9.905  13.818  68.888  1.00  0.00    -0.394 OA 
HETATM    5  C   UNL     1      -8.536  11.736  68.668  1.00  0.00    -0.068 C  
HETATM    6  C   UNL     1      -8.742  10.512  68.091  1.00  0.00    -0.130 C  
HETATM    7  H   UNL     1      -9.231  14.422  68.600  1.00  0.00     0.000 HD 
HETATM    8  C   UNL     1      -9.632  10.156  66.743  1.00  0.00    -0.222 C  
HETATM    9  C   UNL     1      -8.133   9.944  66.296  1.00  0.00    -0.114 C  
HETATM   10  C   UNL     1      -7.981   8.814  65.311  1.00  0.00    -0.118 C  
HETATM   11  N   UNL     1      -7.747   9.461  64.041  1.00  0.00    -0.115 NA 
HETATM   12  C   UNL     1      -6.854   8.659  63.226  1.00  0.00    -0.089 C  
HETATM   13  C   UNL     1      -9.026   9.708  63.409  1.00  0.00    -0.219 C  
HETATM   14  C   UNL     1      -9.881  10.788  64.070  1.00  0.00    -0.390 A  
HETATM   15  C   UNL     1     -10.146  10.955  65.459  1.00  0.00    -0.325 A  
HETATM   16  C   UNL     1     -11.293  11.721  65.677  1.00  0.00    -0.233 A  
HETATM   17  C   UNL     1     -11.985  12.554  64.751  1.00  0.00    -0.409 A  
HETATM   18  O   UNL     1     -11.888  11.443  66.864  1.00  0.00    -0.489 OA 
HETATM   19  C   UNL     1     -10.638  11.537  63.094  1.00  0.00    -0.323 A  
HETATM   20  C   UNL     1     -11.636  12.447  63.416  1.00  0.00    -0.541 A  
ENDROOT
BRANCH  17  21
HETATM   21  O   UNL     1     -12.984  13.363  65.227  1.00  0.00    -0.681 OA 
HETATM   22  C   UNL     1     -12.626  14.679  65.659  1.00  0.00    -0.072 C  
ENDBRANCH  17  21
TORSDOF 1
ENDMDL
MODEL       32
REMARK 921   NORMALIZED FREE ENERGY PREDICTED BY IDOCK:   -5.36 KCAL/MOL
REMARK 922        TOTAL FREE ENERGY PREDICTED BY IDOCK:   -5.77 KCAL/MOL
REMARK 923 INTER-LIGAND FREE ENERGY PREDICTED BY IDOCK:   -5.69 KCAL/MOL
REMARK 924 INTRA-LIGAND FREE ENERGY PREDICTED BY IDOCK:   -0.08 KCAL/MOL
REMARK 927      BINDING AFFINITY PREDICTED BY RF-SCORE:    0.00 PKD
ROOT
HETATM    1  C   UNL     1     -11.114   9.103  71.635  1.00  0.00    -0.375 C  
HETATM    2  C   UNL     1     -12.035   7.979  72.148  1.00  0.00    -0.399 C  
HETATM    3  C   UNL     1     -13.289   8.141  71.267  1.00  0.00    -0.121 C  
HETATM    4  O   UNL     1     -13.919   6.916  71.046  1.00  0.00    -0.290 OA 
HETATM    5  C   UNL     1     -13.953   9.220  72.018  1.00  0.00    -0.392 C  
HETATM    6  C   UNL     1     -13.015  10.205  72.178  1.00  0.00    -0.436 C  
HETATM    7  H   UNL     1     -14.691   7.016  70.503  1.00  0.00     0.000 HD 
HETATM    8  C   UNL     1     -11.728  10.557  71.200  1.00  0.00    -0.323 C  
HETATM    9  C   UNL     1     -12.730  11.758  70.985  1.00  0.00    -0.372 C  
HETATM   10  C   UNL     1     -12.020  13.067  70.761  1.00  0.00    -0.039 C  
HETATM   11  N   UNL     1     -12.176  13.336  69.351  1.00  0.00    -0.222 NA 
HETATM   12  C   UNL     1     -12.285  14.764  69.120  1.00  0.00    -0.173 C  
HETATM   13  C   UNL     1     -11.069  12.728  68.642  1.00  0.00    -0.266 C  
HETATM   14  C   UNL     1     -11.086  11.200  68.596  1.00  0.00    -0.293 A  
HETATM   15  C   UNL     1     -11.341  10.302  69.671  1.00  0.00    -0.315 A  
HETATM   16  C   UNL     1     -10.838   9.027  69.409  1.00  0.00    -0.138 A  
HETATM   17  C   UNL     1     -10.421   8.485  68.158  1.00  0.00    -0.182 A  
HETATM   18  O   UNL     1     -10.544   8.339  70.540  1.00  0.00    -0.211 OA 
HETATM   19  C   UNL     1     -10.561  10.702  67.346  1.00  0.00    -0.304 A  
HETATM   20  C   UNL     1     -10.281   9.364  67.099  1.00  0.00    -0.319 A  
ENDROOT
BRANCH  17  21
HETATM   21  O   UNL     1     -10.134   7.146  68.095  1.00  0.00    -0.157 OA 
HETATM   22  C   UNL     1     -10.711   6.390  67.025  1.00  0.00    -0.363 C  
ENDBRANCH  17  21
TORSDOF 1
ENDMDL
MODEL       33
REMARK 921   NORMALIZED FREE ENERGY PREDICTED BY IDOCK:   -5.36 KCAL/MOL
REMARK 922        TOTAL FREE ENERGY PREDICTED BY IDOCK:   -5.77 KCAL/MOL
REMARK 923 INTER-LIGAND FREE ENERGY PREDICTED BY IDOCK:   -5.71 KCAL/MOL
REMARK 924 INTRA-LIGAND FREE ENERGY PREDICTED BY IDOCK:   -0.06 KCAL/MOL
REMARK 927      BINDING AFFINITY PREDICTED BY RF-SCORE:    0.00 PKD
ROOT
HETATM    1  C   UNL     1      -8.837  10.958  67.923  1.00  0.00    -0.134 C  
HETATM    2  C   UNL     1      -8.800  11.088  66.388  1.00  0.00    -0.182 C  
HETATM    3  C   UNL     1     -10.211  10.626  65.976  1.00  0.00    -0.247 C  
HETATM    4  O   UNL     1     -10.642  11.276  64.819  1.00  0.00    -0.303 OA 
HETATM    5  C   UNL     1      -9.986   9.170  65.999  1.00  0.00    -0.293 C  
HETATM    6  C   UNL     1      -9.431   8.891  67.219  1.00  0.00    -0.195 C  
HETATM    7  H   UNL     1     -11.513  10.991  64.566  1.00  0.00     0.000 HD 
HETATM    8  C   UNL     1      -9.623   9.714  68.641  1.00  0.00    -0.154 C  
HETATM    9  C   UNL     1     -10.406   8.360  68.857  1.00  0.00    -0.231 C  
HETATM   10  C   UNL     1     -10.317   7.865  70.277  1.00  0.00    -0.212 C  
HETATM   11  N   UNL     1     -11.619   8.131  70.843  1.00  0.00    -0.281 NA 
HETATM   12  C   UNL     1     -11.968   7.103  71.805  1.00  0.00    -0.313 C  
HETATM   13  C   UNL     1     -11.610   9.462  71.411  1.00  0.00    -0.381 C  
HETATM   14  C   UNL     1     -11.556  10.604  70.396  1.00  0.00    -0.441 A  
HETATM   15  C   UNL     1     -10.710  10.710  69.256  1.00  0.00    -0.275 A  
HETATM   16  C   UNL     1     -10.587  12.033  68.826  1.00  0.00    -0.209 A  
HETATM   17  C   UNL     1     -11.403  13.150  69.172  1.00  0.00    -0.281 A  
HETATM   18  O   UNL     1      -9.425  12.263  68.168  1.00  0.00    -0.203 OA 
HETATM   19  C   UNL     1     -12.316  11.747  70.842  1.00  0.00    -0.420 A  
HETATM   20  C   UNL     1     -12.292  12.988  70.219  1.00  0.00    -0.311 A  
ENDROOT
BRANCH  17  21
HETATM   21  O   UNL     1     -11.218  14.325  68.489  1.00  0.00    -0.243 OA 
HETATM   22  C   UNL     1     -11.767  14.422  67.172  1.00  0.00    -0.400 C  
ENDBRANCH  17  21
TORSDOF 1
ENDMDL
MODEL       34
REMARK 921   NORMALIZED FREE ENERGY PREDICTED BY IDOCK:   -5.36 KCAL/MOL
REMARK 922        TOTAL FREE ENERGY PREDICTED BY IDOCK:   -5.77 KCAL/MOL
REMARK 923 INTER-LIGAND FREE ENERGY PREDICTED BY IDOCK:   -5.66 KCAL/MOL
REMARK 924 INTRA-LIGAND FREE ENERGY PREDICTED BY IDOCK:   -0.10 KCAL/MOL
REMARK 927      BINDING AFFINITY PREDICTED BY RF-SCORE:    0.00 PKD
ROOT
HETATM    1  C   UNL     1      -9.722  12.426  68.429  1.00  0.00    -0.189 C  
HETATM    2  C   UNL     1     -10.549  11.361  69.177  1.00  0.00    -0.196 C  
HETATM    3  C   UNL     1     -11.992  11.872  69.001  1.00  0.00    -0.262 C  
HETATM    4  O   UNL     1     -12.904  10.816  68.957  1.00  0.00    -0.549 OA 
HETATM    5  C   UNL     1     -12.015  12.859  70.094  1.00  0.00    -0.373 C  
HETATM    6  C   UNL     1     -10.913  13.651  69.914  1.00  0.00     0.211 C  
HETATM    7  H   UNL     1     -13.794  11.130  68.849  1.00  0.00     0.000 HD 
HETATM    8  C   UNL     1     -10.133  14.009  68.500  1.00  0.00    -0.236 C  
HETATM    9  C   UNL     1     -10.844  15.357  68.914  1.00  0.00    -0.251 C  
HETATM   10  C   UNL     1     -10.036  16.572  68.540  1.00  0.00    -0.251 C  
HETATM   11  N   UNL     1     -10.724  17.138  67.404  1.00  0.00    -0.291 NA 
HETATM   12  C   UNL     1     -10.611  18.584  67.417  1.00  0.00    -0.424 C  
HETATM   13  C   UNL     1     -10.193  16.536  66.198  1.00  0.00    -0.346 C  
HETATM   14  C   UNL     1     -10.558  15.067  65.988  1.00  0.00    -0.329 A  
HETATM   15  C   UNL     1     -10.510  14.016  66.948  1.00  0.00    -0.276 A  
HETATM   16  C   UNL     1     -10.459  12.762  66.336  1.00  0.00    -0.250 A  
HETATM   17  C   UNL     1     -10.753  12.430  64.982  1.00  0.00    -0.294 A  
HETATM   18  O   UNL     1      -9.862  11.826  67.115  1.00  0.00    -0.191 OA 
HETATM   19  C   UNL     1     -10.747  14.762  64.590  1.00  0.00    -0.279 A  
HETATM   20  C   UNL     1     -10.897  13.476  64.088  1.00  0.00    -0.250 A  
ENDROOT
BRANCH  17  21
HETATM   21  O   UNL     1     -10.817  11.104  64.638  1.00  0.00    -0.305 OA 
HETATM   22  C   UNL     1      -9.860  10.614  63.694  1.00  0.00    -0.333 C  
ENDBRANCH  17  21
TORSDOF 1
ENDMDL
MODEL       35
REMARK 921   NORMALIZED FREE ENERGY PREDICTED BY IDOCK:   -5.35 KCAL/MOL
REMARK 922        TOTAL FREE ENERGY PREDICTED BY IDOCK:   -5.75 KCAL/MOL
REMARK 923 INTER-LIGAND FREE ENERGY PREDICTED BY IDOCK:   -5.69 KCAL/MOL
REMARK 924 INTRA-LIGAND FREE ENERGY PREDICTED BY IDOCK:   -0.06 KCAL/MOL
REMARK 927      BINDING AFFINITY PREDICTED BY RF-SCORE:    0.00 PKD
ROOT
HETATM    1  C   UNL     1     -10.711   9.629  68.748  1.00  0.00    -0.206 C  
HETATM    2  C   UNL     1      -9.601   8.667  69.215  1.00  0.00    -0.166 C  
HETATM    3  C   UNL     1      -8.801   9.532  70.208  1.00  0.00    -0.243 C  
HETATM    4  O   UNL     1      -8.240   8.756  71.223  1.00  0.00    -0.146 OA 
HETATM    5  C   UNL     1      -7.958  10.259  69.244  1.00  0.00    -0.149 C  
HETATM    6  C   UNL     1      -8.813  10.783  68.311  1.00  0.00    -0.139 C  
HETATM    7  H   UNL     1      -7.747   9.289  71.835  1.00  0.00     0.000 HD 
HETATM    8  C   UNL     1     -10.397  11.218  68.509  1.00  0.00    -0.217 C  
HETATM    9  C   UNL     1      -9.626  12.587  68.348  1.00  0.00    -0.176 C  
HETATM   10  C   UNL     1     -10.439  13.622  67.617  1.00  0.00    -0.238 C  
HETATM   11  N   UNL     1     -10.860  14.551  68.639  1.00  0.00    -0.243 NA 
HETATM   12  C   UNL     1     -10.930  15.895  68.099  1.00  0.00    -0.335 C  
HETATM   13  C   UNL     1     -12.120  14.092  69.186  1.00  0.00    -0.337 C  
HETATM   14  C   UNL     1     -12.038  12.825  70.037  1.00  0.00    -0.355 A  
HETATM   15  C   UNL     1     -11.334  11.623  69.737  1.00  0.00    -0.276 A  
HETATM   16  C   UNL     1     -11.828  10.540  70.467  1.00  0.00    -0.347 A  
HETATM   17  C   UNL     1     -12.668  10.565  71.619  1.00  0.00    -0.445 A  
HETATM   18  O   UNL     1     -11.619   9.354  69.846  1.00  0.00    -0.103 OA 
HETATM   19  C   UNL     1     -12.979  12.858  71.131  1.00  0.00    -0.259 A  
HETATM   20  C   UNL     1     -13.259  11.771  71.949  1.00  0.00    -0.468 A  
ENDROOT
BRANCH  17  21
HETATM   21  O   UNL     1     -12.882   9.388  72.290  1.00  0.00    -0.392 OA 
HETATM   22  C   UNL     1     -14.116   8.704  72.055  1.00  0.00    -0.453 C  
ENDBRANCH  17  21
TORSDOF 1
ENDMDL
MODEL       36
REMARK 921   NORMALIZED FREE ENERGY PREDICTED BY IDOCK:   -5.33 KCAL/MOL
REMARK 922        TOTAL FREE ENERGY PREDICTED BY IDOCK:   -5.74 KCAL/MOL
REMARK 923 INTER-LIGAND FREE ENERGY PREDICTED BY IDOCK:   -5.64 KCAL/MOL
REMARK 924 INTRA-LIGAND FREE ENERGY PREDICTED BY IDOCK:   -0.10 KCAL/MOL
REMARK 927      BINDING AFFINITY PREDICTED BY RF-SCORE:    0.00 PKD
ROOT
HETATM    1  C   UNL     1     -10.302   8.146  67.202  1.00  0.00    -0.321 C  
HETATM    2  C   UNL     1      -9.008   7.426  67.632  1.00  0.00    -0.126 C  
HETATM    3  C   UNL     1      -8.000   8.585  67.746  1.00  0.00    -0.107 C  
HETATM    4  O   UNL     1      -7.041   8.331  68.728  1.00  0.00    -0.068 OA 
HETATM    5  C   UNL     1      -7.629   8.701  66.325  1.00  0.00    -0.094 C  
HETATM    6  C   UNL     1      -8.806   8.796  65.632  1.00  0.00    -0.239 C  
HETATM    7  H   UNL     1      -6.419   9.045  68.798  1.00  0.00     0.000 HD 
HETATM    8  C   UNL     1     -10.253   9.405  66.156  1.00  0.00    -0.264 C  
HETATM    9  C   UNL     1      -9.729  10.468  65.113  1.00  0.00    -0.341 C  
HETATM   10  C   UNL     1     -10.847  11.104  64.329  1.00  0.00    -0.284 C  
HETATM   11  N   UNL     1     -10.969  12.435  64.875  1.00  0.00    -0.292 NA 
HETATM   12  C   UNL     1     -11.359  13.370  63.836  1.00  0.00    -0.260 C  
HETATM   13  C   UNL     1     -11.902  12.394  65.982  1.00  0.00    -0.395 C  
HETATM   14  C   UNL     1     -11.398  11.672  67.231  1.00  0.00    -0.372 A  
HETATM   15  C   UNL     1     -10.730  10.416  67.297  1.00  0.00    -0.331 A  
HETATM   16  C   UNL     1     -10.823   9.848  68.569  1.00  0.00    -0.217 A  
HETATM   17  C   UNL     1     -11.199  10.480  69.790  1.00  0.00    -0.298 A  
HETATM   18  O   UNL     1     -10.730   8.496  68.545  1.00  0.00    -0.151 OA 
HETATM   19  C   UNL     1     -11.889  12.294  68.438  1.00  0.00    -0.358 A  
HETATM   20  C   UNL     1     -11.751  11.746  69.707  1.00  0.00    -0.408 A  
ENDROOT
BRANCH  17  21
HETATM   21  O   UNL     1     -11.043   9.779  70.958  1.00  0.00    -0.325 OA 
HETATM   22  C   UNL     1     -12.218   9.493  71.724  1.00  0.00    -0.387 C  
ENDBRANCH  17  21
TORSDOF 1
ENDMDL
MODEL       37
REMARK 921   NORMALIZED FREE ENERGY PREDICTED BY IDOCK:   -5.33 KCAL/MOL
REMARK 922        TOTAL FREE ENERGY PREDICTED BY IDOCK:   -5.73 KCAL/MOL
REMARK 923 INTER-LIGAND FREE ENERGY PREDICTED BY IDOCK:   -5.76 KCAL/MOL
REMARK 924 INTRA-LIGAND FREE ENERGY PREDICTED BY IDOCK:    0.03 KCAL/MOL
REMARK 927      BINDING AFFINITY PREDICTED BY RF-SCORE:    0.00 PKD
ROOT
HETATM    1  C   UNL     1      -9.163  11.279  68.327  1.00  0.00    -0.176 C  
HETATM    2  C   UNL     1      -9.640  10.329  69.442  1.00  0.00    -0.237 C  
HETATM    3  C   UNL     1     -11.002   9.843  68.911  1.00  0.00    -0.179 C  
HETATM    4  O   UNL     1     -11.282   8.544  69.339  1.00  0.00    -0.444 OA 
HETATM    5  C   UNL     1     -11.829  10.985  69.338  1.00  0.00    -0.407 C  
HETATM    6  C   UNL     1     -11.198  12.107  68.871  1.00  0.00    -0.320 C  
HETATM    7  H   UNL     1     -12.122   8.245  69.011  1.00  0.00     0.000 HD 
HETATM    8  C   UNL     1     -10.223  12.251  67.543  1.00  0.00    -0.212 C  
HETATM    9  C   UNL     1     -11.546  13.017  67.149  1.00  0.00    -0.411 C  
HETATM   10  C   UNL     1     -11.279  14.213  66.275  1.00  0.00    -0.329 C  
HETATM   11  N   UNL     1     -11.710  13.811  64.956  1.00  0.00    -0.331 NA 
HETATM   12  C   UNL     1     -12.254  14.948  64.237  1.00  0.00    -0.344 C  
HETATM   13  C   UNL     1     -10.592  13.190  64.277  1.00  0.00    -0.412 C  
HETATM   14  C   UNL     1     -10.179  11.822  64.819  1.00  0.00    -0.324 A  
HETATM   15  C   UNL     1     -10.008  11.445  66.181  1.00  0.00    -0.265 A  
HETATM   16  C   UNL     1      -9.205  10.308  66.304  1.00  0.00    -0.159 A  
HETATM   17  C   UNL     1      -8.840   9.375  65.291  1.00  0.00    -0.190 A  
HETATM   18  O   UNL     1      -8.566  10.248  67.498  1.00  0.00    -0.119 OA 
HETATM   19  C   UNL     1      -9.723  10.949  63.763  1.00  0.00    -0.354 A  
HETATM   20  C   UNL     1      -9.112   9.721  63.979  1.00  0.00    -0.280 A  
ENDROOT
BRANCH  17  21
HETATM   21  O   UNL     1      -8.195   8.226  65.670  1.00  0.00    -0.118 OA 
HETATM   22  C   UNL     1      -8.921   7.288  66.470  1.00  0.00    -0.152 C  
ENDBRANCH  17  21
TORSDOF 1
ENDMDL
MODEL       38
REMARK 921   NORMALIZED FREE ENERGY PREDICTED BY IDOCK:   -5.31 KCAL/MOL
REMARK 922        TOTAL FREE ENERGY PREDICTED BY IDOCK:   -5.72 KCAL/MOL
REMARK 923 INTER-LIGAND FREE ENERGY PREDICTED BY IDOCK:   -5.63 KCAL/MOL
REMARK 924 INTRA-LIGAND FREE ENERGY PREDICTED BY IDOCK:   -0.09 KCAL/MOL
REMARK 927      BINDING AFFINITY PREDICTED BY RF-SCORE:    0.00 PKD
ROOT
HETATM    1  C   UNL     1     -10.319  14.353  64.515  1.00  0.00     0.030 C  
HETATM    2  C   UNL     1     -11.815  14.226  64.164  1.00  0.00    -0.338 C  
HETATM    3  C   UNL     1     -12.471  14.046  65.547  1.00  0.00    -0.509 C  
HETATM    4  O   UNL     1     -13.757  14.588  65.575  1.00  0.00    -0.367 OA 
HETATM    5  C   UNL     1     -12.245  12.601  65.716  1.00  0.00    -0.427 C  
HETATM    6  C   UNL     1     -10.911  12.395  65.486  1.00  0.00    -0.328 C  
HETATM    7  H   UNL     1     -14.161  14.477  66.427  1.00  0.00     0.000 HD 
HETATM    8  C   UNL     1      -9.661  13.455  65.715  1.00  0.00    -0.068 C  
HETATM    9  C   UNL     1      -9.476  12.371  66.848  1.00  0.00    -0.219 C  
HETATM   10  C   UNL     1      -8.026  12.100  67.153  1.00  0.00    -0.170 C  
HETATM   11  N   UNL     1      -7.788  12.746  68.422  1.00  0.00    -0.137 NA 
HETATM   12  C   UNL     1      -6.820  11.993  69.197  1.00  0.00    -0.090 C  
HETATM   13  C   UNL     1      -7.377  14.112  68.172  1.00  0.00    -0.130 C  
HETATM   14  C   UNL     1      -8.472  15.035  67.638  1.00  0.00    -0.170 A  
HETATM   15  C   UNL     1      -9.407  14.760  66.599  1.00  0.00    -0.291 A  
HETATM   16  C   UNL     1      -9.938  15.934  66.061  1.00  0.00    -0.334 A  
HETATM   17  C   UNL     1      -9.899  17.250  66.607  1.00  0.00    -0.295 A  
HETATM   18  O   UNL     1     -10.349  15.780  64.778  1.00  0.00    -0.461 OA 
HETATM   19  C   UNL     1      -8.326  16.379  68.144  1.00  0.00    -0.186 A  
HETATM   20  C   UNL     1      -9.058  17.466  67.684  1.00  0.00    -0.234 A  
ENDROOT
BRANCH  17  21
HETATM   21  O   UNL     1     -10.647  18.226  66.001  1.00  0.00    -0.419 OA 
HETATM   22  C   UNL     1     -10.520  19.564  66.493  1.00  0.00    -0.493 C  
ENDBRANCH  17  21
TORSDOF 1
ENDMDL
MODEL       39
REMARK 921   NORMALIZED FREE ENERGY PREDICTED BY IDOCK:   -5.31 KCAL/MOL
REMARK 922        TOTAL FREE ENERGY PREDICTED BY IDOCK:   -5.71 KCAL/MOL
REMARK 923 INTER-LIGAND FREE ENERGY PREDICTED BY IDOCK:   -5.63 KCAL/MOL
REMARK 924 INTRA-LIGAND FREE ENERGY PREDICTED BY IDOCK:   -0.08 KCAL/MOL
REMARK 927      BINDING AFFINITY PREDICTED BY RF-SCORE:    0.00 PKD
ROOT
HETATM    1  C   UNL     1      -8.859   9.522  68.798  1.00  0.00    -0.132 C  
HETATM    2  C   UNL     1      -8.538   8.990  67.387  1.00  0.00    -0.115 C  
HETATM    3  C   UNL     1      -9.933   8.886  66.741  1.00  0.00    -0.267 C  
HETATM    4  O   UNL     1      -9.875   9.104  65.364  1.00  0.00    -0.453 OA 
HETATM    5  C   UNL     1     -10.339   7.582  67.293  1.00  0.00    -0.366 C  
HETATM    6  C   UNL     1     -10.143   7.664  68.646  1.00  0.00    -0.201 C  
HETATM    7  H   UNL     1     -10.735   9.040  64.966  1.00  0.00     0.000 HD 
HETATM    8  C   UNL     1     -10.190   9.012  69.604  1.00  0.00    -0.211 C  
HETATM    9  C   UNL     1     -11.487   8.200  69.995  1.00  0.00     0.082 C  
HETATM   10  C   UNL     1     -11.829   8.333  71.456  1.00  0.00    -0.293 C  
HETATM   11  N   UNL     1     -12.973   9.213  71.489  1.00  0.00    -0.337 NA 
HETATM   12  C   UNL     1     -13.858   8.845  72.578  1.00  0.00    -0.407 C  
HETATM   13  C   UNL     1     -12.499  10.579  71.579  1.00  0.00    -0.387 C  
HETATM   14  C   UNL     1     -11.822  11.117  70.318  1.00  0.00    -0.455 A  
HETATM   15  C   UNL     1     -10.845  10.465  69.513  1.00  0.00    -0.295 A  
HETATM   16  C   UNL     1     -10.121  11.377  68.742  1.00  0.00    -0.188 A  
HETATM   17  C   UNL     1     -10.442  12.735  68.452  1.00  0.00    -0.243 A  
HETATM   18  O   UNL     1      -8.883  10.925  68.425  1.00  0.00    -0.134 OA 
HETATM   19  C   UNL     1     -12.098  12.521  70.127  1.00  0.00    -0.368 A  
HETATM   20  C   UNL     1     -11.467  13.315  69.178  1.00  0.00    -0.357 A  
ENDROOT
BRANCH  17  21
HETATM   21  O   UNL     1      -9.685  13.396  67.519  1.00  0.00    -0.215 OA 
HETATM   22  C   UNL     1     -10.015  13.206  66.139  1.00  0.00    -0.291 C  
ENDBRANCH  17  21
TORSDOF 1
ENDMDL
MODEL       40
REMARK 921   NORMALIZED FREE ENERGY PREDICTED BY IDOCK:   -5.28 KCAL/MOL
REMARK 922        TOTAL FREE ENERGY PREDICTED BY IDOCK:   -5.69 KCAL/MOL
REMARK 923 INTER-LIGAND FREE ENERGY PREDICTED BY IDOCK:   -5.59 KCAL/MOL
REMARK 924 INTRA-LIGAND FREE ENERGY PREDICTED BY IDOCK:   -0.10 KCAL/MOL
REMARK 927      BINDING AFFINITY PREDICTED BY RF-SCORE:    0.00 PKD
ROOT
HETATM    1  C   UNL     1      -8.764   9.496  69.090  1.00  0.00    -0.146 C  
HETATM    2  C   UNL     1      -8.656   9.534  67.553  1.00  0.00    -0.126 C  
HETATM    3  C   UNL     1      -9.912   8.759  67.108  1.00  0.00    -0.230 C  
HETATM    4  O   UNL     1     -10.393   9.230  65.885  1.00  0.00    -0.272 OA 
HETATM    5  C   UNL     1      -9.392   7.388  67.250  1.00  0.00    -0.159 C  
HETATM    6  C   UNL     1      -8.870   7.309  68.513  1.00  0.00    -0.129 C  
HETATM    7  H   UNL     1     -11.168   8.752  65.611  1.00  0.00     0.000 HD 
HETATM    8  C   UNL     1      -9.320   8.161  69.859  1.00  0.00    -0.159 C  
HETATM    9  C   UNL     1      -9.816   6.688  70.137  1.00  0.00    -0.180 C  
HETATM   10  C   UNL     1      -9.718   6.313  71.592  1.00  0.00    -0.161 C  
HETATM   11  N   UNL     1     -11.080   6.332  72.071  1.00  0.00    -0.254 NA 
HETATM   12  C   UNL     1     -11.269   5.316  73.089  1.00  0.00    -0.318 C  
HETATM   13  C   UNL     1     -11.384   7.669  72.538  1.00  0.00    -0.355 C  
HETATM   14  C   UNL     1     -11.503   8.730  71.445  1.00  0.00    -0.366 A  
HETATM   15  C   UNL     1     -10.626   8.941  70.343  1.00  0.00    -0.252 A  
HETATM   16  C   UNL     1     -10.754  10.231  69.823  1.00  0.00    -0.285 A  
HETATM   17  C   UNL     1     -11.803  11.169  70.043  1.00  0.00    -0.361 A  
HETATM   18  O   UNL     1      -9.624  10.659  69.207  1.00  0.00    -0.202 OA 
HETATM   19  C   UNL     1     -12.511   9.712  71.766  1.00  0.00    -0.487 A  
HETATM   20  C   UNL     1     -12.705  10.889  71.054  1.00  0.00    -0.505 A  
ENDROOT
BRANCH  17  21
HETATM   21  O   UNL     1     -11.822  12.311  69.284  1.00  0.00    -0.302 OA 
HETATM   22  C   UNL     1     -11.983  13.560  69.965  1.00  0.00    -0.340 C  
ENDBRANCH  17  21
TORSDOF 1
ENDMDL
MODEL       41
REMARK 921   NORMALIZED FREE ENERGY PREDICTED BY IDOCK:   -5.27 KCAL/MOL
REMARK 922        TOTAL FREE ENERGY PREDICTED BY IDOCK:   -5.67 KCAL/MOL
REMARK 923 INTER-LIGAND FREE ENERGY PREDICTED BY IDOCK:   -5.58 KCAL/MOL
REMARK 924 INTRA-LIGAND FREE ENERGY PREDICTED BY IDOCK:   -0.09 KCAL/MOL
REMARK 927      BINDING AFFINITY PREDICTED BY RF-SCORE:    0.00 PKD
ROOT
HETATM    1  C   UNL     1     -10.424  13.848  64.331  1.00  0.00    -0.163 C  
HETATM    2  C   UNL     1     -11.857  14.415  64.285  1.00  0.00    -0.385 C  
HETATM    3  C   UNL     1     -12.646  13.407  65.142  1.00  0.00    -0.440 C  
HETATM    4  O   UNL     1     -13.711  14.022  65.800  1.00  0.00    -0.414 OA 
HETATM    5  C   UNL     1     -12.872  12.372  64.119  1.00  0.00    -0.364 C  
HETATM    6  C   UNL     1     -11.645  12.097  63.578  1.00  0.00    -0.562 C  
HETATM    7  H   UNL     1     -14.198  13.401  66.329  1.00  0.00     0.000 HD 
HETATM    8  C   UNL     1     -10.160  12.232  64.294  1.00  0.00    -0.311 C  
HETATM    9  C   UNL     1     -10.397  10.677  64.161  1.00  0.00    -0.293 C  
HETATM   10  C   UNL     1      -9.123   9.923  63.887  1.00  0.00    -0.259 C  
HETATM   11  N   UNL     1      -8.807   9.265  65.133  1.00  0.00    -0.188 NA 
HETATM   12  C   UNL     1      -8.172   7.986  64.879  1.00  0.00    -0.134 C  
HETATM   13  C   UNL     1      -7.991  10.157  65.929  1.00  0.00    -0.134 C  
HETATM   14  C   UNL     1      -8.717  11.382  66.485  1.00  0.00    -0.181 A  
HETATM   15  C   UNL     1      -9.603  12.254  65.791  1.00  0.00    -0.185 A  
HETATM   16  C   UNL     1      -9.718  13.490  66.431  1.00  0.00    -0.289 A  
HETATM   17  C   UNL     1      -9.334  13.831  67.761  1.00  0.00    -0.213 A  
HETATM   18  O   UNL     1     -10.051  14.490  65.579  1.00  0.00    -0.332 OA 
HETATM   19  C   UNL     1      -8.220  11.745  67.792  1.00  0.00    -0.144 A  
HETATM   20  C   UNL     1      -8.558  12.919  68.453  1.00  0.00    -0.120 A  
ENDROOT
BRANCH  17  21
HETATM   21  O   UNL     1      -9.708  15.057  68.249  1.00  0.00    -0.206 OA 
HETATM   22  C   UNL     1      -8.924  15.620  69.305  1.00  0.00    -0.267 C  
ENDBRANCH  17  21
TORSDOF 1
ENDMDL
MODEL       42
REMARK 921   NORMALIZED FREE ENERGY PREDICTED BY IDOCK:   -5.24 KCAL/MOL
REMARK 922        TOTAL FREE ENERGY PREDICTED BY IDOCK:   -5.64 KCAL/MOL
REMARK 923 INTER-LIGAND FREE ENERGY PREDICTED BY IDOCK:   -5.54 KCAL/MOL
REMARK 924 INTRA-LIGAND FREE ENERGY PREDICTED BY IDOCK:   -0.10 KCAL/MOL
REMARK 927      BINDING AFFINITY PREDICTED BY RF-SCORE:    0.00 PKD
ROOT
HETATM    1  C   UNL     1     -11.452  12.154  65.738  1.00  0.00    -0.361 C  
HETATM    2  C   UNL     1     -11.058  13.547  65.209  1.00  0.00    -0.307 C  
HETATM    3  C   UNL     1     -10.023  14.021  66.247  1.00  0.00    -0.307 C  
HETATM    4  O   UNL     1      -9.065  14.854  65.667  1.00  0.00    -0.428 OA 
HETATM    5  C   UNL     1     -10.950  14.520  67.277  1.00  0.00    -0.307 C  
HETATM    6  C   UNL     1     -11.838  13.505  67.512  1.00  0.00    -0.406 C  
HETATM    7  H   UNL     1      -8.427  15.147  66.307  1.00  0.00     0.000 HD 
HETATM    8  C   UNL     1     -11.595  11.877  67.345  1.00  0.00    -0.367 C  
HETATM    9  C   UNL     1     -11.680  12.108  68.905  1.00  0.00    -0.381 C  
HETATM   10  C   UNL     1     -12.336  10.957  69.621  1.00  0.00    -0.221 C  
HETATM   11  N   UNL     1     -11.253  10.269  70.283  1.00  0.00    -0.303 NA 
HETATM   12  C   UNL     1     -11.708   9.710  71.542  1.00  0.00    -0.400 C  
HETATM   13  C   UNL     1     -10.721   9.272  69.378  1.00  0.00    -0.208 C  
HETATM   14  C   UNL     1      -9.952   9.825  68.179  1.00  0.00    -0.179 A  
HETATM   15  C   UNL     1     -10.334  10.898  67.324  1.00  0.00    -0.255 A  
HETATM   16  C   UNL     1      -9.666  10.844  66.099  1.00  0.00    -0.210 A  
HETATM   17  C   UNL     1      -8.506  10.088  65.761  1.00  0.00    -0.138 A  
HETATM   18  O   UNL     1     -10.362  11.439  65.099  1.00  0.00    -0.264 OA 
HETATM   19  C   UNL     1      -8.847   8.970  67.816  1.00  0.00    -0.125 A  
HETATM   20  C   UNL     1      -8.094   9.120  66.659  1.00  0.00    -0.111 A  
ENDROOT
BRANCH  17  21
HETATM   21  O   UNL     1      -7.906  10.326  64.551  1.00  0.00    -0.148 OA 
HETATM   22  C   UNL     1      -7.739   9.218  63.662  1.00  0.00    -0.116 C  
ENDBRANCH  17  21
TORSDOF 1
ENDMDL
MODEL       43
REMARK 921   NORMALIZED FREE ENERGY PREDICTED BY IDOCK:   -5.21 KCAL/MOL
REMARK 922        TOTAL FREE ENERGY PREDICTED BY IDOCK:   -5.61 KCAL/MOL
REMARK 923 INTER-LIGAND FREE ENERGY PREDICTED BY IDOCK:   -5.53 KCAL/MOL
REMARK 924 INTRA-LIGAND FREE ENERGY PREDICTED BY IDOCK:   -0.08 KCAL/MOL
REMARK 927      BINDING AFFINITY PREDICTED BY RF-SCORE:    0.00 PKD
ROOT
HETATM    1  C   UNL     1      -9.424  14.336  68.383  1.00  0.00    -0.213 C  
HETATM    2  C   UNL     1      -7.944  14.282  68.812  1.00  0.00    -0.119 C  
HETATM    3  C   UNL     1      -7.206  14.172  67.463  1.00  0.00    -0.169 C  
HETATM    4  O   UNL     1      -5.953  14.783  67.517  1.00  0.00    -0.328 OA 
HETATM    5  C   UNL     1      -7.343  12.721  67.251  1.00  0.00    -0.095 C  
HETATM    6  C   UNL     1      -8.673  12.438  67.403  1.00  0.00    -0.183 C  
HETATM    7  H   UNL     1      -5.498  14.716  66.686  1.00  0.00     0.000 HD 
HETATM    8  C   UNL     1      -9.967  13.434  67.129  1.00  0.00    -0.242 C  
HETATM    9  C   UNL     1     -10.030  12.370  65.964  1.00  0.00    -0.270 C  
HETATM   10  C   UNL     1     -11.444  12.027  65.575  1.00  0.00    -0.313 C  
HETATM   11  N   UNL     1     -11.650  12.691  64.309  1.00  0.00    -0.348 NA 
HETATM   12  C   UNL     1     -12.531  11.905  63.467  1.00  0.00    -0.492 C  
HETATM   13  C   UNL     1     -12.149  14.026  64.565  1.00  0.00    -0.459 C  
HETATM   14  C   UNL     1     -11.137  14.993  65.178  1.00  0.00    -0.408 A  
HETATM   15  C   UNL     1     -10.245  14.744  66.260  1.00  0.00    -0.309 A  
HETATM   16  C   UNL     1      -9.809  15.932  66.852  1.00  0.00    -0.243 A  
HETATM   17  C   UNL     1      -9.892  17.257  66.333  1.00  0.00    -0.299 A  
HETATM   18  O   UNL     1      -9.459  15.769  68.152  1.00  0.00    -0.197 OA 
HETATM   19  C   UNL     1     -11.329  16.340  64.694  1.00  0.00    -0.237 A  
HETATM   20  C   UNL     1     -10.685  17.453  65.216  1.00  0.00     0.029 A  
ENDROOT
BRANCH  17  21
HETATM   21  O   UNL     1      -9.233  18.257  67.000  1.00  0.00    -0.262 OA 
HETATM   22  C   UNL     1      -9.199  19.552  66.392  1.00  0.00    -0.371 C  
ENDBRANCH  17  21
TORSDOF 1
ENDMDL
MODEL       44
REMARK 921   NORMALIZED FREE ENERGY PREDICTED BY IDOCK:   -5.18 KCAL/MOL
REMARK 922        TOTAL FREE ENERGY PREDICTED BY IDOCK:   -5.57 KCAL/MOL
REMARK 923 INTER-LIGAND FREE ENERGY PREDICTED BY IDOCK:   -5.54 KCAL/MOL
REMARK 924 INTRA-LIGAND FREE ENERGY PREDICTED BY IDOCK:   -0.03 KCAL/MOL
REMARK 927      BINDING AFFINITY PREDICTED BY RF-SCORE:    0.00 PKD
ROOT
HETATM    1  C   UNL     1      -8.649  10.292  67.150  1.00  0.00    -0.126 C  
HETATM    2  C   UNL     1      -8.938   8.802  67.423  1.00  0.00    -0.143 C  
HETATM    3  C   UNL     1     -10.478   8.753  67.421  1.00  0.00    -0.279 C  
HETATM    4  O   UNL     1     -10.947   7.520  66.963  1.00  0.00    -0.495 OA 
HETATM    5  C   UNL     1     -10.719   9.198  68.804  1.00  0.00    -0.162 C  
HETATM    6  C   UNL     1     -10.006  10.356  68.960  1.00  0.00    -0.224 C  
HETATM    7  H   UNL     1     -11.897   7.490  66.961  1.00  0.00     0.000 HD 
HETATM    8  C   UNL     1      -9.590  11.462  67.802  1.00  0.00    -0.177 C  
HETATM    9  C   UNL     1     -10.680  12.195  68.677  1.00  0.00    -0.261 C  
HETATM   10  C   UNL     1     -10.416  13.672  68.806  1.00  0.00    -0.202 C  
HETATM   11  N   UNL     1     -11.398  14.299  67.952  1.00  0.00    -0.282 NA 
HETATM   12  C   UNL     1     -11.811  15.572  68.511  1.00  0.00    -0.258 C  
HETATM   13  C   UNL     1     -10.840  14.416  66.621  1.00  0.00    -0.304 C  
HETATM   14  C   UNL     1     -10.675  13.098  65.865  1.00  0.00    -0.287 A  
HETATM   15  C   UNL     1     -10.134  11.877  66.359  1.00  0.00    -0.241 A  
HETATM   16  C   UNL     1      -9.711  11.043  65.322  1.00  0.00    -0.239 A  
HETATM   17  C   UNL     1     -10.032  11.131  63.936  1.00  0.00    -0.329 A  
HETATM   18  O   UNL     1      -8.726  10.194  65.703  1.00  0.00    -0.147 OA 
HETATM   19  C   UNL     1     -10.913  13.264  64.451  1.00  0.00    -0.413 A  
HETATM   20  C   UNL     1     -10.653  12.288  63.498  1.00  0.00    -0.488 A  
ENDROOT
BRANCH  17  21
HETATM   21  O   UNL     1      -9.657  10.097  63.117  1.00  0.00    -0.300 OA 
HETATM   22  C   UNL     1      -8.443  10.242  62.374  1.00  0.00    -0.184 C  
ENDBRANCH  17  21
TORSDOF 1
ENDMDL
MODEL       45
REMARK 921   NORMALIZED FREE ENERGY PREDICTED BY IDOCK:   -5.17 KCAL/MOL
REMARK 922        TOTAL FREE ENERGY PREDICTED BY IDOCK:   -5.57 KCAL/MOL
REMARK 923 INTER-LIGAND FREE ENERGY PREDICTED BY IDOCK:   -5.48 KCAL/MOL
REMARK 924 INTRA-LIGAND FREE ENERGY PREDICTED BY IDOCK:   -0.09 KCAL/MOL
REMARK 927      BINDING AFFINITY PREDICTED BY RF-SCORE:    0.00 PKD
ROOT
HETATM    1  C   UNL     1     -12.105   6.606  71.088  1.00  0.00    -0.335 C  
HETATM    2  C   UNL     1     -12.010   6.224  72.579  1.00  0.00    -0.146 C  
HETATM    3  C   UNL     1     -10.628   6.775  72.980  1.00  0.00    -0.267 C  
HETATM    4  O   UNL     1     -10.606   7.171  74.318  1.00  0.00    -0.545 OA 
HETATM    5  C   UNL     1      -9.794   5.660  72.497  1.00  0.00    -0.185 C  
HETATM    6  C   UNL     1     -10.166   5.442  71.198  1.00  0.00    -0.287 C  
HETATM    7  H   UNL     1      -9.753   7.510  74.565  1.00  0.00     0.000 HD 
HETATM    8  C   UNL     1     -10.789   6.530  70.118  1.00  0.00    -0.336 C  
HETATM    9  C   UNL     1      -9.331   6.235  69.589  1.00  0.00    -0.150 C  
HETATM   10  C   UNL     1      -9.250   6.254  68.085  1.00  0.00    -0.110 C  
HETATM   11  N   UNL     1      -8.578   7.492  67.767  1.00  0.00    -0.121 NA 
HETATM   12  C   UNL     1      -7.756   7.328  66.583  1.00  0.00    -0.101 C  
HETATM   13  C   UNL     1      -9.575   8.533  67.627  1.00  0.00    -0.153 C  
HETATM   14  C   UNL     1     -10.257   8.960  68.927  1.00  0.00    -0.220 A  
HETATM   15  C   UNL     1     -10.778   8.118  69.950  1.00  0.00    -0.241 A  
HETATM   16  C   UNL     1     -11.714   8.788  70.741  1.00  0.00    -0.219 A  
HETATM   17  C   UNL     1     -11.944  10.191  70.836  1.00  0.00    -0.365 A  
HETATM   18  O   UNL     1     -12.612   7.948  71.311  1.00  0.00    -0.304 OA 
HETATM   19  C   UNL     1     -10.558  10.372  68.928  1.00  0.00    -0.241 A  
HETATM   20  C   UNL     1     -11.340  11.000  69.889  1.00  0.00    -0.364 A  
ENDROOT
BRANCH  17  21
HETATM   21  O   UNL     1     -12.787  10.646  71.817  1.00  0.00    -0.437 OA 
HETATM   22  C   UNL     1     -13.161  12.027  71.785  1.00  0.00    -0.355 C  
ENDBRANCH  17  21
TORSDOF 1
ENDMDL
MODEL       46
REMARK 921   NORMALIZED FREE ENERGY PREDICTED BY IDOCK:   -5.16 KCAL/MOL
REMARK 922        TOTAL FREE ENERGY PREDICTED BY IDOCK:   -5.56 KCAL/MOL
REMARK 923 INTER-LIGAND FREE ENERGY PREDICTED BY IDOCK:   -5.48 KCAL/MOL
REMARK 924 INTRA-LIGAND FREE ENERGY PREDICTED BY IDOCK:   -0.08 KCAL/MOL
REMARK 927      BINDING AFFINITY PREDICTED BY RF-SCORE:    0.00 PKD
ROOT
HETATM    1  C   UNL     1     -10.618  14.733  67.845  1.00  0.00    -0.248 C  
HETATM    2  C   UNL     1     -11.005  16.111  67.272  1.00  0.00    -0.175 C  
HETATM    3  C   UNL     1     -10.037  16.266  66.084  1.00  0.00    -0.344 C  
HETATM    4  O   UNL     1     -10.608  17.017  65.056  1.00  0.00    -0.703 OA 
HETATM    5  C   UNL     1      -8.854  16.747  66.819  1.00  0.00    -0.257 C  
HETATM    6  C   UNL     1      -8.653  15.857  67.839  1.00  0.00    -0.164 C  
HETATM    7  H   UNL     1     -10.011  17.113  64.323  1.00  0.00     0.000 HD 
HETATM    8  C   UNL     1      -9.053  14.253  67.888  1.00  0.00    -0.190 C  
HETATM    9  C   UNL     1      -7.477  14.266  67.793  1.00  0.00    -0.175 C  
HETATM   10  C   UNL     1      -6.845  13.139  68.566  1.00  0.00    -0.099 C  
HETATM   11  N   UNL     1      -6.401  12.204  67.558  1.00  0.00    -0.113 NA 
HETATM   12  C   UNL     1      -5.181  11.546  67.986  1.00  0.00    -0.044 C  
HETATM   13  C   UNL     1      -7.480  11.278  67.283  1.00  0.00    -0.126 C  
HETATM   14  C   UNL     1      -8.677  11.875  66.543  1.00  0.00    -0.158 A  
HETATM   15  C   UNL     1      -9.339  13.105  66.815  1.00  0.00    -0.244 A  
HETATM   16  C   UNL     1     -10.629  13.127  66.278  1.00  0.00    -0.284 A  
HETATM   17  C   UNL     1     -11.187  12.259  65.295  1.00  0.00    -0.328 A  
HETATM   18  O   UNL     1     -11.460  13.959  66.951  1.00  0.00    -0.321 OA 
HETATM   19  C   UNL     1      -9.267  10.921  65.634  1.00  0.00    -0.227 A  
HETATM   20  C   UNL     1     -10.472  11.119  64.973  1.00  0.00    -0.357 A  
ENDROOT
BRANCH  17  21
HETATM   21  O   UNL     1     -12.416  12.574  64.775  1.00  0.00    -0.476 OA 
HETATM   22  C   UNL     1     -12.762  12.020  63.502  1.00  0.00    -0.443 C  
ENDBRANCH  17  21
TORSDOF 1
ENDMDL
MODEL       47
REMARK 921   NORMALIZED FREE ENERGY PREDICTED BY IDOCK:   -5.14 KCAL/MOL
REMARK 922        TOTAL FREE ENERGY PREDICTED BY IDOCK:   -5.53 KCAL/MOL
REMARK 923 INTER-LIGAND FREE ENERGY PREDICTED BY IDOCK:   -5.45 KCAL/MOL
REMARK 924 INTRA-LIGAND FREE ENERGY PREDICTED BY IDOCK:   -0.08 KCAL/MOL
REMARK 927      BINDING AFFINITY PREDICTED BY RF-SCORE:    0.00 PKD
ROOT
HETATM    1  C   UNL     1     -11.255  11.820  66.306  1.00  0.00    -0.312 C  
HETATM    2  C   UNL     1     -11.531  11.346  64.865  1.00  0.00    -0.028 C  
HETATM    3  C   UNL     1     -10.785  12.394  64.017  1.00  0.00    -0.404 C  
HETATM    4  O   UNL     1     -10.310  11.841  62.827  1.00  0.00    -0.604 OA 
HETATM    5  C   UNL     1     -11.810  13.452  64.015  1.00  0.00    -0.498 C  
HETATM    6  C   UNL     1     -12.151  13.653  65.325  1.00  0.00    -0.429 C  
HETATM    7  H   UNL     1      -9.849  12.487  62.304  1.00  0.00     0.000 HD 
HETATM    8  C   UNL     1     -11.218  13.415  66.671  1.00  0.00    -0.330 C  
HETATM    9  C   UNL     1     -11.355  14.984  66.555  1.00  0.00    -0.280 C  
HETATM   10  C   UNL     1     -11.416  15.658  67.900  1.00  0.00    -0.251 C  
HETATM   11  N   UNL     1     -10.123  16.281  68.060  1.00  0.00    -0.240 NA 
HETATM   12  C   UNL     1     -10.251  17.519  68.804  1.00  0.00    -0.373 C  
HETATM   13  C   UNL     1      -9.229  15.330  68.687  1.00  0.00    -0.201 C  
HETATM   14  C   UNL     1      -8.816  14.148  67.810  1.00  0.00    -0.185 A  
HETATM   15  C   UNL     1      -9.655  13.342  66.989  1.00  0.00    -0.244 A  
HETATM   16  C   UNL     1      -9.065  12.110  66.701  1.00  0.00    -0.206 A  
HETATM   17  C   UNL     1      -7.699  11.731  66.853  1.00  0.00    -0.129 A  
HETATM   18  O   UNL     1      -9.978  11.142  66.442  1.00  0.00    -0.204 OA 
HETATM   19  C   UNL     1      -7.456  13.741  68.076  1.00  0.00    -0.139 A  
HETATM   20  C   UNL     1      -6.878  12.584  67.569  1.00  0.00    -0.150 A  
ENDROOT
BRANCH  17  21
HETATM   21  O   UNL     1      -7.299  10.527  66.334  1.00  0.00    -0.115 OA 
HETATM   22  C   UNL     1      -6.087  10.500  65.574  1.00  0.00    -0.127 C  
ENDBRANCH  17  21
TORSDOF 1
ENDMDL
MODEL       48
REMARK 921   NORMALIZED FREE ENERGY PREDICTED BY IDOCK:   -5.12 KCAL/MOL
REMARK 922        TOTAL FREE ENERGY PREDICTED BY IDOCK:   -5.51 KCAL/MOL
REMARK 923 INTER-LIGAND FREE ENERGY PREDICTED BY IDOCK:   -5.42 KCAL/MOL
REMARK 924 INTRA-LIGAND FREE ENERGY PREDICTED BY IDOCK:   -0.10 KCAL/MOL
REMARK 927      BINDING AFFINITY PREDICTED BY RF-SCORE:    0.00 PKD
ROOT
HETATM    1  C   UNL     1     -10.520   7.602  67.284  1.00  0.00    -0.326 C  
HETATM    2  C   UNL     1      -9.229   6.848  66.908  1.00  0.00    -0.167 C  
HETATM    3  C   UNL     1      -8.127   7.765  67.472  1.00  0.00    -0.124 C  
HETATM    4  O   UNL     1      -7.009   7.031  67.872  1.00  0.00    -0.077 OA 
HETATM    5  C   UNL     1      -8.051   8.732  66.363  1.00  0.00    -0.103 C  
HETATM    6  C   UNL     1      -9.334   9.153  66.137  1.00  0.00    -0.288 C  
HETATM    7  H   UNL     1      -6.330   7.596  68.220  1.00  0.00     0.000 HD 
HETATM    8  C   UNL     1     -10.585   9.237  67.217  1.00  0.00    -0.303 C  
HETATM    9  C   UNL     1     -10.204  10.743  66.932  1.00  0.00    -0.274 C  
HETATM   10  C   UNL     1     -11.404  11.653  66.947  1.00  0.00    -0.295 C  
HETATM   11  N   UNL     1     -11.300  12.380  68.190  1.00  0.00    -0.267 NA 
HETATM   12  C   UNL     1     -11.819  13.726  68.030  1.00  0.00    -0.373 C  
HETATM   13  C   UNL     1     -11.982  11.627  69.222  1.00  0.00    -0.317 C  
HETATM   14  C   UNL     1     -11.291  10.332  69.648  1.00  0.00    -0.315 A  
HETATM   15  C   UNL     1     -10.730   9.331  68.805  1.00  0.00    -0.184 A  
HETATM   16  C   UNL     1     -10.604   8.109  69.469  1.00  0.00    -0.213 A  
HETATM   17  C   UNL     1     -10.665   7.859  70.870  1.00  0.00    -0.221 A  
HETATM   18  O   UNL     1     -10.630   7.051  68.622  1.00  0.00    -0.206 OA 
HETATM   19  C   UNL     1     -11.469  10.075  71.057  1.00  0.00    -0.463 A  
HETATM   20  C   UNL     1     -11.116   8.885  71.681  1.00  0.00    -0.420 A  
ENDROOT
BRANCH  17  21
HETATM   21  O   UNL     1     -10.329   6.608  71.321  1.00  0.00    -0.203 OA 
HETATM   22  C   UNL     1     -11.157   6.019  72.328  1.00  0.00    -0.278 C  
ENDBRANCH  17  21
TORSDOF 1
ENDMDL
MODEL       49
REMARK 921   NORMALIZED FREE ENERGY PREDICTED BY IDOCK:   -5.08 KCAL/MOL
REMARK 922        TOTAL FREE ENERGY PREDICTED BY IDOCK:   -5.47 KCAL/MOL
REMARK 923 INTER-LIGAND FREE ENERGY PREDICTED BY IDOCK:   -5.38 KCAL/MOL
REMARK 924 INTRA-LIGAND FREE ENERGY PREDICTED BY IDOCK:   -0.09 KCAL/MOL
REMARK 927      BINDING AFFINITY PREDICTED BY RF-SCORE:    0.00 PKD
ROOT
HETATM    1  C   UNL     1     -10.692  10.090  66.934  1.00  0.00    -0.140 C  
HETATM    2  C   UNL     1      -9.339   9.906  66.217  1.00  0.00    -0.224 C  
HETATM    3  C   UNL     1      -8.335  10.467  67.243  1.00  0.00    -0.122 C  
HETATM    4  O   UNL     1      -7.104   9.816  67.158  1.00  0.00    -0.084 OA 
HETATM    5  C   UNL     1      -8.468  11.899  66.926  1.00  0.00    -0.174 C  
HETATM    6  C   UNL     1      -9.808  12.174  66.961  1.00  0.00    -0.212 C  
HETATM    7  H   UNL     1      -6.485  10.161  67.791  1.00  0.00     0.000 HD 
HETATM    8  C   UNL     1     -10.983  11.417  67.848  1.00  0.00    -0.295 C  
HETATM    9  C   UNL     1     -10.830  12.837  68.521  1.00  0.00    -0.279 C  
HETATM   10  C   UNL     1     -12.138  13.370  69.042  1.00  0.00    -0.259 C  
HETATM   11  N   UNL     1     -12.049  13.230  70.477  1.00  0.00    -0.345 NA 
HETATM   12  C   UNL     1     -12.755  14.315  71.132  1.00  0.00    -0.360 C  
HETATM   13  C   UNL     1     -12.551  11.922  70.843  1.00  0.00    -0.266 C  
HETATM   14  C   UNL     1     -11.663  10.747  70.435  1.00  0.00    -0.445 A  
HETATM   15  C   UNL     1     -11.030  10.534  69.177  1.00  0.00    -0.286 A  
HETATM   16  C   UNL     1     -10.694   9.191  68.990  1.00  0.00    -0.153 A  
HETATM   17  C   UNL     1     -10.624   8.157  69.968  1.00  0.00    -0.239 A  
HETATM   18  O   UNL     1     -10.633   8.846  67.680  1.00  0.00    -0.258 OA 
HETATM   19  C   UNL     1     -11.707   9.685  71.412  1.00  0.00    -0.478 A  
HETATM   20  C   UNL     1     -11.155   8.426  71.217  1.00  0.00    -0.307 A  
ENDROOT
BRANCH  17  21
HETATM   21  O   UNL     1     -10.092   6.949  69.597  1.00  0.00    -0.178 OA 
HETATM   22  C   UNL     1     -10.435   5.801  70.380  1.00  0.00    -0.273 C  
ENDBRANCH  17  21
TORSDOF 1
ENDMDL
MODEL       50
REMARK 921   NORMALIZED FREE ENERGY PREDICTED BY IDOCK:   -5.07 KCAL/MOL
REMARK 922        TOTAL FREE ENERGY PREDICTED BY IDOCK:   -5.46 KCAL/MOL
REMARK 923 INTER-LIGAND FREE ENERGY PREDICTED BY IDOCK:   -5.37 KCAL/MOL
REMARK 924 INTRA-LIGAND FREE ENERGY PREDICTED BY IDOCK:   -0.10 KCAL/MOL
REMARK 927      BINDING AFFINITY PREDICTED BY RF-SCORE:    0.00 PKD
ROOT
HETATM    1  C   UNL     1     -10.680  13.730  66.455  1.00  0.00    -0.284 C  
HETATM    2  C   UNL     1     -12.067  14.048  67.049  1.00  0.00    -0.455 C  
HETATM    3  C   UNL     1     -11.718  14.589  68.449  1.00  0.00    -0.333 C  
HETATM    4  O   UNL     1     -12.649  15.537  68.875  1.00  0.00    -0.491 OA 
HETATM    5  C   UNL     1     -11.556  13.305  69.152  1.00  0.00    -0.370 C  
HETATM    6  C   UNL     1     -10.687  12.565  68.396  1.00  0.00    -0.259 C  
HETATM    7  H   UNL     1     -12.434  15.871  69.738  1.00  0.00     0.000 HD 
HETATM    8  C   UNL     1      -9.490  13.108  67.391  1.00  0.00    -0.214 C  
HETATM    9  C   UNL     1      -8.723  12.474  68.617  1.00  0.00     0.047 C  
HETATM   10  C   UNL     1      -7.433  11.812  68.209  1.00  0.00    -0.103 C  
HETATM   11  N   UNL     1      -6.397  12.709  68.662  1.00  0.00    -0.069 NA 
HETATM   12  C   UNL     1      -5.224  11.958  69.068  1.00  0.00    -0.050 C  
HETATM   13  C   UNL     1      -6.124  13.665  67.609  1.00  0.00    -0.097 C  
HETATM   14  C   UNL     1      -7.230  14.689  67.356  1.00  0.00    -0.182 A  
HETATM   15  C   UNL     1      -8.629  14.445  67.246  1.00  0.00    -0.230 A  
HETATM   16  C   UNL     1      -9.282  15.481  66.575  1.00  0.00    -0.293 A  
HETATM   17  C   UNL     1      -8.799  16.794  66.299  1.00  0.00    -0.299 A  
HETATM   18  O   UNL     1     -10.420  15.071  65.963  1.00  0.00    -0.288 OA 
HETATM   19  C   UNL     1      -6.688  15.974  66.983  1.00  0.00    -0.138 A  
HETATM   20  C   UNL     1      -7.453  17.034  66.514  1.00  0.00    -0.327 A  
ENDROOT
BRANCH  17  21
HETATM   21  O   UNL     1      -9.678  17.714  65.789  1.00  0.00    -0.537 OA 
HETATM   22  C   UNL     1     -10.415  18.516  66.717  1.00  0.00    -0.394 C  
ENDBRANCH  17  21
TORSDOF 1
ENDMDL
MODEL       51
REMARK 921   NORMALIZED FREE ENERGY PREDICTED BY IDOCK:   -5.04 KCAL/MOL
REMARK 922        TOTAL FREE ENERGY PREDICTED BY IDOCK:   -5.43 KCAL/MOL
REMARK 923 INTER-LIGAND FREE ENERGY PREDICTED BY IDOCK:   -5.34 KCAL/MOL
REMARK 924 INTRA-LIGAND FREE ENERGY PREDICTED BY IDOCK:   -0.09 KCAL/MOL
REMARK 927      BINDING AFFINITY PREDICTED BY RF-SCORE:    0.00 PKD
ROOT
HETATM    1  C   UNL     1     -11.485   7.922  70.561  1.00  0.00    -0.195 C  
HETATM    2  C   UNL     1     -10.806   7.540  71.891  1.00  0.00    -0.264 C  
HETATM    3  C   UNL     1      -9.549   8.432  71.896  1.00  0.00    -0.254 C  
HETATM    4  O   UNL     1      -9.179   8.783  73.195  1.00  0.00    -0.199 OA 
HETATM    5  C   UNL     1      -8.678   7.598  71.050  1.00  0.00    -0.137 C  
HETATM    6  C   UNL     1      -9.398   7.323  69.919  1.00  0.00    -0.154 C  
HETATM    7  H   UNL     1      -8.405   9.333  73.199  1.00  0.00     0.000 HD 
HETATM    8  C   UNL     1     -10.593   8.232  69.223  1.00  0.00    -0.191 C  
HETATM    9  C   UNL     1      -9.370   8.355  68.231  1.00  0.00    -0.139 C  
HETATM   10  C   UNL     1      -9.804   8.436  66.791  1.00  0.00    -0.259 C  
HETATM   11  N   UNL     1      -9.604   9.818  66.422  1.00  0.00    -0.185 NA 
HETATM   12  C   UNL     1      -9.211   9.914  65.029  1.00  0.00    -0.240 C  
HETATM   13  C   UNL     1     -10.813  10.554  66.724  1.00  0.00    -0.142 C  
HETATM   14  C   UNL     1     -11.104  10.746  68.213  1.00  0.00    -0.327 A  
HETATM   15  C   UNL     1     -11.030   9.767  69.244  1.00  0.00    -0.222 A  
HETATM   16  C   UNL     1     -11.781  10.138  70.362  1.00  0.00    -0.308 A  
HETATM   17  C   UNL     1     -12.303  11.424  70.684  1.00  0.00    -0.373 A  
HETATM   18  O   UNL     1     -12.201   9.071  71.085  1.00  0.00    -0.298 OA 
HETATM   19  C   UNL     1     -11.724  12.024  68.471  1.00  0.00    -0.387 A  
HETATM   20  C   UNL     1     -12.269  12.391  69.695  1.00  0.00    -0.171 A  
ENDROOT
BRANCH  17  21
HETATM   21  O   UNL     1     -12.854  11.607  71.926  1.00  0.00    -0.364 OA 
HETATM   22  C   UNL     1     -13.460  12.873  72.205  1.00  0.00    -0.531 C  
ENDBRANCH  17  21
TORSDOF 1
ENDMDL
MODEL       52
REMARK 921   NORMALIZED FREE ENERGY PREDICTED BY IDOCK:   -5.02 KCAL/MOL
REMARK 922        TOTAL FREE ENERGY PREDICTED BY IDOCK:   -5.40 KCAL/MOL
REMARK 923 INTER-LIGAND FREE ENERGY PREDICTED BY IDOCK:   -5.32 KCAL/MOL
REMARK 924 INTRA-LIGAND FREE ENERGY PREDICTED BY IDOCK:   -0.08 KCAL/MOL
REMARK 927      BINDING AFFINITY PREDICTED BY RF-SCORE:    0.00 PKD
ROOT
HETATM    1  C   UNL     1     -11.545  12.775  67.596  1.00  0.00    -0.358 C  
HETATM    2  C   UNL     1     -11.089  14.243  67.481  1.00  0.00    -0.309 C  
HETATM    3  C   UNL     1     -10.195  14.417  68.723  1.00  0.00    -0.239 C  
HETATM    4  O   UNL     1      -9.172  15.338  68.490  1.00  0.00    -0.186 OA 
HETATM    5  C   UNL     1     -11.246  14.675  69.722  1.00  0.00    -0.296 C  
HETATM    6  C   UNL     1     -12.156  13.661  69.588  1.00  0.00    -0.378 C  
HETATM    7  H   UNL     1      -8.621  15.445  69.257  1.00  0.00     0.000 HD 
HETATM    8  C   UNL     1     -11.891  12.117  69.056  1.00  0.00    -0.361 C  
HETATM    9  C   UNL     1     -12.174  11.961  70.601  1.00  0.00    -0.424 C  
HETATM   10  C   UNL     1     -12.914  10.690  70.925  1.00  0.00    -0.340 C  
HETATM   11  N   UNL     1     -11.923   9.828  71.525  1.00  0.00    -0.395 NA 
HETATM   12  C   UNL     1     -12.533   8.992  72.541  1.00  0.00    -0.239 C  
HETATM   13  C   UNL     1     -11.278   9.068  70.474  1.00  0.00    -0.260 C  
HETATM   14  C   UNL     1     -10.364   9.875  69.553  1.00  0.00    -0.248 A  
HETATM   15  C   UNL     1     -10.635  11.136  68.950  1.00  0.00    -0.239 A  
HETATM   16  C   UNL     1      -9.818  11.363  67.841  1.00  0.00    -0.179 A  
HETATM   17  C   UNL     1      -8.623  10.679  67.473  1.00  0.00    -0.122 A  
HETATM   18  O   UNL     1     -10.381  12.206  66.941  1.00  0.00    -0.211 OA 
HETATM   19  C   UNL     1      -9.220   9.102  69.130  1.00  0.00    -0.144 A  
HETATM   20  C   UNL     1      -8.327   9.508  68.148  1.00  0.00    -0.118 A  
ENDROOT
BRANCH  17  21
HETATM   21  O   UNL     1      -7.875  11.189  66.443  1.00  0.00    -0.156 OA 
HETATM   22  C   UNL     1      -6.491  11.454  66.693  1.00  0.00    -0.117 C  
ENDBRANCH  17  21
TORSDOF 1
ENDMDL
MODEL       53
REMARK 921   NORMALIZED FREE ENERGY PREDICTED BY IDOCK:   -5.01 KCAL/MOL
REMARK 922        TOTAL FREE ENERGY PREDICTED BY IDOCK:   -5.40 KCAL/MOL
REMARK 923 INTER-LIGAND FREE ENERGY PREDICTED BY IDOCK:   -5.32 KCAL/MOL
REMARK 924 INTRA-LIGAND FREE ENERGY PREDICTED BY IDOCK:   -0.08 KCAL/MOL
REMARK 927      BINDING AFFINITY PREDICTED BY RF-SCORE:    0.00 PKD
ROOT
HETATM    1  C   UNL     1     -10.211   9.099  70.800  1.00  0.00    -0.260 C  
HETATM    2  C   UNL     1     -10.451   7.579  70.710  1.00  0.00    -0.217 C  
HETATM    3  C   UNL     1     -11.873   7.498  70.121  1.00  0.00     0.140 C  
HETATM    4  O   UNL     1     -12.033   6.356  69.335  1.00  0.00    -0.479 OA 
HETATM    5  C   UNL     1     -12.641   7.686  71.364  1.00  0.00    -0.359 C  
HETATM    6  C   UNL     1     -12.137   8.814  71.954  1.00  0.00    -0.433 C  
HETATM    7  H   UNL     1     -12.910   6.305  68.972  1.00  0.00     0.000 HD 
HETATM    8  C   UNL     1     -11.422  10.116  71.225  1.00  0.00    -0.327 C  
HETATM    9  C   UNL     1     -12.816  10.659  71.729  1.00  0.00    -0.549 C  
HETATM   10  C   UNL     1     -12.746  12.096  72.176  1.00  0.00     0.154 C  
HETATM   11  N   UNL     1     -13.397  12.842  71.125  1.00  0.00     0.054 NA 
HETATM   12  C   UNL     1     -14.094  13.987  71.679  1.00  0.00    -0.280 C  
HETATM   13  C   UNL     1     -12.403  13.204  70.136  1.00  0.00    -0.213 C  
HETATM   14  C   UNL     1     -11.860  12.044  69.302  1.00  0.00    -0.377 A  
HETATM   15  C   UNL     1     -11.434  10.767  69.767  1.00  0.00    -0.386 A  
HETATM   16  C   UNL     1     -10.591  10.139  68.848  1.00  0.00    -0.215 A  
HETATM   17  C   UNL     1     -10.388  10.463  67.475  1.00  0.00    -0.224 A  
HETATM   18  O   UNL     1      -9.744   9.257  69.434  1.00  0.00    -0.163 OA 
HETATM   19  C   UNL     1     -11.577  12.452  67.946  1.00  0.00    -0.415 A  
HETATM   20  C   UNL     1     -10.903  11.665  67.022  1.00  0.00    -0.311 A  
ENDROOT
BRANCH  17  21
HETATM   21  O   UNL     1      -9.653   9.598  66.706  1.00  0.00    -0.156 OA 
HETATM   22  C   UNL     1      -9.704   9.762  65.285  1.00  0.00    -0.300 C  
ENDBRANCH  17  21
TORSDOF 1
ENDMDL
MODEL       54
REMARK 921   NORMALIZED FREE ENERGY PREDICTED BY IDOCK:   -5.01 KCAL/MOL
REMARK 922        TOTAL FREE ENERGY PREDICTED BY IDOCK:   -5.40 KCAL/MOL
REMARK 923 INTER-LIGAND FREE ENERGY PREDICTED BY IDOCK:   -5.32 KCAL/MOL
REMARK 924 INTRA-LIGAND FREE ENERGY PREDICTED BY IDOCK:   -0.08 KCAL/MOL
REMARK 927      BINDING AFFINITY PREDICTED BY RF-SCORE:    0.00 PKD
ROOT
HETATM    1  C   UNL     1      -8.936  13.368  66.975  1.00  0.00    -0.224 C  
HETATM    2  C   UNL     1      -7.891  12.289  67.321  1.00  0.00    -0.171 C  
HETATM    3  C   UNL     1      -7.420  12.715  68.725  1.00  0.00    -0.044 C  
HETATM    4  O   UNL     1      -7.048  11.611  69.493  1.00  0.00    -0.294 OA 
HETATM    5  C   UNL     1      -6.437  13.739  68.330  1.00  0.00    -0.110 C  
HETATM    6  C   UNL     1      -7.091  14.581  67.471  1.00  0.00    -0.199 C  
HETATM    7  H   UNL     1      -6.758  11.873  70.359  1.00  0.00     0.000 HD 
HETATM    8  C   UNL     1      -8.707  14.929  67.414  1.00  0.00    -0.208 C  
HETATM    9  C   UNL     1      -8.036  16.250  67.956  1.00  0.00    -0.151 C  
HETATM   10  C   UNL     1      -8.738  17.492  67.474  1.00  0.00    -0.225 C  
HETATM   11  N   UNL     1      -9.461  17.979  68.625  1.00  0.00    -0.317 NA 
HETATM   12  C   UNL     1      -9.514  19.428  68.610  1.00  0.00    -0.405 C  
HETATM   13  C   UNL     1     -10.772  17.362  68.638  1.00  0.00    -0.249 C  
HETATM   14  C   UNL     1     -10.786  15.869  68.964  1.00  0.00    -0.266 A  
HETATM   15  C   UNL     1      -9.935  14.858  68.433  1.00  0.00    -0.222 A  
HETATM   16  C   UNL     1     -10.495  13.587  68.574  1.00  0.00    -0.244 A  
HETATM   17  C   UNL     1     -11.580  13.190  69.410  1.00  0.00    -0.300 A  
HETATM   18  O   UNL     1     -10.050  12.713  67.638  1.00  0.00    -0.211 OA 
HETATM   19  C   UNL     1     -11.957  15.503  69.726  1.00  0.00    -0.384 A  
HETATM   20  C   UNL     1     -12.329  14.194  69.998  1.00  0.00    -0.403 A  
ENDROOT
BRANCH  17  21
HETATM   21  O   UNL     1     -11.847  11.851  69.533  1.00  0.00    -0.302 OA 
HETATM   22  C   UNL     1     -12.334  11.383  70.795  1.00  0.00    -0.386 C  
ENDBRANCH  17  21
TORSDOF 1
ENDMDL
MODEL       55
REMARK 921   NORMALIZED FREE ENERGY PREDICTED BY IDOCK:   -4.99 KCAL/MOL
REMARK 922        TOTAL FREE ENERGY PREDICTED BY IDOCK:   -5.38 KCAL/MOL
REMARK 923 INTER-LIGAND FREE ENERGY PREDICTED BY IDOCK:   -5.28 KCAL/MOL
REMARK 924 INTRA-LIGAND FREE ENERGY PREDICTED BY IDOCK:   -0.10 KCAL/MOL
REMARK 927      BINDING AFFINITY PREDICTED BY RF-SCORE:    0.00 PKD
ROOT
HETATM    1  C   UNL     1      -9.959   9.334  70.198  1.00  0.00    -0.215 C  
HETATM    2  C   UNL     1     -11.055   9.663  71.231  1.00  0.00    -0.426 C  
HETATM    3  C   UNL     1     -12.343   9.598  70.388  1.00  0.00     0.053 C  
HETATM    4  O   UNL     1     -13.432   9.177  71.153  1.00  0.00    -0.534 OA 
HETATM    5  C   UNL     1     -12.295  10.949  69.802  1.00  0.00    -0.326 C  
HETATM    6  C   UNL     1     -11.046  11.082  69.256  1.00  0.00    -0.312 C  
HETATM    7  H   UNL     1     -14.226   9.137  70.633  1.00  0.00     0.000 HD 
HETATM    8  C   UNL     1     -10.060   9.893  68.662  1.00  0.00    -0.191 C  
HETATM    9  C   UNL     1     -10.537  10.688  67.385  1.00  0.00    -0.304 C  
HETATM   10  C   UNL     1      -9.472  10.761  66.322  1.00  0.00    -0.181 C  
HETATM   11  N   UNL     1      -9.907   9.839  65.299  1.00  0.00    -0.313 NA 
HETATM   12  C   UNL     1      -9.516  10.323  63.988  1.00  0.00    -0.300 C  
HETATM   13  C   UNL     1      -9.373   8.529  65.605  1.00  0.00    -0.052 C  
HETATM   14  C   UNL     1      -9.991   7.841  66.821  1.00  0.00    -0.331 A  
HETATM   15  C   UNL     1     -10.254   8.412  68.099  1.00  0.00    -0.253 A  
HETATM   16  C   UNL     1     -10.380   7.432  69.086  1.00  0.00    -0.208 A  
HETATM   17  C   UNL     1     -10.581   6.031  68.915  1.00  0.00    -0.290 A  
HETATM   18  O   UNL     1     -10.066   7.892  70.322  1.00  0.00    -0.192 OA 
HETATM   19  C   UNL     1     -10.078   6.412  66.635  1.00  0.00    -0.206 A  
HETATM   20  C   UNL     1     -10.419   5.516  67.640  1.00  0.00    -0.256 A  
ENDROOT
BRANCH  17  21
HETATM   21  O   UNL     1     -10.863   5.276  70.024  1.00  0.00    -0.245 OA 
HETATM   22  C   UNL     1      -9.904   4.291  70.421  1.00  0.00    -0.198 C  
ENDBRANCH  17  21
TORSDOF 1
ENDMDL
MODEL       56
REMARK 921   NORMALIZED FREE ENERGY PREDICTED BY IDOCK:   -4.94 KCAL/MOL
REMARK 922        TOTAL FREE ENERGY PREDICTED BY IDOCK:   -5.33 KCAL/MOL
REMARK 923 INTER-LIGAND FREE ENERGY PREDICTED BY IDOCK:   -5.33 KCAL/MOL
REMARK 924 INTRA-LIGAND FREE ENERGY PREDICTED BY IDOCK:    0.00 KCAL/MOL
REMARK 927      BINDING AFFINITY PREDICTED BY RF-SCORE:    0.00 PKD
ROOT
HETATM    1  C   UNL     1      -9.880   8.354  68.826  1.00  0.00    -0.173 C  
HETATM    2  C   UNL     1      -8.670   7.571  69.373  1.00  0.00    -0.137 C  
HETATM    3  C   UNL     1      -8.031   8.577  70.349  1.00  0.00    -0.099 C  
HETATM    4  O   UNL     1      -7.409   7.927  71.416  1.00  0.00    -0.061 OA 
HETATM    5  C   UNL     1      -7.257   9.370  69.378  1.00  0.00    -0.066 C  
HETATM    6  C   UNL     1      -8.138   9.734  68.396  1.00  0.00    -0.104 C  
HETATM    7  H   UNL     1      -7.015   8.548  72.018  1.00  0.00     0.000 HD 
HETATM    8  C   UNL     1      -9.772   9.960  68.523  1.00  0.00    -0.163 C  
HETATM    9  C   UNL     1      -9.185  11.411  68.323  1.00  0.00    -0.183 C  
HETATM   10  C   UNL     1     -10.101  12.296  67.518  1.00  0.00    -0.201 C  
HETATM   11  N   UNL     1     -10.681  13.201  68.482  1.00  0.00    -0.254 NA 
HETATM   12  C   UNL     1     -10.909  14.500  67.878  1.00  0.00    -0.256 C  
HETATM   13  C   UNL     1     -11.888  12.600  69.010  1.00  0.00    -0.294 C  
HETATM   14  C   UNL     1     -11.669  11.392  69.921  1.00  0.00    -0.424 A  
HETATM   15  C   UNL     1     -10.800  10.286  69.700  1.00  0.00    -0.311 A  
HETATM   16  C   UNL     1     -11.173   9.178  70.464  1.00  0.00    -0.264 A  
HETATM   17  C   UNL     1     -12.051   9.137  71.586  1.00  0.00    -0.362 A  
HETATM   18  O   UNL     1     -10.783   8.005  69.907  1.00  0.00    -0.244 OA 
HETATM   19  C   UNL     1     -12.647  11.344  70.982  1.00  0.00    -0.487 A  
HETATM   20  C   UNL     1     -12.810  10.265  71.841  1.00  0.00    -0.528 A  
ENDROOT
BRANCH  17  21
HETATM   21  O   UNL     1     -12.131   7.972  72.305  1.00  0.00    -0.329 OA 
HETATM   22  C   UNL     1     -10.988   7.582  73.072  1.00  0.00    -0.390 C  
ENDBRANCH  17  21
TORSDOF 1
ENDMDL
MODEL       57
REMARK 921   NORMALIZED FREE ENERGY PREDICTED BY IDOCK:   -4.91 KCAL/MOL
REMARK 922        TOTAL FREE ENERGY PREDICTED BY IDOCK:   -5.29 KCAL/MOL
REMARK 923 INTER-LIGAND FREE ENERGY PREDICTED BY IDOCK:   -5.20 KCAL/MOL
REMARK 924 INTRA-LIGAND FREE ENERGY PREDICTED BY IDOCK:   -0.09 KCAL/MOL
REMARK 927      BINDING AFFINITY PREDICTED BY RF-SCORE:    0.00 PKD
ROOT
HETATM    1  C   UNL     1     -10.811   6.860  67.714  1.00  0.00    -0.241 C  
HETATM    2  C   UNL     1      -9.663   5.928  67.278  1.00  0.00    -0.137 C  
HETATM    3  C   UNL     1      -8.414   6.671  67.789  1.00  0.00    -0.122 C  
HETATM    4  O   UNL     1      -7.398   5.780  68.137  1.00  0.00    -0.074 OA 
HETATM    5  C   UNL     1      -8.250   7.624  66.677  1.00  0.00    -0.124 C  
HETATM    6  C   UNL     1      -9.467   8.228  66.511  1.00  0.00    -0.284 C  
HETATM    7  H   UNL     1      -6.628   6.239  68.452  1.00  0.00     0.000 HD 
HETATM    8  C   UNL     1     -10.641   8.488  67.648  1.00  0.00    -0.268 C  
HETATM    9  C   UNL     1     -10.058   9.923  67.345  1.00  0.00    -0.254 C  
HETATM   10  C   UNL     1     -11.110  10.998  67.415  1.00  0.00    -0.305 C  
HETATM   11  N   UNL     1     -10.844  11.695  68.651  1.00  0.00    -0.202 NA 
HETATM   12  C   UNL     1     -11.168  13.103  68.513  1.00  0.00    -0.272 C  
HETATM   13  C   UNL     1     -11.580  11.044  69.714  1.00  0.00    -0.325 C  
HETATM   14  C   UNL     1     -11.066   9.659  70.108  1.00  0.00    -0.314 A  
HETATM   15  C   UNL     1     -10.697   8.592  69.241  1.00  0.00    -0.151 A  
HETATM   16  C   UNL     1     -10.719   7.361  69.899  1.00  0.00    -0.243 A  
HETATM   17  C   UNL     1     -10.751   7.114  71.302  1.00  0.00    -0.226 A  
HETATM   18  O   UNL     1     -10.938   6.322  69.056  1.00  0.00    -0.305 OA 
HETATM   19  C   UNL     1     -11.214   9.422  71.525  1.00  0.00    -0.457 A  
HETATM   20  C   UNL     1     -11.010   8.190  72.132  1.00  0.00    -0.372 A  
ENDROOT
BRANCH  17  21
HETATM   21  O   UNL     1     -10.580   5.825  71.738  1.00  0.00    -0.223 OA 
HETATM   22  C   UNL     1     -11.081   5.489  73.036  1.00  0.00    -0.300 C  
ENDBRANCH  17  21
TORSDOF 1
ENDMDL
MODEL       58
REMARK 921   NORMALIZED FREE ENERGY PREDICTED BY IDOCK:   -4.89 KCAL/MOL
REMARK 922        TOTAL FREE ENERGY PREDICTED BY IDOCK:   -5.27 KCAL/MOL
REMARK 923 INTER-LIGAND FREE ENERGY PREDICTED BY IDOCK:   -5.18 KCAL/MOL
REMARK 924 INTRA-LIGAND FREE ENERGY PREDICTED BY IDOCK:   -0.09 KCAL/MOL
REMARK 927      BINDING AFFINITY PREDICTED BY RF-SCORE:    0.00 PKD
ROOT
HETATM    1  C   UNL     1     -11.986   6.909  70.960  1.00  0.00    -0.374 C  
HETATM    2  C   UNL     1     -11.689   8.413  70.794  1.00  0.00    -0.219 C  
HETATM    3  C   UNL     1     -10.174   8.489  71.069  1.00  0.00    -0.203 C  
HETATM    4  O   UNL     1      -9.576   9.517  70.339  1.00  0.00    -0.244 OA 
HETATM    5  C   UNL     1     -10.215   8.517  72.541  1.00  0.00    -0.323 C  
HETATM    6  C   UNL     1     -10.994   7.457  72.920  1.00  0.00    -0.408 C  
HETATM    7  H   UNL     1      -8.642   9.564  70.509  1.00  0.00     0.000 HD 
HETATM    8  C   UNL     1     -11.234   6.029  72.119  1.00  0.00    -0.341 C  
HETATM    9  C   UNL     1     -10.359   5.638  73.373  1.00  0.00    -0.242 C  
HETATM   10  C   UNL     1     -10.706   4.276  73.914  1.00  0.00    -0.264 C  
HETATM   11  N   UNL     1      -9.610   3.427  73.508  1.00  0.00    -0.105 NA 
HETATM   12  C   UNL     1      -9.364   2.409  74.512  1.00  0.00    -0.082 C  
HETATM   13  C   UNL     1      -9.915   2.877  72.203  1.00  0.00    -0.165 C  
HETATM   14  C   UNL     1      -9.878   3.879  71.049  1.00  0.00    -0.219 A  
HETATM   15  C   UNL     1     -10.449   5.183  71.015  1.00  0.00    -0.241 A  
HETATM   16  C   UNL     1     -10.635   5.630  69.705  1.00  0.00    -0.329 A  
HETATM   17  C   UNL     1     -10.066   5.108  68.507  1.00  0.00    -0.144 A  
HETATM   18  O   UNL     1     -11.637   6.538  69.601  1.00  0.00    -0.376 OA 
HETATM   19  C   UNL     1      -9.388   3.271  69.835  1.00  0.00    -0.234 A  
HETATM   20  C   UNL     1      -9.425   3.884  68.589  1.00  0.00    -0.217 A  
ENDROOT
BRANCH  17  21
HETATM   21  O   UNL     1     -10.236   5.816  67.346  1.00  0.00    -0.159 OA 
HETATM   22  C   UNL     1     -10.477   5.077  66.145  1.00  0.00    -0.286 C  
ENDBRANCH  17  21
TORSDOF 1
ENDMDL
MODEL       59
REMARK 921   NORMALIZED FREE ENERGY PREDICTED BY IDOCK:   -4.89 KCAL/MOL
REMARK 922        TOTAL FREE ENERGY PREDICTED BY IDOCK:   -5.27 KCAL/MOL
REMARK 923 INTER-LIGAND FREE ENERGY PREDICTED BY IDOCK:   -5.18 KCAL/MOL
REMARK 924 INTRA-LIGAND FREE ENERGY PREDICTED BY IDOCK:   -0.09 KCAL/MOL
REMARK 927      BINDING AFFINITY PREDICTED BY RF-SCORE:    0.00 PKD
ROOT
HETATM    1  C   UNL     1     -10.701  14.380  67.785  1.00  0.00    -0.248 C  
HETATM    2  C   UNL     1     -10.821  13.189  66.814  1.00  0.00    -0.289 C  
HETATM    3  C   UNL     1      -9.805  13.549  65.713  1.00  0.00    -0.201 C  
HETATM    4  O   UNL     1      -9.241  12.405  65.146  1.00  0.00    -0.400 OA 
HETATM    5  C   UNL     1     -10.647  14.461  64.920  1.00  0.00    -0.456 C  
HETATM    6  C   UNL     1     -11.151  15.377  65.803  1.00  0.00    -0.260 C  
HETATM    7  H   UNL     1      -8.614  12.627  64.468  1.00  0.00     0.000 HD 
HETATM    8  C   UNL     1     -10.482  15.903  67.222  1.00  0.00    -0.310 C  
HETATM    9  C   UNL     1     -10.363  17.137  66.246  1.00  0.00    -0.315 C  
HETATM   10  C   UNL     1     -10.528  18.453  66.960  1.00  0.00    -0.399 C  
HETATM   11  N   UNL     1      -9.196  19.008  67.024  1.00  0.00    -0.292 NA 
HETATM   12  C   UNL     1      -9.249  20.454  66.929  1.00  0.00    -0.319 C  
HETATM   13  C   UNL     1      -8.561  18.541  68.239  1.00  0.00    -0.318 C  
HETATM   14  C   UNL     1      -8.200  17.056  68.256  1.00  0.00    -0.227 A  
HETATM   15  C   UNL     1      -9.015  15.961  67.850  1.00  0.00    -0.181 A  
HETATM   16  C   UNL     1      -8.579  14.759  68.411  1.00  0.00    -0.166 A  
HETATM   17  C   UNL     1      -7.325  14.478  69.028  1.00  0.00    -0.132 A  
HETATM   18  O   UNL     1      -9.576  13.848  68.534  1.00  0.00    -0.213 OA 
HETATM   19  C   UNL     1      -6.974  16.817  68.980  1.00  0.00    -0.218 A  
HETATM   20  C   UNL     1      -6.505  15.554  69.319  1.00  0.00    -0.141 A  
ENDROOT
BRANCH  17  21
HETATM   21  O   UNL     1      -7.035  13.176  69.345  1.00  0.00    -0.033 OA 
HETATM   22  C   UNL     1      -5.893  12.579  68.724  1.00  0.00    -0.064 C  
ENDBRANCH  17  21
TORSDOF 1
ENDMDL
MODEL       60
REMARK 921   NORMALIZED FREE ENERGY PREDICTED BY IDOCK:   -4.85 KCAL/MOL
REMARK 922        TOTAL FREE ENERGY PREDICTED BY IDOCK:   -5.23 KCAL/MOL
REMARK 923 INTER-LIGAND FREE ENERGY PREDICTED BY IDOCK:   -5.12 KCAL/MOL
REMARK 924 INTRA-LIGAND FREE ENERGY PREDICTED BY IDOCK:   -0.10 KCAL/MOL
REMARK 927      BINDING AFFINITY PREDICTED BY RF-SCORE:    0.00 PKD
ROOT
HETATM    1  C   UNL     1      -9.707   7.563  70.408  1.00  0.00    -0.179 C  
HETATM    2  C   UNL     1      -9.013   6.932  71.632  1.00  0.00    -0.135 C  
HETATM    3  C   UNL     1      -8.487   8.165  72.392  1.00  0.00    -0.179 C  
HETATM    4  O   UNL     1      -8.460   7.940  73.770  1.00  0.00    -0.202 OA 
HETATM    5  C   UNL     1      -7.247   8.388  71.628  1.00  0.00    -0.099 C  
HETATM    6  C   UNL     1      -7.614   8.421  70.310  1.00  0.00    -0.068 C  
HETATM    7  H   UNL     1      -8.136   8.700  74.239  1.00  0.00     0.000 HD 
HETATM    8  C   UNL     1      -9.069   8.876  69.666  1.00  0.00    -0.151 C  
HETATM    9  C   UNL     1      -8.075  10.034  69.260  1.00  0.00    -0.141 C  
HETATM   10  C   UNL     1      -8.391  10.614  67.907  1.00  0.00    -0.120 C  
HETATM   11  N   UNL     1      -8.988  11.899  68.186  1.00  0.00    -0.180 NA 
HETATM   12  C   UNL     1      -8.636  12.852  67.150  1.00  0.00    -0.198 C  
HETATM   13  C   UNL     1     -10.417  11.720  68.332  1.00  0.00    -0.215 C  
HETATM   14  C   UNL     1     -10.855  10.977  69.594  1.00  0.00    -0.241 A  
HETATM   15  C   UNL     1     -10.300   9.780  70.132  1.00  0.00    -0.335 A  
HETATM   16  C   UNL     1     -11.195   9.138  70.991  1.00  0.00    -0.312 A  
HETATM   17  C   UNL     1     -12.373   9.670  71.593  1.00  0.00    -0.404 A  
HETATM   18  O   UNL     1     -10.979   7.802  71.066  1.00  0.00    -0.237 OA 
HETATM   19  C   UNL     1     -12.104  11.488  70.105  1.00  0.00    -0.432 A  
HETATM   20  C   UNL     1     -12.833  10.887  71.122  1.00  0.00    -0.508 A  
ENDROOT
BRANCH  17  21
HETATM   21  O   UNL     1     -13.004   8.922  72.553  1.00  0.00    -0.418 OA 
HETATM   22  C   UNL     1     -14.322   8.444  72.265  1.00  0.00    -0.371 C  
ENDBRANCH  17  21
TORSDOF 1
ENDMDL
MODEL       61
REMARK 921   NORMALIZED FREE ENERGY PREDICTED BY IDOCK:   -4.83 KCAL/MOL
REMARK 922        TOTAL FREE ENERGY PREDICTED BY IDOCK:   -5.20 KCAL/MOL
REMARK 923 INTER-LIGAND FREE ENERGY PREDICTED BY IDOCK:   -5.12 KCAL/MOL
REMARK 924 INTRA-LIGAND FREE ENERGY PREDICTED BY IDOCK:   -0.08 KCAL/MOL
REMARK 927      BINDING AFFINITY PREDICTED BY RF-SCORE:    0.00 PKD
ROOT
HETATM    1  C   UNL     1      -8.696   6.733  69.035  1.00  0.00    -0.130 C  
HETATM    2  C   UNL     1      -9.063   6.463  67.563  1.00  0.00    -0.114 C  
HETATM    3  C   UNL     1     -10.517   5.962  67.665  1.00  0.00    -0.238 C  
HETATM    4  O   UNL     1     -11.256   6.308  66.533  1.00  0.00    -0.726 OA 
HETATM    5  C   UNL     1     -10.246   4.554  68.002  1.00  0.00     0.047 C  
HETATM    6  C   UNL     1      -9.384   4.577  69.065  1.00  0.00    -0.211 C  
HETATM    7  H   UNL     1     -12.152   5.999  66.596  1.00  0.00     0.000 HD 
HETATM    8  C   UNL     1      -9.227   5.744  70.227  1.00  0.00    -0.174 C  
HETATM    9  C   UNL     1      -9.881   4.520  70.980  1.00  0.00    -0.266 C  
HETATM   10  C   UNL     1      -9.409   4.403  72.405  1.00  0.00    -0.126 C  
HETATM   11  N   UNL     1     -10.528   4.851  73.202  1.00  0.00    -0.185 NA 
HETATM   12  C   UNL     1     -10.580   4.118  74.452  1.00  0.00    -0.208 C  
HETATM   13  C   UNL     1     -10.416   6.283  73.387  1.00  0.00    -0.255 C  
HETATM   14  C   UNL     1     -10.665   7.123  72.134  1.00  0.00    -0.245 A  
HETATM   15  C   UNL     1     -10.149   6.903  70.826  1.00  0.00    -0.208 A  
HETATM   16  C   UNL     1     -10.187   8.066  70.054  1.00  0.00    -0.205 A  
HETATM   17  C   UNL     1     -10.921   9.263  70.301  1.00  0.00    -0.247 A  
HETATM   18  O   UNL     1      -9.244   8.077  69.080  1.00  0.00    -0.151 OA 
HETATM   19  C   UNL     1     -11.322   8.369  72.453  1.00  0.00    -0.448 A  
HETATM   20  C   UNL     1     -11.502   9.406  71.548  1.00  0.00    -0.467 A  
ENDROOT
BRANCH  17  21
HETATM   21  O   UNL     1     -10.959  10.215  69.315  1.00  0.00    -0.222 OA 
HETATM   22  C   UNL     1     -11.933  11.256  69.433  1.00  0.00    -0.341 C  
ENDBRANCH  17  21
TORSDOF 1
ENDMDL
MODEL       62
REMARK 921   NORMALIZED FREE ENERGY PREDICTED BY IDOCK:   -4.80 KCAL/MOL
REMARK 922        TOTAL FREE ENERGY PREDICTED BY IDOCK:   -5.17 KCAL/MOL
REMARK 923 INTER-LIGAND FREE ENERGY PREDICTED BY IDOCK:   -5.09 KCAL/MOL
REMARK 924 INTRA-LIGAND FREE ENERGY PREDICTED BY IDOCK:   -0.08 KCAL/MOL
REMARK 927      BINDING AFFINITY PREDICTED BY RF-SCORE:    0.00 PKD
ROOT
HETATM    1  C   UNL     1      -8.466  10.042  66.987  1.00  0.00    -0.125 C  
HETATM    2  C   UNL     1      -8.535   8.650  67.645  1.00  0.00    -0.125 C  
HETATM    3  C   UNL     1      -9.895   8.114  67.156  1.00  0.00    -0.217 C  
HETATM    4  O   UNL     1      -9.876   6.725  67.022  1.00  0.00    -0.148 OA 
HETATM    5  C   UNL     1     -10.765   8.778  68.142  1.00  0.00    -0.131 C  
HETATM    6  C   UNL     1     -10.428  10.104  68.115  1.00  0.00    -0.243 C  
HETATM    7  H   UNL     1     -10.715   6.395  66.720  1.00  0.00     0.000 HD 
HETATM    8  C   UNL     1      -9.806  10.974  66.852  1.00  0.00    -0.222 C  
HETATM    9  C   UNL     1     -11.282  11.509  67.014  1.00  0.00    -0.365 C  
HETATM   10  C   UNL     1     -11.397  12.979  66.707  1.00  0.00    -0.324 C  
HETATM   11  N   UNL     1     -12.047  13.038  65.419  1.00  0.00    -0.417 NA 
HETATM   12  C   UNL     1     -12.900  14.208  65.339  1.00  0.00    -0.368 C  
HETATM   13  C   UNL     1     -11.030  13.004  64.389  1.00  0.00    -0.374 C  
HETATM   14  C   UNL     1     -10.309  11.665  64.230  1.00  0.00    -0.371 A  
HETATM   15  C   UNL     1      -9.783  10.836  65.261  1.00  0.00    -0.308 A  
HETATM   16  C   UNL     1      -8.814   9.957  64.772  1.00  0.00    -0.202 A  
HETATM   17  C   UNL     1      -8.550   9.603  63.417  1.00  0.00    -0.209 A  
HETATM   18  O   UNL     1      -7.923   9.582  65.722  1.00  0.00    -0.108 OA 
HETATM   19  C   UNL     1      -9.975  11.403  62.850  1.00  0.00    -0.278 A  
HETATM   20  C   UNL     1      -9.157  10.362  62.432  1.00  0.00    -0.313 A  
ENDROOT
BRANCH  17  21
HETATM   21  O   UNL     1      -7.674   8.577  63.173  1.00  0.00    -0.119 OA 
HETATM   22  C   UNL     1      -8.118   7.508  62.331  1.00  0.00    -0.125 C  
ENDBRANCH  17  21
TORSDOF 1
ENDMDL
MODEL       63
REMARK 921   NORMALIZED FREE ENERGY PREDICTED BY IDOCK:   -4.79 KCAL/MOL
REMARK 922        TOTAL FREE ENERGY PREDICTED BY IDOCK:   -5.17 KCAL/MOL
REMARK 923 INTER-LIGAND FREE ENERGY PREDICTED BY IDOCK:   -5.13 KCAL/MOL
REMARK 924 INTRA-LIGAND FREE ENERGY PREDICTED BY IDOCK:   -0.04 KCAL/MOL
REMARK 927      BINDING AFFINITY PREDICTED BY RF-SCORE:    0.00 PKD
ROOT
HETATM    1  C   UNL     1      -8.442   9.123  69.850  1.00  0.00    -0.147 C  
HETATM    2  C   UNL     1      -7.764   8.323  68.719  1.00  0.00    -0.114 C  
HETATM    3  C   UNL     1      -8.954   7.946  67.815  1.00  0.00    -0.128 C  
HETATM    4  O   UNL     1      -8.568   7.857  66.477  1.00  0.00    -0.129 OA 
HETATM    5  C   UNL     1      -9.431   6.765  68.555  1.00  0.00    -0.131 C  
HETATM    6  C   UNL     1      -9.575   7.164  69.856  1.00  0.00    -0.163 C  
HETATM    7  H   UNL     1      -9.301   7.624  65.919  1.00  0.00     0.000 HD 
HETATM    8  C   UNL     1      -9.909   8.681  70.428  1.00  0.00    -0.207 C  
HETATM    9  C   UNL     1     -11.229   7.857  70.694  1.00  0.00    -0.269 C  
HETATM   10  C   UNL     1     -11.923   8.278  71.962  1.00  0.00    -0.348 C  
HETATM   11  N   UNL     1     -13.074   9.031  71.521  1.00  0.00    -0.337 NA 
HETATM   12  C   UNL     1     -14.184   8.832  72.433  1.00  0.00    -0.385 C  
HETATM   13  C   UNL     1     -12.690  10.421  71.388  1.00  0.00    -0.446 C  
HETATM   14  C   UNL     1     -11.746  10.727  70.225  1.00  0.00    -0.442 A  
HETATM   15  C   UNL     1     -10.577  10.008  69.844  1.00  0.00    -0.324 A  
HETATM   16  C   UNL     1      -9.722  10.790  69.065  1.00  0.00    -0.187 A  
HETATM   17  C   UNL     1     -10.015  12.013  68.393  1.00  0.00    -0.208 A  
HETATM   18  O   UNL     1      -8.428  10.399  69.158  1.00  0.00    -0.147 OA 
HETATM   19  C   UNL     1     -12.021  12.020  69.646  1.00  0.00    -0.360 A  
HETATM   20  C   UNL     1     -11.208  12.640  68.705  1.00  0.00    -0.325 A  
ENDROOT
BRANCH  17  21
HETATM   21  O   UNL     1      -9.078  12.518  67.529  1.00  0.00    -0.172 OA 
HETATM   22  C   UNL     1      -8.926  11.873  66.261  1.00  0.00    -0.157 C  
ENDBRANCH  17  21
TORSDOF 1
ENDMDL
MODEL       64
REMARK 921   NORMALIZED FREE ENERGY PREDICTED BY IDOCK:   -4.78 KCAL/MOL
REMARK 922        TOTAL FREE ENERGY PREDICTED BY IDOCK:   -5.15 KCAL/MOL
REMARK 923 INTER-LIGAND FREE ENERGY PREDICTED BY IDOCK:   -5.05 KCAL/MOL
REMARK 924 INTRA-LIGAND FREE ENERGY PREDICTED BY IDOCK:   -0.10 KCAL/MOL
REMARK 927      BINDING AFFINITY PREDICTED BY RF-SCORE:    0.00 PKD
ROOT
HETATM    1  C   UNL     1      -9.594  11.137  66.402  1.00  0.00    -0.200 C  
HETATM    2  C   UNL     1     -10.714  10.214  66.922  1.00  0.00    -0.231 C  
HETATM    3  C   UNL     1     -11.063  10.844  68.285  1.00  0.00    -0.266 C  
HETATM    4  O   UNL     1     -12.409  10.657  68.602  1.00  0.00    -0.820 OA 
HETATM    5  C   UNL     1      -9.993  10.234  69.093  1.00  0.00    -0.235 C  
HETATM    6  C   UNL     1      -8.823  10.487  68.428  1.00  0.00    -0.140 C  
HETATM    7  H   UNL     1     -12.624  11.045  69.443  1.00  0.00     0.000 HD 
HETATM    8  C   UNL     1      -8.473  11.754  67.424  1.00  0.00    -0.158 C  
HETATM    9  C   UNL     1      -7.616  12.027  68.721  1.00  0.00    -0.070 C  
HETATM   10  C   UNL     1      -6.291  12.672  68.410  1.00  0.00    -0.069 C  
HETATM   11  N   UNL     1      -6.443  14.047  68.824  1.00  0.00    -0.087 NA 
HETATM   12  C   UNL     1      -5.185  14.563  69.327  1.00  0.00    -0.082 C  
HETATM   13  C   UNL     1      -6.964  14.808  67.707  1.00  0.00    -0.174 C  
HETATM   14  C   UNL     1      -8.417  14.510  67.336  1.00  0.00    -0.220 A  
HETATM   15  C   UNL     1      -9.032  13.233  67.200  1.00  0.00    -0.229 A  
HETATM   16  C   UNL     1     -10.193  13.300  66.427  1.00  0.00    -0.292 A  
HETATM   17  C   UNL     1     -10.943  14.456  66.063  1.00  0.00    -0.316 A  
HETATM   18  O   UNL     1     -10.479  12.126  65.812  1.00  0.00    -0.239 OA 
HETATM   19  C   UNL     1      -9.102  15.696  66.879  1.00  0.00    -0.260 A  
HETATM   20  C   UNL     1     -10.364  15.690  66.301  1.00  0.00    -0.316 A  
ENDROOT
BRANCH  17  21
HETATM   21  O   UNL     1     -12.157  14.276  65.451  1.00  0.00    -0.374 OA 
HETATM   22  C   UNL     1     -12.387  14.959  64.215  1.00  0.00    -0.277 C  
ENDBRANCH  17  21
TORSDOF 1
ENDMDL
MODEL       65
REMARK 921   NORMALIZED FREE ENERGY PREDICTED BY IDOCK:   -4.75 KCAL/MOL
REMARK 922        TOTAL FREE ENERGY PREDICTED BY IDOCK:   -5.12 KCAL/MOL
REMARK 923 INTER-LIGAND FREE ENERGY PREDICTED BY IDOCK:   -5.02 KCAL/MOL
REMARK 924 INTRA-LIGAND FREE ENERGY PREDICTED BY IDOCK:   -0.09 KCAL/MOL
REMARK 927      BINDING AFFINITY PREDICTED BY RF-SCORE:    0.00 PKD
ROOT
HETATM    1  C   UNL     1     -11.625  15.252  68.488  1.00  0.00    -0.352 C  
HETATM    2  C   UNL     1     -12.379  15.835  69.699  1.00  0.00    -0.115 C  
HETATM    3  C   UNL     1     -11.535  15.345  70.891  1.00  0.00    -0.361 C  
HETATM    4  O   UNL     1     -11.576  16.250  71.952  1.00  0.00    -0.456 OA 
HETATM    5  C   UNL     1     -12.094  13.988  71.019  1.00  0.00    -0.383 C  
HETATM    6  C   UNL     1     -12.026  13.430  69.771  1.00  0.00    -0.396 C  
HETATM    7  H   UNL     1     -11.055  15.947  72.687  1.00  0.00     0.000 HD 
HETATM    8  C   UNL     1     -10.948  13.762  68.561  1.00  0.00    -0.283 C  
HETATM    9  C   UNL     1     -10.550  12.319  69.061  1.00  0.00    -0.104 C  
HETATM   10  C   UNL     1     -10.054  11.439  67.944  1.00  0.00    -0.183 C  
HETATM   11  N   UNL     1      -8.626  11.360  68.143  1.00  0.00    -0.147 NA 
HETATM   12  C   UNL     1      -8.133  10.057  67.737  1.00  0.00    -0.109 C  
HETATM   13  C   UNL     1      -8.001  12.453  67.427  1.00  0.00    -0.178 C  
HETATM   14  C   UNL     1      -8.245  13.842  68.017  1.00  0.00    -0.164 A  
HETATM   15  C   UNL     1      -9.481  14.387  68.467  1.00  0.00    -0.212 A  
HETATM   16  C   UNL     1      -9.445  15.782  68.507  1.00  0.00    -0.201 A  
HETATM   17  C   UNL     1      -8.303  16.635  68.463  1.00  0.00    -0.228 A  
HETATM   18  O   UNL     1     -10.672  16.340  68.368  1.00  0.00    -0.279 OA 
HETATM   19  C   UNL     1      -7.093  14.696  67.856  1.00  0.00    -0.170 A  
HETATM   20  C   UNL     1      -7.092  16.059  68.122  1.00  0.00    -0.128 A  
ENDROOT
BRANCH  17  21
HETATM   21  O   UNL     1      -8.483  17.973  68.703  1.00  0.00    -0.303 OA 
HETATM   22  C   UNL     1      -8.342  18.872  67.599  1.00  0.00    -0.272 C  
ENDBRANCH  17  21
TORSDOF 1
ENDMDL
MODEL       66
REMARK 921   NORMALIZED FREE ENERGY PREDICTED BY IDOCK:   -4.74 KCAL/MOL
REMARK 922        TOTAL FREE ENERGY PREDICTED BY IDOCK:   -5.11 KCAL/MOL
REMARK 923 INTER-LIGAND FREE ENERGY PREDICTED BY IDOCK:   -5.01 KCAL/MOL
REMARK 924 INTRA-LIGAND FREE ENERGY PREDICTED BY IDOCK:   -0.10 KCAL/MOL
REMARK 927      BINDING AFFINITY PREDICTED BY RF-SCORE:    0.00 PKD
ROOT
HETATM    1  C   UNL     1      -9.131   9.989  68.581  1.00  0.00    -0.139 C  
HETATM    2  C   UNL     1      -9.822  11.354  68.392  1.00  0.00    -0.205 C  
HETATM    3  C   UNL     1     -11.068  10.988  67.561  1.00  0.00    -0.302 C  
HETATM    4  O   UNL     1     -12.137  11.838  67.846  1.00  0.00    -0.592 OA 
HETATM    5  C   UNL     1     -10.446  10.960  66.226  1.00  0.00    -0.304 C  
HETATM    6  C   UNL     1      -9.350  10.146  66.334  1.00  0.00    -0.209 C  
HETATM    7  H   UNL     1     -12.905  11.612  67.333  1.00  0.00     0.000 HD 
HETATM    8  C   UNL     1      -9.117   8.881  67.375  1.00  0.00    -0.147 C  
HETATM    9  C   UNL     1      -9.291   8.203  65.960  1.00  0.00    -0.184 C  
HETATM   10  C   UNL     1      -8.439   6.971  65.804  1.00  0.00    -0.149 C  
HETATM   11  N   UNL     1      -9.366   5.868  65.895  1.00  0.00    -0.103 NA 
HETATM   12  C   UNL     1      -8.935   4.777  65.041  1.00  0.00    -0.153 C  
HETATM   13  C   UNL     1      -9.490   5.485  67.286  1.00  0.00    -0.117 C  
HETATM   14  C   UNL     1     -10.228   6.487  68.174  1.00  0.00    -0.194 A  
HETATM   15  C   UNL     1     -10.051   7.899  68.219  1.00  0.00    -0.225 A  
HETATM   16  C   UNL     1     -10.522   8.439  69.418  1.00  0.00    -0.217 A  
HETATM   17  C   UNL     1     -11.381   7.832  70.380  1.00  0.00    -0.207 A  
HETATM   18  O   UNL     1      -9.898   9.596  69.750  1.00  0.00    -0.199 OA 
HETATM   19  C   UNL     1     -11.003   5.821  69.194  1.00  0.00    -0.308 A  
HETATM   20  C   UNL     1     -11.620   6.475  70.252  1.00  0.00    -0.473 A  
ENDROOT
BRANCH  17  21
HETATM   21  O   UNL     1     -11.869   8.611  71.397  1.00  0.00    -0.275 OA 
HETATM   22  C   UNL     1     -11.588   8.205  72.740  1.00  0.00    -0.304 C  
ENDBRANCH  17  21
TORSDOF 1
ENDMDL
MODEL       67
REMARK 921   NORMALIZED FREE ENERGY PREDICTED BY IDOCK:   -4.70 KCAL/MOL
REMARK 922        TOTAL FREE ENERGY PREDICTED BY IDOCK:   -5.07 KCAL/MOL
REMARK 923 INTER-LIGAND FREE ENERGY PREDICTED BY IDOCK:   -4.98 KCAL/MOL
REMARK 924 INTRA-LIGAND FREE ENERGY PREDICTED BY IDOCK:   -0.09 KCAL/MOL
REMARK 927      BINDING AFFINITY PREDICTED BY RF-SCORE:    0.00 PKD
ROOT
HETATM    1  C   UNL     1     -10.364  13.387  65.884  1.00  0.00    -0.290 C  
HETATM    2  C   UNL     1     -11.810  13.627  66.363  1.00  0.00    -0.433 C  
HETATM    3  C   UNL     1     -11.651  13.681  67.895  1.00  0.00    -0.341 C  
HETATM    4  O   UNL     1     -12.594  14.532  68.475  1.00  0.00    -0.517 OA 
HETATM    5  C   UNL     1     -11.651  12.234  68.172  1.00  0.00    -0.396 C  
HETATM    6  C   UNL     1     -10.712  11.688  67.339  1.00  0.00    -0.277 C  
HETATM    7  H   UNL     1     -12.496  14.565  69.419  1.00  0.00     0.000 HD 
HETATM    8  C   UNL     1      -9.355  12.406  66.721  1.00  0.00    -0.220 C  
HETATM    9  C   UNL     1      -8.809  11.362  67.772  1.00  0.00    -0.143 C  
HETATM   10  C   UNL     1      -7.502  10.746  67.345  1.00  0.00    -0.098 C  
HETATM   11  N   UNL     1      -6.508  11.368  68.188  1.00  0.00    -0.055 NA 
HETATM   12  C   UNL     1      -5.443  10.429  68.484  1.00  0.00    -0.037 C  
HETATM   13  C   UNL     1      -6.040  12.572  67.535  1.00  0.00    -0.154 C  
HETATM   14  C   UNL     1      -7.050  13.717  67.478  1.00  0.00    -0.172 A  
HETATM   15  C   UNL     1      -8.426  13.642  67.117  1.00  0.00    -0.186 A  
HETATM   16  C   UNL     1      -8.926  14.887  66.728  1.00  0.00    -0.268 A  
HETATM   17  C   UNL     1      -8.351  16.173  66.945  1.00  0.00    -0.236 A  
HETATM   18  O   UNL     1      -9.976  14.785  65.877  1.00  0.00    -0.291 OA 
HETATM   19  C   UNL     1      -6.404  15.002  67.602  1.00  0.00    -0.156 A  
HETATM   20  C   UNL     1      -7.043  16.217  67.396  1.00  0.00    -0.200 A  
ENDROOT
BRANCH  17  21
HETATM   21  O   UNL     1      -9.103  17.279  66.643  1.00  0.00    -0.245 OA 
HETATM   22  C   UNL     1      -9.508  18.124  67.724  1.00  0.00    -0.268 C  
ENDBRANCH  17  21
TORSDOF 1
ENDMDL
MODEL       68
REMARK 921   NORMALIZED FREE ENERGY PREDICTED BY IDOCK:   -4.70 KCAL/MOL
REMARK 922        TOTAL FREE ENERGY PREDICTED BY IDOCK:   -5.07 KCAL/MOL
REMARK 923 INTER-LIGAND FREE ENERGY PREDICTED BY IDOCK:   -4.97 KCAL/MOL
REMARK 924 INTRA-LIGAND FREE ENERGY PREDICTED BY IDOCK:   -0.10 KCAL/MOL
REMARK 927      BINDING AFFINITY PREDICTED BY RF-SCORE:    0.00 PKD
ROOT
HETATM    1  C   UNL     1      -9.446   9.511  65.109  1.00  0.00    -0.236 C  
HETATM    2  C   UNL     1      -8.332   8.771  64.344  1.00  0.00    -0.165 C  
HETATM    3  C   UNL     1      -7.497   9.928  63.762  1.00  0.00    -0.136 C  
HETATM    4  O   UNL     1      -6.150   9.578  63.650  1.00  0.00    -0.089 OA 
HETATM    5  C   UNL     1      -8.315  10.218  62.572  1.00  0.00    -0.185 C  
HETATM    6  C   UNL     1      -9.598  10.372  63.021  1.00  0.00    -0.341 C  
HETATM    7  H   UNL     1      -5.635  10.291  63.291  1.00  0.00     0.000 HD 
HETATM    8  C   UNL     1     -10.104  10.886  64.510  1.00  0.00    -0.404 C  
HETATM    9  C   UNL     1     -10.465  12.074  63.536  1.00  0.00    -0.505 C  
HETATM   10  C   UNL     1     -11.737  12.776  63.932  1.00  0.00    -0.459 C  
HETATM   11  N   UNL     1     -11.305  14.031  64.501  1.00  0.00    -0.370 NA 
HETATM   12  C   UNL     1     -12.269  15.075  64.209  1.00  0.00    -0.293 C  
HETATM   13  C   UNL     1     -11.085  13.841  65.920  1.00  0.00    -0.286 C  
HETATM   14  C   UNL     1      -9.871  12.987  66.282  1.00  0.00    -0.278 A  
HETATM   15  C   UNL     1      -9.481  11.745  65.703  1.00  0.00    -0.209 A  
HETATM   16  C   UNL     1      -8.628  11.029  66.546  1.00  0.00    -0.165 A  
HETATM   17  C   UNL     1      -7.907  11.505  67.680  1.00  0.00    -0.125 A  
HETATM   18  O   UNL     1      -8.689   9.691  66.335  1.00  0.00    -0.131 OA 
HETATM   19  C   UNL     1      -9.237  13.451  67.493  1.00  0.00    -0.219 A  
HETATM   20  C   UNL     1      -8.234  12.760  68.160  1.00  0.00    -0.167 A  
ENDROOT
BRANCH  17  21
HETATM   21  O   UNL     1      -6.981  10.673  68.255  1.00  0.00    -0.070 OA 
HETATM   22  C   UNL     1      -7.085  10.432  69.661  1.00  0.00    -0.135 C  
ENDBRANCH  17  21
TORSDOF 1
ENDMDL
MODEL       69
REMARK 921   NORMALIZED FREE ENERGY PREDICTED BY IDOCK:   -4.69 KCAL/MOL
REMARK 922        TOTAL FREE ENERGY PREDICTED BY IDOCK:   -5.06 KCAL/MOL
REMARK 923 INTER-LIGAND FREE ENERGY PREDICTED BY IDOCK:   -4.96 KCAL/MOL
REMARK 924 INTRA-LIGAND FREE ENERGY PREDICTED BY IDOCK:   -0.10 KCAL/MOL
REMARK 927      BINDING AFFINITY PREDICTED BY RF-SCORE:    0.00 PKD
ROOT
HETATM    1  C   UNL     1      -7.998   9.967  68.139  1.00  0.00    -0.100 C  
HETATM    2  C   UNL     1      -6.680  10.099  68.927  1.00  0.00    -0.053 C  
HETATM    3  C   UNL     1      -6.843  11.461  69.630  1.00  0.00    -0.068 C  
HETATM    4  O   UNL     1      -6.179  11.484  70.857  1.00  0.00    -0.497 OA 
HETATM    5  C   UNL     1      -6.431  12.337  68.519  1.00  0.00    -0.064 C  
HETATM    6  C   UNL     1      -7.178  11.957  67.437  1.00  0.00    -0.142 C  
HETATM    7  H   UNL     1      -6.280  12.323  71.290  1.00  0.00     0.000 HD 
HETATM    8  C   UNL     1      -8.685  11.272  67.427  1.00  0.00    -0.139 C  
HETATM    9  C   UNL     1      -8.909  12.734  66.876  1.00  0.00    -0.194 C  
HETATM   10  C   UNL     1      -9.988  12.793  65.827  1.00  0.00    -0.251 C  
HETATM   11  N   UNL     1     -11.116  13.405  66.490  1.00  0.00    -0.294 NA 
HETATM   12  C   UNL     1     -11.870  14.217  65.554  1.00  0.00    -0.364 C  
HETATM   13  C   UNL     1     -11.909  12.360  67.104  1.00  0.00    -0.291 C  
HETATM   14  C   UNL     1     -11.265  11.679  68.311  1.00  0.00    -0.320 A  
HETATM   15  C   UNL     1      -9.926  11.209  68.430  1.00  0.00    -0.193 A  
HETATM   16  C   UNL     1      -9.802  10.256  69.443  1.00  0.00    -0.227 A  
HETATM   17  C   UNL     1     -10.718   9.965  70.495  1.00  0.00    -0.317 A  
HETATM   18  O   UNL     1      -8.769   9.403  69.233  1.00  0.00    -0.132 OA 
HETATM   19  C   UNL     1     -12.250  11.315  69.303  1.00  0.00    -0.290 A  
HETATM   20  C   UNL     1     -11.983  10.519  70.409  1.00  0.00    -0.425 A  
ENDROOT
BRANCH  17  21
HETATM   21  O   UNL     1     -10.312   9.116  71.492  1.00  0.00    -0.320 OA 
HETATM   22  C   UNL     1     -11.209   8.071  71.883  1.00  0.00    -0.280 C  
ENDBRANCH  17  21
TORSDOF 1
ENDMDL
MODEL       70
REMARK 921   NORMALIZED FREE ENERGY PREDICTED BY IDOCK:   -4.68 KCAL/MOL
REMARK 922        TOTAL FREE ENERGY PREDICTED BY IDOCK:   -5.04 KCAL/MOL
REMARK 923 INTER-LIGAND FREE ENERGY PREDICTED BY IDOCK:   -4.95 KCAL/MOL
REMARK 924 INTRA-LIGAND FREE ENERGY PREDICTED BY IDOCK:   -0.09 KCAL/MOL
REMARK 927      BINDING AFFINITY PREDICTED BY RF-SCORE:    0.00 PKD
ROOT
HETATM    1  C   UNL     1     -11.033  10.422  68.459  1.00  0.00    -0.254 C  
HETATM    2  C   UNL     1     -10.336   9.850  69.709  1.00  0.00    -0.278 C  
HETATM    3  C   UNL     1      -8.852  10.172  69.444  1.00  0.00    -0.185 C  
HETATM    4  O   UNL     1      -8.159  10.393  70.634  1.00  0.00    -0.246 OA 
HETATM    5  C   UNL     1      -8.529   9.031  68.569  1.00  0.00    -0.128 C  
HETATM    6  C   UNL     1      -9.482   9.024  67.586  1.00  0.00    -0.166 C  
HETATM    7  H   UNL     1      -7.244  10.592  70.470  1.00  0.00     0.000 HD 
HETATM    8  C   UNL     1     -10.336  10.306  66.982  1.00  0.00    -0.299 C  
HETATM    9  C   UNL     1      -9.350   9.900  65.817  1.00  0.00    -0.259 C  
HETATM   10  C   UNL     1      -9.960  10.095  64.454  1.00  0.00    -0.159 C  
HETATM   11  N   UNL     1      -9.310  11.271  63.924  1.00  0.00    -0.169 NA 
HETATM   12  C   UNL     1      -9.157  11.155  62.486  1.00  0.00    -0.303 C  
HETATM   13  C   UNL     1     -10.072  12.436  64.322  1.00  0.00    -0.278 C  
HETATM   14  C   UNL     1     -10.006  12.780  65.810  1.00  0.00    -0.259 A  
HETATM   15  C   UNL     1     -10.138  11.889  66.912  1.00  0.00    -0.229 A  
HETATM   16  C   UNL     1     -10.484  12.565  68.084  1.00  0.00    -0.229 A  
HETATM   17  C   UNL     1     -10.408  13.964  68.348  1.00  0.00    -0.249 A  
HETATM   18  O   UNL     1     -11.151  11.779  68.963  1.00  0.00    -0.223 OA 
HETATM   19  C   UNL     1     -10.033  14.208  66.026  1.00  0.00    -0.340 A  
HETATM   20  C   UNL     1     -10.175  14.803  67.272  1.00  0.00    -0.241 A  
ENDROOT
BRANCH  17  21
HETATM   21  O   UNL     1     -10.624  14.394  69.632  1.00  0.00    -0.138 OA 
HETATM   22  C   UNL     1     -11.137  15.718  69.813  1.00  0.00    -0.322 C  
ENDBRANCH  17  21
TORSDOF 1
ENDMDL
MODEL       71
REMARK 921   NORMALIZED FREE ENERGY PREDICTED BY IDOCK:   -4.68 KCAL/MOL
REMARK 922        TOTAL FREE ENERGY PREDICTED BY IDOCK:   -5.04 KCAL/MOL
REMARK 923 INTER-LIGAND FREE ENERGY PREDICTED BY IDOCK:   -4.95 KCAL/MOL
REMARK 924 INTRA-LIGAND FREE ENERGY PREDICTED BY IDOCK:   -0.09 KCAL/MOL
REMARK 927      BINDING AFFINITY PREDICTED BY RF-SCORE:    0.00 PKD
ROOT
HETATM    1  C   UNL     1      -9.384   8.768  71.509  1.00  0.00    -0.267 C  
HETATM    2  C   UNL     1     -10.164   8.152  72.687  1.00  0.00    -0.388 C  
HETATM    3  C   UNL     1     -11.479   7.701  72.021  1.00  0.00    -0.283 C  
HETATM    4  O   UNL     1     -12.006   6.571  72.647  1.00  0.00    -0.499 OA 
HETATM    5  C   UNL     1     -12.192   8.990  72.039  1.00  0.00    -0.446 C  
HETATM    6  C   UNL     1     -11.342   9.903  71.478  1.00  0.00    -0.246 C  
HETATM    7  H   UNL     1     -12.816   6.293  72.236  1.00  0.00     0.000 HD 
HETATM    8  C   UNL     1     -10.154   9.638  70.356  1.00  0.00    -0.336 C  
HETATM    9  C   UNL     1     -11.274  10.426  69.570  1.00  0.00    -0.325 C  
HETATM   10  C   UNL     1     -10.702  11.357  68.533  1.00  0.00    -0.201 C  
HETATM   11  N   UNL     1     -10.968  10.711  67.270  1.00  0.00    -0.300 NA 
HETATM   12  C   UNL     1     -11.222  11.702  66.242  1.00  0.00    -0.271 C  
HETATM   13  C   UNL     1      -9.856   9.839  66.957  1.00  0.00    -0.193 C  
HETATM   14  C   UNL     1      -9.735   8.595  67.837  1.00  0.00    -0.192 A  
HETATM   15  C   UNL     1      -9.840   8.524  69.256  1.00  0.00    -0.185 A  
HETATM   16  C   UNL     1      -9.238   7.369  69.760  1.00  0.00    -0.140 A  
HETATM   17  C   UNL     1      -8.851   6.196  69.049  1.00  0.00    -0.123 A  
HETATM   18  O   UNL     1      -8.814   7.518  71.039  1.00  0.00    -0.143 OA 
HETATM   19  C   UNL     1      -9.243   7.462  67.090  1.00  0.00    -0.159 A  
HETATM   20  C   UNL     1      -8.856   6.259  67.667  1.00  0.00    -0.111 A  
ENDROOT
BRANCH  17  21
HETATM   21  O   UNL     1      -8.445   5.104  69.772  1.00  0.00    -0.094 OA 
HETATM   22  C   UNL     1      -7.612   4.143  69.116  1.00  0.00    -0.054 C  
ENDBRANCH  17  21
TORSDOF 1
ENDMDL
MODEL       72
REMARK 921   NORMALIZED FREE ENERGY PREDICTED BY IDOCK:   -4.67 KCAL/MOL
REMARK 922        TOTAL FREE ENERGY PREDICTED BY IDOCK:   -5.04 KCAL/MOL
REMARK 923 INTER-LIGAND FREE ENERGY PREDICTED BY IDOCK:   -5.25 KCAL/MOL
REMARK 924 INTRA-LIGAND FREE ENERGY PREDICTED BY IDOCK:    0.21 KCAL/MOL
REMARK 927      BINDING AFFINITY PREDICTED BY RF-SCORE:    0.00 PKD
ROOT
HETATM    1  C   UNL     1      -7.866  18.812  68.904  1.00  0.00    -0.258 C  
HETATM    2  C   UNL     1      -7.407  20.237  68.537  1.00  0.00    -0.120 C  
HETATM    3  C   UNL     1      -6.670  20.020  67.201  1.00  0.00    -0.213 C  
HETATM    4  O   UNL     1      -6.781  21.137  66.371  1.00  0.00    -0.476 OA 
HETATM    5  C   UNL     1      -5.367  19.586  67.732  1.00  0.00    -0.178 C  
HETATM    6  C   UNL     1      -5.633  18.574  68.614  1.00  0.00    -0.186 C  
HETATM    7  H   UNL     1      -6.327  21.003  65.547  1.00  0.00     0.000 HD 
HETATM    8  C   UNL     1      -6.908  17.518  68.602  1.00  0.00    -0.227 C  
HETATM    9  C   UNL     1      -5.659  16.638  68.205  1.00  0.00    -0.118 C  
HETATM   10  C   UNL     1      -5.753  15.233  68.741  1.00  0.00    -0.089 C  
HETATM   11  N   UNL     1      -6.067  14.419  67.591  1.00  0.00    -0.323 NA 
HETATM   12  C   UNL     1      -5.448  13.113  67.716  1.00  0.00    -0.110 C  
HETATM   13  C   UNL     1      -7.507  14.356  67.452  1.00  0.00    -0.159 C  
HETATM   14  C   UNL     1      -8.176  15.657  67.011  1.00  0.00    -0.268 A  
HETATM   15  C   UNL     1      -7.936  16.968  67.510  1.00  0.00    -0.189 A  
HETATM   16  C   UNL     1      -9.002  17.828  67.237  1.00  0.00    -0.246 A  
HETATM   17  C   UNL     1     -10.069  17.640  66.310  1.00  0.00    -0.341 A  
HETATM   18  O   UNL     1      -9.092  18.846  68.127  1.00  0.00    -0.294 OA 
HETATM   19  C   UNL     1      -9.311  15.405  66.155  1.00  0.00    -0.367 A  
HETATM   20  C   UNL     1     -10.218  16.380  65.759  1.00  0.00    -0.370 A  
ENDROOT
BRANCH  17  21
HETATM   21  O   UNL     1     -10.909  18.696  66.067  1.00  0.00    -0.303 OA 
HETATM   22  C   UNL     1     -10.318  19.948  65.707  1.00  0.00    -0.410 C  
ENDBRANCH  17  21
TORSDOF 1
ENDMDL
MODEL       73
REMARK 921   NORMALIZED FREE ENERGY PREDICTED BY IDOCK:   -4.67 KCAL/MOL
REMARK 922        TOTAL FREE ENERGY PREDICTED BY IDOCK:   -5.04 KCAL/MOL
REMARK 923 INTER-LIGAND FREE ENERGY PREDICTED BY IDOCK:   -4.95 KCAL/MOL
REMARK 924 INTRA-LIGAND FREE ENERGY PREDICTED BY IDOCK:   -0.09 KCAL/MOL
REMARK 927      BINDING AFFINITY PREDICTED BY RF-SCORE:    0.00 PKD
ROOT
HETATM    1  C   UNL     1     -11.608   7.326  71.462  1.00  0.00    -0.275 C  
HETATM    2  C   UNL     1     -10.985   7.621  72.841  1.00  0.00    -0.456 C  
HETATM    3  C   UNL     1      -9.504   7.869  72.496  1.00  0.00    -0.201 C  
HETATM    4  O   UNL     1      -8.923   8.782  73.376  1.00  0.00    -0.199 OA 
HETATM    5  C   UNL     1      -9.051   6.469  72.434  1.00  0.00    -0.133 C  
HETATM    6  C   UNL     1      -9.919   5.825  71.594  1.00  0.00    -0.218 C  
HETATM    7  H   UNL     1      -8.009   8.936  73.163  1.00  0.00     0.000 HD 
HETATM    8  C   UNL     1     -10.787   6.463  70.338  1.00  0.00    -0.343 C  
HETATM    9  C   UNL     1      -9.690   5.564  69.645  1.00  0.00    -0.230 C  
HETATM   10  C   UNL     1     -10.196   4.904  68.390  1.00  0.00    -0.028 C  
HETATM   11  N   UNL     1      -9.568   5.631  67.312  1.00  0.00    -0.114 NA 
HETATM   12  C   UNL     1      -9.292   4.741  66.200  1.00  0.00    -0.152 C  
HETATM   13  C   UNL     1     -10.420   6.745  66.951  1.00  0.00    -0.280 C  
HETATM   14  C   UNL     1     -10.494   7.869  67.983  1.00  0.00    -0.245 A  
HETATM   15  C   UNL     1     -10.668   7.744  69.391  1.00  0.00    -0.177 A  
HETATM   16  C   UNL     1     -11.144   8.927  69.959  1.00  0.00    -0.170 A  
HETATM   17  C   UNL     1     -11.163  10.233  69.387  1.00  0.00    -0.239 A  
HETATM   18  O   UNL     1     -11.838   8.714  71.104  1.00  0.00    -0.284 OA 
HETATM   19  C   UNL     1     -10.614   9.162  67.352  1.00  0.00    -0.315 A  
HETATM   20  C   UNL     1     -10.889  10.339  68.035  1.00  0.00    -0.325 A  
ENDROOT
BRANCH  17  21
HETATM   21  O   UNL     1     -11.506  11.289  70.192  1.00  0.00    -0.297 OA 
HETATM   22  C   UNL     1     -12.007  12.471  69.562  1.00  0.00    -0.266 C  
ENDBRANCH  17  21
TORSDOF 1
ENDMDL
MODEL       74
REMARK 921   NORMALIZED FREE ENERGY PREDICTED BY IDOCK:   -4.64 KCAL/MOL
REMARK 922        TOTAL FREE ENERGY PREDICTED BY IDOCK:   -5.01 KCAL/MOL
REMARK 923 INTER-LIGAND FREE ENERGY PREDICTED BY IDOCK:   -5.01 KCAL/MOL
REMARK 924 INTRA-LIGAND FREE ENERGY PREDICTED BY IDOCK:    0.00 KCAL/MOL
REMARK 927      BINDING AFFINITY PREDICTED BY RF-SCORE:    0.00 PKD
ROOT
HETATM    1  C   UNL     1      -8.304  16.003  68.885  1.00  0.00    -0.231 C  
HETATM    2  C   UNL     1      -6.906  16.651  68.834  1.00  0.00    -0.191 C  
HETATM    3  C   UNL     1      -6.300  16.041  67.555  1.00  0.00    -0.170 C  
HETATM    4  O   UNL     1      -5.412  16.926  66.941  1.00  0.00    -0.154 OA 
HETATM    5  C   UNL     1      -5.839  14.759  68.115  1.00  0.00    -0.142 C  
HETATM    6  C   UNL     1      -6.915  14.219  68.766  1.00  0.00    -0.102 C  
HETATM    7  H   UNL     1      -5.038  16.550  66.152  1.00  0.00     0.000 HD 
HETATM    8  C   UNL     1      -8.522  14.443  68.439  1.00  0.00    -0.165 C  
HETATM    9  C   UNL     1      -8.232  12.953  68.004  1.00  0.00    -0.168 C  
HETATM   10  C   UNL     1      -9.402  12.041  68.259  1.00  0.00    -0.197 C  
HETATM   11  N   UNL     1      -9.965  11.788  66.954  1.00  0.00    -0.197 NA 
HETATM   12  C   UNL     1     -10.506  10.443  66.891  1.00  0.00    -0.240 C  
HETATM   13  C   UNL     1     -10.950  12.811  66.672  1.00  0.00    -0.270 C  
HETATM   14  C   UNL     1     -10.385  14.208  66.419  1.00  0.00    -0.287 A  
HETATM   15  C   UNL     1      -9.388  14.889  67.174  1.00  0.00    -0.227 A  
HETATM   16  C   UNL     1      -9.437  16.269  66.967  1.00  0.00    -0.226 A  
HETATM   17  C   UNL     1     -10.103  16.980  65.926  1.00  0.00    -0.263 A  
HETATM   18  O   UNL     1      -8.949  16.972  68.018  1.00  0.00    -0.221 OA 
HETATM   19  C   UNL     1     -11.157  14.921  65.429  1.00  0.00    -0.366 A  
HETATM   20  C   UNL     1     -10.992  16.269  65.139  1.00  0.00    -0.285 A  
ENDROOT
BRANCH  17  21
HETATM   21  O   UNL     1      -9.867  18.325  65.805  1.00  0.00    -0.516 OA 
HETATM   22  C   UNL     1     -10.760  19.220  66.475  1.00  0.00    -0.393 C  
ENDBRANCH  17  21
TORSDOF 1
ENDMDL
MODEL       75
REMARK 921   NORMALIZED FREE ENERGY PREDICTED BY IDOCK:   -4.61 KCAL/MOL
REMARK 922        TOTAL FREE ENERGY PREDICTED BY IDOCK:   -4.98 KCAL/MOL
REMARK 923 INTER-LIGAND FREE ENERGY PREDICTED BY IDOCK:   -4.89 KCAL/MOL
REMARK 924 INTRA-LIGAND FREE ENERGY PREDICTED BY IDOCK:   -0.09 KCAL/MOL
REMARK 927      BINDING AFFINITY PREDICTED BY RF-SCORE:    0.00 PKD
ROOT
HETATM    1  C   UNL     1     -10.420   7.743  68.076  1.00  0.00    -0.185 C  
HETATM    2  C   UNL     1      -9.027   7.414  67.504  1.00  0.00    -0.126 C  
HETATM    3  C   UNL     1      -8.091   8.253  68.395  1.00  0.00    -0.127 C  
HETATM    4  O   UNL     1      -6.848   7.637  68.551  1.00  0.00    -0.062 OA 
HETATM    5  C   UNL     1      -8.223   9.547  67.702  1.00  0.00    -0.121 C  
HETATM    6  C   UNL     1      -9.567   9.784  67.594  1.00  0.00    -0.169 C  
HETATM    7  H   UNL     1      -6.271   8.155  69.100  1.00  0.00     0.000 HD 
HETATM    8  C   UNL     1     -10.780   9.256  68.588  1.00  0.00    -0.180 C  
HETATM    9  C   UNL     1     -10.684  10.807  68.867  1.00  0.00    -0.259 C  
HETATM   10  C   UNL     1     -12.027  11.423  69.159  1.00  0.00    -0.328 C  
HETATM   11  N   UNL     1     -12.019  11.671  70.581  1.00  0.00    -0.329 NA 
HETATM   12  C   UNL     1     -12.775  12.870  70.887  1.00  0.00    -0.207 C  
HETATM   13  C   UNL     1     -12.523  10.493  71.255  1.00  0.00    -0.419 C  
HETATM   14  C   UNL     1     -11.599   9.276  71.221  1.00  0.00    -0.419 A  
HETATM   15  C   UNL     1     -10.892   8.756  70.100  1.00  0.00    -0.241 A  
HETATM   16  C   UNL     1     -10.529   7.421  70.294  1.00  0.00    -0.221 A  
HETATM   17  C   UNL     1     -10.502   6.685  71.514  1.00  0.00    -0.215 A  
HETATM   18  O   UNL     1     -10.389   6.744  69.128  1.00  0.00    -0.176 OA 
HETATM   19  C   UNL     1     -11.685   8.510  72.442  1.00  0.00    -0.429 A  
HETATM   20  C   UNL     1     -11.106   7.260  72.617  1.00  0.00    -0.355 A  
ENDROOT
BRANCH  17  21
HETATM   21  O   UNL     1      -9.933   5.437  71.506  1.00  0.00    -0.169 OA 
HETATM   22  C   UNL     1     -10.484   4.449  72.383  1.00  0.00    -0.149 C  
ENDBRANCH  17  21
TORSDOF 1
ENDMDL
MODEL       76
REMARK 921   NORMALIZED FREE ENERGY PREDICTED BY IDOCK:   -4.61 KCAL/MOL
REMARK 922        TOTAL FREE ENERGY PREDICTED BY IDOCK:   -4.97 KCAL/MOL
REMARK 923 INTER-LIGAND FREE ENERGY PREDICTED BY IDOCK:   -4.87 KCAL/MOL
REMARK 924 INTRA-LIGAND FREE ENERGY PREDICTED BY IDOCK:   -0.10 KCAL/MOL
REMARK 927      BINDING AFFINITY PREDICTED BY RF-SCORE:    0.00 PKD
ROOT
HETATM    1  C   UNL     1     -10.133  15.282  66.552  1.00  0.00    -0.270 C  
HETATM    2  C   UNL     1     -10.818  16.282  67.505  1.00  0.00    -0.268 C  
HETATM    3  C   UNL     1     -10.810  15.526  68.848  1.00  0.00    -0.254 C  
HETATM    4  O   UNL     1     -10.719  16.407  69.927  1.00  0.00    -0.330 OA 
HETATM    5  C   UNL     1     -12.005  14.689  68.641  1.00  0.00    -0.305 C  
HETATM    6  C   UNL     1     -11.832  14.072  67.432  1.00  0.00    -0.445 C  
HETATM    7  H   UNL     1     -10.714  15.941  70.755  1.00  0.00     0.000 HD 
HETATM    8  C   UNL     1     -10.411  13.674  66.683  1.00  0.00    -0.275 C  
HETATM    9  C   UNL     1     -11.025  12.290  67.130  1.00  0.00    -0.308 C  
HETATM   10  C   UNL     1     -10.729  11.186  66.149  1.00  0.00    -0.225 C  
HETATM   11  N   UNL     1      -9.719  10.380  66.794  1.00  0.00    -0.175 NA 
HETATM   12  C   UNL     1      -9.884   8.985  66.436  1.00  0.00    -0.286 C  
HETATM   13  C   UNL     1      -8.417  10.908  66.442  1.00  0.00    -0.163 C  
HETATM   14  C   UNL     1      -8.073  12.261  67.063  1.00  0.00    -0.141 A  
HETATM   15  C   UNL     1      -8.902  13.416  67.141  1.00  0.00    -0.225 A  
HETATM   16  C   UNL     1      -8.153  14.577  67.338  1.00  0.00    -0.200 A  
HETATM   17  C   UNL     1      -6.796  14.688  67.760  1.00  0.00    -0.176 A  
HETATM   18  O   UNL     1      -8.774  15.686  66.866  1.00  0.00    -0.211 OA 
HETATM   19  C   UNL     1      -6.667  12.358  67.379  1.00  0.00    -0.152 A  
HETATM   20  C   UNL     1      -6.038  13.531  67.774  1.00  0.00    -0.148 A  
ENDROOT
BRANCH  17  21
HETATM   21  O   UNL     1      -6.312  15.934  68.068  1.00  0.00    -0.112 OA 
HETATM   22  C   UNL     1      -6.414  16.369  69.428  1.00  0.00    -0.206 C  
ENDBRANCH  17  21
TORSDOF 1
ENDMDL
MODEL       77
REMARK 921   NORMALIZED FREE ENERGY PREDICTED BY IDOCK:   -4.49 KCAL/MOL
REMARK 922        TOTAL FREE ENERGY PREDICTED BY IDOCK:   -4.84 KCAL/MOL
REMARK 923 INTER-LIGAND FREE ENERGY PREDICTED BY IDOCK:   -4.76 KCAL/MOL
REMARK 924 INTRA-LIGAND FREE ENERGY PREDICTED BY IDOCK:   -0.09 KCAL/MOL
REMARK 927      BINDING AFFINITY PREDICTED BY RF-SCORE:    0.00 PKD
ROOT
HETATM    1  C   UNL     1      -9.395  16.378  66.190  1.00  0.00    -0.325 C  
HETATM    2  C   UNL     1     -10.108  17.645  66.703  1.00  0.00    -0.335 C  
HETATM    3  C   UNL     1     -10.043  17.473  68.233  1.00  0.00    -0.346 C  
HETATM    4  O   UNL     1      -9.972  18.706  68.882  1.00  0.00    -0.389 OA 
HETATM    5  C   UNL     1     -11.202  16.580  68.407  1.00  0.00    -0.280 C  
HETATM    6  C   UNL     1     -11.022  15.547  67.527  1.00  0.00    -0.316 C  
HETATM    7  H   UNL     1      -9.932  18.599  69.825  1.00  0.00     0.000 HD 
HETATM    8  C   UNL     1      -9.597  14.939  66.944  1.00  0.00    -0.256 C  
HETATM    9  C   UNL     1     -10.141  13.817  67.913  1.00  0.00    -0.246 C  
HETATM   10  C   UNL     1      -9.812  12.430  67.428  1.00  0.00    -0.199 C  
HETATM   11  N   UNL     1      -8.756  11.975  68.301  1.00  0.00    -0.179 NA 
HETATM   12  C   UNL     1      -8.864  10.544  68.518  1.00  0.00    -0.144 C  
HETATM   13  C   UNL     1      -7.485  12.368  67.729  1.00  0.00    -0.126 C  
HETATM   14  C   UNL     1      -7.192  13.868  67.764  1.00  0.00    -0.173 A  
HETATM   15  C   UNL     1      -8.071  14.932  67.416  1.00  0.00    -0.218 A  
HETATM   16  C   UNL     1      -7.372  16.104  67.122  1.00  0.00    -0.215 A  
HETATM   17  C   UNL     1      -6.014  16.418  67.422  1.00  0.00    -0.162 A  
HETATM   18  O   UNL     1      -8.050  16.919  66.278  1.00  0.00    -0.287 OA 
HETATM   19  C   UNL     1      -5.787  14.129  67.971  1.00  0.00    -0.138 A  
HETATM   20  C   UNL     1      -5.204  15.384  67.859  1.00  0.00    -0.124 A  
ENDROOT
BRANCH  17  21
HETATM   21  O   UNL     1      -5.582  17.701  67.207  1.00  0.00    -0.126 OA 
HETATM   22  C   UNL     1      -5.143  18.454  68.341  1.00  0.00    -0.172 C  
ENDBRANCH  17  21
TORSDOF 1
ENDMDL
MODEL       78
REMARK 921   NORMALIZED FREE ENERGY PREDICTED BY IDOCK:   -4.44 KCAL/MOL
REMARK 922        TOTAL FREE ENERGY PREDICTED BY IDOCK:   -4.80 KCAL/MOL
REMARK 923 INTER-LIGAND FREE ENERGY PREDICTED BY IDOCK:   -4.72 KCAL/MOL
REMARK 924 INTRA-LIGAND FREE ENERGY PREDICTED BY IDOCK:   -0.08 KCAL/MOL
REMARK 927      BINDING AFFINITY PREDICTED BY RF-SCORE:    0.00 PKD
ROOT
HETATM    1  C   UNL     1     -11.043  13.754  67.426  1.00  0.00    -0.296 C  
HETATM    2  C   UNL     1     -11.589  15.057  68.041  1.00  0.00    -0.356 C  
HETATM    3  C   UNL     1     -11.050  15.001  69.483  1.00  0.00    -0.277 C  
HETATM    4  O   UNL     1     -10.809  16.280  69.987  1.00  0.00    -0.335 OA 
HETATM    5  C   UNL     1     -12.078  14.126  70.073  1.00  0.00    -0.409 C  
HETATM    6  C   UNL     1     -12.157  13.029  69.258  1.00  0.00    -0.251 C  
HETATM    7  H   UNL     1     -10.476  16.245  70.877  1.00  0.00     0.000 HD 
HETATM    8  C   UNL     1     -10.970  12.376  68.308  1.00  0.00    -0.269 C  
HETATM    9  C   UNL     1     -11.162  11.332  69.476  1.00  0.00    -0.337 C  
HETATM   10  C   UNL     1     -10.969   9.911  69.015  1.00  0.00    -0.190 C  
HETATM   11  N   UNL     1      -9.685   9.522  69.547  1.00  0.00    -0.179 NA 
HETATM   12  C   UNL     1      -9.689   8.112  69.890  1.00  0.00    -0.176 C  
HETATM   13  C   UNL     1      -8.663   9.869  68.582  1.00  0.00    -0.124 C  
HETATM   14  C   UNL     1      -8.406  11.366  68.415  1.00  0.00    -0.153 A  
HETATM   15  C   UNL     1      -9.373  12.402  68.281  1.00  0.00    -0.199 A  
HETATM   16  C   UNL     1      -8.825  13.548  67.700  1.00  0.00    -0.202 A  
HETATM   17  C   UNL     1      -7.448  13.881  67.540  1.00  0.00    -0.169 A  
HETATM   18  O   UNL     1      -9.750  14.298  67.051  1.00  0.00    -0.239 OA 
HETATM   19  C   UNL     1      -7.012  11.639  68.156  1.00  0.00    -0.071 A  
HETATM   20  C   UNL     1      -6.521  12.882  67.777  1.00  0.00    -0.143 A  
ENDROOT
BRANCH  17  21
HETATM   21  O   UNL     1      -7.133  15.143  67.108  1.00  0.00    -0.190 OA 
HETATM   22  C   UNL     1      -6.008  15.790  67.711  1.00  0.00    -0.150 C  
ENDBRANCH  17  21
TORSDOF 1
ENDMDL
MODEL       79
REMARK 921   NORMALIZED FREE ENERGY PREDICTED BY IDOCK:   -4.41 KCAL/MOL
REMARK 922        TOTAL FREE ENERGY PREDICTED BY IDOCK:   -4.76 KCAL/MOL
REMARK 923 INTER-LIGAND FREE ENERGY PREDICTED BY IDOCK:   -4.66 KCAL/MOL
REMARK 924 INTRA-LIGAND FREE ENERGY PREDICTED BY IDOCK:   -0.10 KCAL/MOL
REMARK 927      BINDING AFFINITY PREDICTED BY RF-SCORE:    0.00 PKD
ROOT
HETATM    1  C   UNL     1      -9.595  10.605  68.125  1.00  0.00    -0.157 C  
HETATM    2  C   UNL     1      -8.846   9.279  67.884  1.00  0.00    -0.124 C  
HETATM    3  C   UNL     1      -8.176   9.515  66.516  1.00  0.00    -0.119 C  
HETATM    4  O   UNL     1      -6.968   8.824  66.415  1.00  0.00    -0.079 OA 
HETATM    5  C   UNL     1      -9.320   9.190  65.647  1.00  0.00    -0.300 C  
HETATM    6  C   UNL     1     -10.371   9.937  66.106  1.00  0.00    -0.223 C  
HETATM    7  H   UNL     1      -6.554   8.970  65.572  1.00  0.00     0.000 HD 
HETATM    8  C   UNL     1     -10.323  11.394  66.889  1.00  0.00    -0.262 C  
HETATM    9  C   UNL     1     -10.906  11.730  65.461  1.00  0.00    -0.348 C  
HETATM   10  C   UNL     1     -11.928  12.835  65.503  1.00  0.00    -0.449 C  
HETATM   11  N   UNL     1     -11.252  13.984  64.949  1.00  0.00    -0.346 NA 
HETATM   12  C   UNL     1     -12.189  14.814  64.215  1.00  0.00    -0.379 C  
HETATM   13  C   UNL     1     -10.589  14.691  66.025  1.00  0.00    -0.309 C  
HETATM   14  C   UNL     1      -9.382  13.974  66.629  1.00  0.00    -0.292 A  
HETATM   15  C   UNL     1      -9.286  12.604  67.005  1.00  0.00    -0.220 A  
HETATM   16  C   UNL     1      -8.252  12.391  67.919  1.00  0.00    -0.163 A  
HETATM   17  C   UNL     1      -7.168  13.259  68.240  1.00  0.00    -0.108 A  
HETATM   18  O   UNL     1      -8.466  11.309  68.707  1.00  0.00    -0.155 OA 
HETATM   19  C   UNL     1      -8.355  14.907  67.028  1.00  0.00    -0.246 A  
HETATM   20  C   UNL     1      -7.236  14.560  67.773  1.00  0.00    -0.192 A  
ENDROOT
BRANCH  17  21
HETATM   21  O   UNL     1      -6.160  12.773  69.032  1.00  0.00    -0.077 OA 
HETATM   22  C   UNL     1      -5.642  13.633  70.052  1.00  0.00    -0.115 C  
ENDBRANCH  17  21
TORSDOF 1
ENDMDL
MODEL       80
REMARK 921   NORMALIZED FREE ENERGY PREDICTED BY IDOCK:   -4.39 KCAL/MOL
REMARK 922        TOTAL FREE ENERGY PREDICTED BY IDOCK:   -4.74 KCAL/MOL
REMARK 923 INTER-LIGAND FREE ENERGY PREDICTED BY IDOCK:   -4.65 KCAL/MOL
REMARK 924 INTRA-LIGAND FREE ENERGY PREDICTED BY IDOCK:   -0.10 KCAL/MOL
REMARK 927      BINDING AFFINITY PREDICTED BY RF-SCORE:    0.00 PKD
ROOT
HETATM    1  C   UNL     1     -10.513   5.831  68.944  1.00  0.00    -0.256 C  
HETATM    2  C   UNL     1     -10.092   4.601  69.772  1.00  0.00    -0.243 C  
HETATM    3  C   UNL     1      -9.108   5.204  70.793  1.00  0.00    -0.135 C  
HETATM    4  O   UNL     1      -9.138   4.508  72.003  1.00  0.00    -0.126 OA 
HETATM    5  C   UNL     1      -7.898   5.226  69.952  1.00  0.00    -0.080 C  
HETATM    6  C   UNL     1      -8.255   5.857  68.791  1.00  0.00    -0.103 C  
HETATM    7  H   UNL     1      -8.531   4.880  72.632  1.00  0.00     0.000 HD 
HETATM    8  C   UNL     1      -9.430   7.000  68.569  1.00  0.00    -0.134 C  
HETATM    9  C   UNL     1      -8.072   7.788  68.402  1.00  0.00    -0.124 C  
HETATM   10  C   UNL     1      -8.167   8.886  67.374  1.00  0.00    -0.108 C  
HETATM   11  N   UNL     1      -8.206  10.108  68.142  1.00  0.00    -0.112 NA 
HETATM   12  C   UNL     1      -7.535  11.174  67.424  1.00  0.00    -0.109 C  
HETATM   13  C   UNL     1      -9.588  10.413  68.451  1.00  0.00    -0.148 C  
HETATM   14  C   UNL     1     -10.251   9.477  69.461  1.00  0.00    -0.225 A  
HETATM   15  C   UNL     1     -10.197   8.054  69.491  1.00  0.00    -0.209 A  
HETATM   16  C   UNL     1     -11.251   7.514  70.231  1.00  0.00    -0.236 A  
HETATM   17  C   UNL     1     -12.112   8.179  71.152  1.00  0.00    -0.260 A  
HETATM   18  O   UNL     1     -11.573   6.257  69.839  1.00  0.00    -0.435 OA 
HETATM   19  C   UNL     1     -11.188  10.183  70.303  1.00  0.00    -0.387 A  
HETATM   20  C   UNL     1     -12.070   9.561  71.177  1.00  0.00    -0.429 A  
ENDROOT
BRANCH  17  21
HETATM   21  O   UNL     1     -12.963   7.417  71.911  1.00  0.00    -0.314 OA 
HETATM   22  C   UNL     1     -14.362   7.494  71.622  1.00  0.00    -0.477 C  
ENDBRANCH  17  21
TORSDOF 1
ENDMDL
MODEL       81
REMARK 921   NORMALIZED FREE ENERGY PREDICTED BY IDOCK:   -4.36 KCAL/MOL
REMARK 922        TOTAL FREE ENERGY PREDICTED BY IDOCK:   -4.71 KCAL/MOL
REMARK 923 INTER-LIGAND FREE ENERGY PREDICTED BY IDOCK:   -4.63 KCAL/MOL
REMARK 924 INTRA-LIGAND FREE ENERGY PREDICTED BY IDOCK:   -0.08 KCAL/MOL
REMARK 927      BINDING AFFINITY PREDICTED BY RF-SCORE:    0.00 PKD
ROOT
HETATM    1  C   UNL     1      -8.087   6.627  67.575  1.00  0.00    -0.118 C  
HETATM    2  C   UNL     1      -8.064   5.545  66.478  1.00  0.00    -0.105 C  
HETATM    3  C   UNL     1      -9.562   5.330  66.186  1.00  0.00    -0.161 C  
HETATM    4  O   UNL     1      -9.775   4.972  64.854  1.00  0.00    -0.365 OA 
HETATM    5  C   UNL     1      -9.875   4.404  67.288  1.00  0.00    -0.207 C  
HETATM    6  C   UNL     1      -9.411   5.001  68.429  1.00  0.00    -0.163 C  
HETATM    7  H   UNL     1     -10.699   4.839  64.674  1.00  0.00     0.000 HD 
HETATM    8  C   UNL     1      -9.239   6.618  68.738  1.00  0.00    -0.129 C  
HETATM    9  C   UNL     1     -10.447   6.166  69.649  1.00  0.00    -0.312 C  
HETATM   10  C   UNL     1     -10.488   6.906  70.960  1.00  0.00    -0.214 C  
HETATM   11  N   UNL     1     -11.584   7.835  70.825  1.00  0.00    -0.280 NA 
HETATM   12  C   UNL     1     -12.242   8.025  72.104  1.00  0.00    -0.331 C  
HETATM   13  C   UNL     1     -11.076   9.067  70.259  1.00  0.00    -0.235 C  
HETATM   14  C   UNL     1     -10.654   8.985  68.792  1.00  0.00    -0.196 A  
HETATM   15  C   UNL     1      -9.871   7.971  68.171  1.00  0.00    -0.195 A  
HETATM   16  C   UNL     1      -9.298   8.419  66.980  1.00  0.00    -0.159 A  
HETATM   17  C   UNL     1      -9.643   9.572  66.216  1.00  0.00    -0.226 A  
HETATM   18  O   UNL     1      -8.157   7.757  66.667  1.00  0.00    -0.107 OA 
HETATM   19  C   UNL     1     -10.935  10.214  68.090  1.00  0.00    -0.313 A  
HETATM   20  C   UNL     1     -10.491  10.494  66.804  1.00  0.00    -0.302 A  
ENDROOT
BRANCH  17  21
HETATM   21  O   UNL     1      -9.075   9.724  64.977  1.00  0.00    -0.198 OA 
HETATM   22  C   UNL     1      -9.709  10.621  64.060  1.00  0.00    -0.315 C  
ENDBRANCH  17  21
TORSDOF 1
ENDMDL
MODEL       82
REMARK 921   NORMALIZED FREE ENERGY PREDICTED BY IDOCK:   -4.34 KCAL/MOL
REMARK 922        TOTAL FREE ENERGY PREDICTED BY IDOCK:   -4.68 KCAL/MOL
REMARK 923 INTER-LIGAND FREE ENERGY PREDICTED BY IDOCK:   -4.59 KCAL/MOL
REMARK 924 INTRA-LIGAND FREE ENERGY PREDICTED BY IDOCK:   -0.09 KCAL/MOL
REMARK 927      BINDING AFFINITY PREDICTED BY RF-SCORE:    0.00 PKD
ROOT
HETATM    1  C   UNL     1     -10.658   9.264  67.493  1.00  0.00    -0.262 C  
HETATM    2  C   UNL     1      -9.658  10.070  66.640  1.00  0.00    -0.234 C  
HETATM    3  C   UNL     1      -8.305   9.724  67.291  1.00  0.00    -0.121 C  
HETATM    4  O   UNL     1      -7.270   9.739  66.355  1.00  0.00    -0.092 OA 
HETATM    5  C   UNL     1      -8.342  10.684  68.408  1.00  0.00    -0.127 C  
HETATM    6  C   UNL     1      -9.545  10.495  69.033  1.00  0.00    -0.213 C  
HETATM    7  H   UNL     1      -6.436   9.526  66.756  1.00  0.00     0.000 HD 
HETATM    8  C   UNL     1     -10.448   9.111  69.110  1.00  0.00    -0.230 C  
HETATM    9  C   UNL     1      -9.891   9.304  70.574  1.00  0.00    -0.310 C  
HETATM   10  C   UNL     1     -10.868   8.848  71.626  1.00  0.00    -0.349 C  
HETATM   11  N   UNL     1     -10.328   7.603  72.118  1.00  0.00    -0.211 NA 
HETATM   12  C   UNL     1     -10.624   7.449  73.530  1.00  0.00    -0.338 C  
HETATM   13  C   UNL     1     -10.850   6.523  71.307  1.00  0.00    -0.249 C  
HETATM   14  C   UNL     1     -10.314   6.465  69.877  1.00  0.00    -0.242 A  
HETATM   15  C   UNL     1     -10.169   7.545  68.960  1.00  0.00    -0.208 A  
HETATM   16  C   UNL     1     -10.098   7.096  67.640  1.00  0.00    -0.180 A  
HETATM   17  C   UNL     1      -9.847   5.773  67.173  1.00  0.00    -0.146 A  
HETATM   18  O   UNL     1     -10.522   8.025  66.749  1.00  0.00    -0.330 OA 
HETATM   19  C   UNL     1     -10.173   5.103  69.418  1.00  0.00    -0.293 A  
HETATM   20  C   UNL     1      -9.891   4.751  68.105  1.00  0.00    -0.182 A  
ENDROOT
BRANCH  17  21
HETATM   21  O   UNL     1      -9.634   5.588  65.831  1.00  0.00    -0.144 OA 
HETATM   22  C   UNL     1      -8.285   5.408  65.389  1.00  0.00    -0.130 C  
ENDBRANCH  17  21
TORSDOF 1
ENDMDL
MODEL       83
REMARK 921   NORMALIZED FREE ENERGY PREDICTED BY IDOCK:   -4.30 KCAL/MOL
REMARK 922        TOTAL FREE ENERGY PREDICTED BY IDOCK:   -4.65 KCAL/MOL
REMARK 923 INTER-LIGAND FREE ENERGY PREDICTED BY IDOCK:   -4.82 KCAL/MOL
REMARK 924 INTRA-LIGAND FREE ENERGY PREDICTED BY IDOCK:    0.18 KCAL/MOL
REMARK 927      BINDING AFFINITY PREDICTED BY RF-SCORE:    0.00 PKD
ROOT
HETATM    1  C   UNL     1      -9.314  12.737  67.884  1.00  0.00    -0.208 C  
HETATM    2  C   UNL     1      -8.623  14.031  68.360  1.00  0.00    -0.174 C  
HETATM    3  C   UNL     1      -7.619  14.313  67.226  1.00  0.00    -0.092 C  
HETATM    4  O   UNL     1      -7.402  15.682  67.067  1.00  0.00    -0.212 OA 
HETATM    5  C   UNL     1      -6.536  13.411  67.656  1.00  0.00    -0.174 C  
HETATM    6  C   UNL     1      -7.118  12.188  67.856  1.00  0.00    -0.101 C  
HETATM    7  H   UNL     1      -6.782  15.856  66.368  1.00  0.00     0.000 HD 
HETATM    8  C   UNL     1      -8.462  11.564  67.121  1.00  0.00    -0.158 C  
HETATM    9  C   UNL     1      -7.262  10.727  66.529  1.00  0.00    -0.139 C  
HETATM   10  C   UNL     1      -7.638   9.293  66.263  1.00  0.00    -0.096 C  
HETATM   11  N   UNL     1      -7.757   9.203  64.826  1.00  0.00    -0.107 NA 
HETATM   12  C   UNL     1      -7.337   7.892  64.368  1.00  0.00    -0.087 C  
HETATM   13  C   UNL     1      -9.120   9.524  64.458  1.00  0.00    -0.197 C  
HETATM   14  C   UNL     1      -9.515  10.990  64.637  1.00  0.00    -0.270 A  
HETATM   15  C   UNL     1      -9.255  11.827  65.759  1.00  0.00    -0.148 A  
HETATM   16  C   UNL     1     -10.122  12.921  65.798  1.00  0.00    -0.287 A  
HETATM   17  C   UNL     1     -10.951  13.425  64.754  1.00  0.00    -0.360 A  
HETATM   18  O   UNL     1     -10.307  13.395  67.055  1.00  0.00    -0.245 OA 
HETATM   19  C   UNL     1     -10.434  11.421  63.610  1.00  0.00    -0.472 A  
HETATM   20  C   UNL     1     -11.105  12.637  63.628  1.00  0.00    -0.496 A  
ENDROOT
BRANCH  17  21
HETATM   21  O   UNL     1     -11.585  14.625  64.952  1.00  0.00    -0.372 OA 
HETATM   22  C   UNL     1     -10.782  15.750  65.322  1.00  0.00    -0.428 C  
ENDBRANCH  17  21
TORSDOF 1
ENDMDL
MODEL       84
REMARK 921   NORMALIZED FREE ENERGY PREDICTED BY IDOCK:   -4.26 KCAL/MOL
REMARK 922        TOTAL FREE ENERGY PREDICTED BY IDOCK:   -4.61 KCAL/MOL
REMARK 923 INTER-LIGAND FREE ENERGY PREDICTED BY IDOCK:   -4.51 KCAL/MOL
REMARK 924 INTRA-LIGAND FREE ENERGY PREDICTED BY IDOCK:   -0.09 KCAL/MOL
REMARK 927      BINDING AFFINITY PREDICTED BY RF-SCORE:    0.00 PKD
ROOT
HETATM    1  C   UNL     1     -10.246   8.218  68.025  1.00  0.00    -0.214 C  
HETATM    2  C   UNL     1      -9.955   8.164  69.537  1.00  0.00    -0.187 C  
HETATM    3  C   UNL     1      -8.805   9.177  69.695  1.00  0.00    -0.151 C  
HETATM    4  O   UNL     1      -8.842   9.798  70.944  1.00  0.00    -0.355 OA 
HETATM    5  C   UNL     1      -7.683   8.306  69.306  1.00  0.00    -0.103 C  
HETATM    6  C   UNL     1      -8.033   7.749  68.105  1.00  0.00    -0.122 C  
HETATM    7  H   UNL     1      -8.133  10.423  71.042  1.00  0.00     0.000 HD 
HETATM    8  C   UNL     1      -9.028   8.376  66.941  1.00  0.00    -0.168 C  
HETATM    9  C   UNL     1      -7.583   8.453  66.311  1.00  0.00    -0.086 C  
HETATM   10  C   UNL     1      -7.592   8.221  64.823  1.00  0.00    -0.103 C  
HETATM   11  N   UNL     1      -7.373   9.526  64.244  1.00  0.00    -0.113 NA 
HETATM   12  C   UNL     1      -6.605   9.410  63.019  1.00  0.00    -0.099 C  
HETATM   13  C   UNL     1      -8.658  10.164  64.052  1.00  0.00    -0.192 C  
HETATM   14  C   UNL     1      -9.372  10.591  65.334  1.00  0.00    -0.255 A  
HETATM   15  C   UNL     1      -9.540   9.831  66.527  1.00  0.00    -0.249 A  
HETATM   16  C   UNL     1     -10.598  10.313  67.300  1.00  0.00    -0.267 A  
HETATM   17  C   UNL     1     -11.263  11.570  67.198  1.00  0.00    -0.301 A  
HETATM   18  O   UNL     1     -11.146   9.356  68.088  1.00  0.00    -0.106 OA 
HETATM   19  C   UNL     1     -10.111  11.817  65.147  1.00  0.00    -0.298 A  
HETATM   20  C   UNL     1     -11.002  12.337  66.076  1.00  0.00    -0.327 A  
ENDROOT
BRANCH  17  21
HETATM   21  O   UNL     1     -12.155  11.913  68.180  1.00  0.00    -0.516 OA 
HETATM   22  C   UNL     1     -11.646  12.586  69.336  1.00  0.00    -0.305 C  
ENDBRANCH  17  21
TORSDOF 1
ENDMDL
MODEL       85
REMARK 921   NORMALIZED FREE ENERGY PREDICTED BY IDOCK:   -4.25 KCAL/MOL
REMARK 922        TOTAL FREE ENERGY PREDICTED BY IDOCK:   -4.59 KCAL/MOL
REMARK 923 INTER-LIGAND FREE ENERGY PREDICTED BY IDOCK:   -4.50 KCAL/MOL
REMARK 924 INTRA-LIGAND FREE ENERGY PREDICTED BY IDOCK:   -0.09 KCAL/MOL
REMARK 927      BINDING AFFINITY PREDICTED BY RF-SCORE:    0.00 PKD
ROOT
HETATM    1  C   UNL     1      -9.075   7.759  71.002  1.00  0.00    -0.147 C  
HETATM    2  C   UNL     1      -9.881   8.679  71.941  1.00  0.00    -0.384 C  
HETATM    3  C   UNL     1     -11.314   8.131  71.800  1.00  0.00    -0.278 C  
HETATM    4  O   UNL     1     -12.041   8.296  72.980  1.00  0.00    -0.596 OA 
HETATM    5  C   UNL     1     -11.698   8.827  70.560  1.00  0.00    -0.115 C  
HETATM    6  C   UNL     1     -10.704   8.569  69.655  1.00  0.00    -0.200 C  
HETATM    7  H   UNL     1     -12.925   7.959  72.892  1.00  0.00     0.000 HD 
HETATM    8  C   UNL     1      -9.709   7.249  69.581  1.00  0.00    -0.159 C  
HETATM    9  C   UNL     1     -10.671   7.091  68.339  1.00  0.00    -0.224 C  
HETATM   10  C   UNL     1      -9.981   6.470  67.153  1.00  0.00    -0.157 C  
HETATM   11  N   UNL     1     -10.495   5.121  67.093  1.00  0.00    -0.196 NA 
HETATM   12  C   UNL     1     -10.589   4.681  65.714  1.00  0.00    -0.223 C  
HETATM   13  C   UNL     1      -9.649   4.271  67.905  1.00  0.00    -0.152 C  
HETATM   14  C   UNL     1      -9.755   4.497  69.412  1.00  0.00    -0.272 A  
HETATM   15  C   UNL     1      -9.758   5.741  70.105  1.00  0.00    -0.219 A  
HETATM   16  C   UNL     1      -9.407   5.585  71.447  1.00  0.00    -0.147 A  
HETATM   17  C   UNL     1      -9.368   4.384  72.213  1.00  0.00    -0.128 A  
HETATM   18  O   UNL     1      -8.858   6.705  71.977  1.00  0.00    -0.135 OA 
HETATM   19  C   UNL     1      -9.608   3.261  70.145  1.00  0.00    -0.191 A  
HETATM   20  C   UNL     1      -9.472   3.188  71.525  1.00  0.00    -0.215 A  
ENDROOT
BRANCH  17  21
HETATM   21  O   UNL     1      -9.175   4.483  73.567  1.00  0.00    -0.112 OA 
HETATM   22  C   UNL     1     -10.309   4.282  74.417  1.00  0.00    -0.247 C  
ENDBRANCH  17  21
TORSDOF 1
ENDMDL
MODEL       86
REMARK 921   NORMALIZED FREE ENERGY PREDICTED BY IDOCK:   -4.22 KCAL/MOL
REMARK 922        TOTAL FREE ENERGY PREDICTED BY IDOCK:   -4.57 KCAL/MOL
REMARK 923 INTER-LIGAND FREE ENERGY PREDICTED BY IDOCK:   -4.51 KCAL/MOL
REMARK 924 INTRA-LIGAND FREE ENERGY PREDICTED BY IDOCK:   -0.05 KCAL/MOL
REMARK 927      BINDING AFFINITY PREDICTED BY RF-SCORE:    0.00 PKD
ROOT
HETATM    1  C   UNL     1      -8.641   4.671  71.853  1.00  0.00    -0.122 C  
HETATM    2  C   UNL     1      -8.675   3.238  72.422  1.00  0.00    -0.101 C  
HETATM    3  C   UNL     1     -10.155   2.845  72.255  1.00  0.00    -0.152 C  
HETATM    4  O   UNL     1     -10.297   1.474  72.037  1.00  0.00    -0.159 OA 
HETATM    5  C   UNL     1     -10.696   3.488  73.465  1.00  0.00    -0.307 C  
HETATM    6  C   UNL     1     -10.256   4.784  73.436  1.00  0.00    -0.213 C  
HETATM    7  H   UNL     1     -11.210   1.231  71.935  1.00  0.00     0.000 HD 
HETATM    8  C   UNL     1      -9.883   5.705  72.113  1.00  0.00    -0.188 C  
HETATM    9  C   UNL     1     -11.220   6.333  72.670  1.00  0.00    -0.302 C  
HETATM   10  C   UNL     1     -11.273   7.827  72.491  1.00  0.00    -0.363 C  
HETATM   11  N   UNL     1     -12.208   8.037  71.411  1.00  0.00    -0.306 NA 
HETATM   12  C   UNL     1     -12.945   9.270  71.617  1.00  0.00    -0.374 C  
HETATM   13  C   UNL     1     -11.479   8.012  70.160  1.00  0.00    -0.003 C  
HETATM   14  C   UNL     1     -10.943   6.643  69.745  1.00  0.00    -0.367 A  
HETATM   15  C   UNL     1     -10.261   5.696  70.561  1.00  0.00    -0.297 A  
HETATM   16  C   UNL     1      -9.524   4.791  69.794  1.00  0.00    -0.162 A  
HETATM   17  C   UNL     1      -9.631   4.530  68.397  1.00  0.00    -0.145 A  
HETATM   18  O   UNL     1      -8.466   4.276  70.467  1.00  0.00    -0.074 OA 
HETATM   19  C   UNL     1     -10.981   6.470  68.313  1.00  0.00    -0.362 A  
HETATM   20  C   UNL     1     -10.387   5.409  67.642  1.00  0.00    -0.235 A  
ENDROOT
BRANCH  17  21
HETATM   21  O   UNL     1      -8.937   3.466  67.881  1.00  0.00    -0.115 OA 
HETATM   22  C   UNL     1      -9.458   2.154  68.117  1.00  0.00    -0.166 C  
ENDBRANCH  17  21
TORSDOF 1
ENDMDL
MODEL       87
REMARK 921   NORMALIZED FREE ENERGY PREDICTED BY IDOCK:   -4.20 KCAL/MOL
REMARK 922        TOTAL FREE ENERGY PREDICTED BY IDOCK:   -4.54 KCAL/MOL
REMARK 923 INTER-LIGAND FREE ENERGY PREDICTED BY IDOCK:   -4.44 KCAL/MOL
REMARK 924 INTRA-LIGAND FREE ENERGY PREDICTED BY IDOCK:   -0.10 KCAL/MOL
REMARK 927      BINDING AFFINITY PREDICTED BY RF-SCORE:    0.00 PKD
ROOT
HETATM    1  C   UNL     1     -10.374  10.149  66.331  1.00  0.00    -0.188 C  
HETATM    2  C   UNL     1      -9.344  11.083  65.665  1.00  0.00    -0.239 C  
HETATM    3  C   UNL     1      -8.417  11.453  66.839  1.00  0.00    -0.157 C  
HETATM    4  O   UNL     1      -7.110  11.677  66.404  1.00  0.00    -0.358 OA 
HETATM    5  C   UNL     1      -9.224  12.534  67.430  1.00  0.00    -0.186 C  
HETATM    6  C   UNL     1     -10.481  12.021  67.600  1.00  0.00    -0.226 C  
HETATM    7  H   UNL     1      -6.538  11.905  67.128  1.00  0.00     0.000 HD 
HETATM    8  C   UNL     1     -10.914  10.443  67.849  1.00  0.00    -0.354 C  
HETATM    9  C   UNL     1     -11.181  11.151  69.234  1.00  0.00    -0.331 C  
HETATM   10  C   UNL     1     -12.378  10.582  69.950  1.00  0.00    -0.178 C  
HETATM   11  N   UNL     1     -11.824   9.792  71.025  1.00  0.00    -0.328 NA 
HETATM   12  C   UNL     1     -12.694   9.840  72.184  1.00  0.00    -0.326 C  
HETATM   13  C   UNL     1     -11.599   8.447  70.538  1.00  0.00    -0.128 C  
HETATM   14  C   UNL     1     -10.462   8.301  69.527  1.00  0.00    -0.228 A  
HETATM   15  C   UNL     1     -10.196   9.126  68.397  1.00  0.00    -0.230 A  
HETATM   16  C   UNL     1      -9.399   8.470  67.456  1.00  0.00    -0.144 A  
HETATM   17  C   UNL     1      -8.619   7.290  67.633  1.00  0.00    -0.126 A  
HETATM   18  O   UNL     1      -9.584   8.938  66.198  1.00  0.00    -0.234 OA 
HETATM   19  C   UNL     1      -9.770   7.044  69.685  1.00  0.00    -0.157 A  
HETATM   20  C   UNL     1      -8.824   6.561  68.791  1.00  0.00    -0.125 A  
ENDROOT
BRANCH  17  21
HETATM   21  O   UNL     1      -7.763   6.922  66.627  1.00  0.00    -0.100 OA 
HETATM   22  C   UNL     1      -7.684   5.532  66.296  1.00  0.00    -0.099 C  
ENDBRANCH  17  21
TORSDOF 1
ENDMDL
MODEL       88
REMARK 921   NORMALIZED FREE ENERGY PREDICTED BY IDOCK:   -4.17 KCAL/MOL
REMARK 922        TOTAL FREE ENERGY PREDICTED BY IDOCK:   -4.51 KCAL/MOL
REMARK 923 INTER-LIGAND FREE ENERGY PREDICTED BY IDOCK:   -4.43 KCAL/MOL
REMARK 924 INTRA-LIGAND FREE ENERGY PREDICTED BY IDOCK:   -0.08 KCAL/MOL
REMARK 927      BINDING AFFINITY PREDICTED BY RF-SCORE:    0.00 PKD
ROOT
HETATM    1  C   UNL     1      -8.455  10.875  67.475  1.00  0.00    -0.123 C  
HETATM    2  C   UNL     1      -8.605   9.935  68.688  1.00  0.00    -0.119 C  
HETATM    3  C   UNL     1      -9.809   9.060  68.288  1.00  0.00    -0.166 C  
HETATM    4  O   UNL     1      -9.707   7.777  68.829  1.00  0.00    -0.153 OA 
HETATM    5  C   UNL     1     -10.893   9.975  68.686  1.00  0.00    -0.265 C  
HETATM    6  C   UNL     1     -10.611  11.177  68.095  1.00  0.00    -0.227 C  
HETATM    7  H   UNL     1     -10.450   7.238  68.583  1.00  0.00     0.000 HD 
HETATM    8  C   UNL     1      -9.773  11.456  66.696  1.00  0.00    -0.224 C  
HETATM    9  C   UNL     1     -11.271  11.804  66.338  1.00  0.00    -0.382 C  
HETATM   10  C   UNL     1     -11.378  12.946  65.361  1.00  0.00    -0.303 C  
HETATM   11  N   UNL     1     -11.745  12.327  64.109  1.00  0.00    -0.372 NA 
HETATM   12  C   UNL     1     -12.608  13.210  63.347  1.00  0.00    -0.079 C  
HETATM   13  C   UNL     1     -10.533  11.967  63.402  1.00  0.00    -0.441 C  
HETATM   14  C   UNL     1      -9.741  10.811  64.014  1.00  0.00    -0.367 A  
HETATM   15  C   UNL     1      -9.411  10.617  65.386  1.00  0.00    -0.263 A  
HETATM   16  C   UNL     1      -8.327   9.750  65.537  1.00  0.00    -0.136 A  
HETATM   17  C   UNL     1      -7.770   8.860  64.573  1.00  0.00    -0.119 A  
HETATM   18  O   UNL     1      -7.640   9.969  66.685  1.00  0.00    -0.101 OA 
HETATM   19  C   UNL     1      -9.116  10.000  62.997  1.00  0.00    -0.298 A  
HETATM   20  C   UNL     1      -8.186   9.002  63.261  1.00  0.00    -0.181 A  
ENDROOT
BRANCH  17  21
HETATM   21  O   UNL     1      -6.822   7.962  64.991  1.00  0.00    -0.050 OA 
HETATM   22  C   UNL     1      -6.990   6.592  64.613  1.00  0.00    -0.054 C  
ENDBRANCH  17  21
TORSDOF 1
ENDMDL
MODEL       89
REMARK 921   NORMALIZED FREE ENERGY PREDICTED BY IDOCK:   -4.13 KCAL/MOL
REMARK 922        TOTAL FREE ENERGY PREDICTED BY IDOCK:   -4.46 KCAL/MOL
REMARK 923 INTER-LIGAND FREE ENERGY PREDICTED BY IDOCK:   -4.37 KCAL/MOL
REMARK 924 INTRA-LIGAND FREE ENERGY PREDICTED BY IDOCK:   -0.10 KCAL/MOL
REMARK 927      BINDING AFFINITY PREDICTED BY RF-SCORE:    0.00 PKD
ROOT
HETATM    1  C   UNL     1     -11.097   6.547  67.801  1.00  0.00    -0.270 C  
HETATM    2  C   UNL     1     -10.409   7.402  66.718  1.00  0.00    -0.321 C  
HETATM    3  C   UNL     1      -8.998   7.612  67.302  1.00  0.00    -0.127 C  
HETATM    4  O   UNL     1      -8.041   7.722  66.293  1.00  0.00    -0.105 OA 
HETATM    5  C   UNL     1      -9.295   8.740  68.203  1.00  0.00    -0.148 C  
HETATM    6  C   UNL     1     -10.368   8.351  68.957  1.00  0.00    -0.231 C  
HETATM    7  H   UNL     1      -7.171   7.851  66.653  1.00  0.00     0.000 HD 
HETATM    8  C   UNL     1     -10.810   6.816  69.390  1.00  0.00    -0.312 C  
HETATM    9  C   UNL     1     -10.300   7.476  70.731  1.00  0.00    -0.205 C  
HETATM   10  C   UNL     1     -11.068   6.998  71.935  1.00  0.00    -0.242 C  
HETATM   11  N   UNL     1     -10.165   6.100  72.616  1.00  0.00    -0.179 NA 
HETATM   12  C   UNL     1     -10.365   6.179  74.051  1.00  0.00    -0.300 C  
HETATM   13  C   UNL     1     -10.357   4.766  72.087  1.00  0.00    -0.190 C  
HETATM   14  C   UNL     1      -9.865   4.556  70.656  1.00  0.00    -0.292 A  
HETATM   15  C   UNL     1     -10.076   5.405  69.533  1.00  0.00    -0.310 A  
HETATM   16  C   UNL     1      -9.906   4.720  68.328  1.00  0.00    -0.118 A  
HETATM   17  C   UNL     1      -9.279   3.457  68.115  1.00  0.00    -0.182 A  
HETATM   18  O   UNL     1     -10.613   5.269  67.311  1.00  0.00    -0.209 OA 
HETATM   19  C   UNL     1      -9.332   3.227  70.468  1.00  0.00    -0.228 A  
HETATM   20  C   UNL     1      -8.989   2.694  69.232  1.00  0.00    -0.170 A  
ENDROOT
BRANCH  17  21
HETATM   21  O   UNL     1      -9.055   3.054  66.823  1.00  0.00    -0.151 OA 
HETATM   22  C   UNL     1      -7.770   3.324  66.256  1.00  0.00    -0.078 C  
ENDBRANCH  17  21
TORSDOF 1
ENDMDL
MODEL       90
REMARK 921   NORMALIZED FREE ENERGY PREDICTED BY IDOCK:   -4.10 KCAL/MOL
REMARK 922        TOTAL FREE ENERGY PREDICTED BY IDOCK:   -4.44 KCAL/MOL
REMARK 923 INTER-LIGAND FREE ENERGY PREDICTED BY IDOCK:   -4.34 KCAL/MOL
REMARK 924 INTRA-LIGAND FREE ENERGY PREDICTED BY IDOCK:   -0.10 KCAL/MOL
REMARK 927      BINDING AFFINITY PREDICTED BY RF-SCORE:    0.00 PKD
ROOT
HETATM    1  C   UNL     1      -6.983  17.601  68.748  1.00  0.00    -0.245 C  
HETATM    2  C   UNL     1      -6.156  18.584  67.895  1.00  0.00    -0.187 C  
HETATM    3  C   UNL     1      -6.320  18.014  66.472  1.00  0.00    -0.204 C  
HETATM    4  O   UNL     1      -6.281  19.026  65.512  1.00  0.00    -0.205 OA 
HETATM    5  C   UNL     1      -5.282  16.971  66.528  1.00  0.00    -0.106 C  
HETATM    6  C   UNL     1      -5.534  16.244  67.660  1.00  0.00    -0.164 C  
HETATM    7  H   UNL     1      -6.382  18.675  64.634  1.00  0.00     0.000 HD 
HETATM    8  C   UNL     1      -6.987  15.998  68.413  1.00  0.00    -0.121 C  
HETATM    9  C   UNL     1      -6.626  14.598  67.779  1.00  0.00    -0.189 C  
HETATM   10  C   UNL     1      -7.087  13.445  68.631  1.00  0.00    -0.106 C  
HETATM   11  N   UNL     1      -8.233  12.907  67.936  1.00  0.00    -0.152 NA 
HETATM   12  C   UNL     1      -8.301  11.469  68.118  1.00  0.00    -0.152 C  
HETATM   13  C   UNL     1      -9.418  13.596  68.402  1.00  0.00    -0.190 C  
HETATM   14  C   UNL     1      -9.539  15.055  67.963  1.00  0.00    -0.208 A  
HETATM   15  C   UNL     1      -8.525  16.055  67.990  1.00  0.00    -0.164 A  
HETATM   16  C   UNL     1      -9.070  17.341  67.965  1.00  0.00    -0.249 A  
HETATM   17  C   UNL     1     -10.396  17.729  67.615  1.00  0.00    -0.373 A  
HETATM   18  O   UNL     1      -8.259  18.262  68.541  1.00  0.00    -0.306 OA 
HETATM   19  C   UNL     1     -10.913  15.424  67.718  1.00  0.00    -0.311 A  
HETATM   20  C   UNL     1     -11.340  16.725  67.493  1.00  0.00     0.226 A  
ENDROOT
BRANCH  17  21
HETATM   21  O   UNL     1     -10.666  19.066  67.478  1.00  0.00    -0.455 OA 
HETATM   22  C   UNL     1     -10.623  19.622  66.161  1.00  0.00    -0.483 C  
ENDBRANCH  17  21
TORSDOF 1
ENDMDL
MODEL       91
REMARK 921   NORMALIZED FREE ENERGY PREDICTED BY IDOCK:   -4.10 KCAL/MOL
REMARK 922        TOTAL FREE ENERGY PREDICTED BY IDOCK:   -4.43 KCAL/MOL
REMARK 923 INTER-LIGAND FREE ENERGY PREDICTED BY IDOCK:   -4.35 KCAL/MOL
REMARK 924 INTRA-LIGAND FREE ENERGY PREDICTED BY IDOCK:   -0.08 KCAL/MOL
REMARK 927      BINDING AFFINITY PREDICTED BY RF-SCORE:    0.00 PKD
ROOT
HETATM    1  C   UNL     1      -8.330   6.460  70.880  1.00  0.00    -0.126 C  
HETATM    2  C   UNL     1      -8.322   4.926  71.035  1.00  0.00    -0.109 C  
HETATM    3  C   UNL     1      -9.744   4.535  70.588  1.00  0.00    -0.212 C  
HETATM    4  O   UNL     1      -9.762   3.272  69.995  1.00  0.00    -0.147 OA 
HETATM    5  C   UNL     1     -10.456   4.799  71.851  1.00  0.00    -0.201 C  
HETATM    6  C   UNL     1     -10.109   6.069  72.225  1.00  0.00    -0.205 C  
HETATM    7  H   UNL     1     -10.639   3.031  69.719  1.00  0.00     0.000 HD 
HETATM    8  C   UNL     1      -9.664   7.333  71.254  1.00  0.00    -0.168 C  
HETATM    9  C   UNL     1     -11.095   7.729  71.791  1.00  0.00    -0.287 C  
HETATM   10  C   UNL     1     -11.235   9.212  72.014  1.00  0.00    -0.240 C  
HETATM   11  N   UNL     1     -12.062   9.673  70.925  1.00  0.00    -0.302 NA 
HETATM   12  C   UNL     1     -12.903  10.772  71.362  1.00  0.00    -0.452 C  
HETATM   13  C   UNL     1     -11.204  10.023  69.812  1.00  0.00    -0.258 C  
HETATM   14  C   UNL     1     -10.530   8.842  69.114  1.00  0.00    -0.236 A  
HETATM   15  C   UNL     1      -9.872   7.736  69.723  1.00  0.00    -0.178 A  
HETATM   16  C   UNL     1      -8.994   7.107  68.837  1.00  0.00    -0.129 A  
HETATM   17  C   UNL     1      -8.932   7.236  67.419  1.00  0.00    -0.122 A  
HETATM   18  O   UNL     1      -7.980   6.469  69.472  1.00  0.00    -0.112 OA 
HETATM   19  C   UNL     1     -10.401   9.069  67.694  1.00  0.00    -0.317 A  
HETATM   20  C   UNL     1      -9.664   8.258  66.841  1.00  0.00    -0.291 A  
ENDROOT
BRANCH  17  21
HETATM   21  O   UNL     1      -8.112   6.383  66.725  1.00  0.00    -0.107 OA 
HETATM   22  C   UNL     1      -8.622   5.804  65.520  1.00  0.00    -0.151 C  
ENDBRANCH  17  21
TORSDOF 1
ENDMDL
MODEL       92
REMARK 921   NORMALIZED FREE ENERGY PREDICTED BY IDOCK:   -4.02 KCAL/MOL
REMARK 922        TOTAL FREE ENERGY PREDICTED BY IDOCK:   -4.35 KCAL/MOL
REMARK 923 INTER-LIGAND FREE ENERGY PREDICTED BY IDOCK:   -4.26 KCAL/MOL
REMARK 924 INTRA-LIGAND FREE ENERGY PREDICTED BY IDOCK:   -0.09 KCAL/MOL
REMARK 927      BINDING AFFINITY PREDICTED BY RF-SCORE:    0.00 PKD
ROOT
HETATM    1  C   UNL     1      -9.396   4.609  70.347  1.00  0.00    -0.148 C  
HETATM    2  C   UNL     1      -8.729   4.326  68.987  1.00  0.00    -0.119 C  
HETATM    3  C   UNL     1      -8.667   5.726  68.345  1.00  0.00    -0.111 C  
HETATM    4  O   UNL     1      -7.560   5.853  67.506  1.00  0.00    -0.090 OA 
HETATM    5  C   UNL     1     -10.041   5.790  67.816  1.00  0.00    -0.196 C  
HETATM    6  C   UNL     1     -10.866   5.481  68.863  1.00  0.00    -0.132 C  
HETATM    7  H   UNL     1      -7.522   6.716  67.110  1.00  0.00     0.000 HD 
HETATM    8  C   UNL     1     -10.597   5.715  70.479  1.00  0.00    -0.354 C  
HETATM    9  C   UNL     1     -11.715   6.765  70.107  1.00  0.00    -0.370 C  
HETATM   10  C   UNL     1     -12.699   6.979  71.227  1.00  0.00    -0.351 C  
HETATM   11  N   UNL     1     -12.363   8.273  71.772  1.00  0.00    -0.312 NA 
HETATM   12  C   UNL     1     -13.559   8.948  72.238  1.00  0.00    -0.462 C  
HETATM   13  C   UNL     1     -11.371   8.091  72.811  1.00  0.00    -0.374 C  
HETATM   14  C   UNL     1      -9.984   7.673  72.322  1.00  0.00    -0.242 A  
HETATM   15  C   UNL     1      -9.670   6.667  71.365  1.00  0.00    -0.181 A  
HETATM   16  C   UNL     1      -8.348   6.232  71.489  1.00  0.00    -0.126 A  
HETATM   17  C   UNL     1      -7.277   6.859  72.190  1.00  0.00    -0.082 A  
HETATM   18  O   UNL     1      -8.172   4.965  71.042  1.00  0.00    -0.099 OA 
HETATM   19  C   UNL     1      -8.939   8.256  73.129  1.00  0.00    -0.301 A  
HETATM   20  C   UNL     1      -7.598   7.905  73.037  1.00  0.00    -0.154 A  
ENDROOT
BRANCH  17  21
HETATM   21  O   UNL     1      -6.013   6.356  72.027  1.00  0.00    -0.036 OA 
HETATM   22  C   UNL     1      -5.251   6.818  70.908  1.00  0.00    -0.023 C  
ENDBRANCH  17  21
TORSDOF 1
ENDMDL
MODEL       93
REMARK 921   NORMALIZED FREE ENERGY PREDICTED BY IDOCK:   -4.00 KCAL/MOL
REMARK 922        TOTAL FREE ENERGY PREDICTED BY IDOCK:   -4.33 KCAL/MOL
REMARK 923 INTER-LIGAND FREE ENERGY PREDICTED BY IDOCK:   -4.24 KCAL/MOL
REMARK 924 INTRA-LIGAND FREE ENERGY PREDICTED BY IDOCK:   -0.09 KCAL/MOL
REMARK 927      BINDING AFFINITY PREDICTED BY RF-SCORE:    0.00 PKD
ROOT
HETATM    1  C   UNL     1      -8.656  11.968  68.161  1.00  0.00    -0.173 C  
HETATM    2  C   UNL     1      -7.450  12.576  68.904  1.00  0.00     0.011 C  
HETATM    3  C   UNL     1      -6.638  13.216  67.761  1.00  0.00    -0.151 C  
HETATM    4  O   UNL     1      -5.948  14.348  68.197  1.00  0.00    -0.111 OA 
HETATM    5  C   UNL     1      -5.923  12.015  67.294  1.00  0.00    -0.146 C  
HETATM    6  C   UNL     1      -6.881  11.058  67.090  1.00  0.00    -0.098 C  
HETATM    7  H   UNL     1      -5.448  14.742  67.492  1.00  0.00     0.000 HD 
HETATM    8  C   UNL     1      -8.471  11.275  66.689  1.00  0.00    -0.168 C  
HETATM    9  C   UNL     1      -7.811  10.675  65.386  1.00  0.00    -0.070 C  
HETATM   10  C   UNL     1      -8.748   9.766  64.634  1.00  0.00    -0.194 C  
HETATM   11  N   UNL     1      -9.152  10.530  63.477  1.00  0.00    -0.223 NA 
HETATM   12  C   UNL     1      -9.356   9.651  62.341  1.00  0.00    -0.110 C  
HETATM   13  C   UNL     1     -10.332  11.296  63.821  1.00  0.00    -0.395 C  
HETATM   14  C   UNL     1     -10.097  12.450  64.796  1.00  0.00    -0.260 A  
HETATM   15  C   UNL     1      -9.337  12.426  66.000  1.00  0.00    -0.116 A  
HETATM   16  C   UNL     1      -9.698  13.468  66.857  1.00  0.00    -0.261 A  
HETATM   17  C   UNL     1     -10.447  14.641  66.551  1.00  0.00    -0.290 A  
HETATM   18  O   UNL     1      -9.456  13.179  68.160  1.00  0.00    -0.213 OA 
HETATM   19  C   UNL     1     -10.952  13.575  64.501  1.00  0.00    -0.405 A  
HETATM   20  C   UNL     1     -11.093  14.682  65.328  1.00  0.00    -0.363 A  
ENDROOT
BRANCH  17  21
HETATM   21  O   UNL     1     -10.528  15.626  67.502  1.00  0.00    -0.272 OA 
HETATM   22  C   UNL     1      -9.474  16.593  67.550  1.00  0.00    -0.229 C  
ENDBRANCH  17  21
TORSDOF 1
ENDMDL
MODEL       94
REMARK 921   NORMALIZED FREE ENERGY PREDICTED BY IDOCK:   -3.99 KCAL/MOL
REMARK 922        TOTAL FREE ENERGY PREDICTED BY IDOCK:   -4.32 KCAL/MOL
REMARK 923 INTER-LIGAND FREE ENERGY PREDICTED BY IDOCK:   -4.22 KCAL/MOL
REMARK 924 INTRA-LIGAND FREE ENERGY PREDICTED BY IDOCK:   -0.10 KCAL/MOL
REMARK 927      BINDING AFFINITY PREDICTED BY RF-SCORE:    0.00 PKD
ROOT
HETATM    1  C   UNL     1      -7.713   7.947  71.890  1.00  0.00    -0.093 C  
HETATM    2  C   UNL     1      -6.674   7.510  72.942  1.00  0.00    -0.066 C  
HETATM    3  C   UNL     1      -7.343   6.280  73.585  1.00  0.00    -0.087 C  
HETATM    4  O   UNL     1      -6.395   5.351  74.016  1.00  0.00    -0.064 OA 
HETATM    5  C   UNL     1      -8.223   6.977  74.539  1.00  0.00    -0.189 C  
HETATM    6  C   UNL     1      -8.910   7.910  73.811  1.00  0.00    -0.332 C  
HETATM    7  H   UNL     1      -6.807   4.593  74.413  1.00  0.00     0.000 HD 
HETATM    8  C   UNL     1      -9.317   7.857  72.208  1.00  0.00    -0.238 C  
HETATM    9  C   UNL     1     -10.686   7.667  72.972  1.00  0.00    -0.449 C  
HETATM   10  C   UNL     1     -11.841   8.308  72.249  1.00  0.00    -0.388 C  
HETATM   11  N   UNL     1     -12.577   7.205  71.678  1.00  0.00    -0.360 NA 
HETATM   12  C   UNL     1     -13.997   7.503  71.660  1.00  0.00    -0.412 C  
HETATM   13  C   UNL     1     -12.039   6.924  70.363  1.00  0.00    -0.196 C  
HETATM   14  C   UNL     1     -10.641   6.308  70.350  1.00  0.00    -0.309 A  
HETATM   15  C   UNL     1      -9.506   6.716  71.107  1.00  0.00    -0.167 A  
HETATM   16  C   UNL     1      -8.315   6.263  70.536  1.00  0.00    -0.129 A  
HETATM   17  C   UNL     1      -8.142   5.250  69.547  1.00  0.00    -0.094 A  
HETATM   18  O   UNL     1      -7.255   7.048  70.846  1.00  0.00    -0.069 OA 
HETATM   19  C   UNL     1     -10.488   5.364  69.268  1.00  0.00    -0.309 A  
HETATM   20  C   UNL     1      -9.276   4.796  68.897  1.00  0.00    -0.172 A  
ENDROOT
BRANCH  17  21
HETATM   21  O   UNL     1      -6.867   4.833  69.262  1.00  0.00    -0.047 OA 
HETATM   22  C   UNL     1      -6.417   4.946  67.909  1.00  0.00    -0.045 C  
ENDBRANCH  17  21
TORSDOF 1
ENDMDL
MODEL       95
REMARK 921   NORMALIZED FREE ENERGY PREDICTED BY IDOCK:   -3.90 KCAL/MOL
REMARK 922        TOTAL FREE ENERGY PREDICTED BY IDOCK:   -4.23 KCAL/MOL
REMARK 923 INTER-LIGAND FREE ENERGY PREDICTED BY IDOCK:   -4.15 KCAL/MOL
REMARK 924 INTRA-LIGAND FREE ENERGY PREDICTED BY IDOCK:   -0.08 KCAL/MOL
REMARK 927      BINDING AFFINITY PREDICTED BY RF-SCORE:    0.00 PKD
ROOT
HETATM    1  C   UNL     1      -8.446   8.015  68.696  1.00  0.00    -0.128 C  
HETATM    2  C   UNL     1      -9.218   9.328  68.461  1.00  0.00    -0.135 C  
HETATM    3  C   UNL     1     -10.645   8.831  68.160  1.00  0.00    -0.147 C  
HETATM    4  O   UNL     1     -11.605   9.748  68.590  1.00  0.00    -0.485 OA 
HETATM    5  C   UNL     1     -10.475   8.512  66.732  1.00  0.00    -0.308 C  
HETATM    6  C   UNL     1      -9.368   7.710  66.651  1.00  0.00    -0.239 C  
HETATM    7  H   UNL     1     -12.485   9.442  68.404  1.00  0.00     0.000 HD 
HETATM    8  C   UNL     1      -8.766   6.682  67.800  1.00  0.00    -0.116 C  
HETATM    9  C   UNL     1      -9.349   5.732  66.682  1.00  0.00    -0.155 C  
HETATM   10  C   UNL     1      -8.539   4.472  66.519  1.00  0.00    -0.112 C  
HETATM   11  N   UNL     1      -9.343   3.435  67.121  1.00  0.00    -0.196 NA 
HETATM   12  C   UNL     1      -9.158   2.182  66.415  1.00  0.00    -0.052 C  
HETATM   13  C   UNL     1      -9.007   3.351  68.527  1.00  0.00    -0.134 C  
HETATM   14  C   UNL     1      -9.468   4.533  69.379  1.00  0.00    -0.244 A  
HETATM   15  C   UNL     1      -9.345   5.919  69.078  1.00  0.00    -0.138 A  
HETATM   16  C   UNL     1      -9.437   6.707  70.227  1.00  0.00    -0.162 A  
HETATM   17  C   UNL     1      -9.923   6.334  71.514  1.00  0.00    -0.184 A  
HETATM   18  O   UNL     1      -8.788   7.891  70.101  1.00  0.00    -0.141 OA 
HETATM   19  C   UNL     1      -9.855   4.112  70.705  1.00  0.00    -0.249 A  
HETATM   20  C   UNL     1     -10.134   4.986  71.747  1.00  0.00    -0.262 A  
ENDROOT
BRANCH  17  21
HETATM   21  O   UNL     1     -10.098   7.318  72.452  1.00  0.00    -0.177 OA 
HETATM   22  C   UNL     1     -11.305   8.085  72.395  1.00  0.00    -0.382 C  
ENDBRANCH  17  21
TORSDOF 1
ENDMDL
MODEL       96
REMARK 921   NORMALIZED FREE ENERGY PREDICTED BY IDOCK:   -3.90 KCAL/MOL
REMARK 922        TOTAL FREE ENERGY PREDICTED BY IDOCK:   -4.22 KCAL/MOL
REMARK 923 INTER-LIGAND FREE ENERGY PREDICTED BY IDOCK:   -4.13 KCAL/MOL
REMARK 924 INTRA-LIGAND FREE ENERGY PREDICTED BY IDOCK:   -0.09 KCAL/MOL
REMARK 927      BINDING AFFINITY PREDICTED BY RF-SCORE:    0.00 PKD
ROOT
HETATM    1  C   UNL     1     -10.624   8.704  71.005  1.00  0.00    -0.221 C  
HETATM    2  C   UNL     1     -10.500   8.437  72.518  1.00  0.00    -0.372 C  
HETATM    3  C   UNL     1      -9.507   7.260  72.572  1.00  0.00    -0.147 C  
HETATM    4  O   UNL     1      -8.736   7.298  73.735  1.00  0.00    -0.145 OA 
HETATM    5  C   UNL     1     -10.450   6.159  72.313  1.00  0.00    -0.229 C  
HETATM    6  C   UNL     1     -11.140   6.507  71.183  1.00  0.00    -0.332 C  
HETATM    7  H   UNL     1      -8.124   6.572  73.769  1.00  0.00     0.000 HD 
HETATM    8  C   UNL     1     -10.634   7.466  69.933  1.00  0.00    -0.245 C  
HETATM    9  C   UNL     1     -10.674   6.010  69.325  1.00  0.00    -0.401 C  
HETATM   10  C   UNL     1     -11.087   6.003  67.877  1.00  0.00    -0.114 C  
HETATM   11  N   UNL     1      -9.870   5.737  67.147  1.00  0.00    -0.134 NA 
HETATM   12  C   UNL     1     -10.157   4.955  65.959  1.00  0.00    -0.239 C  
HETATM   13  C   UNL     1      -9.225   7.000  66.854  1.00  0.00    -0.150 C  
HETATM   14  C   UNL     1      -8.625   7.720  68.061  1.00  0.00    -0.123 A  
HETATM   15  C   UNL     1      -9.227   7.928  69.334  1.00  0.00    -0.145 A  
HETATM   16  C   UNL     1      -8.626   8.983  70.023  1.00  0.00    -0.151 A  
HETATM   17  C   UNL     1      -7.373   9.609  69.756  1.00  0.00    -0.104 A  
HETATM   18  O   UNL     1      -9.464   9.571  70.912  1.00  0.00    -0.239 OA 
HETATM   19  C   UNL     1      -7.411   8.420  67.712  1.00  0.00    -0.098 A  
HETATM   20  C   UNL     1      -6.757   9.309  68.554  1.00  0.00    -0.058 A  
ENDROOT
BRANCH  17  21
HETATM   21  O   UNL     1      -6.887  10.505  70.672  1.00  0.00    -0.330 OA 
HETATM   22  C   UNL     1      -5.862  11.406  70.243  1.00  0.00    -0.154 C  
ENDBRANCH  17  21
TORSDOF 1
ENDMDL
MODEL       97
REMARK 921   NORMALIZED FREE ENERGY PREDICTED BY IDOCK:   -3.85 KCAL/MOL
REMARK 922        TOTAL FREE ENERGY PREDICTED BY IDOCK:   -4.17 KCAL/MOL
REMARK 923 INTER-LIGAND FREE ENERGY PREDICTED BY IDOCK:   -4.08 KCAL/MOL
REMARK 924 INTRA-LIGAND FREE ENERGY PREDICTED BY IDOCK:   -0.09 KCAL/MOL
REMARK 927      BINDING AFFINITY PREDICTED BY RF-SCORE:    0.00 PKD
ROOT
HETATM    1  C   UNL     1     -11.116   6.427  69.945  1.00  0.00    -0.381 C  
HETATM    2  C   UNL     1     -12.247   6.693  70.959  1.00  0.00    -0.344 C  
HETATM    3  C   UNL     1     -11.475   7.156  72.210  1.00  0.00    -0.271 C  
HETATM    4  O   UNL     1     -12.220   8.067  72.960  1.00  0.00    -0.659 OA 
HETATM    5  C   UNL     1     -11.111   5.835  72.750  1.00  0.00    -0.327 C  
HETATM    6  C   UNL     1     -10.526   5.150  71.719  1.00  0.00    -0.268 C  
HETATM    7  H   UNL     1     -11.745   8.352  73.731  1.00  0.00     0.000 HD 
HETATM    8  C   UNL     1      -9.698   5.765  70.426  1.00  0.00    -0.224 C  
HETATM    9  C   UNL     1      -8.592   5.070  71.312  1.00  0.00    -0.132 C  
HETATM   10  C   UNL     1      -7.498   4.448  70.484  1.00  0.00    -0.049 C  
HETATM   11  N   UNL     1      -6.366   5.329  70.644  1.00  0.00    -0.023 NA 
HETATM   12  C   UNL     1      -5.130   4.570  70.620  1.00  0.00     0.000 C  
HETATM   13  C   UNL     1      -6.428   6.348  69.617  1.00  0.00    -0.043 C  
HETATM   14  C   UNL     1      -7.551   7.372  69.782  1.00  0.00    -0.095 A  
HETATM   15  C   UNL     1      -8.916   7.119  70.099  1.00  0.00    -0.145 A  
HETATM   16  C   UNL     1      -9.738   8.184  69.727  1.00  0.00    -0.173 A  
HETATM   17  C   UNL     1      -9.356   9.516  69.392  1.00  0.00    -0.180 A  
HETATM   18  O   UNL     1     -11.013   7.797  69.476  1.00  0.00    -0.198 OA 
HETATM   19  C   UNL     1      -7.143   8.683  69.335  1.00  0.00    -0.053 A  
HETATM   20  C   UNL     1      -8.009   9.759  69.191  1.00  0.00    -0.104 A  
ENDROOT
BRANCH  17  21
HETATM   21  O   UNL     1     -10.343  10.455  69.236  1.00  0.00    -0.204 OA 
HETATM   22  C   UNL     1     -10.629  10.906  67.909  1.00  0.00    -0.207 C  
ENDBRANCH  17  21
TORSDOF 1
ENDMDL
MODEL       98
REMARK 921   NORMALIZED FREE ENERGY PREDICTED BY IDOCK:   -3.84 KCAL/MOL
REMARK 922        TOTAL FREE ENERGY PREDICTED BY IDOCK:   -4.16 KCAL/MOL
REMARK 923 INTER-LIGAND FREE ENERGY PREDICTED BY IDOCK:   -4.08 KCAL/MOL
REMARK 924 INTRA-LIGAND FREE ENERGY PREDICTED BY IDOCK:   -0.08 KCAL/MOL
REMARK 927      BINDING AFFINITY PREDICTED BY RF-SCORE:    0.00 PKD
ROOT
HETATM    1  C   UNL     1     -11.004   7.934  69.784  1.00  0.00    -0.148 C  
HETATM    2  C   UNL     1     -11.285   6.504  70.286  1.00  0.00    -0.433 C  
HETATM    3  C   UNL     1     -10.096   5.707  69.717  1.00  0.00    -0.218 C  
HETATM    4  O   UNL     1      -9.751   4.642  70.550  1.00  0.00    -0.179 OA 
HETATM    5  C   UNL     1     -10.610   5.480  68.355  1.00  0.00    -0.210 C  
HETATM    6  C   UNL     1     -10.986   6.708  67.881  1.00  0.00    -0.342 C  
HETATM    7  H   UNL     1      -9.018   4.150  70.198  1.00  0.00     0.000 HD 
HETATM    8  C   UNL     1     -10.378   8.191  68.292  1.00  0.00    -0.241 C  
HETATM    9  C   UNL     1      -9.868   7.947  66.818  1.00  0.00    -0.318 C  
HETATM   10  C   UNL     1      -9.804   9.219  66.014  1.00  0.00    -0.293 C  
HETATM   11  N   UNL     1      -8.396   9.527  65.921  1.00  0.00    -0.118 NA 
HETATM   12  C   UNL     1      -8.103  10.157  64.647  1.00  0.00    -0.153 C  
HETATM   13  C   UNL     1      -8.028  10.344  67.058  1.00  0.00    -0.116 C  
HETATM   14  C   UNL     1      -8.023   9.621  68.405  1.00  0.00    -0.096 A  
HETATM   15  C   UNL     1      -9.017   8.742  68.920  1.00  0.00    -0.134 A  
HETATM   16  C   UNL     1      -8.937   8.630  70.310  1.00  0.00    -0.154 A  
HETATM   17  C   UNL     1      -7.859   9.010  71.162  1.00  0.00    -0.116 A  
HETATM   18  O   UNL     1     -10.124   8.305  70.877  1.00  0.00    -0.186 OA 
HETATM   19  C   UNL     1      -6.975  10.114  69.267  1.00  0.00    -0.068 A  
HETATM   20  C   UNL     1      -6.851   9.779  70.609  1.00  0.00    -0.108 A  
ENDROOT
BRANCH  17  21
HETATM   21  O   UNL     1      -7.915   8.640  72.482  1.00  0.00    -0.339 OA 
HETATM   22  C   UNL     1      -6.710   8.166  73.091  1.00  0.00    -0.106 C  
ENDBRANCH  17  21
TORSDOF 1
ENDMDL
MODEL       99
REMARK 921   NORMALIZED FREE ENERGY PREDICTED BY IDOCK:   -3.83 KCAL/MOL
REMARK 922        TOTAL FREE ENERGY PREDICTED BY IDOCK:   -4.15 KCAL/MOL
REMARK 923 INTER-LIGAND FREE ENERGY PREDICTED BY IDOCK:   -4.05 KCAL/MOL
REMARK 924 INTRA-LIGAND FREE ENERGY PREDICTED BY IDOCK:   -0.10 KCAL/MOL
REMARK 927      BINDING AFFINITY PREDICTED BY RF-SCORE:    0.00 PKD
ROOT
HETATM    1  C   UNL     1     -10.632   8.518  72.542  1.00  0.00    -0.238 C  
HETATM    2  C   UNL     1     -11.143   7.109  72.901  1.00  0.00    -0.338 C  
HETATM    3  C   UNL     1     -10.564   6.241  71.766  1.00  0.00    -0.225 C  
HETATM    4  O   UNL     1     -10.291   4.945  72.205  1.00  0.00    -0.194 OA 
HETATM    5  C   UNL     1     -11.587   6.503  70.739  1.00  0.00    -0.437 C  
HETATM    6  C   UNL     1     -11.704   7.865  70.658  1.00  0.00    -0.169 C  
HETATM    7  H   UNL     1      -9.934   4.410  71.505  1.00  0.00     0.000 HD 
HETATM    8  C   UNL     1     -10.553   9.009  70.981  1.00  0.00    -0.341 C  
HETATM    9  C   UNL     1     -10.727   9.053  69.413  1.00  0.00    -0.202 C  
HETATM   10  C   UNL     1     -10.567  10.443  68.855  1.00  0.00    -0.216 C  
HETATM   11  N   UNL     1      -9.273  10.437  68.214  1.00  0.00    -0.145 NA 
HETATM   12  C   UNL     1      -9.288  11.297  67.045  1.00  0.00    -0.172 C  
HETATM   13  C   UNL     1      -8.274  10.820  69.189  1.00  0.00    -0.120 C  
HETATM   14  C   UNL     1      -8.001   9.788  70.282  1.00  0.00    -0.185 A  
HETATM   15  C   UNL     1      -8.958   9.052  71.039  1.00  0.00    -0.304 A  
HETATM   16  C   UNL     1      -8.410   8.564  72.227  1.00  0.00    -0.117 A  
HETATM   17  C   UNL     1      -7.034   8.451  72.581  1.00  0.00    -0.074 A  
HETATM   18  O   UNL     1      -9.342   8.379  73.194  1.00  0.00    -0.237 OA 
HETATM   19  C   UNL     1      -6.612   9.785  70.674  1.00  0.00    -0.113 A  
HETATM   20  C   UNL     1      -6.114   9.090  71.769  1.00  0.00    -0.075 A  
ENDROOT
BRANCH  17  21
HETATM   21  O   UNL     1      -6.713   7.769  73.727  1.00  0.00    -0.082 OA 
HETATM   22  C   UNL     1      -6.390   6.380  73.607  1.00  0.00    -0.065 C  
ENDBRANCH  17  21
TORSDOF 1
ENDMDL
MODEL      100
REMARK 921   NORMALIZED FREE ENERGY PREDICTED BY IDOCK:   -3.73 KCAL/MOL
REMARK 922        TOTAL FREE ENERGY PREDICTED BY IDOCK:   -4.04 KCAL/MOL
REMARK 923 INTER-LIGAND FREE ENERGY PREDICTED BY IDOCK:   -3.98 KCAL/MOL
REMARK 924 INTRA-LIGAND FREE ENERGY PREDICTED BY IDOCK:   -0.06 KCAL/MOL
REMARK 927      BINDING AFFINITY PREDICTED BY RF-SCORE:    0.00 PKD
ROOT
HETATM    1  C   UNL     1      -9.528   8.421  66.952  1.00  0.00    -0.185 C  
HETATM    2  C   UNL     1      -8.073   8.644  66.494  1.00  0.00    -0.103 C  
HETATM    3  C   UNL     1      -7.341   8.922  67.821  1.00  0.00    -0.085 C  
HETATM    4  O   UNL     1      -6.019   8.478  67.777  1.00  0.00    -0.045 OA 
HETATM    5  C   UNL     1      -7.664  10.353  67.959  1.00  0.00    -0.092 C  
HETATM    6  C   UNL     1      -9.022  10.451  67.816  1.00  0.00    -0.131 C  
HETATM    7  H   UNL     1      -5.568   8.650  68.595  1.00  0.00     0.000 HD 
HETATM    8  C   UNL     1     -10.170   9.312  68.166  1.00  0.00    -0.246 C  
HETATM    9  C   UNL     1     -10.360  10.420  69.274  1.00  0.00    -0.250 C  
HETATM   10  C   UNL     1     -11.803  10.596  69.670  1.00  0.00    -0.286 C  
HETATM   11  N   UNL     1     -11.905   9.982  70.973  1.00  0.00    -0.355 NA 
HETATM   12  C   UNL     1     -12.873  10.690  71.788  1.00  0.00    -0.444 C  
HETATM   13  C   UNL     1     -12.228   8.581  70.796  1.00  0.00    -0.007 C  
HETATM   14  C   UNL     1     -11.104   7.722  70.217  1.00  0.00    -0.242 A  
HETATM   15  C   UNL     1     -10.265   8.025  69.107  1.00  0.00    -0.221 A  
HETATM   16  C   UNL     1      -9.683   6.875  68.571  1.00  0.00    -0.138 A  
HETATM   17  C   UNL     1      -9.586   5.581  69.160  1.00  0.00    -0.143 A  
HETATM   18  O   UNL     1      -9.372   7.010  67.258  1.00  0.00    -0.128 OA 
HETATM   19  C   UNL     1     -11.113   6.390  70.774  1.00  0.00    -0.365 A  
HETATM   20  C   UNL     1     -10.334   5.343  70.300  1.00  0.00    -0.357 A  
ENDROOT
BRANCH  17  21
HETATM   21  O   UNL     1      -8.809   4.640  68.535  1.00  0.00    -0.097 OA 
HETATM   22  C   UNL     1      -7.391   4.724  68.711  1.00  0.00    -0.061 C  
ENDBRANCH  17  21
TORSDOF 1
ENDMDL
MODEL      101
REMARK 921   NORMALIZED FREE ENERGY PREDICTED BY IDOCK:   -3.65 KCAL/MOL
REMARK 922        TOTAL FREE ENERGY PREDICTED BY IDOCK:   -3.95 KCAL/MOL
REMARK 923 INTER-LIGAND FREE ENERGY PREDICTED BY IDOCK:   -3.85 KCAL/MOL
REMARK 924 INTRA-LIGAND FREE ENERGY PREDICTED BY IDOCK:   -0.10 KCAL/MOL
REMARK 927      BINDING AFFINITY PREDICTED BY RF-SCORE:    0.00 PKD
ROOT
HETATM    1  C   UNL     1      -9.199   5.280  68.937  1.00  0.00    -0.118 C  
HETATM    2  C   UNL     1      -7.709   4.971  68.690  1.00  0.00    -0.078 C  
HETATM    3  C   UNL     1      -7.015   5.710  69.851  1.00  0.00    -0.062 C  
HETATM    4  O   UNL     1      -5.847   5.055  70.245  1.00  0.00    -0.015 OA 
HETATM    5  C   UNL     1      -6.976   7.061  69.266  1.00  0.00    -0.074 C  
HETATM    6  C   UNL     1      -8.254   7.336  68.859  1.00  0.00    -0.125 C  
HETATM    7  H   UNL     1      -5.420   5.510  70.961  1.00  0.00     0.000 HD 
HETATM    8  C   UNL     1      -9.672   6.751  69.481  1.00  0.00    -0.154 C  
HETATM    9  C   UNL     1      -9.645   8.269  69.913  1.00  0.00    -0.171 C  
HETATM   10  C   UNL     1     -11.019   8.887  69.927  1.00  0.00    -0.182 C  
HETATM   11  N   UNL     1     -11.354   9.009  71.326  1.00  0.00    -0.292 NA 
HETATM   12  C   UNL     1     -12.162  10.194  71.547  1.00  0.00    -0.380 C  
HETATM   13  C   UNL     1     -12.007   7.789  71.751  1.00  0.00    -0.296 C  
HETATM   14  C   UNL     1     -11.102   6.560  71.831  1.00  0.00    -0.300 A  
HETATM   15  C   UNL     1     -10.146   6.123  70.871  1.00  0.00    -0.237 A  
HETATM   16  C   UNL     1      -9.840   4.769  71.026  1.00  0.00    -0.197 A  
HETATM   17  C   UNL     1     -10.109   3.929  72.146  1.00  0.00    -0.155 A  
HETATM   18  O   UNL     1      -9.423   4.193  69.872  1.00  0.00    -0.158 OA 
HETATM   19  C   UNL     1     -11.481   5.692  72.921  1.00  0.00    -0.297 A  
HETATM   20  C   UNL     1     -10.961   4.419  73.118  1.00  0.00    -0.332 A  
ENDROOT
BRANCH  17  21
HETATM   21  O   UNL     1      -9.555   2.674  72.162  1.00  0.00    -0.104 OA 
HETATM   22  C   UNL     1     -10.444   1.554  72.115  1.00  0.00    -0.125 C  
ENDBRANCH  17  21
TORSDOF 1
ENDMDL
MODEL      102
REMARK 921   NORMALIZED FREE ENERGY PREDICTED BY IDOCK:   -3.60 KCAL/MOL
REMARK 922        TOTAL FREE ENERGY PREDICTED BY IDOCK:   -3.90 KCAL/MOL
REMARK 923 INTER-LIGAND FREE ENERGY PREDICTED BY IDOCK:   -3.80 KCAL/MOL
REMARK 924 INTRA-LIGAND FREE ENERGY PREDICTED BY IDOCK:   -0.10 KCAL/MOL
REMARK 927      BINDING AFFINITY PREDICTED BY RF-SCORE:    0.00 PKD
ROOT
HETATM    1  C   UNL     1      -8.270   6.078  72.073  1.00  0.00    -0.107 C  
HETATM    2  C   UNL     1      -7.538   4.882  71.434  1.00  0.00    -0.083 C  
HETATM    3  C   UNL     1      -8.269   4.721  70.086  1.00  0.00    -0.068 C  
HETATM    4  O   UNL     1      -7.413   4.230  69.099  1.00  0.00    -0.054 OA 
HETATM    5  C   UNL     1      -9.429   3.942  70.552  1.00  0.00    -0.251 C  
HETATM    6  C   UNL     1      -9.952   4.635  71.611  1.00  0.00    -0.262 C  
HETATM    7  H   UNL     1      -7.864   4.131  68.268  1.00  0.00     0.000 HD 
HETATM    8  C   UNL     1      -9.888   6.263  71.897  1.00  0.00    -0.172 C  
HETATM    9  C   UNL     1     -11.398   5.984  71.531  1.00  0.00    -0.309 C  
HETATM   10  C   UNL     1     -12.348   6.865  72.298  1.00  0.00    -0.094 C  
HETATM   11  N   UNL     1     -12.812   7.835  71.333  1.00  0.00    -0.321 NA 
HETATM   12  C   UNL     1     -14.187   8.202  71.611  1.00  0.00    -0.446 C  
HETATM   13  C   UNL     1     -11.907   8.966  71.348  1.00  0.00    -0.317 C  
HETATM   14  C   UNL     1     -10.520   8.698  70.766  1.00  0.00    -0.249 A  
HETATM   15  C   UNL     1      -9.676   7.579  71.016  1.00  0.00    -0.170 A  
HETATM   16  C   UNL     1      -8.343   7.859  70.711  1.00  0.00    -0.115 A  
HETATM   17  C   UNL     1      -7.825   8.938  69.936  1.00  0.00    -0.092 A  
HETATM   18  O   UNL     1      -7.473   7.103  71.425  1.00  0.00    -0.078 OA 
HETATM   19  C   UNL     1     -10.000   9.856  70.077  1.00  0.00    -0.302 A  
HETATM   20  C   UNL     1      -8.695   9.966  69.617  1.00  0.00    -0.218 A  
ENDROOT
BRANCH  17  21
HETATM   21  O   UNL     1      -6.495   8.920  69.605  1.00  0.00    -0.041 OA 
HETATM   22  C   UNL     1      -5.706  10.061  69.955  1.00  0.00    -0.046 C  
ENDBRANCH  17  21
TORSDOF 1
ENDMDL
MODEL      103
REMARK 921   NORMALIZED FREE ENERGY PREDICTED BY IDOCK:   -3.55 KCAL/MOL
REMARK 922        TOTAL FREE ENERGY PREDICTED BY IDOCK:   -3.85 KCAL/MOL
REMARK 923 INTER-LIGAND FREE ENERGY PREDICTED BY IDOCK:   -3.75 KCAL/MOL
REMARK 924 INTRA-LIGAND FREE ENERGY PREDICTED BY IDOCK:   -0.10 KCAL/MOL
REMARK 927      BINDING AFFINITY PREDICTED BY RF-SCORE:    0.00 PKD
ROOT
HETATM    1  C   UNL     1     -10.857   5.946  70.167  1.00  0.00    -0.332 C  
HETATM    2  C   UNL     1     -10.801   5.609  71.670  1.00  0.00    -0.301 C  
HETATM    3  C   UNL     1      -9.352   5.978  72.043  1.00  0.00    -0.149 C  
HETATM    4  O   UNL     1      -9.263   6.416  73.366  1.00  0.00    -0.131 OA 
HETATM    5  C   UNL     1      -8.684   4.743  71.598  1.00  0.00    -0.134 C  
HETATM    6  C   UNL     1      -9.096   4.531  70.310  1.00  0.00    -0.159 C  
HETATM    7  H   UNL     1      -8.369   6.643  73.596  1.00  0.00     0.000 HD 
HETATM    8  C   UNL     1      -9.573   5.655  69.193  1.00  0.00    -0.176 C  
HETATM    9  C   UNL     1      -8.175   5.143  68.669  1.00  0.00    -0.085 C  
HETATM   10  C   UNL     1      -8.107   5.096  67.165  1.00  0.00    -0.104 C  
HETATM   11  N   UNL     1      -7.275   6.218  66.798  1.00  0.00    -0.073 NA 
HETATM   12  C   UNL     1      -6.495   5.900  65.617  1.00  0.00    -0.043 C  
HETATM   13  C   UNL     1      -8.121   7.380  66.624  1.00  0.00    -0.123 C  
HETATM   14  C   UNL     1      -8.725   7.944  67.910  1.00  0.00    -0.124 A  
HETATM   15  C   UNL     1      -9.347   7.220  68.966  1.00  0.00    -0.148 A  
HETATM   16  C   UNL     1     -10.173   8.040  69.737  1.00  0.00    -0.206 A  
HETATM   17  C   UNL     1     -10.207   9.464  69.781  1.00  0.00    -0.220 A  
HETATM   18  O   UNL     1     -11.173   7.352  70.342  1.00  0.00    -0.266 OA 
HETATM   19  C   UNL     1      -8.829   9.383  67.861  1.00  0.00    -0.124 A  
HETATM   20  C   UNL     1      -9.508  10.147  68.801  1.00  0.00    -0.171 A  
ENDROOT
BRANCH  17  21
HETATM   21  O   UNL     1     -10.971  10.066  70.748  1.00  0.00    -0.313 OA 
HETATM   22  C   UNL     1     -11.964  11.005  70.323  1.00  0.00    -0.365 C  
ENDBRANCH  17  21
TORSDOF 1
ENDMDL
MODEL      104
REMARK 921   NORMALIZED FREE ENERGY PREDICTED BY IDOCK:   -3.52 KCAL/MOL
REMARK 922        TOTAL FREE ENERGY PREDICTED BY IDOCK:   -3.82 KCAL/MOL
REMARK 923 INTER-LIGAND FREE ENERGY PREDICTED BY IDOCK:   -3.74 KCAL/MOL
REMARK 924 INTRA-LIGAND FREE ENERGY PREDICTED BY IDOCK:   -0.08 KCAL/MOL
REMARK 927      BINDING AFFINITY PREDICTED BY RF-SCORE:    0.00 PKD
ROOT
HETATM    1  C   UNL     1      -7.901  10.036  68.490  1.00  0.00    -0.093 C  
HETATM    2  C   UNL     1      -8.617  11.389  68.670  1.00  0.00    -0.126 C  
HETATM    3  C   UNL     1     -10.103  10.981  68.704  1.00  0.00    -0.197 C  
HETATM    4  O   UNL     1     -10.849  11.842  69.510  1.00  0.00    -0.442 OA 
HETATM    5  C   UNL     1     -10.343  10.888  67.254  1.00  0.00    -0.255 C  
HETATM    6  C   UNL     1      -9.355  10.082  66.756  1.00  0.00    -0.193 C  
HETATM    7  H   UNL     1     -11.765  11.590  69.531  1.00  0.00     0.000 HD 
HETATM    8  C   UNL     1      -8.538   8.870  67.532  1.00  0.00    -0.120 C  
HETATM    9  C   UNL     1      -9.461   8.123  66.492  1.00  0.00    -0.286 C  
HETATM   10  C   UNL     1      -8.810   6.886  65.931  1.00  0.00    -0.105 C  
HETATM   11  N   UNL     1      -9.492   5.787  66.573  1.00  0.00    -0.150 NA 
HETATM   12  C   UNL     1      -9.587   4.657  65.669  1.00  0.00    -0.182 C  
HETATM   13  C   UNL     1      -8.798   5.473  67.805  1.00  0.00    -0.105 C  
HETATM   14  C   UNL     1      -8.934   6.516  68.913  1.00  0.00    -0.128 A  
HETATM   15  C   UNL     1      -8.803   7.929  68.795  1.00  0.00    -0.138 A  
HETATM   16  C   UNL     1      -8.530   8.527  70.027  1.00  0.00    -0.125 A  
HETATM   17  C   UNL     1      -8.679   7.967  71.329  1.00  0.00    -0.138 A  
HETATM   18  O   UNL     1      -7.861   9.700  69.902  1.00  0.00    -0.115 OA 
HETATM   19  C   UNL     1      -8.978   5.901  70.219  1.00  0.00    -0.152 A  
HETATM   20  C   UNL     1      -8.908   6.605  71.413  1.00  0.00    -0.139 A  
ENDROOT
BRANCH  17  21
HETATM   21  O   UNL     1      -8.529   8.795  72.412  1.00  0.00    -0.393 OA 
HETATM   22  C   UNL     1      -8.900   8.284  73.696  1.00  0.00    -0.158 C  
ENDBRANCH  17  21
TORSDOF 1
ENDMDL
MODEL      105
REMARK 921   NORMALIZED FREE ENERGY PREDICTED BY IDOCK:   -3.50 KCAL/MOL
REMARK 922        TOTAL FREE ENERGY PREDICTED BY IDOCK:   -3.80 KCAL/MOL
REMARK 923 INTER-LIGAND FREE ENERGY PREDICTED BY IDOCK:   -3.72 KCAL/MOL
REMARK 924 INTRA-LIGAND FREE ENERGY PREDICTED BY IDOCK:   -0.07 KCAL/MOL
REMARK 927      BINDING AFFINITY PREDICTED BY RF-SCORE:    0.00 PKD
ROOT
HETATM    1  C   UNL     1     -10.388   4.244  71.002  1.00  0.00     0.127 C  
HETATM    2  C   UNL     1      -9.417   3.064  71.207  1.00  0.00    -0.220 C  
HETATM    3  C   UNL     1      -8.066   3.659  70.764  1.00  0.00    -0.057 C  
HETATM    4  O   UNL     1      -7.004   3.091  71.470  1.00  0.00    -0.030 OA 
HETATM    5  C   UNL     1      -8.205   3.474  69.310  1.00  0.00    -0.075 C  
HETATM    6  C   UNL     1      -9.413   4.021  68.971  1.00  0.00    -0.243 C  
HETATM    7  H   UNL     1      -6.171   3.458  71.198  1.00  0.00     0.000 HD 
HETATM    8  C   UNL     1     -10.222   5.253  69.723  1.00  0.00    -0.364 C  
HETATM    9  C   UNL     1      -9.729   5.877  68.359  1.00  0.00    -0.151 C  
HETATM   10  C   UNL     1     -10.708   6.873  67.794  1.00  0.00    -0.254 C  
HETATM   11  N   UNL     1     -10.100   8.161  68.030  1.00  0.00    -0.189 NA 
HETATM   12  C   UNL     1     -10.433   9.077  66.955  1.00  0.00    -0.246 C  
HETATM   13  C   UNL     1     -10.520   8.636  69.332  1.00  0.00    -0.218 C  
HETATM   14  C   UNL     1      -9.934   7.877  70.522  1.00  0.00    -0.191 A  
HETATM   15  C   UNL     1      -9.833   6.466  70.686  1.00  0.00    -0.206 A  
HETATM   16  C   UNL     1      -9.687   6.112  72.029  1.00  0.00    -0.151 A  
HETATM   17  C   UNL     1      -9.331   6.949  73.126  1.00  0.00    -0.143 A  
HETATM   18  O   UNL     1     -10.143   4.863  72.292  1.00  0.00    -0.178 OA 
HETATM   19  C   UNL     1      -9.686   8.755  71.641  1.00  0.00    -0.366 A  
HETATM   20  C   UNL     1      -9.336   8.316  72.911  1.00  0.00    -0.324 A  
ENDROOT
BRANCH  17  21
HETATM   21  O   UNL     1      -9.062   6.357  74.333  1.00  0.00    -0.150 OA 
HETATM   22  C   UNL     1      -7.762   5.789  74.521  1.00  0.00    -0.097 C  
ENDBRANCH  17  21
TORSDOF 1
ENDMDL
MODEL      106
REMARK 921   NORMALIZED FREE ENERGY PREDICTED BY IDOCK:   -3.48 KCAL/MOL
REMARK 922        TOTAL FREE ENERGY PREDICTED BY IDOCK:   -3.78 KCAL/MOL
REMARK 923 INTER-LIGAND FREE ENERGY PREDICTED BY IDOCK:   -3.69 KCAL/MOL
REMARK 924 INTRA-LIGAND FREE ENERGY PREDICTED BY IDOCK:   -0.09 KCAL/MOL
REMARK 927      BINDING AFFINITY PREDICTED BY RF-SCORE:    0.00 PKD
ROOT
HETATM    1  C   UNL     1     -10.057   9.937  66.798  1.00  0.00    -0.230 C  
HETATM    2  C   UNL     1      -9.990  10.020  65.260  1.00  0.00    -0.368 C  
HETATM    3  C   UNL     1      -8.666   9.299  64.941  1.00  0.00    -0.192 C  
HETATM    4  O   UNL     1      -8.722   8.655  63.704  1.00  0.00    -0.418 OA 
HETATM    5  C   UNL     1      -7.738  10.417  65.183  1.00  0.00    -0.110 C  
HETATM    6  C   UNL     1      -8.046  10.906  66.423  1.00  0.00    -0.164 C  
HETATM    7  H   UNL     1      -7.906   8.210  63.508  1.00  0.00     0.000 HD 
HETATM    8  C   UNL     1      -8.704  10.094  67.706  1.00  0.00    -0.121 C  
HETATM    9  C   UNL     1      -7.210  10.371  68.136  1.00  0.00    -0.087 C  
HETATM   10  C   UNL     1      -7.076  10.631  69.613  1.00  0.00    -0.143 C  
HETATM   11  N   UNL     1      -6.483   9.428  70.148  1.00  0.00    -0.051 NA 
HETATM   12  C   UNL     1      -5.608   9.750  71.259  1.00  0.00    -0.075 C  
HETATM   13  C   UNL     1      -7.546   8.513  70.507  1.00  0.00    -0.074 C  
HETATM   14  C   UNL     1      -8.304   7.900  69.329  1.00  0.00    -0.136 A  
HETATM   15  C   UNL     1      -8.801   8.570  68.176  1.00  0.00    -0.142 A  
HETATM   16  C   UNL     1      -9.810   7.837  67.548  1.00  0.00    -0.171 A  
HETATM   17  C   UNL     1     -10.143   6.463  67.731  1.00  0.00    -0.146 A  
HETATM   18  O   UNL     1     -10.667   8.621  66.848  1.00  0.00    -0.252 OA 
HETATM   19  C   UNL     1      -8.705   6.541  69.606  1.00  0.00    -0.139 A  
HETATM   20  C   UNL     1      -9.564   5.805  68.801  1.00  0.00    -0.156 A  
ENDROOT
BRANCH  17  21
HETATM   21  O   UNL     1     -11.053   5.897  66.875  1.00  0.00    -0.263 OA 
HETATM   22  C   UNL     1     -10.599   4.837  66.027  1.00  0.00    -0.254 C  
ENDBRANCH  17  21
TORSDOF 1
ENDMDL
MODEL      107
REMARK 921   NORMALIZED FREE ENERGY PREDICTED BY IDOCK:   -3.48 KCAL/MOL
REMARK 922        TOTAL FREE ENERGY PREDICTED BY IDOCK:   -3.78 KCAL/MOL
REMARK 923 INTER-LIGAND FREE ENERGY PREDICTED BY IDOCK:   -3.69 KCAL/MOL
REMARK 924 INTRA-LIGAND FREE ENERGY PREDICTED BY IDOCK:   -0.09 KCAL/MOL
REMARK 927      BINDING AFFINITY PREDICTED BY RF-SCORE:    0.00 PKD
ROOT
HETATM    1  C   UNL     1     -10.242   4.319  71.237  1.00  0.00    -0.035 C  
HETATM    2  C   UNL     1      -9.365   4.298  72.504  1.00  0.00    -0.155 C  
HETATM    3  C   UNL     1      -8.027   4.873  71.997  1.00  0.00    -0.110 C  
HETATM    4  O   UNL     1      -7.361   5.574  73.003  1.00  0.00    -0.089 OA 
HETATM    5  C   UNL     1      -7.461   3.643  71.416  1.00  0.00    -0.044 C  
HETATM    6  C   UNL     1      -8.424   3.138  70.584  1.00  0.00    -0.095 C  
HETATM    7  H   UNL     1      -6.536   5.928  72.690  1.00  0.00     0.000 HD 
HETATM    8  C   UNL     1      -9.605   3.963  69.770  1.00  0.00    -0.271 C  
HETATM    9  C   UNL     1      -8.603   3.492  68.645  1.00  0.00    -0.122 C  
HETATM   10  C   UNL     1      -9.304   3.150  67.357  1.00  0.00    -0.191 C  
HETATM   11  N   UNL     1      -9.003   4.250  66.470  1.00  0.00    -0.116 NA 
HETATM   12  C   UNL     1      -8.891   3.776  65.103  1.00  0.00    -0.123 C  
HETATM   13  C   UNL     1     -10.021   5.266  66.638  1.00  0.00    -0.202 C  
HETATM   14  C   UNL     1      -9.978   6.017  67.969  1.00  0.00    -0.162 A  
HETATM   15  C   UNL     1      -9.825   5.464  69.272  1.00  0.00    -0.249 A  
HETATM   16  C   UNL     1     -10.280   6.339  70.260  1.00  0.00    -0.196 A  
HETATM   17  C   UNL     1     -10.555   7.733  70.143  1.00  0.00    -0.237 A  
HETATM   18  O   UNL     1     -10.682   5.695  71.383  1.00  0.00    -0.247 OA 
HETATM   19  C   UNL     1     -10.361   7.400  67.810  1.00  0.00    -0.273 A  
HETATM   20  C   UNL     1     -10.595   8.268  68.868  1.00  0.00    -0.160 A  
ENDROOT
BRANCH  17  21
HETATM   21  O   UNL     1     -10.816   8.441  71.288  1.00  0.00    -0.224 OA 
HETATM   22  C   UNL     1     -11.401   9.739  71.149  1.00  0.00    -0.389 C  
ENDBRANCH  17  21
TORSDOF 1
ENDMDL
MODEL      108
REMARK 921   NORMALIZED FREE ENERGY PREDICTED BY IDOCK:   -3.46 KCAL/MOL
REMARK 922        TOTAL FREE ENERGY PREDICTED BY IDOCK:   -3.76 KCAL/MOL
REMARK 923 INTER-LIGAND FREE ENERGY PREDICTED BY IDOCK:   -3.68 KCAL/MOL
REMARK 924 INTRA-LIGAND FREE ENERGY PREDICTED BY IDOCK:   -0.08 KCAL/MOL
REMARK 927      BINDING AFFINITY PREDICTED BY RF-SCORE:    0.00 PKD
ROOT
HETATM    1  C   UNL     1     -10.782   5.297  71.206  1.00  0.00    -0.128 C  
HETATM    2  C   UNL     1     -10.371   4.368  72.366  1.00  0.00    -0.241 C  
HETATM    3  C   UNL     1      -8.858   4.188  72.133  1.00  0.00    -0.107 C  
HETATM    4  O   UNL     1      -8.176   4.006  73.336  1.00  0.00    -0.088 OA 
HETATM    5  C   UNL     1      -8.914   3.124  71.115  1.00  0.00    -0.164 C  
HETATM    6  C   UNL     1      -9.775   3.568  70.147  1.00  0.00    -0.155 C  
HETATM    7  H   UNL     1      -7.243   3.894  73.192  1.00  0.00     0.000 HD 
HETATM    8  C   UNL     1     -10.112   5.131  69.721  1.00  0.00    -0.336 C  
HETATM    9  C   UNL     1      -9.283   4.558  68.506  1.00  0.00    -0.181 C  
HETATM   10  C   UNL     1      -9.738   5.120  67.184  1.00  0.00    -0.157 C  
HETATM   11  N   UNL     1      -8.704   6.054  66.805  1.00  0.00    -0.117 NA 
HETATM   12  C   UNL     1      -8.547   6.072  65.363  1.00  0.00    -0.124 C  
HETATM   13  C   UNL     1      -9.033   7.352  67.357  1.00  0.00    -0.123 C  
HETATM   14  C   UNL     1      -8.908   7.464  68.876  1.00  0.00    -0.131 A  
HETATM   15  C   UNL     1      -9.379   6.544  69.855  1.00  0.00    -0.155 A  
HETATM   16  C   UNL     1      -9.516   7.147  71.107  1.00  0.00    -0.157 A  
HETATM   17  C   UNL     1      -8.973   8.389  71.550  1.00  0.00    -0.194 A  
HETATM   18  O   UNL     1     -10.445   6.537  71.883  1.00  0.00    -0.203 OA 
HETATM   19  C   UNL     1      -8.450   8.774  69.276  1.00  0.00    -0.122 A  
HETATM   20  C   UNL     1      -8.426   9.222  70.590  1.00  0.00    -0.258 A  
ENDROOT
BRANCH  17  21
HETATM   21  O   UNL     1      -9.075   8.704  72.880  1.00  0.00    -0.314 OA 
HETATM   22  C   UNL     1      -8.092   8.166  73.769  1.00  0.00    -0.226 C  
ENDBRANCH  17  21
TORSDOF 1
ENDMDL
MODEL      109
REMARK 921   NORMALIZED FREE ENERGY PREDICTED BY IDOCK:   -3.45 KCAL/MOL
REMARK 922        TOTAL FREE ENERGY PREDICTED BY IDOCK:   -3.74 KCAL/MOL
REMARK 923 INTER-LIGAND FREE ENERGY PREDICTED BY IDOCK:   -3.64 KCAL/MOL
REMARK 924 INTRA-LIGAND FREE ENERGY PREDICTED BY IDOCK:   -0.10 KCAL/MOL
REMARK 927      BINDING AFFINITY PREDICTED BY RF-SCORE:    0.00 PKD
ROOT
HETATM    1  C   UNL     1      -9.075  11.857  68.064  1.00  0.00    -0.189 C  
HETATM    2  C   UNL     1     -10.190  12.855  67.694  1.00  0.00    -0.220 C  
HETATM    3  C   UNL     1     -11.014  12.069  66.655  1.00  0.00    -0.287 C  
HETATM    4  O   UNL     1     -12.362  12.428  66.698  1.00  0.00    -0.477 OA 
HETATM    5  C   UNL     1     -10.187  12.337  65.465  1.00  0.00    -0.296 C  
HETATM    6  C   UNL     1      -8.905  12.006  65.811  1.00  0.00     0.183 C  
HETATM    7  H   UNL     1     -12.870  11.943  66.057  1.00  0.00     0.000 HD 
HETATM    8  C   UNL     1      -8.404  10.890  66.926  1.00  0.00    -0.133 C  
HETATM    9  C   UNL     1      -8.029  10.254  65.531  1.00  0.00    -0.151 C  
HETATM   10  C   UNL     1      -6.754   9.453  65.587  1.00  0.00    -0.074 C  
HETATM   11  N   UNL     1      -7.181   8.075  65.541  1.00  0.00    -0.063 NA 
HETATM   12  C   UNL     1      -6.207   7.271  64.827  1.00  0.00    -0.037 C  
HETATM   13  C   UNL     1      -7.410   7.619  66.896  1.00  0.00    -0.090 C  
HETATM   14  C   UNL     1      -8.633   8.222  67.588  1.00  0.00    -0.130 A  
HETATM   15  C   UNL     1      -9.028   9.590  67.613  1.00  0.00    -0.124 A  
HETATM   16  C   UNL     1      -9.890   9.858  68.678  1.00  0.00    -0.158 A  
HETATM   17  C   UNL     1     -10.614   8.929  69.480  1.00  0.00    -0.228 A  
HETATM   18  O   UNL     1      -9.838  11.152  69.079  1.00  0.00    -0.189 OA 
HETATM   19  C   UNL     1      -9.270   7.269  68.465  1.00  0.00    -0.138 A  
HETATM   20  C   UNL     1     -10.281   7.591  69.361  1.00  0.00    -0.204 A  
ENDROOT
BRANCH  17  21
HETATM   21  O   UNL     1     -11.550   9.418  70.355  1.00  0.00    -0.257 OA 
HETATM   22  C   UNL     1     -11.391   9.106  71.742  1.00  0.00    -0.381 C  
ENDBRANCH  17  21
TORSDOF 1
ENDMDL
MODEL      110
REMARK 921   NORMALIZED FREE ENERGY PREDICTED BY IDOCK:   -3.45 KCAL/MOL
REMARK 922        TOTAL FREE ENERGY PREDICTED BY IDOCK:   -3.74 KCAL/MOL
REMARK 923 INTER-LIGAND FREE ENERGY PREDICTED BY IDOCK:   -3.64 KCAL/MOL
REMARK 924 INTRA-LIGAND FREE ENERGY PREDICTED BY IDOCK:   -0.10 KCAL/MOL
REMARK 927      BINDING AFFINITY PREDICTED BY RF-SCORE:    0.00 PKD
ROOT
HETATM    1  C   UNL     1      -7.286  10.255  65.650  1.00  0.00    -0.149 C  
HETATM    2  C   UNL     1      -7.211   9.527  64.293  1.00  0.00    -0.115 C  
HETATM    3  C   UNL     1      -8.131   8.311  64.512  1.00  0.00    -0.146 C  
HETATM    4  O   UNL     1      -8.755   7.924  63.325  1.00  0.00    -0.369 OA 
HETATM    5  C   UNL     1      -7.174   7.426  65.198  1.00  0.00    -0.066 C  
HETATM    6  C   UNL     1      -6.645   8.161  66.224  1.00  0.00    -0.047 C  
HETATM    7  H   UNL     1      -9.323   7.174  63.460  1.00  0.00     0.000 HD 
HETATM    8  C   UNL     1      -7.347   9.411  67.052  1.00  0.00    -0.087 C  
HETATM    9  C   UNL     1      -7.309   8.220  68.088  1.00  0.00    -0.096 C  
HETATM   10  C   UNL     1      -7.076   8.692  69.498  1.00  0.00    -0.055 C  
HETATM   11  N   UNL     1      -8.359   8.561  70.149  1.00  0.00    -0.119 NA 
HETATM   12  C   UNL     1      -8.181   8.208  71.544  1.00  0.00    -0.125 C  
HETATM   13  C   UNL     1      -9.096   9.793  69.963  1.00  0.00    -0.223 C  
HETATM   14  C   UNL     1      -9.579  10.055  68.537  1.00  0.00    -0.157 A  
HETATM   15  C   UNL     1      -8.837   9.913  67.330  1.00  0.00    -0.137 A  
HETATM   16  C   UNL     1      -9.401  10.651  66.288  1.00  0.00    -0.171 A  
HETATM   17  C   UNL     1     -10.706  11.220  66.218  1.00  0.00    -0.257 A  
HETATM   18  O   UNL     1      -8.491  11.007  65.348  1.00  0.00    -0.138 OA 
HETATM   19  C   UNL     1     -10.859  10.723  68.525  1.00  0.00    -0.270 A  
HETATM   20  C   UNL     1     -11.449  11.252  67.384  1.00  0.00    -0.300 A  
ENDROOT
BRANCH  17  21
HETATM   21  O   UNL     1     -11.120  11.748  65.022  1.00  0.00    -0.308 OA 
HETATM   22  C   UNL     1     -11.413  13.148  64.978  1.00  0.00    -0.308 C  
ENDBRANCH  17  21
TORSDOF 1
ENDMDL
MODEL      111
REMARK 921   NORMALIZED FREE ENERGY PREDICTED BY IDOCK:   -3.41 KCAL/MOL
REMARK 922        TOTAL FREE ENERGY PREDICTED BY IDOCK:   -3.70 KCAL/MOL
REMARK 923 INTER-LIGAND FREE ENERGY PREDICTED BY IDOCK:   -3.60 KCAL/MOL
REMARK 924 INTRA-LIGAND FREE ENERGY PREDICTED BY IDOCK:   -0.10 KCAL/MOL
REMARK 927      BINDING AFFINITY PREDICTED BY RF-SCORE:    0.00 PKD
ROOT
HETATM    1  C   UNL     1      -7.585   4.719  68.114  1.00  0.00    -0.081 C  
HETATM    2  C   UNL     1      -7.843   3.614  67.070  1.00  0.00    -0.080 C  
HETATM    3  C   UNL     1      -9.379   3.487  67.088  1.00  0.00    -0.200 C  
HETATM    4  O   UNL     1      -9.873   3.113  65.837  1.00  0.00    -0.397 OA 
HETATM    5  C   UNL     1      -9.517   2.606  68.261  1.00  0.00    -0.219 C  
HETATM    6  C   UNL     1      -8.803   3.198  69.267  1.00  0.00    -0.154 C  
HETATM    7  H   UNL     1     -10.819   3.034  65.848  1.00  0.00     0.000 HD 
HETATM    8  C   UNL     1      -8.482   4.808  69.481  1.00  0.00    -0.092 C  
HETATM    9  C   UNL     1      -9.508   4.451  70.627  1.00  0.00    -0.242 C  
HETATM   10  C   UNL     1      -9.245   5.221  71.894  1.00  0.00    -0.138 C  
HETATM   11  N   UNL     1     -10.292   6.213  71.947  1.00  0.00    -0.204 NA 
HETATM   12  C   UNL     1     -10.671   6.472  73.324  1.00  0.00    -0.274 C  
HETATM   13  C   UNL     1      -9.838   7.399  71.251  1.00  0.00    -0.176 C  
HETATM   14  C   UNL     1      -9.722   7.258  69.733  1.00  0.00    -0.166 A  
HETATM   15  C   UNL     1      -9.137   6.184  69.004  1.00  0.00    -0.124 A  
HETATM   16  C   UNL     1      -8.788   6.570  67.708  1.00  0.00    -0.113 A  
HETATM   17  C   UNL     1      -9.213   7.725  66.989  1.00  0.00    -0.145 A  
HETATM   18  O   UNL     1      -7.771   5.832  67.200  1.00  0.00    -0.098 OA 
HETATM   19  C   UNL     1     -10.068   8.487  69.059  1.00  0.00    -0.207 A  
HETATM   20  C   UNL     1      -9.873   8.710  67.702  1.00  0.00    -0.229 A  
ENDROOT
BRANCH  17  21
HETATM   21  O   UNL     1      -8.895   7.814  65.659  1.00  0.00    -0.147 OA 
HETATM   22  C   UNL     1      -7.963   8.825  65.263  1.00  0.00    -0.118 C  
ENDBRANCH  17  21
TORSDOF 1
ENDMDL
MODEL      112
REMARK 921   NORMALIZED FREE ENERGY PREDICTED BY IDOCK:   -3.41 KCAL/MOL
REMARK 922        TOTAL FREE ENERGY PREDICTED BY IDOCK:   -3.70 KCAL/MOL
REMARK 923 INTER-LIGAND FREE ENERGY PREDICTED BY IDOCK:   -3.60 KCAL/MOL
REMARK 924 INTRA-LIGAND FREE ENERGY PREDICTED BY IDOCK:   -0.10 KCAL/MOL
REMARK 927      BINDING AFFINITY PREDICTED BY RF-SCORE:    0.00 PKD
ROOT
HETATM    1  C   UNL     1     -10.314   8.161  70.207  1.00  0.00    -0.209 C  
HETATM    2  C   UNL     1      -9.601   8.917  71.345  1.00  0.00    -0.359 C  
HETATM    3  C   UNL     1      -8.123   8.542  71.124  1.00  0.00    -0.133 C  
HETATM    4  O   UNL     1      -7.271   9.572  71.528  1.00  0.00    -0.320 OA 
HETATM    5  C   UNL     1      -8.120   7.235  71.803  1.00  0.00    -0.100 C  
HETATM    6  C   UNL     1      -9.161   6.526  71.267  1.00  0.00    -0.155 C  
HETATM    7  H   UNL     1      -6.359   9.340  71.391  1.00  0.00     0.000 HD 
HETATM    8  C   UNL     1      -9.821   6.666  69.756  1.00  0.00    -0.174 C  
HETATM    9  C   UNL     1      -9.066   5.280  69.733  1.00  0.00    -0.150 C  
HETATM   10  C   UNL     1      -9.777   4.252  68.893  1.00  0.00    -0.125 C  
HETATM   11  N   UNL     1      -8.982   4.141  67.693  1.00  0.00    -0.114 NA 
HETATM   12  C   UNL     1      -9.016   2.780  67.192  1.00  0.00    -0.159 C  
HETATM   13  C   UNL     1      -9.462   5.112  66.733  1.00  0.00    -0.141 C  
HETATM   14  C   UNL     1      -9.166   6.571  67.079  1.00  0.00    -0.142 A  
HETATM   15  C   UNL     1      -9.338   7.216  68.337  1.00  0.00    -0.135 A  
HETATM   16  C   UNL     1      -9.418   8.603  68.198  1.00  0.00    -0.141 A  
HETATM   17  C   UNL     1      -9.050   9.398  67.074  1.00  0.00    -0.134 A  
HETATM   18  O   UNL     1     -10.118   9.188  69.201  1.00  0.00    -0.182 OA 
HETATM   19  C   UNL     1      -8.899   7.354  65.895  1.00  0.00    -0.149 A  
HETATM   20  C   UNL     1      -8.787   8.738  65.887  1.00  0.00    -0.222 A  
ENDROOT
BRANCH  17  21
HETATM   21  O   UNL     1      -9.036  10.762  67.220  1.00  0.00    -0.143 OA 
HETATM   22  C   UNL     1      -9.762  11.541  66.264  1.00  0.00    -0.215 C  
ENDBRANCH  17  21
TORSDOF 1
ENDMDL
MODEL      113
REMARK 921   NORMALIZED FREE ENERGY PREDICTED BY IDOCK:   -3.38 KCAL/MOL
REMARK 922        TOTAL FREE ENERGY PREDICTED BY IDOCK:   -3.67 KCAL/MOL
REMARK 923 INTER-LIGAND FREE ENERGY PREDICTED BY IDOCK:   -3.58 KCAL/MOL
REMARK 924 INTRA-LIGAND FREE ENERGY PREDICTED BY IDOCK:   -0.09 KCAL/MOL
REMARK 927      BINDING AFFINITY PREDICTED BY RF-SCORE:    0.00 PKD
ROOT
HETATM    1  C   UNL     1      -9.032   2.368  69.938  1.00  0.00    -0.096 C  
HETATM    2  C   UNL     1      -7.864   2.272  70.940  1.00  0.00    -0.040 C  
HETATM    3  C   UNL     1      -6.946   3.427  70.498  1.00  0.00    -0.034 C  
HETATM    4  O   UNL     1      -6.250   3.967  71.581  1.00  0.00    -0.013 OA 
HETATM    5  C   UNL     1      -6.242   2.746  69.398  1.00  0.00    -0.028 C  
HETATM    6  C   UNL     1      -7.215   2.213  68.596  1.00  0.00    -0.044 C  
HETATM    7  H   UNL     1      -5.684   4.680  71.309  1.00  0.00     0.000 HD 
HETATM    8  C   UNL     1      -8.762   2.756  68.370  1.00  0.00    -0.138 C  
HETATM    9  C   UNL     1      -8.027   3.071  67.009  1.00  0.00    -0.079 C  
HETATM   10  C   UNL     1      -8.936   2.923  65.817  1.00  0.00    -0.144 C  
HETATM   11  N   UNL     1      -9.223   4.275  65.401  1.00  0.00    -0.142 NA 
HETATM   12  C   UNL     1      -9.372   4.337  63.959  1.00  0.00    -0.141 C  
HETATM   13  C   UNL     1     -10.397   4.735  66.113  1.00  0.00    -0.300 C  
HETATM   14  C   UNL     1     -10.195   4.985  67.608  1.00  0.00    -0.168 A  
HETATM   15  C   UNL     1      -9.530   4.145  68.545  1.00  0.00    -0.216 A  
HETATM   16  C   UNL     1      -9.917   4.428  69.857  1.00  0.00    -0.162 A  
HETATM   17  C   UNL     1     -10.598   5.582  70.344  1.00  0.00    -0.280 A  
HETATM   18  O   UNL     1      -9.785   3.361  70.682  1.00  0.00    -0.178 OA 
HETATM   19  C   UNL     1     -10.985   6.102  68.070  1.00  0.00    -0.399 A  
HETATM   20  C   UNL     1     -11.147   6.439  69.407  1.00  0.00    -0.450 A  
ENDROOT
BRANCH  17  21
HETATM   21  O   UNL     1     -10.715   5.741  71.701  1.00  0.00    -0.240 OA 
HETATM   22  C   UNL     1     -11.568   6.786  72.177  1.00  0.00    -0.288 C  
ENDBRANCH  17  21
TORSDOF 1
ENDMDL
MODEL      114
REMARK 921   NORMALIZED FREE ENERGY PREDICTED BY IDOCK:   -3.32 KCAL/MOL
REMARK 922        TOTAL FREE ENERGY PREDICTED BY IDOCK:   -3.61 KCAL/MOL
REMARK 923 INTER-LIGAND FREE ENERGY PREDICTED BY IDOCK:   -3.51 KCAL/MOL
REMARK 924 INTRA-LIGAND FREE ENERGY PREDICTED BY IDOCK:   -0.09 KCAL/MOL
REMARK 927      BINDING AFFINITY PREDICTED BY RF-SCORE:    0.00 PKD
ROOT
HETATM    1  C   UNL     1      -8.499   5.821  68.783  1.00  0.00    -0.107 C  
HETATM    2  C   UNL     1      -9.731   5.609  67.882  1.00  0.00    -0.145 C  
HETATM    3  C   UNL     1     -10.662   6.761  68.307  1.00  0.00    -0.235 C  
HETATM    4  O   UNL     1     -11.456   7.193  67.243  1.00  0.00    -0.516 OA 
HETATM    5  C   UNL     1     -11.255   6.141  69.503  1.00  0.00    -0.482 C  
HETATM    6  C   UNL     1     -10.206   5.704  70.266  1.00  0.00    -0.311 C  
HETATM    7  H   UNL     1     -12.029   7.904  67.505  1.00  0.00     0.000 HD 
HETATM    8  C   UNL     1      -8.670   6.317  70.335  1.00  0.00    -0.146 C  
HETATM    9  C   UNL     1      -9.316   6.708  71.721  1.00  0.00    -0.148 C  
HETATM   10  C   UNL     1      -8.318   6.682  72.848  1.00  0.00    -0.118 C  
HETATM   11  N   UNL     1      -8.056   8.071  73.142  1.00  0.00    -0.162 NA 
HETATM   12  C   UNL     1      -7.806   8.246  74.560  1.00  0.00    -0.244 C  
HETATM   13  C   UNL     1      -6.957   8.517  72.311  1.00  0.00    -0.072 C  
HETATM   14  C   UNL     1      -7.277   8.647  70.823  1.00  0.00    -0.067 A  
HETATM   15  C   UNL     1      -7.973   7.715  70.001  1.00  0.00    -0.114 A  
HETATM   16  C   UNL     1      -7.695   7.912  68.647  1.00  0.00    -0.113 A  
HETATM   17  C   UNL     1      -7.099   9.049  68.027  1.00  0.00    -0.079 A  
HETATM   18  O   UNL     1      -7.843   6.782  67.914  1.00  0.00    -0.109 OA 
HETATM   19  C   UNL     1      -6.570   9.753  70.222  1.00  0.00    -0.102 A  
HETATM   20  C   UNL     1      -6.519   9.994  68.856  1.00  0.00    -0.048 A  
ENDROOT
BRANCH  17  21
HETATM   21  O   UNL     1      -7.088   9.110  66.658  1.00  0.00    -0.080 OA 
HETATM   22  C   UNL     1      -8.021   9.990  66.023  1.00  0.00    -0.118 C  
ENDBRANCH  17  21
TORSDOF 1
ENDMDL
MODEL      115
REMARK 921   NORMALIZED FREE ENERGY PREDICTED BY IDOCK:   -3.29 KCAL/MOL
REMARK 922        TOTAL FREE ENERGY PREDICTED BY IDOCK:   -3.57 KCAL/MOL
REMARK 923 INTER-LIGAND FREE ENERGY PREDICTED BY IDOCK:   -3.56 KCAL/MOL
REMARK 924 INTRA-LIGAND FREE ENERGY PREDICTED BY IDOCK:   -0.02 KCAL/MOL
REMARK 927      BINDING AFFINITY PREDICTED BY RF-SCORE:    0.00 PKD
ROOT
HETATM    1  C   UNL     1     -10.460   4.728  67.770  1.00  0.00     0.150 C  
HETATM    2  C   UNL     1     -10.319   5.295  66.343  1.00  0.00    -0.315 C  
HETATM    3  C   UNL     1      -9.486   6.571  66.569  1.00  0.00    -0.154 C  
HETATM    4  O   UNL     1      -8.677   6.853  65.467  1.00  0.00    -0.285 OA 
HETATM    5  C   UNL     1     -10.573   7.480  66.973  1.00  0.00    -0.409 C  
HETATM    6  C   UNL     1     -11.251   6.839  67.975  1.00  0.00    -0.159 C  
HETATM    7  H   UNL     1      -8.163   7.640  65.607  1.00  0.00     0.000 HD 
HETATM    8  C   UNL     1     -10.668   5.725  69.052  1.00  0.00    -0.354 C  
HETATM    9  C   UNL     1     -10.920   7.021  69.918  1.00  0.00    -0.296 C  
HETATM   10  C   UNL     1     -11.381   6.699  71.315  1.00  0.00    -0.299 C  
HETATM   11  N   UNL     1     -10.235   6.964  72.152  1.00  0.00    -0.192 NA 
HETATM   12  C   UNL     1     -10.662   7.462  73.446  1.00  0.00    -0.357 C  
HETATM   13  C   UNL     1      -9.441   5.756  72.242  1.00  0.00    -0.144 C  
HETATM   14  C   UNL     1      -8.710   5.361  70.959  1.00  0.00    -0.141 A  
HETATM   15  C   UNL     1      -9.236   5.331  69.636  1.00  0.00    -0.159 A  
HETATM   16  C   UNL     1      -8.478   4.509  68.799  1.00  0.00    -0.084 A  
HETATM   17  C   UNL     1      -7.165   4.000  69.019  1.00  0.00    -0.054 A  
HETATM   18  O   UNL     1      -9.200   4.006  67.768  1.00  0.00    -0.134 OA 
HETATM   19  C   UNL     1      -7.429   4.758  71.243  1.00  0.00    -0.076 A  
HETATM   20  C   UNL     1      -6.635   4.134  70.290  1.00  0.00    -0.032 A  
ENDROOT
BRANCH  17  21
HETATM   21  O   UNL     1      -6.534   3.362  67.981  1.00  0.00    -0.035 OA 
HETATM   22  C   UNL     1      -6.093   4.161  66.879  1.00  0.00    -0.028 C  
ENDBRANCH  17  21
TORSDOF 1
ENDMDL
MODEL      116
REMARK 921   NORMALIZED FREE ENERGY PREDICTED BY IDOCK:   -3.28 KCAL/MOL
REMARK 922        TOTAL FREE ENERGY PREDICTED BY IDOCK:   -3.57 KCAL/MOL
REMARK 923 INTER-LIGAND FREE ENERGY PREDICTED BY IDOCK:   -3.48 KCAL/MOL
REMARK 924 INTRA-LIGAND FREE ENERGY PREDICTED BY IDOCK:   -0.08 KCAL/MOL
REMARK 927      BINDING AFFINITY PREDICTED BY RF-SCORE:    0.00 PKD
ROOT
HETATM    1  C   UNL     1     -10.641   7.044  67.928  1.00  0.00    -0.218 C  
HETATM    2  C   UNL     1     -10.829   7.373  69.423  1.00  0.00    -0.184 C  
HETATM    3  C   UNL     1      -9.537   8.139  69.765  1.00  0.00    -0.171 C  
HETATM    4  O   UNL     1      -9.757   9.089  70.763  1.00  0.00    -0.204 OA 
HETATM    5  C   UNL     1      -8.645   6.987  69.986  1.00  0.00    -0.141 C  
HETATM    6  C   UNL     1      -8.774   6.189  68.882  1.00  0.00    -0.123 C  
HETATM    7  H   UNL     1      -8.960   9.562  70.973  1.00  0.00     0.000 HD 
HETATM    8  C   UNL     1      -9.168   6.637  67.339  1.00  0.00    -0.124 C  
HETATM    9  C   UNL     1      -7.642   6.239  67.260  1.00  0.00    -0.093 C  
HETATM   10  C   UNL     1      -7.284   5.593  65.947  1.00  0.00    -0.072 C  
HETATM   11  N   UNL     1      -6.545   6.604  65.227  1.00  0.00    -0.048 NA 
HETATM   12  C   UNL     1      -5.521   5.989  64.405  1.00  0.00    -0.017 C  
HETATM   13  C   UNL     1      -7.483   7.402  64.465  1.00  0.00    -0.095 C  
HETATM   14  C   UNL     1      -8.387   8.314  65.294  1.00  0.00    -0.175 A  
HETATM   15  C   UNL     1      -9.102   7.981  66.479  1.00  0.00    -0.213 A  
HETATM   16  C   UNL     1     -10.157   8.866  66.710  1.00  0.00    -0.280 A  
HETATM   17  C   UNL     1     -10.379  10.145  66.122  1.00  0.00    -0.167 A  
HETATM   18  O   UNL     1     -11.159   8.306  67.433  1.00  0.00     0.014 OA 
HETATM   19  C   UNL     1      -8.661   9.555  64.608  1.00  0.00    -0.207 A  
HETATM   20  C   UNL     1      -9.597  10.488  65.033  1.00  0.00    -0.331 A  
ENDROOT
BRANCH  17  21
HETATM   21  O   UNL     1     -11.382  10.928  66.631  1.00  0.00    -0.238 OA 
HETATM   22  C   UNL     1     -11.556  12.234  66.072  1.00  0.00    -0.393 C  
ENDBRANCH  17  21
TORSDOF 1
ENDMDL
MODEL      117
REMARK 921   NORMALIZED FREE ENERGY PREDICTED BY IDOCK:   -3.28 KCAL/MOL
REMARK 922        TOTAL FREE ENERGY PREDICTED BY IDOCK:   -3.56 KCAL/MOL
REMARK 923 INTER-LIGAND FREE ENERGY PREDICTED BY IDOCK:   -3.47 KCAL/MOL
REMARK 924 INTRA-LIGAND FREE ENERGY PREDICTED BY IDOCK:   -0.09 KCAL/MOL
REMARK 927      BINDING AFFINITY PREDICTED BY RF-SCORE:    0.00 PKD
ROOT
HETATM    1  C   UNL     1      -8.142   7.212  68.620  1.00  0.00    -0.124 C  
HETATM    2  C   UNL     1      -7.240   6.313  69.489  1.00  0.00    -0.078 C  
HETATM    3  C   UNL     1      -6.825   7.259  70.633  1.00  0.00    -0.053 C  
HETATM    4  O   UNL     1      -6.624   6.560  71.824  1.00  0.00    -0.052 OA 
HETATM    5  C   UNL     1      -5.718   7.956  69.957  1.00  0.00    -0.023 C  
HETATM    6  C   UNL     1      -6.219   8.399  68.763  1.00  0.00    -0.045 C  
HETATM    7  H   UNL     1      -6.368   7.144  72.529  1.00  0.00     0.000 HD 
HETATM    8  C   UNL     1      -7.784   8.794  68.396  1.00  0.00    -0.096 C  
HETATM    9  C   UNL     1      -7.019  10.175  68.411  1.00  0.00    -0.066 C  
HETATM   10  C   UNL     1      -7.554  11.140  67.387  1.00  0.00    -0.113 C  
HETATM   11  N   UNL     1      -8.301  12.112  68.150  1.00  0.00    -0.163 NA 
HETATM   12  C   UNL     1      -8.202  13.420  67.532  1.00  0.00    -0.185 C  
HETATM   13  C   UNL     1      -9.666  11.645  68.278  1.00  0.00    -0.197 C  
HETATM   14  C   UNL     1      -9.857  10.432  69.188  1.00  0.00    -0.237 A  
HETATM   15  C   UNL     1      -9.080   9.239  69.216  1.00  0.00    -0.151 A  
HETATM   16  C   UNL     1      -9.777   8.184  69.810  1.00  0.00    -0.173 A  
HETATM   17  C   UNL     1     -10.951   8.247  70.615  1.00  0.00    -0.240 A  
HETATM   18  O   UNL     1      -9.360   6.971  69.372  1.00  0.00    -0.147 OA 
HETATM   19  C   UNL     1     -11.108  10.498  69.904  1.00  0.00    -0.371 A  
HETATM   20  C   UNL     1     -11.632   9.452  70.653  1.00  0.00    -0.330 A  
ENDROOT
BRANCH  17  21
HETATM   21  O   UNL     1     -11.364   7.105  71.252  1.00  0.00    -0.253 OA 
HETATM   22  C   UNL     1     -12.742   7.013  71.627  1.00  0.00    -0.377 C  
ENDBRANCH  17  21
TORSDOF 1
ENDMDL
MODEL      118
REMARK 921   NORMALIZED FREE ENERGY PREDICTED BY IDOCK:   -3.27 KCAL/MOL
REMARK 922        TOTAL FREE ENERGY PREDICTED BY IDOCK:   -3.55 KCAL/MOL
REMARK 923 INTER-LIGAND FREE ENERGY PREDICTED BY IDOCK:   -3.45 KCAL/MOL
REMARK 924 INTRA-LIGAND FREE ENERGY PREDICTED BY IDOCK:   -0.10 KCAL/MOL
REMARK 927      BINDING AFFINITY PREDICTED BY RF-SCORE:    0.00 PKD
ROOT
HETATM    1  C   UNL     1      -7.168   9.076  66.155  1.00  0.00    -0.090 C  
HETATM    2  C   UNL     1      -7.320  10.516  65.626  1.00  0.00    -0.126 C  
HETATM    3  C   UNL     1      -8.547  10.407  64.700  1.00  0.00    -0.185 C  
HETATM    4  O   UNL     1      -9.269  11.601  64.669  1.00  0.00    -0.416 OA 
HETATM    5  C   UNL     1      -7.874   9.887  63.497  1.00  0.00    -0.150 C  
HETATM    6  C   UNL     1      -7.145   8.804  63.907  1.00  0.00    -0.091 C  
HETATM    7  H   UNL     1     -10.025  11.534  64.098  1.00  0.00     0.000 HD 
HETATM    8  C   UNL     1      -7.451   7.791  65.180  1.00  0.00    -0.083 C  
HETATM    9  C   UNL     1      -7.742   6.917  63.898  1.00  0.00    -0.115 C  
HETATM   10  C   UNL     1      -7.368   5.471  64.090  1.00  0.00    -0.058 C  
HETATM   11  N   UNL     1      -8.627   4.780  64.239  1.00  0.00    -0.138 NA 
HETATM   12  C   UNL     1      -8.541   3.450  63.664  1.00  0.00    -0.090 C  
HETATM   13  C   UNL     1      -8.984   4.771  65.642  1.00  0.00    -0.142 C  
HETATM   14  C   UNL     1      -9.389   6.127  66.219  1.00  0.00    -0.157 A  
HETATM   15  C   UNL     1      -8.732   7.377  66.039  1.00  0.00    -0.171 A  
HETATM   16  C   UNL     1      -9.074   8.289  67.040  1.00  0.00    -0.145 A  
HETATM   17  C   UNL     1     -10.163   8.221  67.957  1.00  0.00    -0.214 A  
HETATM   18  O   UNL     1      -8.111   9.220  67.249  1.00  0.00    -0.111 OA 
HETATM   19  C   UNL     1     -10.424   5.991  67.216  1.00  0.00    -0.319 A  
HETATM   20  C   UNL     1     -10.852   7.024  68.039  1.00  0.00    -0.229 A  
ENDROOT
BRANCH  17  21
HETATM   21  O   UNL     1     -10.423   9.319  68.737  1.00  0.00    -0.207 OA 
HETATM   22  C   UNL     1     -10.296   9.173  70.155  1.00  0.00    -0.213 C  
ENDBRANCH  17  21
TORSDOF 1
ENDMDL
MODEL      119
REMARK 921   NORMALIZED FREE ENERGY PREDICTED BY IDOCK:   -3.14 KCAL/MOL
REMARK 922        TOTAL FREE ENERGY PREDICTED BY IDOCK:   -3.42 KCAL/MOL
REMARK 923 INTER-LIGAND FREE ENERGY PREDICTED BY IDOCK:   -4.10 KCAL/MOL
REMARK 924 INTRA-LIGAND FREE ENERGY PREDICTED BY IDOCK:    0.67 KCAL/MOL
REMARK 927      BINDING AFFINITY PREDICTED BY RF-SCORE:    0.00 PKD
ROOT
HETATM    1  C   UNL     1     -10.576  10.435  66.396  1.00  0.00    -0.127 C  
HETATM    2  C   UNL     1     -10.027  11.859  66.609  1.00  0.00    -0.220 C  
HETATM    3  C   UNL     1      -8.672  11.599  67.295  1.00  0.00    -0.159 C  
HETATM    4  O   UNL     1      -7.739  12.583  66.968  1.00  0.00    -0.317 OA 
HETATM    5  C   UNL     1      -9.151  11.426  68.677  1.00  0.00    -0.138 C  
HETATM    6  C   UNL     1     -10.153  10.495  68.619  1.00  0.00    -0.190 C  
HETATM    7  H   UNL     1      -6.903  12.423  67.391  1.00  0.00     0.000 HD 
HETATM    8  C   UNL     1     -10.346   9.270  67.524  1.00  0.00    -0.323 C  
HETATM    9  C   UNL     1      -9.956   8.542  68.870  1.00  0.00    -0.197 C  
HETATM   10  C   UNL     1     -10.645   7.212  69.024  1.00  0.00    -0.210 C  
HETATM   11  N   UNL     1      -9.613   6.232  68.776  1.00  0.00    -0.121 NA 
HETATM   12  C   UNL     1      -9.832   5.054  69.594  1.00  0.00    -0.220 C  
HETATM   13  C   UNL     1      -9.586   5.941  67.358  1.00  0.00    -0.113 C  
HETATM   14  C   UNL     1      -9.058   7.070  66.472  1.00  0.00    -0.183 A  
HETATM   15  C   UNL     1      -9.396   8.451  66.535  1.00  0.00    -0.259 A  
HETATM   16  C   UNL     1      -9.111   9.107  65.335  1.00  0.00    -0.214 A  
HETATM   17  C   UNL     1      -8.289   8.658  64.261  1.00  0.00    -0.130 A  
HETATM   18  O   UNL     1      -9.891  10.198  65.138  1.00  0.00    -0.290 OA 
HETATM   19  C   UNL     1      -8.318   6.556  65.344  1.00  0.00    -0.140 A  
HETATM   20  C   UNL     1      -7.888   7.334  64.277  1.00  0.00    -0.125 A  
ENDROOT
BRANCH  17  21
HETATM   21  O   UNL     1      -7.996   9.543  63.255  1.00  0.00    -0.129 OA 
HETATM   22  C   UNL     1      -9.088  10.214  62.620  1.00  0.00    -0.290 C  
ENDBRANCH  17  21
TORSDOF 1
ENDMDL
MODEL      120
REMARK 921   NORMALIZED FREE ENERGY PREDICTED BY IDOCK:   -3.08 KCAL/MOL
REMARK 922        TOTAL FREE ENERGY PREDICTED BY IDOCK:   -3.35 KCAL/MOL
REMARK 923 INTER-LIGAND FREE ENERGY PREDICTED BY IDOCK:   -3.26 KCAL/MOL
REMARK 924 INTRA-LIGAND FREE ENERGY PREDICTED BY IDOCK:   -0.09 KCAL/MOL
REMARK 927      BINDING AFFINITY PREDICTED BY RF-SCORE:    0.00 PKD
ROOT
HETATM    1  C   UNL     1     -10.875   5.976  69.739  1.00  0.00    -0.363 C  
HETATM    2  C   UNL     1     -11.403   6.454  68.372  1.00  0.00    -0.145 C  
HETATM    3  C   UNL     1     -10.197   7.217  67.793  1.00  0.00    -0.195 C  
HETATM    4  O   UNL     1     -10.162   7.133  66.400  1.00  0.00    -0.457 OA 
HETATM    5  C   UNL     1     -10.397   8.506  68.478  1.00  0.00    -0.230 C  
HETATM    6  C   UNL     1     -10.530   8.212  69.808  1.00  0.00    -0.227 C  
HETATM    7  H   UNL     1      -9.418   7.604  66.043  1.00  0.00     0.000 HD 
HETATM    8  C   UNL     1      -9.895   6.930  70.639  1.00  0.00    -0.191 C  
HETATM    9  C   UNL     1      -9.079   8.180  71.154  1.00  0.00    -0.183 C  
HETATM   10  C   UNL     1      -8.706   8.064  72.608  1.00  0.00    -0.191 C  
HETATM   11  N   UNL     1      -7.292   7.769  72.604  1.00  0.00    -0.080 NA 
HETATM   12  C   UNL     1      -6.649   8.374  73.755  1.00  0.00    -0.115 C  
HETATM   13  C   UNL     1      -7.123   6.331  72.549  1.00  0.00    -0.083 C  
HETATM   14  C   UNL     1      -7.505   5.682  71.219  1.00  0.00    -0.094 A  
HETATM   15  C   UNL     1      -8.672   5.922  70.440  1.00  0.00    -0.139 A  
HETATM   16  C   UNL     1      -8.931   4.868  69.560  1.00  0.00    -0.092 A  
HETATM   17  C   UNL     1      -8.052   3.821  69.159  1.00  0.00    -0.057 A  
HETATM   18  O   UNL     1     -10.244   4.767  69.239  1.00  0.00    -0.189 OA 
HETATM   19  C   UNL     1      -6.646   4.563  70.909  1.00  0.00    -0.031 A  
HETATM   20  C   UNL     1      -6.873   3.673  69.868  1.00  0.00    -0.034 A  
ENDROOT
BRANCH  17  21
HETATM   21  O   UNL     1      -8.451   2.994  68.140  1.00  0.00    -0.076 OA 
HETATM   22  C   UNL     1      -8.139   3.389  66.801  1.00  0.00    -0.088 C  
ENDBRANCH  17  21
TORSDOF 1
ENDMDL
MODEL      121
REMARK 921   NORMALIZED FREE ENERGY PREDICTED BY IDOCK:   -3.05 KCAL/MOL
REMARK 922        TOTAL FREE ENERGY PREDICTED BY IDOCK:   -3.33 KCAL/MOL
REMARK 923 INTER-LIGAND FREE ENERGY PREDICTED BY IDOCK:   -3.25 KCAL/MOL
REMARK 924 INTRA-LIGAND FREE ENERGY PREDICTED BY IDOCK:   -0.08 KCAL/MOL
REMARK 927      BINDING AFFINITY PREDICTED BY RF-SCORE:    0.00 PKD
ROOT
HETATM    1  C   UNL     1     -11.828  11.905  65.423  1.00  0.00    -0.079 C  
HETATM    2  C   UNL     1     -11.055  10.725  64.804  1.00  0.00     0.275 C  
HETATM    3  C   UNL     1      -9.595  11.215  64.856  1.00  0.00    -0.239 C  
HETATM    4  O   UNL     1      -8.706  10.151  65.015  1.00  0.00    -0.153 OA 
HETATM    5  C   UNL     1      -9.592  12.039  63.635  1.00  0.00    -0.114 C  
HETATM    6  C   UNL     1     -10.669  12.878  63.740  1.00  0.00    -0.320 C  
HETATM    7  H   UNL     1      -7.805  10.453  65.047  1.00  0.00     0.000 HD 
HETATM    8  C   UNL     1     -11.385  13.452  65.117  1.00  0.00    -0.316 C  
HETATM    9  C   UNL     1     -10.661  14.708  64.493  1.00  0.00    -0.156 C  
HETATM   10  C   UNL     1     -11.427  15.985  64.720  1.00  0.00    -0.201 C  
HETATM   11  N   UNL     1     -10.682  16.685  65.740  1.00  0.00    -0.261 NA 
HETATM   12  C   UNL     1     -10.765  18.118  65.528  1.00  0.00     0.062 C  
HETATM   13  C   UNL     1     -11.180  16.273  67.036  1.00  0.00     0.141 C  
HETATM   14  C   UNL     1     -10.839  14.838  67.438  1.00  0.00    -0.300 A  
HETATM   15  C   UNL     1     -10.948  13.665  66.638  1.00  0.00    -0.295 A  
HETATM   16  C   UNL     1     -11.003  12.510  67.421  1.00  0.00    -0.259 A  
HETATM   17  C   UNL     1     -10.665  12.362  68.798  1.00  0.00    -0.209 A  
HETATM   18  O   UNL     1     -11.651  11.491  66.803  1.00  0.00    -0.492 OA 
HETATM   19  C   UNL     1     -10.604  14.726  68.858  1.00  0.00    -0.250 A  
HETATM   20  C   UNL     1     -10.463  13.519  69.530  1.00  0.00     0.352 A  
ENDROOT
BRANCH  17  21
HETATM   21  O   UNL     1     -10.616  11.096  69.322  1.00  0.00    -0.217 OA 
HETATM   22  C   UNL     1      -9.425  10.333  69.109  1.00  0.00    -0.215 C  
ENDBRANCH  17  21
TORSDOF 1
ENDMDL
MODEL      122
REMARK 921   NORMALIZED FREE ENERGY PREDICTED BY IDOCK:   -2.98 KCAL/MOL
REMARK 922        TOTAL FREE ENERGY PREDICTED BY IDOCK:   -3.25 KCAL/MOL
REMARK 923 INTER-LIGAND FREE ENERGY PREDICTED BY IDOCK:   -3.16 KCAL/MOL
REMARK 924 INTRA-LIGAND FREE ENERGY PREDICTED BY IDOCK:   -0.09 KCAL/MOL
REMARK 927      BINDING AFFINITY PREDICTED BY RF-SCORE:    0.00 PKD
ROOT
HETATM    1  C   UNL     1      -7.187   6.037  69.751  1.00  0.00    -0.074 C  
HETATM    2  C   UNL     1      -7.022   4.833  68.802  1.00  0.00    -0.052 C  
HETATM    3  C   UNL     1      -8.334   4.859  67.995  1.00  0.00    -0.099 C  
HETATM    4  O   UNL     1      -8.145   4.372  66.700  1.00  0.00    -0.101 OA 
HETATM    5  C   UNL     1      -9.203   4.159  68.957  1.00  0.00    -0.213 C  
HETATM    6  C   UNL     1      -9.046   4.808  70.152  1.00  0.00    -0.155 C  
HETATM    7  H   UNL     1      -8.954   4.387  66.202  1.00  0.00     0.000 HD 
HETATM    8  C   UNL     1      -8.644   6.392  70.409  1.00  0.00    -0.142 C  
HETATM    9  C   UNL     1     -10.161   6.292  70.837  1.00  0.00    -0.227 C  
HETATM   10  C   UNL     1     -10.491   7.194  71.997  1.00  0.00    -0.207 C  
HETATM   11  N   UNL     1     -11.243   8.282  71.416  1.00  0.00    -0.246 NA 
HETATM   12  C   UNL     1     -12.245   8.756  72.352  1.00  0.00    -0.326 C  
HETATM   13  C   UNL     1     -10.314   9.315  71.006  1.00  0.00    -0.318 C  
HETATM   14  C   UNL     1      -9.439   8.963  69.804  1.00  0.00    -0.174 A  
HETATM   15  C   UNL     1      -8.729   7.750  69.573  1.00  0.00    -0.135 A  
HETATM   16  C   UNL     1      -7.696   7.925  68.650  1.00  0.00    -0.113 A  
HETATM   17  C   UNL     1      -7.495   9.010  67.748  1.00  0.00    -0.085 A  
HETATM   18  O   UNL     1      -6.690   7.031  68.817  1.00  0.00    -0.055 OA 
HETATM   19  C   UNL     1      -9.184  10.119  68.977  1.00  0.00    -0.188 A  
HETATM   20  C   UNL     1      -8.271  10.141  67.931  1.00  0.00    -0.109 A  
ENDROOT
BRANCH  17  21
HETATM   21  O   UNL     1      -6.514   8.891  66.798  1.00  0.00    -0.062 OA 
HETATM   22  C   UNL     1      -6.914   8.550  65.467  1.00  0.00    -0.074 C  
ENDBRANCH  17  21
TORSDOF 1
ENDMDL
MODEL      123
REMARK 921   NORMALIZED FREE ENERGY PREDICTED BY IDOCK:   -2.94 KCAL/MOL
REMARK 922        TOTAL FREE ENERGY PREDICTED BY IDOCK:   -3.20 KCAL/MOL
REMARK 923 INTER-LIGAND FREE ENERGY PREDICTED BY IDOCK:   -3.12 KCAL/MOL
REMARK 924 INTRA-LIGAND FREE ENERGY PREDICTED BY IDOCK:   -0.08 KCAL/MOL
REMARK 927      BINDING AFFINITY PREDICTED BY RF-SCORE:    0.00 PKD
ROOT
HETATM    1  C   UNL     1      -8.472   6.081  67.957  1.00  0.00    -0.115 C  
HETATM    2  C   UNL     1      -9.132   6.786  66.755  1.00  0.00    -0.155 C  
HETATM    3  C   UNL     1     -10.256   7.603  67.420  1.00  0.00    -0.251 C  
HETATM    4  O   UNL     1     -10.514   8.781  66.717  1.00  0.00    -0.275 OA 
HETATM    5  C   UNL     1     -11.270   6.540  67.532  1.00  0.00    -0.288 C  
HETATM    6  C   UNL     1     -10.648   5.485  68.143  1.00  0.00    -0.207 C  
HETATM    7  H   UNL     1     -11.207   9.285  67.127  1.00  0.00     0.000 HD 
HETATM    8  C   UNL     1      -9.378   5.522  69.202  1.00  0.00    -0.158 C  
HETATM    9  C   UNL     1     -10.618   5.105  70.084  1.00  0.00    -0.225 C  
HETATM   10  C   UNL     1     -10.247   4.138  71.178  1.00  0.00     0.030 C  
HETATM   11  N   UNL     1     -10.278   4.923  72.390  1.00  0.00    -0.193 NA 
HETATM   12  C   UNL     1     -10.720   4.107  73.505  1.00  0.00    -0.227 C  
HETATM   13  C   UNL     1      -8.968   5.504  72.595  1.00  0.00    -0.129 C  
HETATM   14  C   UNL     1      -8.584   6.607  71.610  1.00  0.00    -0.123 A  
HETATM   15  C   UNL     1      -8.739   6.598  70.194  1.00  0.00    -0.141 A  
HETATM   16  C   UNL     1      -7.893   7.521  69.577  1.00  0.00    -0.120 A  
HETATM   17  C   UNL     1      -7.189   8.607  70.174  1.00  0.00    -0.052 A  
HETATM   18  O   UNL     1      -7.585   7.176  68.303  1.00  0.00    -0.109 OA 
HETATM   19  C   UNL     1      -7.787   7.631  72.244  1.00  0.00    -0.116 A  
HETATM   20  C   UNL     1      -7.141   8.650  71.556  1.00  0.00    -0.098 A  
ENDROOT
BRANCH  17  21
HETATM   21  O   UNL     1      -6.560   9.504  69.350  1.00  0.00    -0.043 OA 
HETATM   22  C   UNL     1      -6.808  10.896  69.568  1.00  0.00    -0.125 C  
ENDBRANCH  17  21
TORSDOF 1
ENDMDL
MODEL      124
REMARK 921   NORMALIZED FREE ENERGY PREDICTED BY IDOCK:   -2.93 KCAL/MOL
REMARK 922        TOTAL FREE ENERGY PREDICTED BY IDOCK:   -3.19 KCAL/MOL
REMARK 923 INTER-LIGAND FREE ENERGY PREDICTED BY IDOCK:   -3.10 KCAL/MOL
REMARK 924 INTRA-LIGAND FREE ENERGY PREDICTED BY IDOCK:   -0.09 KCAL/MOL
REMARK 927      BINDING AFFINITY PREDICTED BY RF-SCORE:    0.00 PKD
ROOT
HETATM    1  C   UNL     1     -10.041   4.126  66.210  1.00  0.00    -0.104 C  
HETATM    2  C   UNL     1      -8.935   3.399  65.420  1.00  0.00    -0.142 C  
HETATM    3  C   UNL     1      -7.650   4.066  65.948  1.00  0.00    -0.089 C  
HETATM    4  O   UNL     1      -6.574   3.179  65.936  1.00  0.00    -0.038 OA 
HETATM    5  C   UNL     1      -7.659   5.271  65.100  1.00  0.00    -0.082 C  
HETATM    6  C   UNL     1      -8.903   5.825  65.238  1.00  0.00    -0.057 C  
HETATM    7  H   UNL     1      -5.781   3.590  66.262  1.00  0.00     0.000 HD 
HETATM    8  C   UNL     1      -9.925   5.726  66.536  1.00  0.00    -0.202 C  
HETATM    9  C   UNL     1      -9.426   7.224  66.536  1.00  0.00    -0.218 C  
HETATM   10  C   UNL     1     -10.490   8.185  67.000  1.00  0.00    -0.326 C  
HETATM   11  N   UNL     1     -10.083   8.571  68.330  1.00  0.00    -0.189 NA 
HETATM   12  C   UNL     1     -10.460   9.947  68.591  1.00  0.00    -0.206 C  
HETATM   13  C   UNL     1     -10.656   7.636  69.276  1.00  0.00    -0.201 C  
HETATM   14  C   UNL     1     -10.057   6.230  69.244  1.00  0.00    -0.213 A  
HETATM   15  C   UNL     1      -9.775   5.433  68.099  1.00  0.00    -0.174 A  
HETATM   16  C   UNL     1      -9.678   4.078  68.424  1.00  0.00    -0.066 A  
HETATM   17  C   UNL     1      -9.519   3.492  69.713  1.00  0.00    -0.171 A  
HETATM   18  O   UNL     1      -9.976   3.268  67.379  1.00  0.00     0.126 OA 
HETATM   19  C   UNL     1     -10.012   5.643  70.563  1.00  0.00    -0.265 A  
HETATM   20  C   UNL     1      -9.697   4.314  70.812  1.00  0.00    -0.274 A  
ENDROOT
BRANCH  17  21
HETATM   21  O   UNL     1      -9.258   2.148  69.787  1.00  0.00    -0.101 OA 
HETATM   22  C   UNL     1      -9.491   1.492  71.037  1.00  0.00    -0.115 C  
ENDBRANCH  17  21
TORSDOF 1
ENDMDL
MODEL      125
REMARK 921   NORMALIZED FREE ENERGY PREDICTED BY IDOCK:   -2.83 KCAL/MOL
REMARK 922        TOTAL FREE ENERGY PREDICTED BY IDOCK:   -3.09 KCAL/MOL
REMARK 923 INTER-LIGAND FREE ENERGY PREDICTED BY IDOCK:   -2.99 KCAL/MOL
REMARK 924 INTRA-LIGAND FREE ENERGY PREDICTED BY IDOCK:   -0.09 KCAL/MOL
REMARK 927      BINDING AFFINITY PREDICTED BY RF-SCORE:    0.00 PKD
ROOT
HETATM    1  C   UNL     1      -9.587  13.240  66.614  1.00  0.00    -0.262 C  
HETATM    2  C   UNL     1      -8.242  13.946  66.347  1.00  0.00     0.813 C  
HETATM    3  C   UNL     1      -7.487  13.743  67.675  1.00  0.00    -0.178 C  
HETATM    4  O   UNL     1      -6.109  13.656  67.469  1.00  0.00    -0.294 OA 
HETATM    5  C   UNL     1      -8.078  14.854  68.441  1.00  0.00    -0.137 C  
HETATM    6  C   UNL     1      -9.435  14.718  68.322  1.00  0.00    -0.207 C  
HETATM    7  H   UNL     1      -5.644  13.531  68.288  1.00  0.00     0.000 HD 
HETATM    8  C   UNL     1     -10.305  13.331  68.082  1.00  0.00    -0.246 C  
HETATM    9  C   UNL     1     -10.631  13.753  69.568  1.00  0.00     0.155 C  
HETATM   10  C   UNL     1     -12.047  13.423  69.962  1.00  0.00    -0.334 C  
HETATM   11  N   UNL     1     -11.931  12.281  70.838  1.00  0.00    -0.057 NA 
HETATM   12  C   UNL     1     -12.959  12.325  71.860  1.00  0.00    -0.305 C  
HETATM   13  C   UNL     1     -11.980  11.078  70.033  1.00  0.00    -0.351 C  
HETATM   14  C   UNL     1     -10.752  10.830  69.157  1.00  0.00    -0.265 A  
HETATM   15  C   UNL     1     -10.073  11.770  68.331  1.00  0.00    -0.201 A  
HETATM   16  C   UNL     1      -9.314  11.136  67.345  1.00  0.00    -0.164 A  
HETATM   17  C   UNL     1      -8.918   9.768  67.282  1.00  0.00    -0.135 A  
HETATM   18  O   UNL     1      -9.131  11.911  66.248  1.00  0.00    -0.213 OA 
HETATM   19  C   UNL     1     -10.455   9.422  69.046  1.00  0.00    -0.233 A  
HETATM   20  C   UNL     1      -9.519   8.892  68.168  1.00  0.00    -0.155 A  
ENDROOT
BRANCH  17  21
HETATM   21  O   UNL     1      -8.016   9.398  66.319  1.00  0.00    -0.109 OA 
HETATM   22  C   UNL     1      -8.065   8.048  65.845  1.00  0.00    -0.117 C  
ENDBRANCH  17  21
TORSDOF 1
ENDMDL
MODEL      126
REMARK 921   NORMALIZED FREE ENERGY PREDICTED BY IDOCK:   -2.74 KCAL/MOL
REMARK 922        TOTAL FREE ENERGY PREDICTED BY IDOCK:   -3.00 KCAL/MOL
REMARK 923 INTER-LIGAND FREE ENERGY PREDICTED BY IDOCK:   -2.92 KCAL/MOL
REMARK 924 INTRA-LIGAND FREE ENERGY PREDICTED BY IDOCK:   -0.08 KCAL/MOL
REMARK 927      BINDING AFFINITY PREDICTED BY RF-SCORE:    0.00 PKD
ROOT
HETATM    1  C   UNL     1      -6.167   8.812  65.857  1.00  0.00    -0.056 C  
HETATM    2  C   UNL     1      -5.526   9.706  64.777  1.00  0.00    -0.058 C  
HETATM    3  C   UNL     1      -6.517   9.579  63.603  1.00  0.00    -0.103 C  
HETATM    4  O   UNL     1      -6.554  10.746  62.839  1.00  0.00    -0.337 OA 
HETATM    5  C   UNL     1      -6.032   8.308  63.038  1.00  0.00    -0.077 C  
HETATM    6  C   UNL     1      -5.986   7.421  64.079  1.00  0.00    -0.044 C  
HETATM    7  H   UNL     1      -7.164  10.668  62.116  1.00  0.00     0.000 HD 
HETATM    8  C   UNL     1      -6.911   7.410  65.452  1.00  0.00    -0.048 C  
HETATM    9  C   UNL     1      -7.421   6.170  64.619  1.00  0.00    -0.085 C  
HETATM   10  C   UNL     1      -7.828   5.016  65.497  1.00  0.00    -0.092 C  
HETATM   11  N   UNL     1      -9.272   5.010  65.453  1.00  0.00    -0.156 NA 
HETATM   12  C   UNL     1      -9.771   3.650  65.534  1.00  0.00    -0.117 C  
HETATM   13  C   UNL     1      -9.768   5.862  66.513  1.00  0.00    -0.155 C  
HETATM   14  C   UNL     1      -9.531   7.359  66.310  1.00  0.00    -0.144 A  
HETATM   15  C   UNL     1      -8.331   7.997  65.887  1.00  0.00    -0.136 A  
HETATM   16  C   UNL     1      -8.312   9.347  66.243  1.00  0.00    -0.115 A  
HETATM   17  C   UNL     1      -9.405  10.164  66.656  1.00  0.00    -0.162 A  
HETATM   18  O   UNL     1      -7.054   9.832  66.386  1.00  0.00    -0.090 OA 
HETATM   19  C   UNL     1     -10.622   8.144  66.836  1.00  0.00    -0.311 A  
HETATM   20  C   UNL     1     -10.594   9.527  66.962  1.00  0.00    -0.271 A  
ENDROOT
BRANCH  17  21
HETATM   21  O   UNL     1      -9.196  11.514  66.779  1.00  0.00    -0.172 OA 
HETATM   22  C   UNL     1      -9.075  12.051  68.100  1.00  0.00    -0.191 C  
ENDBRANCH  17  21
TORSDOF 1
ENDMDL
MODEL      127
REMARK 921   NORMALIZED FREE ENERGY PREDICTED BY IDOCK:   -2.73 KCAL/MOL
REMARK 922        TOTAL FREE ENERGY PREDICTED BY IDOCK:   -2.98 KCAL/MOL
REMARK 923 INTER-LIGAND FREE ENERGY PREDICTED BY IDOCK:   -2.89 KCAL/MOL
REMARK 924 INTRA-LIGAND FREE ENERGY PREDICTED BY IDOCK:   -0.10 KCAL/MOL
REMARK 927      BINDING AFFINITY PREDICTED BY RF-SCORE:    0.00 PKD
ROOT
HETATM    1  C   UNL     1      -9.873   5.756  66.865  1.00  0.00    -0.157 C  
HETATM    2  C   UNL     1     -11.025   6.744  67.139  1.00  0.00    -0.458 C  
HETATM    3  C   UNL     1     -10.510   7.530  68.360  1.00  0.00    -0.175 C  
HETATM    4  O   UNL     1     -10.988   8.841  68.360  1.00  0.00    -0.450 OA 
HETATM    5  C   UNL     1     -10.890   6.576  69.417  1.00  0.00    -0.363 C  
HETATM    6  C   UNL     1     -10.380   5.364  69.036  1.00  0.00    -0.282 C  
HETATM    7  H   UNL     1     -10.671   9.325  69.114  1.00  0.00     0.000 HD 
HETATM    8  C   UNL     1      -9.049   5.065  68.100  1.00  0.00    -0.131 C  
HETATM    9  C   UNL     1      -8.622   4.616  69.552  1.00  0.00    -0.103 C  
HETATM   10  C   UNL     1      -7.702   3.424  69.538  1.00  0.00    -0.050 C  
HETATM   11  N   UNL     1      -6.400   3.959  69.859  1.00  0.00    -0.027 NA 
HETATM   12  C   UNL     1      -5.635   2.994  70.625  1.00  0.00    -0.013 C  
HETATM   13  C   UNL     1      -5.748   4.352  68.627  1.00  0.00    -0.020 C  
HETATM   14  C   UNL     1      -6.344   5.578  67.937  1.00  0.00    -0.042 A  
HETATM   15  C   UNL     1      -7.721   5.858  67.703  1.00  0.00    -0.097 A  
HETATM   16  C   UNL     1      -7.890   6.790  66.677  1.00  0.00    -0.107 A  
HETATM   17  C   UNL     1      -6.916   7.662  66.110  1.00  0.00    -0.065 A  
HETATM   18  O   UNL     1      -9.087   6.667  66.052  1.00  0.00    -0.148 OA 
HETATM   19  C   UNL     1      -5.325   6.373  67.293  1.00  0.00    -0.005 A  
HETATM   20  C   UNL     1      -5.591   7.433  66.436  1.00  0.00    -0.028 A  
ENDROOT
BRANCH  17  21
HETATM   21  O   UNL     1      -7.341   8.631  65.238  1.00  0.00    -0.082 OA 
HETATM   22  C   UNL     1      -6.556   8.861  64.064  1.00  0.00    -0.083 C  
ENDBRANCH  17  21
TORSDOF 1
ENDMDL
MODEL      128
REMARK 921   NORMALIZED FREE ENERGY PREDICTED BY IDOCK:   -2.60 KCAL/MOL
REMARK 922        TOTAL FREE ENERGY PREDICTED BY IDOCK:   -2.85 KCAL/MOL
REMARK 923 INTER-LIGAND FREE ENERGY PREDICTED BY IDOCK:   -2.84 KCAL/MOL
REMARK 924 INTRA-LIGAND FREE ENERGY PREDICTED BY IDOCK:   -0.01 KCAL/MOL
REMARK 927      BINDING AFFINITY PREDICTED BY RF-SCORE:    0.00 PKD
ROOT
HETATM    1  C   UNL     1      -8.285  13.275  66.292  1.00  0.00     1.005 C  
HETATM    2  C   UNL     1      -8.842  11.980  66.915  1.00  0.00    -0.197 C  
HETATM    3  C   UNL     1      -9.822  12.514  67.978  1.00  0.00    -0.214 C  
HETATM    4  O   UNL     1     -10.895  11.640  68.165  1.00  0.00    -0.196 OA 
HETATM    5  C   UNL     1      -8.857  12.784  69.057  1.00  0.00     0.507 C  
HETATM    6  C   UNL     1      -7.867  13.547  68.500  1.00  0.00    -0.125 C  
HETATM    7  H   UNL     1     -11.499  11.969  68.820  1.00  0.00     0.000 HD 
HETATM    8  C   UNL     1      -7.981  14.589  67.219  1.00  0.00    -0.216 C  
HETATM    9  C   UNL     1      -7.783  15.524  68.476  1.00  0.00    -0.132 C  
HETATM   10  C   UNL     1      -6.970  16.752  68.158  1.00  0.00    -0.157 C  
HETATM   11  N   UNL     1      -7.929  17.831  68.127  1.00  0.00    -0.253 NA 
HETATM   12  C   UNL     1      -7.321  19.057  68.610  1.00  0.00    -0.318 C  
HETATM   13  C   UNL     1      -8.448  17.947  66.780  1.00  0.00    -0.249 C  
HETATM   14  C   UNL     1      -9.362  16.806  66.334  1.00  0.00    -0.305 A  
HETATM   15  C   UNL     1      -9.150  15.408  66.503  1.00  0.00    -0.334 A  
HETATM   16  C   UNL     1      -9.912  14.659  65.605  1.00  0.00    -0.351 A  
HETATM   17  C   UNL     1     -11.027  15.086  64.826  1.00  0.00    -0.373 A  
HETATM   18  O   UNL     1      -9.359  13.452  65.332  1.00  0.00     0.169 OA 
HETATM   19  C   UNL     1     -10.415  17.279  65.467  1.00  0.00    -0.135 A  
HETATM   20  C   UNL     1     -11.274  16.446  64.762  1.00  0.00    -0.219 A  
ENDROOT
BRANCH  17  21
HETATM   21  O   UNL     1     -11.746  14.136  64.148  1.00  0.00    -0.363 OA 
HETATM   22  C   UNL     1     -12.542  13.229  64.917  1.00  0.00    -0.384 C  
ENDBRANCH  17  21
TORSDOF 1
ENDMDL
MODEL      129
REMARK 921   NORMALIZED FREE ENERGY PREDICTED BY IDOCK:   -2.55 KCAL/MOL
REMARK 922        TOTAL FREE ENERGY PREDICTED BY IDOCK:   -2.79 KCAL/MOL
REMARK 923 INTER-LIGAND FREE ENERGY PREDICTED BY IDOCK:   -2.70 KCAL/MOL
REMARK 924 INTRA-LIGAND FREE ENERGY PREDICTED BY IDOCK:   -0.09 KCAL/MOL
REMARK 927      BINDING AFFINITY PREDICTED BY RF-SCORE:    0.00 PKD
ROOT
HETATM    1  C   UNL     1      -8.511   4.470  67.910  1.00  0.00    -0.102 C  
HETATM    2  C   UNL     1      -9.872   4.365  67.194  1.00  0.00    -0.217 C  
HETATM    3  C   UNL     1     -10.421   5.801  67.303  1.00  0.00    -0.266 C  
HETATM    4  O   UNL     1     -11.226   6.122  66.209  1.00  0.00    -0.657 OA 
HETATM    5  C   UNL     1     -10.974   5.726  68.666  1.00  0.00    -0.198 C  
HETATM    6  C   UNL     1      -9.967   5.246  69.460  1.00  0.00    -0.297 C  
HETATM    7  H   UNL     1     -11.564   7.008  66.277  1.00  0.00     0.000 HD 
HETATM    8  C   UNL     1      -8.334   5.404  69.244  1.00  0.00    -0.096 C  
HETATM    9  C   UNL     1      -8.662   6.327  70.482  1.00  0.00    -0.143 C  
HETATM   10  C   UNL     1      -7.553   6.340  71.500  1.00  0.00    -0.099 C  
HETATM   11  N   UNL     1      -6.918   7.627  71.339  1.00  0.00    -0.053 NA 
HETATM   12  C   UNL     1      -6.436   8.113  72.618  1.00  0.00    -0.081 C  
HETATM   13  C   UNL     1      -5.872   7.503  70.346  1.00  0.00    -0.027 C  
HETATM   14  C   UNL     1      -6.357   7.297  68.911  1.00  0.00    -0.039 A  
HETATM   15  C   UNL     1      -7.369   6.405  68.458  1.00  0.00    -0.087 A  
HETATM   16  C   UNL     1      -7.245   6.133  67.094  1.00  0.00    -0.075 A  
HETATM   17  C   UNL     1      -6.481   6.842  66.121  1.00  0.00    -0.051 A  
HETATM   18  O   UNL     1      -7.768   4.930  66.751  1.00  0.00    -0.090 OA 
HETATM   19  C   UNL     1      -5.491   7.953  67.959  1.00  0.00    -0.033 A  
HETATM   20  C   UNL     1      -5.576   7.780  66.584  1.00  0.00    -0.028 A  
ENDROOT
BRANCH  17  21
HETATM   21  O   UNL     1      -6.648   6.514  64.800  1.00  0.00    -0.037 OA 
HETATM   22  C   UNL     1      -5.497   6.559  63.952  1.00  0.00    -0.026 C  
ENDBRANCH  17  21
TORSDOF 1
ENDMDL
MODEL      130
REMARK 921   NORMALIZED FREE ENERGY PREDICTED BY IDOCK:   -2.30 KCAL/MOL
REMARK 922        TOTAL FREE ENERGY PREDICTED BY IDOCK:   -2.53 KCAL/MOL
REMARK 923 INTER-LIGAND FREE ENERGY PREDICTED BY IDOCK:   -2.51 KCAL/MOL
REMARK 924 INTRA-LIGAND FREE ENERGY PREDICTED BY IDOCK:   -0.02 KCAL/MOL
REMARK 927      BINDING AFFINITY PREDICTED BY RF-SCORE:    0.00 PKD
ROOT
HETATM    1  C   UNL     1      -9.549  16.593  66.168  1.00  0.00    -0.294 C  
HETATM    2  C   UNL     1      -9.271  17.944  65.480  1.00  0.00     0.913 C  
HETATM    3  C   UNL     1      -8.958  18.870  66.672  1.00  0.00    -0.323 C  
HETATM    4  O   UNL     1      -8.049  19.867  66.316  1.00  0.00    -0.320 OA 
HETATM    5  C   UNL     1     -10.338  19.198  67.069  1.00  0.00    -0.503 C  
HETATM    6  C   UNL     1     -10.990  18.001  67.200  1.00  0.00    -0.025 C  
HETATM    7  H   UNL     1      -7.856  20.438  67.051  1.00  0.00     0.000 HD 
HETATM    8  C   UNL     1     -10.350  16.528  67.595  1.00  0.00    -0.291 C  
HETATM    9  C   UNL     1     -11.188  16.949  68.865  1.00  0.00    -0.016 C  
HETATM   10  C   UNL     1     -11.832  15.771  69.546  1.00  0.00    -0.347 C  
HETATM   11  N   UNL     1     -11.052  15.566  70.745  1.00  0.00    -0.336 NA 
HETATM   12  C   UNL     1     -11.900  15.087  71.820  1.00  0.00    -0.388 C  
HETATM   13  C   UNL     1      -9.961  14.666  70.435  1.00  0.00     0.869 C  
HETATM   14  C   UNL     1      -8.869  15.249  69.539  1.00  0.00    -0.181 A  
HETATM   15  C   UNL     1      -9.040  16.006  68.345  1.00  0.00    -0.192 A  
HETATM   16  C   UNL     1      -7.891  15.984  67.552  1.00  0.00    -0.148 A  
HETATM   17  C   UNL     1      -6.572  15.593  67.923  1.00  0.00    -0.153 A  
HETATM   18  O   UNL     1      -8.162  16.173  66.237  1.00  0.00    -0.307 OA 
HETATM   19  C   UNL     1      -7.565  14.742  69.894  1.00  0.00     0.113 A  
HETATM   20  C   UNL     1      -6.418  14.949  69.138  1.00  0.00    -0.112 A  
ENDROOT
BRANCH  17  21
HETATM   21  O   UNL     1      -5.552  15.825  67.036  1.00  0.00    -0.314 OA 
HETATM   22  C   UNL     1      -5.134  17.180  66.843  1.00  0.00    -0.156 C  
ENDBRANCH  17  21
TORSDOF 1
ENDMDL
MODEL      131
REMARK 921   NORMALIZED FREE ENERGY PREDICTED BY IDOCK:   -1.14 KCAL/MOL
REMARK 922        TOTAL FREE ENERGY PREDICTED BY IDOCK:   -1.30 KCAL/MOL
REMARK 923 INTER-LIGAND FREE ENERGY PREDICTED BY IDOCK:   -1.35 KCAL/MOL
REMARK 924 INTRA-LIGAND FREE ENERGY PREDICTED BY IDOCK:    0.05 KCAL/MOL
REMARK 927      BINDING AFFINITY PREDICTED BY RF-SCORE:    0.00 PKD
ROOT
HETATM    1  C   UNL     1      -8.082  11.108  67.649  1.00  0.00    -0.117 C  
HETATM    2  C   UNL     1      -7.098  12.275  67.864  1.00  0.00    -0.105 C  
HETATM    3  C   UNL     1      -5.929  11.907  66.930  1.00  0.00    -0.115 C  
HETATM    4  O   UNL     1      -5.297  13.047  66.432  1.00  0.00     0.560 OA 
HETATM    5  C   UNL     1      -5.223  10.964  67.816  1.00  0.00    -0.039 C  
HETATM    6  C   UNL     1      -6.162  10.061  68.235  1.00  0.00    -0.049 C  
HETATM    7  H   UNL     1      -4.576  12.819  65.856  1.00  0.00     0.000 HD 
HETATM    8  C   UNL     1      -7.535   9.577  67.449  1.00  0.00    -0.091 C  
HETATM    9  C   UNL     1      -6.579   8.323  67.385  1.00  0.00    -0.058 C  
HETATM   10  C   UNL     1      -7.331   7.021  67.472  1.00  0.00    -0.092 C  
HETATM   11  N   UNL     1      -7.302   6.488  66.130  1.00  0.00    -0.078 NA 
HETATM   12  C   UNL     1      -7.241   5.039  66.166  1.00  0.00    -0.077 C  
HETATM   13  C   UNL     1      -8.454   6.991  65.411  1.00  0.00    -0.086 C  
HETATM   14  C   UNL     1      -8.412   8.481  65.075  1.00  0.00    -0.183 A  
HETATM   15  C   UNL     1      -8.048   9.555  65.937  1.00  0.00    -0.115 A  
HETATM   16  C   UNL     1      -8.548  10.776  65.480  1.00  0.00    -0.176 A  
HETATM   17  C   UNL     1      -9.060  11.089  64.187  1.00  0.00    -0.097 A  
HETATM   18  O   UNL     1      -8.729  11.673  66.480  1.00  0.00    -0.184 OA 
HETATM   19  C   UNL     1      -9.034   8.755  63.801  1.00  0.00     0.310 A  
HETATM   20  C   UNL     1      -9.309  10.032  63.329  1.00  0.00    -0.296 A  
ENDROOT
BRANCH  17  21
HETATM   21  O   UNL     1      -9.327  12.402  63.895  1.00  0.00     0.143 OA 
HETATM   22  C   UNL     1     -10.628  12.904  64.215  1.00  0.00    -0.408 C  
ENDBRANCH  17  21
TORSDOF 1
ENDMDL
MODEL      132
REMARK 921   NORMALIZED FREE ENERGY PREDICTED BY IDOCK:    0.57 KCAL/MOL
REMARK 922        TOTAL FREE ENERGY PREDICTED BY IDOCK:    0.50 KCAL/MOL
REMARK 923 INTER-LIGAND FREE ENERGY PREDICTED BY IDOCK:   -0.49 KCAL/MOL
REMARK 924 INTRA-LIGAND FREE ENERGY PREDICTED BY IDOCK:    1.00 KCAL/MOL
REMARK 927      BINDING AFFINITY PREDICTED BY RF-SCORE:    0.00 PKD
ROOT
HETATM    1  C   UNL     1      -7.304   8.957  66.756  1.00  0.00    -0.082 C  
HETATM    2  C   UNL     1      -7.260   9.652  65.381  1.00  0.00    -0.104 C  
HETATM    3  C   UNL     1      -7.347   8.466  64.401  1.00  0.00    -0.091 C  
HETATM    4  O   UNL     1      -7.999   8.827  63.221  1.00  0.00    -0.144 OA 
HETATM    5  C   UNL     1      -5.929   8.069  64.403  1.00  0.00    -0.053 C  
HETATM    6  C   UNL     1      -5.574   7.931  65.718  1.00  0.00    -0.036 C  
HETATM    7  H   UNL     1      -8.053   8.096  62.617  1.00  0.00     0.000 HD 
HETATM    8  C   UNL     1      -6.541   7.529  66.999  1.00  0.00    -0.062 C  
HETATM    9  C   UNL     1      -5.626   6.261  66.778  1.00  0.00    -0.013 C  
HETATM   10  C   UNL     1      -5.276   5.573  68.071  1.00  0.00    -0.004 C  
HETATM   11  N   UNL     1      -6.081   4.374  68.081  1.00  0.00    -0.030 NA 
HETATM   12  C   UNL     1      -5.369   3.296  68.740  1.00  0.00    -0.013 C  
HETATM   13  C   UNL     1      -7.352   4.680  68.704  1.00  0.00    -0.061 C  
HETATM   14  C   UNL     1      -8.278   5.580  67.886  1.00  0.00    -0.100 A  
HETATM   15  C   UNL     1      -7.936   6.777  67.196  1.00  0.00    -0.116 A  
HETATM   16  C   UNL     1      -9.058   7.572  66.954  1.00  0.00    -0.141 A  
HETATM   17  C   UNL     1     -10.432   7.199  67.024  1.00  0.00    -0.322 A  
HETATM   18  O   UNL     1      -8.752   8.888  66.840  1.00  0.00    -0.117 OA 
HETATM   19  C   UNL     1      -9.665   5.223  68.072  1.00  0.00    -0.179 A  
HETATM   20  C   UNL     1     -10.732   5.981  67.608  1.00  0.00    -0.377 A  
ENDROOT
BRANCH  17  21
HETATM   21  O   UNL     1     -11.370   8.089  66.565  1.00  0.00     1.128 OA 
HETATM   22  C   UNL     1     -11.123   9.482  66.773  1.00  0.00     0.425 C  
ENDBRANCH  17  21
TORSDOF 1
ENDMDL
MODEL      133
REMARK 921   NORMALIZED FREE ENERGY PREDICTED BY IDOCK:    1.03 KCAL/MOL
REMARK 922        TOTAL FREE ENERGY PREDICTED BY IDOCK:    1.00 KCAL/MOL
REMARK 923 INTER-LIGAND FREE ENERGY PREDICTED BY IDOCK:    1.09 KCAL/MOL
REMARK 924 INTRA-LIGAND FREE ENERGY PREDICTED BY IDOCK:   -0.09 KCAL/MOL
REMARK 927      BINDING AFFINITY PREDICTED BY RF-SCORE:    0.00 PKD
ROOT
HETATM    1  C   UNL     1      -7.610  13.214  66.182  1.00  0.00     2.325 C  
HETATM    2  C   UNL     1      -7.685  11.703  65.889  1.00  0.00     0.472 C  
HETATM    3  C   UNL     1      -7.773  11.091  67.301  1.00  0.00    -0.118 C  
HETATM    4  O   UNL     1      -8.513   9.908  67.298  1.00  0.00    -0.121 OA 
HETATM    5  C   UNL     1      -6.340  11.097  67.639  1.00  0.00    -0.054 C  
HETATM    6  C   UNL     1      -5.898  12.371  67.399  1.00  0.00    -0.149 C  
HETATM    7  H   UNL     1      -8.568   9.531  68.168  1.00  0.00     0.000 HD 
HETATM    8  C   UNL     1      -6.763  13.780  67.464  1.00  0.00    -0.131 C  
HETATM    9  C   UNL     1      -5.803  13.845  68.715  1.00  0.00    -0.084 C  
HETATM   10  C   UNL     1      -5.339  15.247  69.012  1.00  0.00    -0.098 C  
HETATM   11  N   UNL     1      -6.082  15.641  70.186  1.00  0.00    -0.146 NA 
HETATM   12  C   UNL     1      -5.278  16.514  71.020  1.00  0.00    -0.114 C  
HETATM   13  C   UNL     1      -7.326  16.248  69.761  1.00  0.00     0.221 C  
HETATM   14  C   UNL     1      -8.344  15.287  69.148  1.00  0.00    -0.233 A  
HETATM   15  C   UNL     1      -8.104  14.274  68.176  1.00  0.00    -0.144 A  
HETATM   16  C   UNL     1      -9.278  13.908  67.513  1.00  0.00    -0.205 A  
HETATM   17  C   UNL     1     -10.625  14.177  67.894  1.00  0.00    -0.243 A  
HETATM   18  O   UNL     1      -9.044  13.419  66.270  1.00  0.00    -0.122 OA 
HETATM   19  C   UNL     1      -9.697  15.663  69.483  1.00  0.00    -0.287 A  
HETATM   20  C   UNL     1     -10.827  15.089  68.915  1.00  0.00    -0.243 A  
ENDROOT
BRANCH  17  21
HETATM   21  O   UNL     1     -11.631  13.563  67.195  1.00  0.00    -0.320 OA 
HETATM   22  C   UNL     1     -12.879  14.254  67.079  1.00  0.00     0.882 C  
ENDBRANCH  17  21
TORSDOF 1
ENDMDL
MODEL      134
REMARK 921   NORMALIZED FREE ENERGY PREDICTED BY IDOCK:    2.42 KCAL/MOL
REMARK 922        TOTAL FREE ENERGY PREDICTED BY IDOCK:    2.46 KCAL/MOL
REMARK 923 INTER-LIGAND FREE ENERGY PREDICTED BY IDOCK:    1.81 KCAL/MOL
REMARK 924 INTRA-LIGAND FREE ENERGY PREDICTED BY IDOCK:    0.65 KCAL/MOL
REMARK 927      BINDING AFFINITY PREDICTED BY RF-SCORE:    0.00 PKD
ROOT
HETATM    1  C   UNL     1      -8.140  14.315  67.921  1.00  0.00    -0.151 C  
HETATM    2  C   UNL     1      -8.131  15.856  67.935  1.00  0.00    -0.149 C  
HETATM    3  C   UNL     1      -9.378  16.208  67.100  1.00  0.00    -0.215 C  
HETATM    4  O   UNL     1      -9.955  17.405  67.527  1.00  0.00    -0.280 OA 
HETATM    5  C   UNL     1      -8.792  16.077  65.755  1.00  0.00     0.008 C  
HETATM    6  C   UNL     1      -8.189  14.848  65.722  1.00  0.00     2.227 C  
HETATM    7  H   UNL     1     -10.724  17.622  67.012  1.00  0.00     0.000 HD 
HETATM    8  C   UNL     1      -8.589  13.491  66.579  1.00  0.00     0.184 C  
HETATM    9  C   UNL     1      -9.004  13.158  65.093  1.00  0.00     1.406 C  
HETATM   10  C   UNL     1      -8.798  11.706  64.749  1.00  0.00     0.453 C  
HETATM   11  N   UNL     1     -10.127  11.142  64.720  1.00  0.00    -0.273 NA 
HETATM   12  C   UNL     1     -10.208  10.098  63.717  1.00  0.00     0.526 C  
HETATM   13  C   UNL     1     -10.458  10.678  66.052  1.00  0.00    -0.183 C  
HETATM   14  C   UNL     1     -10.691  11.779  67.086  1.00  0.00    -0.283 A  
HETATM   15  C   UNL     1      -9.895  12.937  67.313  1.00  0.00    -0.218 A  
HETATM   16  C   UNL     1     -10.110  13.469  68.586  1.00  0.00    -0.166 A  
HETATM   17  C   UNL     1     -11.183  13.198  69.484  1.00  0.00    -0.084 A  
HETATM   18  O   UNL     1      -9.041  14.162  69.050  1.00  0.00    -0.052 OA 
HETATM   19  C   UNL     1     -11.718  11.410  68.031  1.00  0.00    -0.324 A  
HETATM   20  C   UNL     1     -12.007  12.127  69.185  1.00  0.00    -0.311 A  
ENDROOT
BRANCH  17  21
HETATM   21  O   UNL     1     -11.299  13.972  70.610  1.00  0.00    -0.045 OA 
HETATM   22  C   UNL     1     -10.822  15.319  70.543  1.00  0.00    -0.257 C  
ENDBRANCH  17  21
TORSDOF 1
ENDMDL
MODEL      135
REMARK 921   NORMALIZED FREE ENERGY PREDICTED BY IDOCK:    2.50 KCAL/MOL
REMARK 922        TOTAL FREE ENERGY PREDICTED BY IDOCK:    2.55 KCAL/MOL
REMARK 923 INTER-LIGAND FREE ENERGY PREDICTED BY IDOCK:    2.63 KCAL/MOL
REMARK 924 INTRA-LIGAND FREE ENERGY PREDICTED BY IDOCK:   -0.08 KCAL/MOL
REMARK 927      BINDING AFFINITY PREDICTED BY RF-SCORE:    0.00 PKD
ROOT
HETATM    1  C   UNL     1      -8.297  10.488  63.541  1.00  0.00    -0.113 C  
HETATM    2  C   UNL     1      -8.523   9.398  62.475  1.00  0.00    -0.200 C  
HETATM    3  C   UNL     1      -9.407   8.378  63.220  1.00  0.00     1.789 C  
HETATM    4  O   UNL     1     -10.273   7.720  62.346  1.00  0.00     3.180 OA 
HETATM    5  C   UNL     1      -8.348   7.650  63.942  1.00  0.00     0.129 C  
HETATM    6  C   UNL     1      -7.600   8.602  64.581  1.00  0.00    -0.111 C  
HETATM    7  H   UNL     1     -10.817   7.091  62.805  1.00  0.00     0.000 HD 
HETATM    8  C   UNL     1      -8.084  10.092  65.115  1.00  0.00    -0.144 C  
HETATM    9  C   UNL     1      -7.860   9.251  66.432  1.00  0.00    -0.103 C  
HETATM   10  C   UNL     1      -7.327  10.088  67.565  1.00  0.00    -0.090 C  
HETATM   11  N   UNL     1      -8.449  10.258  68.458  1.00  0.00    -0.116 NA 
HETATM   12  C   UNL     1      -7.994  10.307  69.835  1.00  0.00    -0.076 C  
HETATM   13  C   UNL     1      -9.180  11.442  68.058  1.00  0.00    -0.171 C  
HETATM   14  C   UNL     1      -9.943  11.322  66.739  1.00  0.00    -0.238 A  
HETATM   15  C   UNL     1      -9.471  10.777  65.511  1.00  0.00    -0.253 A  
HETATM   16  C   UNL     1     -10.222  11.229  64.424  1.00  0.00    -0.320 A  
HETATM   17  C   UNL     1     -11.499  11.862  64.439  1.00  0.00    -0.320 A  
HETATM   18  O   UNL     1      -9.519  11.221  63.265  1.00  0.00    -0.288 OA 
HETATM   19  C   UNL     1     -11.181  12.064  66.773  1.00  0.00    -0.376 A  
HETATM   20  C   UNL     1     -11.982  12.291  65.662  1.00  0.00    -0.373 A  
ENDROOT
BRANCH  17  21
HETATM   21  O   UNL     1     -12.141  12.056  63.242  1.00  0.00    -0.476 OA 
HETATM   22  C   UNL     1     -13.410  12.716  63.267  1.00  0.00     1.305 C  
ENDBRANCH  17  21
TORSDOF 1
ENDMDL
MODEL      136
REMARK 921   NORMALIZED FREE ENERGY PREDICTED BY IDOCK:    3.12 KCAL/MOL
REMARK 922        TOTAL FREE ENERGY PREDICTED BY IDOCK:    3.21 KCAL/MOL
REMARK 923 INTER-LIGAND FREE ENERGY PREDICTED BY IDOCK:    2.90 KCAL/MOL
REMARK 924 INTRA-LIGAND FREE ENERGY PREDICTED BY IDOCK:    0.31 KCAL/MOL
REMARK 927      BINDING AFFINITY PREDICTED BY RF-SCORE:    0.00 PKD
ROOT
HETATM    1  C   UNL     1     -10.269  11.938  64.682  1.00  0.00    -0.278 C  
HETATM    2  C   UNL     1     -10.013  13.379  65.165  1.00  0.00    -0.190 C  
HETATM    3  C   UNL     1      -9.323  13.162  66.525  1.00  0.00    -0.216 C  
HETATM    4  O   UNL     1      -8.419  14.188  66.807  1.00  0.00    -0.402 OA 
HETATM    5  C   UNL     1     -10.522  12.948  67.353  1.00  0.00    -0.235 C  
HETATM    6  C   UNL     1     -11.254  11.980  66.720  1.00  0.00    -0.376 C  
HETATM    7  H   UNL     1      -7.994  14.054  67.646  1.00  0.00     0.000 HD 
HETATM    8  C   UNL     1     -10.706  10.765  65.739  1.00  0.00    -0.141 C  
HETATM    9  C   UNL     1     -11.164  10.032  67.060  1.00  0.00     0.194 C  
HETATM   10  C   UNL     1     -11.753   8.673  66.789  1.00  0.00     4.018 C  
HETATM   11  N   UNL     1     -10.738   7.739  67.214  1.00  0.00    -0.299 NA 
HETATM   12  C   UNL     1     -11.352   6.541  67.754  1.00  0.00     0.009 C  
HETATM   13  C   UNL     1      -9.860   7.472  66.093  1.00  0.00     0.137 C  
HETATM   14  C   UNL     1      -8.956   8.635  65.683  1.00  0.00    -0.231 A  
HETATM   15  C   UNL     1      -9.322  10.001  65.518  1.00  0.00    -0.271 A  
HETATM   16  C   UNL     1      -8.406  10.686  64.716  1.00  0.00    -0.071 A  
HETATM   17  C   UNL     1      -7.089  10.287  64.346  1.00  0.00    -0.064 A  
HETATM   18  O   UNL     1      -8.960  11.748  64.082  1.00  0.00     0.271 OA 
HETATM   19  C   UNL     1      -7.670   8.169  65.222  1.00  0.00    -0.101 A  
HETATM   20  C   UNL     1      -6.722   8.980  64.613  1.00  0.00    -0.077 A  
ENDROOT
BRANCH  17  21
HETATM   21  O   UNL     1      -6.292  11.199  63.703  1.00  0.00     0.528 OA 
HETATM   22  C   UNL     1      -6.616  11.528  62.349  1.00  0.00     0.693 C  
ENDBRANCH  17  21
TORSDOF 1
ENDMDL
MODEL      137
REMARK 921   NORMALIZED FREE ENERGY PREDICTED BY IDOCK:    9.11 KCAL/MOL
REMARK 922        TOTAL FREE ENERGY PREDICTED BY IDOCK:    9.55 KCAL/MOL
REMARK 923 INTER-LIGAND FREE ENERGY PREDICTED BY IDOCK:    9.63 KCAL/MOL
REMARK 924 INTRA-LIGAND FREE ENERGY PREDICTED BY IDOCK:   -0.08 KCAL/MOL
REMARK 927      BINDING AFFINITY PREDICTED BY RF-SCORE:    0.00 PKD
ROOT
HETATM    1  C   UNL     1      -8.463  14.194  68.235  1.00  0.00    -0.169 C  
HETATM    2  C   UNL     1      -8.721  13.745  66.783  1.00  0.00    -0.108 C  
HETATM    3  C   UNL     1     -10.237  13.971  66.625  1.00  0.00    -0.275 C  
HETATM    4  O   UNL     1     -10.567  14.302  65.310  1.00  0.00    -0.333 OA 
HETATM    5  C   UNL     1     -10.716  12.724  67.244  1.00  0.00    -0.256 C  
HETATM    6  C   UNL     1     -10.093  12.640  68.460  1.00  0.00    -0.183 C  
HETATM    7  H   UNL     1     -11.502  14.442  65.212  1.00  0.00     0.000 HD 
HETATM    8  C   UNL     1      -9.551  13.876  69.417  1.00  0.00     0.556 C  
HETATM    9  C   UNL     1     -10.800  13.296  70.188  1.00  0.00     0.909 C  
HETATM   10  C   UNL     1     -10.631  13.355  71.683  1.00  0.00     6.405 C  
HETATM   11  N   UNL     1     -11.492  14.432  72.111  1.00  0.00     0.525 NA 
HETATM   12  C   UNL     1     -12.049  14.141  73.418  1.00  0.00     0.596 C  
HETATM   13  C   UNL     1     -10.736  15.666  72.077  1.00  0.00     0.855 C  
HETATM   14  C   UNL     1     -10.391  16.180  70.679  1.00  0.00     0.528 A  
HETATM   15  C   UNL     1      -9.877  15.431  69.583  1.00  0.00    -0.263 A  
HETATM   16  C   UNL     1      -9.255  16.254  68.642  1.00  0.00    -0.227 A  
HETATM   17  C   UNL     1      -9.355  17.670  68.508  1.00  0.00    -0.291 A  
HETATM   18  O   UNL     1      -8.304  15.604  67.927  1.00  0.00    -0.143 OA 
HETATM   19  C   UNL     1     -10.408  17.623  70.625  1.00  0.00     1.890 A  
HETATM   20  C   UNL     1      -9.953  18.365  69.544  1.00  0.00     0.212 A  
ENDROOT
BRANCH  17  21
HETATM   21  O   UNL     1      -8.806  18.256  67.397  1.00  0.00    -0.250 OA 
HETATM   22  C   UNL     1      -9.605  19.205  66.683  1.00  0.00    -0.346 C  
ENDBRANCH  17  21
TORSDOF 1
ENDMDL
MODEL      138
REMARK 921   NORMALIZED FREE ENERGY PREDICTED BY IDOCK:   32.41 KCAL/MOL
REMARK 922        TOTAL FREE ENERGY PREDICTED BY IDOCK:   34.21 KCAL/MOL
REMARK 923 INTER-LIGAND FREE ENERGY PREDICTED BY IDOCK:   33.15 KCAL/MOL
REMARK 924 INTRA-LIGAND FREE ENERGY PREDICTED BY IDOCK:    1.07 KCAL/MOL
REMARK 927      BINDING AFFINITY PREDICTED BY RF-SCORE:    0.00 PKD
ROOT
HETATM    1  C   UNL     1      -7.790  11.840  66.811  1.00  0.00    -0.103 C  
HETATM    2  C   UNL     1      -7.156  10.845  65.819  1.00  0.00     0.014 C  
HETATM    3  C   UNL     1      -6.825   9.638  66.719  1.00  0.00    -0.084 C  
HETATM    4  O   UNL     1      -6.906   8.438  66.011  1.00  0.00    -0.063 OA 
HETATM    5  C   UNL     1      -5.546  10.116  67.273  1.00  0.00    -0.042 C  
HETATM    6  C   UNL     1      -5.789  11.371  67.762  1.00  0.00    -0.046 C  
HETATM    7  H   UNL     1      -6.702   7.694  66.565  1.00  0.00     0.000 HD 
HETATM    8  C   UNL     1      -7.214  11.984  68.338  1.00  0.00    -0.092 C  
HETATM    9  C   UNL     1      -6.303  11.828  69.618  1.00  0.00    -0.129 C  
HETATM   10  C   UNL     1      -6.545  12.915  70.631  1.00  0.00     1.066 C  
HETATM   11  N   UNL     1      -7.286  12.274  71.692  1.00  0.00     6.756 NA 
HETATM   12  C   UNL     1      -6.932  12.852  72.974  1.00  0.00     7.386 C  
HETATM   13  C   UNL     1      -8.699  12.376  71.392  1.00  0.00    14.868 C  
HETATM   14  C   UNL     1      -9.179  11.524  70.218  1.00  0.00     3.268 A  
HETATM   15  C   UNL     1      -8.565  11.382  68.941  1.00  0.00    -0.020 A  
HETATM   16  C   UNL     1      -9.470  10.923  67.982  1.00  0.00    -0.163 A  
HETATM   17  C   UNL     1     -10.745  10.321  68.191  1.00  0.00    -0.246 A  
HETATM   18  O   UNL     1      -9.135  11.301  66.724  1.00  0.00    -0.165 OA 
HETATM   19  C   UNL     1     -10.515  11.022  70.438  1.00  0.00     0.912 A  
HETATM   20  C   UNL     1     -11.275  10.381  69.468  1.00  0.00    -0.325 A  
ENDROOT
BRANCH  17  21
HETATM   21  O   UNL     1     -11.389   9.773  67.112  1.00  0.00     0.063 OA 
HETATM   22  C   UNL     1     -10.661   9.669  65.885  1.00  0.00     0.291 C  
ENDBRANCH  17  21
TORSDOF 1
ENDMDL
