MODEL        1
REMARK 921   NORMALIZED FREE ENERGY PREDICTED BY IDOCK:   -5.31 KCAL/MOL
REMARK 922        TOTAL FREE ENERGY PREDICTED BY IDOCK:   -7.41 KCAL/MOL
REMARK 923 INTER-LIGAND FREE ENERGY PREDICTED BY IDOCK:   -6.55 KCAL/MOL
REMARK 924 INTRA-LIGAND FREE ENERGY PREDICTED BY IDOCK:   -0.87 KCAL/MOL
REMARK 927      BINDING AFFINITY PREDICTED BY RF-SCORE:    0.00 PKD
ROOT
HETATM    1  C   UNL     1     -11.349  12.232  64.540  1.00  0.00    -0.329 C  
HETATM    2  O   UNL     1     -10.225  12.429  65.005  1.00  0.00    -0.282 OA 
HETATM    3  C   UNL     1     -12.385  13.317  64.321  1.00  0.00    -0.340 C  
HETATM    4  O   UNL     1     -12.321  13.755  62.959  1.00  0.00    -1.089 OA 
HETATM    5  H   UNL     1     -12.971  14.434  62.822  1.00  0.00     0.000 HD 
ENDROOT
BRANCH   3   6
HETATM    6  C   UNL     1     -12.177  14.512  65.260  1.00  0.00    -0.321 C  
HETATM    7  O   UNL     1     -11.866  13.993  66.570  1.00  0.00    -0.376 OA 
HETATM    8  H   UNL     1     -11.737  14.733  67.152  1.00  0.00     0.000 HD 
BRANCH   6   9
HETATM    9  C   UNL     1     -11.087  15.529  64.814  1.00  0.00    -0.407 C  
HETATM   10  O   UNL     1     -11.614  16.381  63.783  1.00  0.00    -1.605 OA 
HETATM   11  H   UNL     1     -10.949  17.002  63.510  1.00  0.00     0.000 HD 
BRANCH   9  12
HETATM   12  C   UNL     1     -10.469  16.413  65.917  1.00  0.00    -0.337 C  
HETATM   13  H   UNL     1     -10.037  18.326  66.150  1.00  0.00     0.000 HD 
HETATM   14  O   UNL     1     -10.418  17.781  65.472  1.00  0.00    -0.646 OA 
BRANCH  12  15
HETATM   15  C   UNL     1      -9.088  15.942  66.407  1.00  0.00    -0.320 C  
HETATM   16  O   UNL     1      -8.913  14.534  66.203  1.00  0.00    -0.492 OA 
HETATM   17  H   UNL     1      -8.060  14.243  66.506  1.00  0.00     0.000 HD 
ENDBRANCH  12  15
ENDBRANCH   9  12
ENDBRANCH   6   9
ENDBRANCH   3   6
TORSDOF 4
ENDMDL
MODEL        2
REMARK 921   NORMALIZED FREE ENERGY PREDICTED BY IDOCK:   -4.93 KCAL/MOL
REMARK 922        TOTAL FREE ENERGY PREDICTED BY IDOCK:   -6.96 KCAL/MOL
REMARK 923 INTER-LIGAND FREE ENERGY PREDICTED BY IDOCK:   -6.34 KCAL/MOL
REMARK 924 INTRA-LIGAND FREE ENERGY PREDICTED BY IDOCK:   -0.61 KCAL/MOL
REMARK 927      BINDING AFFINITY PREDICTED BY RF-SCORE:    0.00 PKD
ROOT
HETATM    1  C   UNL     1     -12.341  12.104  63.605  1.00  0.00    -0.568 C  
HETATM    2  O   UNL     1     -13.448  12.064  64.145  1.00  0.00    -0.672 OA 
HETATM    3  C   UNL     1     -11.208  13.008  64.049  1.00  0.00    -0.405 C  
HETATM    4  O   UNL     1     -10.333  12.271  64.910  1.00  0.00    -0.276 OA 
HETATM    5  H   UNL     1      -9.623  12.838  65.187  1.00  0.00     0.000 HD 
ENDROOT
BRANCH   3   6
HETATM    6  C   UNL     1     -11.718  14.260  64.776  1.00  0.00    -0.415 C  
HETATM    7  O   UNL     1     -11.843  13.934  66.176  1.00  0.00    -0.362 OA 
HETATM    8  H   UNL     1     -12.159  14.709  66.626  1.00  0.00     0.000 HD 
BRANCH   6   9
HETATM    9  C   UNL     1     -10.846  15.536  64.597  1.00  0.00    -0.254 C  
HETATM   10  O   UNL     1     -11.542  16.485  63.772  1.00  0.00    -1.617 OA 
HETATM   11  H   UNL     1     -11.010  17.265  63.663  1.00  0.00     0.000 HD 
BRANCH   9  12
HETATM   12  C   UNL     1     -10.385  16.248  65.886  1.00  0.00    -0.365 C  
HETATM   13  H   UNL     1     -10.104  18.111  66.475  1.00  0.00     0.000 HD 
HETATM   14  O   UNL     1     -10.388  17.673  65.682  1.00  0.00    -0.606 OA 
BRANCH  12  15
HETATM   15  C   UNL     1      -9.023  15.771  66.420  1.00  0.00    -0.331 C  
HETATM   16  O   UNL     1      -8.806  14.382  66.138  1.00  0.00    -0.470 OA 
HETATM   17  H   UNL     1      -7.965  14.088  66.468  1.00  0.00     0.000 HD 
ENDBRANCH  12  15
ENDBRANCH   9  12
ENDBRANCH   6   9
ENDBRANCH   3   6
TORSDOF 4
ENDMDL
MODEL        3
REMARK 921   NORMALIZED FREE ENERGY PREDICTED BY IDOCK:   -4.91 KCAL/MOL
REMARK 922        TOTAL FREE ENERGY PREDICTED BY IDOCK:   -6.92 KCAL/MOL
REMARK 923 INTER-LIGAND FREE ENERGY PREDICTED BY IDOCK:   -6.61 KCAL/MOL
REMARK 924 INTRA-LIGAND FREE ENERGY PREDICTED BY IDOCK:   -0.32 KCAL/MOL
REMARK 927      BINDING AFFINITY PREDICTED BY RF-SCORE:    0.00 PKD
ROOT
HETATM    1  C   UNL     1     -10.408  15.868  65.825  1.00  0.00    -0.376 C  
HETATM    2  O   UNL     1     -11.026  15.726  66.882  1.00  0.00    -0.300 OA 
HETATM    3  C   UNL     1     -10.945  15.472  64.463  1.00  0.00    -0.206 C  
HETATM    4  O   UNL     1     -11.516  16.624  63.834  1.00  0.00    -1.604 OA 
HETATM    5  H   UNL     1     -11.852  16.376  62.981  1.00  0.00     0.000 HD 
ENDROOT
BRANCH   3   6
HETATM    6  C   UNL     1     -11.996  14.358  64.558  1.00  0.00    -0.472 C  
HETATM    7  O   UNL     1     -12.656  14.266  63.279  1.00  0.00    -1.069 OA 
HETATM    8  H   UNL     1     -13.306  13.576  63.338  1.00  0.00     0.000 HD 
BRANCH   6   9
HETATM    9  C   UNL     1     -11.452  12.964  64.983  1.00  0.00    -0.315 C  
HETATM   10  O   UNL     1     -12.362  12.352  65.913  1.00  0.00    -0.638 OA 
HETATM   11  H   UNL     1     -12.029  11.500  66.172  1.00  0.00     0.000 HD 
BRANCH   9  12
HETATM   12  C   UNL     1     -11.154  11.959  63.850  1.00  0.00    -0.412 C  
HETATM   13  H   UNL     1     -12.207  10.886  62.570  1.00  0.00     0.000 HD 
HETATM   14  O   UNL     1     -12.390  11.504  63.267  1.00  0.00    -0.346 OA 
BRANCH  12  15
HETATM   15  C   UNL     1     -10.274  10.770  64.272  1.00  0.00    -0.354 C  
HETATM   16  O   UNL     1      -9.899   9.970  63.142  1.00  0.00    -0.516 OA 
HETATM   17  H   UNL     1      -9.355   9.236  63.403  1.00  0.00     0.000 HD 
ENDBRANCH  12  15
ENDBRANCH   9  12
ENDBRANCH   6   9
ENDBRANCH   3   6
TORSDOF 4
ENDMDL
MODEL        4
REMARK 921   NORMALIZED FREE ENERGY PREDICTED BY IDOCK:   -4.83 KCAL/MOL
REMARK 922        TOTAL FREE ENERGY PREDICTED BY IDOCK:   -6.83 KCAL/MOL
REMARK 923 INTER-LIGAND FREE ENERGY PREDICTED BY IDOCK:   -6.26 KCAL/MOL
REMARK 924 INTRA-LIGAND FREE ENERGY PREDICTED BY IDOCK:   -0.57 KCAL/MOL
REMARK 927      BINDING AFFINITY PREDICTED BY RF-SCORE:    0.00 PKD
ROOT
HETATM    1  C   UNL     1     -10.458  15.721  65.899  1.00  0.00    -0.352 C  
HETATM    2  O   UNL     1     -11.155  15.466  66.883  1.00  0.00    -0.316 OA 
HETATM    3  C   UNL     1     -10.799  15.306  64.481  1.00  0.00    -0.119 C  
HETATM    4  O   UNL     1     -11.450  16.395  63.819  1.00  0.00    -1.590 OA 
HETATM    5  H   UNL     1     -11.664  16.135  62.931  1.00  0.00     0.000 HD 
ENDROOT
BRANCH   3   6
HETATM    6  C   UNL     1     -11.700  14.064  64.444  1.00  0.00    -0.397 C  
HETATM    7  O   UNL     1     -12.600  14.206  63.326  1.00  0.00    -1.080 OA 
HETATM    8  H   UNL     1     -13.157  13.437  63.303  1.00  0.00     0.000 HD 
BRANCH   6   9
HETATM    9  C   UNL     1     -10.952  12.702  64.361  1.00  0.00    -0.351 C  
HETATM   10  O   UNL     1      -9.606  12.915  63.904  1.00  0.00    -0.607 OA 
HETATM   11  H   UNL     1      -9.150  12.083  63.853  1.00  0.00     0.000 HD 
BRANCH   9  12
HETATM   12  C   UNL     1     -10.906  11.856  65.651  1.00  0.00    -0.286 C  
HETATM   13  H   UNL     1     -11.996  11.672  67.288  1.00  0.00     0.000 HD 
HETATM   14  O   UNL     1     -12.024  12.192  66.494  1.00  0.00    -0.618 OA 
BRANCH  12  15
HETATM   15  C   UNL     1      -9.582  11.956  66.428  1.00  0.00    -0.225 C  
HETATM   16  O   UNL     1      -8.526  11.255  65.755  1.00  0.00    -0.315 OA 
HETATM   17  H   UNL     1      -7.708  11.317  66.235  1.00  0.00     0.000 HD 
ENDBRANCH  12  15
ENDBRANCH   9  12
ENDBRANCH   6   9
ENDBRANCH   3   6
TORSDOF 4
ENDMDL
MODEL        5
REMARK 921   NORMALIZED FREE ENERGY PREDICTED BY IDOCK:   -4.80 KCAL/MOL
REMARK 922        TOTAL FREE ENERGY PREDICTED BY IDOCK:   -6.79 KCAL/MOL
REMARK 923 INTER-LIGAND FREE ENERGY PREDICTED BY IDOCK:   -6.73 KCAL/MOL
REMARK 924 INTRA-LIGAND FREE ENERGY PREDICTED BY IDOCK:   -0.06 KCAL/MOL
REMARK 927      BINDING AFFINITY PREDICTED BY RF-SCORE:    0.00 PKD
ROOT
HETATM    1  C   UNL     1     -10.267  11.214  63.429  1.00  0.00    -0.380 C  
HETATM    2  O   UNL     1      -9.418  11.824  62.776  1.00  0.00    -0.347 OA 
HETATM    3  C   UNL     1     -11.621  11.780  63.809  1.00  0.00    -0.413 C  
HETATM    4  O   UNL     1     -12.595  11.339  62.858  1.00  0.00    -0.917 OA 
HETATM    5  H   UNL     1     -13.444  11.694  63.097  1.00  0.00     0.000 HD 
ENDROOT
BRANCH   3   6
HETATM    6  C   UNL     1     -11.609  13.314  63.867  1.00  0.00    -0.400 C  
HETATM    7  O   UNL     1     -12.449  13.801  62.800  1.00  0.00    -0.879 OA 
HETATM    8  H   UNL     1     -12.442  14.750  62.837  1.00  0.00     0.000 HD 
BRANCH   6   9
HETATM    9  C   UNL     1     -12.052  13.932  65.225  1.00  0.00    -0.410 C  
HETATM   10  O   UNL     1     -12.377  12.882  66.151  1.00  0.00    -0.495 OA 
HETATM   11  H   UNL     1     -12.648  13.260  66.980  1.00  0.00     0.000 HD 
BRANCH   9  12
HETATM   12  C   UNL     1     -11.060  14.900  65.904  1.00  0.00    -0.338 C  
HETATM   13  H   UNL     1     -10.841  15.712  67.690  1.00  0.00     0.000 HD 
HETATM   14  O   UNL     1     -11.452  15.116  67.272  1.00  0.00    -0.345 OA 
BRANCH  12  15
HETATM   15  C   UNL     1     -10.874  16.237  65.166  1.00  0.00    -0.318 C  
HETATM   16  O   UNL     1     -11.599  16.258  63.929  1.00  0.00    -1.489 OA 
HETATM   17  H   UNL     1     -11.484  17.085  63.474  1.00  0.00     0.000 HD 
ENDBRANCH  12  15
ENDBRANCH   9  12
ENDBRANCH   6   9
ENDBRANCH   3   6
TORSDOF 4
ENDMDL
MODEL        6
REMARK 921   NORMALIZED FREE ENERGY PREDICTED BY IDOCK:   -4.75 KCAL/MOL
REMARK 922        TOTAL FREE ENERGY PREDICTED BY IDOCK:   -6.73 KCAL/MOL
REMARK 923 INTER-LIGAND FREE ENERGY PREDICTED BY IDOCK:   -5.89 KCAL/MOL
REMARK 924 INTRA-LIGAND FREE ENERGY PREDICTED BY IDOCK:   -0.84 KCAL/MOL
REMARK 927      BINDING AFFINITY PREDICTED BY RF-SCORE:    0.00 PKD
ROOT
HETATM    1  C   UNL     1     -12.189  11.888  63.549  1.00  0.00    -0.482 C  
HETATM    2  O   UNL     1     -11.106  11.372  63.267  1.00  0.00    -0.319 OA 
HETATM    3  C   UNL     1     -12.341  13.201  64.291  1.00  0.00    -0.351 C  
HETATM    4  O   UNL     1     -12.525  14.255  63.341  1.00  0.00    -1.125 OA 
HETATM    5  H   UNL     1     -12.621  15.078  63.806  1.00  0.00     0.000 HD 
ENDROOT
BRANCH   3   6
HETATM    6  C   UNL     1     -11.127  13.507  65.178  1.00  0.00    -0.316 C  
HETATM    7  O   UNL     1     -10.019  13.826  64.311  1.00  0.00    -0.742 OA 
HETATM    8  H   UNL     1      -9.267  14.016  64.861  1.00  0.00     0.000 HD 
BRANCH   6   9
HETATM    9  C   UNL     1     -11.335  14.640  66.224  1.00  0.00    -0.347 C  
HETATM   10  O   UNL     1     -11.164  14.112  67.550  1.00  0.00    -0.285 OA 
HETATM   11  H   UNL     1     -11.291  14.805  68.188  1.00  0.00     0.000 HD 
BRANCH   9  12
HETATM   12  C   UNL     1     -10.448  15.894  66.074  1.00  0.00    -0.345 C  
HETATM   13  H   UNL     1      -9.445  17.096  67.278  1.00  0.00     0.000 HD 
HETATM   14  O   UNL     1      -9.991  16.324  67.370  1.00  0.00    -0.241 OA 
BRANCH  12  15
HETATM   15  C   UNL     1     -11.113  17.054  65.312  1.00  0.00     0.097 C  
HETATM   16  O   UNL     1     -11.300  16.731  63.928  1.00  0.00    -1.436 OA 
HETATM   17  H   UNL     1     -11.711  17.448  63.457  1.00  0.00     0.000 HD 
ENDBRANCH  12  15
ENDBRANCH   9  12
ENDBRANCH   6   9
ENDBRANCH   3   6
TORSDOF 4
ENDMDL
MODEL        7
REMARK 921   NORMALIZED FREE ENERGY PREDICTED BY IDOCK:   -4.71 KCAL/MOL
REMARK 922        TOTAL FREE ENERGY PREDICTED BY IDOCK:   -6.68 KCAL/MOL
REMARK 923 INTER-LIGAND FREE ENERGY PREDICTED BY IDOCK:   -6.11 KCAL/MOL
REMARK 924 INTRA-LIGAND FREE ENERGY PREDICTED BY IDOCK:   -0.57 KCAL/MOL
REMARK 927      BINDING AFFINITY PREDICTED BY RF-SCORE:    0.00 PKD
ROOT
HETATM    1  C   UNL     1     -11.807  12.826  67.679  1.00  0.00    -0.339 C  
HETATM    2  O   UNL     1     -12.135  11.649  67.835  1.00  0.00    -0.613 OA 
HETATM    3  C   UNL     1     -11.597  13.812  68.811  1.00  0.00    -0.328 C  
HETATM    4  O   UNL     1     -10.202  13.869  69.127  1.00  0.00    -0.417 OA 
HETATM    5  H   UNL     1     -10.071  14.487  69.837  1.00  0.00     0.000 HD 
ENDROOT
BRANCH   3   6
HETATM    6  C   UNL     1     -12.398  13.431  70.064  1.00  0.00    -0.226 C  
HETATM    7  O   UNL     1     -11.753  12.291  70.668  1.00  0.00    -0.475 OA 
HETATM    8  H   UNL     1     -12.249  12.055  71.444  1.00  0.00     0.000 HD 
BRANCH   6   9
HETATM    9  C   UNL     1     -12.574  14.567  71.112  1.00  0.00    -0.335 C  
HETATM   10  O   UNL     1     -13.608  15.468  70.680  1.00  0.00    -0.826 OA 
HETATM   11  H   UNL     1     -13.716  16.162  71.321  1.00  0.00     0.000 HD 
BRANCH   9  12
HETATM   12  C   UNL     1     -12.874  14.132  72.563  1.00  0.00    -0.343 C  
HETATM   13  H   UNL     1     -14.388  13.320  73.535  1.00  0.00     0.000 HD 
HETATM   14  O   UNL     1     -14.204  13.587  72.643  1.00  0.00    -0.751 OA 
BRANCH  12  15
HETATM   15  C   UNL     1     -12.669  15.239  73.611  1.00  0.00    -0.566 C  
HETATM   16  O   UNL     1     -13.750  16.181  73.596  1.00  0.00    -0.884 OA 
HETATM   17  H   UNL     1     -13.623  16.865  74.244  1.00  0.00     0.000 HD 
ENDBRANCH  12  15
ENDBRANCH   9  12
ENDBRANCH   6   9
ENDBRANCH   3   6
TORSDOF 4
ENDMDL
MODEL        8
REMARK 921   NORMALIZED FREE ENERGY PREDICTED BY IDOCK:   -4.69 KCAL/MOL
REMARK 922        TOTAL FREE ENERGY PREDICTED BY IDOCK:   -6.66 KCAL/MOL
REMARK 923 INTER-LIGAND FREE ENERGY PREDICTED BY IDOCK:   -6.09 KCAL/MOL
REMARK 924 INTRA-LIGAND FREE ENERGY PREDICTED BY IDOCK:   -0.57 KCAL/MOL
REMARK 927      BINDING AFFINITY PREDICTED BY RF-SCORE:    0.00 PKD
ROOT
HETATM    1  C   UNL     1     -11.463  12.332  68.096  1.00  0.00    -0.316 C  
HETATM    2  O   UNL     1     -12.184  11.346  67.930  1.00  0.00    -0.592 OA 
HETATM    3  C   UNL     1     -11.554  13.604  67.275  1.00  0.00    -0.356 C  
HETATM    4  O   UNL     1     -12.358  14.556  67.979  1.00  0.00    -0.606 OA 
HETATM    5  H   UNL     1     -12.415  15.353  67.465  1.00  0.00     0.000 HD 
ENDROOT
BRANCH   3   6
HETATM    6  C   UNL     1     -12.147  13.351  65.883  1.00  0.00    -0.439 C  
HETATM    7  O   UNL     1     -13.294  14.213  65.731  1.00  0.00    -0.677 OA 
HETATM    8  H   UNL     1     -13.661  14.056  64.868  1.00  0.00     0.000 HD 
BRANCH   6   9
HETATM    9  C   UNL     1     -11.163  13.552  64.694  1.00  0.00    -0.363 C  
HETATM   10  O   UNL     1      -9.810  13.399  65.155  1.00  0.00    -0.528 OA 
HETATM   11  H   UNL     1      -9.209  13.522  64.428  1.00  0.00     0.000 HD 
BRANCH   9  12
HETATM   12  C   UNL     1     -11.370  12.646  63.462  1.00  0.00    -0.463 C  
HETATM   13  H   UNL     1     -12.884  11.715  62.602  1.00  0.00     0.000 HD 
HETATM   14  O   UNL     1     -12.757  12.273  63.360  1.00  0.00    -0.727 OA 
BRANCH  12  15
HETATM   15  C   UNL     1     -10.462  11.404  63.428  1.00  0.00    -0.390 C  
HETATM   16  O   UNL     1      -9.156  11.725  62.931  1.00  0.00    -0.635 OA 
HETATM   17  H   UNL     1      -8.595  10.958  62.910  1.00  0.00     0.000 HD 
ENDBRANCH  12  15
ENDBRANCH   9  12
ENDBRANCH   6   9
ENDBRANCH   3   6
TORSDOF 4
ENDMDL
MODEL        9
REMARK 921   NORMALIZED FREE ENERGY PREDICTED BY IDOCK:   -4.66 KCAL/MOL
REMARK 922        TOTAL FREE ENERGY PREDICTED BY IDOCK:   -6.61 KCAL/MOL
REMARK 923 INTER-LIGAND FREE ENERGY PREDICTED BY IDOCK:   -6.10 KCAL/MOL
REMARK 924 INTRA-LIGAND FREE ENERGY PREDICTED BY IDOCK:   -0.52 KCAL/MOL
REMARK 927      BINDING AFFINITY PREDICTED BY RF-SCORE:    0.00 PKD
ROOT
HETATM    1  C   UNL     1     -11.831  12.571  66.654  1.00  0.00    -0.352 C  
HETATM    2  O   UNL     1     -11.374  11.602  66.047  1.00  0.00    -0.294 OA 
HETATM    3  C   UNL     1     -12.091  13.927  66.027  1.00  0.00    -0.437 C  
HETATM    4  O   UNL     1     -13.468  14.008  65.645  1.00  0.00    -0.713 OA 
HETATM    5  H   UNL     1     -13.630  14.857  65.252  1.00  0.00     0.000 HD 
ENDROOT
BRANCH   3   6
HETATM    6  C   UNL     1     -11.197  14.178  64.805  1.00  0.00    -0.378 C  
HETATM    7  O   UNL     1     -11.795  13.505  63.678  1.00  0.00    -0.648 OA 
HETATM    8  H   UNL     1     -11.241  13.661  62.921  1.00  0.00     0.000 HD 
BRANCH   6   9
HETATM    9  C   UNL     1     -10.941  15.674  64.463  1.00  0.00    -0.200 C  
HETATM   10  O   UNL     1     -12.087  16.219  63.787  1.00  0.00    -1.337 OA 
HETATM   11  H   UNL     1     -11.930  17.133  63.579  1.00  0.00     0.000 HD 
BRANCH   9  12
HETATM   12  C   UNL     1     -10.575  16.602  65.641  1.00  0.00    -0.270 C  
HETATM   13  H   UNL     1     -10.381  18.546  65.930  1.00  0.00     0.000 HD 
HETATM   14  O   UNL     1     -10.606  17.974  65.206  1.00  0.00    -0.615 OA 
BRANCH  12  15
HETATM   15  C   UNL     1      -9.234  16.269  66.318  1.00  0.00    -0.328 C  
HETATM   16  O   UNL     1      -8.195  17.156  65.884  1.00  0.00    -0.526 OA 
HETATM   17  H   UNL     1      -7.366  16.950  66.302  1.00  0.00     0.000 HD 
ENDBRANCH  12  15
ENDBRANCH   9  12
ENDBRANCH   6   9
ENDBRANCH   3   6
TORSDOF 4
ENDMDL
MODEL       10
REMARK 921   NORMALIZED FREE ENERGY PREDICTED BY IDOCK:   -4.65 KCAL/MOL
REMARK 922        TOTAL FREE ENERGY PREDICTED BY IDOCK:   -6.61 KCAL/MOL
REMARK 923 INTER-LIGAND FREE ENERGY PREDICTED BY IDOCK:   -5.87 KCAL/MOL
REMARK 924 INTRA-LIGAND FREE ENERGY PREDICTED BY IDOCK:   -0.74 KCAL/MOL
REMARK 927      BINDING AFFINITY PREDICTED BY RF-SCORE:    0.00 PKD
ROOT
HETATM    1  C   UNL     1     -10.523  15.934  65.475  1.00  0.00    -0.404 C  
HETATM    2  O   UNL     1     -10.898  16.023  66.645  1.00  0.00    -0.285 OA 
HETATM    3  C   UNL     1     -11.170  15.039  64.436  1.00  0.00    -0.161 C  
HETATM    4  O   UNL     1     -12.103  15.809  63.672  1.00  0.00    -1.126 OA 
HETATM    5  H   UNL     1     -12.508  15.248  63.021  1.00  0.00     0.000 HD 
ENDROOT
BRANCH   3   6
HETATM    6  C   UNL     1     -11.884  13.839  65.073  1.00  0.00    -0.366 C  
HETATM    7  O   UNL     1     -13.243  14.235  65.354  1.00  0.00    -0.688 OA 
HETATM    8  H   UNL     1     -13.685  13.492  65.748  1.00  0.00     0.000 HD 
BRANCH   6   9
HETATM    9  C   UNL     1     -11.869  12.531  64.231  1.00  0.00    -0.395 C  
HETATM   10  O   UNL     1     -11.833  12.857  62.831  1.00  0.00    -0.783 OA 
HETATM   11  H   UNL     1     -11.824  12.058  62.316  1.00  0.00     0.000 HD 
BRANCH   9  12
HETATM   12  C   UNL     1     -10.739  11.525  64.532  1.00  0.00    -0.329 C  
HETATM   13  H   UNL     1      -9.430  11.226  65.980  1.00  0.00     0.000 HD 
HETATM   14  O   UNL     1     -10.126  11.845  65.794  1.00  0.00    -0.226 OA 
BRANCH  12  15
HETATM   15  C   UNL     1      -9.681  11.408  63.420  1.00  0.00    -0.365 C  
HETATM   16  O   UNL     1     -10.053  10.426  62.444  1.00  0.00    -0.743 OA 
HETATM   17  H   UNL     1      -9.399  10.354  61.758  1.00  0.00     0.000 HD 
ENDBRANCH  12  15
ENDBRANCH   9  12
ENDBRANCH   6   9
ENDBRANCH   3   6
TORSDOF 4
ENDMDL
MODEL       11
REMARK 921   NORMALIZED FREE ENERGY PREDICTED BY IDOCK:   -4.61 KCAL/MOL
REMARK 922        TOTAL FREE ENERGY PREDICTED BY IDOCK:   -6.56 KCAL/MOL
REMARK 923 INTER-LIGAND FREE ENERGY PREDICTED BY IDOCK:   -6.30 KCAL/MOL
REMARK 924 INTRA-LIGAND FREE ENERGY PREDICTED BY IDOCK:   -0.26 KCAL/MOL
REMARK 927      BINDING AFFINITY PREDICTED BY RF-SCORE:    0.00 PKD
ROOT
HETATM    1  C   UNL     1      -9.563  10.528  64.741  1.00  0.00    -0.285 C  
HETATM    2  O   UNL     1      -8.478  11.073  64.950  1.00  0.00    -0.050 OA 
HETATM    3  C   UNL     1     -10.705  11.165  63.973  1.00  0.00    -0.339 C  
HETATM    4  O   UNL     1     -10.658  10.721  62.613  1.00  0.00    -0.742 OA 
HETATM    5  H   UNL     1     -11.374  11.120  62.132  1.00  0.00     0.000 HD 
ENDROOT
BRANCH   3   6
HETATM    6  C   UNL     1     -10.648  12.698  64.021  1.00  0.00    -0.427 C  
HETATM    7  O   UNL     1     -11.695  13.203  63.167  1.00  0.00    -0.778 OA 
HETATM    8  H   UNL     1     -11.660  14.153  63.197  1.00  0.00     0.000 HD 
BRANCH   6   9
HETATM    9  C   UNL     1     -10.763  13.325  65.440  1.00  0.00    -0.297 C  
HETATM   10  O   UNL     1      -9.449  13.600  65.955  1.00  0.00    -0.483 OA 
HETATM   11  H   UNL     1      -9.519  13.982  66.822  1.00  0.00     0.000 HD 
BRANCH   9  12
HETATM   12  C   UNL     1     -11.620  14.601  65.568  1.00  0.00    -0.335 C  
HETATM   13  H   UNL     1     -13.462  15.146  65.110  1.00  0.00     0.000 HD 
HETATM   14  O   UNL     1     -12.934  14.361  65.031  1.00  0.00    -0.643 OA 
BRANCH  12  15
HETATM   15  C   UNL     1     -10.989  15.855  64.937  1.00  0.00    -0.411 C  
HETATM   16  O   UNL     1     -11.719  16.282  63.780  1.00  0.00    -1.511 OA 
HETATM   17  H   UNL     1     -11.329  17.056  63.389  1.00  0.00     0.000 HD 
ENDBRANCH  12  15
ENDBRANCH   9  12
ENDBRANCH   6   9
ENDBRANCH   3   6
TORSDOF 4
ENDMDL
MODEL       12
REMARK 921   NORMALIZED FREE ENERGY PREDICTED BY IDOCK:   -4.57 KCAL/MOL
REMARK 922        TOTAL FREE ENERGY PREDICTED BY IDOCK:   -6.51 KCAL/MOL
REMARK 923 INTER-LIGAND FREE ENERGY PREDICTED BY IDOCK:   -6.09 KCAL/MOL
REMARK 924 INTRA-LIGAND FREE ENERGY PREDICTED BY IDOCK:   -0.42 KCAL/MOL
REMARK 927      BINDING AFFINITY PREDICTED BY RF-SCORE:    0.00 PKD
ROOT
HETATM    1  C   UNL     1     -11.399  12.903  64.965  1.00  0.00    -0.305 C  
HETATM    2  O   UNL     1     -10.202  12.660  64.805  1.00  0.00    -0.302 OA 
HETATM    3  C   UNL     1     -12.046  14.241  64.663  1.00  0.00    -0.463 C  
HETATM    4  O   UNL     1     -12.627  14.193  63.356  1.00  0.00    -1.070 OA 
HETATM    5  H   UNL     1     -13.033  15.031  63.167  1.00  0.00     0.000 HD 
ENDROOT
BRANCH   3   6
HETATM    6  C   UNL     1     -11.042  15.399  64.743  1.00  0.00    -0.403 C  
HETATM    7  O   UNL     1     -11.464  16.411  63.806  1.00  0.00    -1.590 OA 
HETATM    8  H   UNL     1     -10.842  17.129  63.856  1.00  0.00     0.000 HD 
BRANCH   6   9
HETATM    9  C   UNL     1     -10.854  16.020  66.157  1.00  0.00    -0.179 C  
HETATM   10  O   UNL     1     -10.106  15.115  66.987  1.00  0.00    -0.239 OA 
HETATM   11  H   UNL     1      -9.991  15.495  67.851  1.00  0.00     0.000 HD 
BRANCH   9  12
HETATM   12  C   UNL     1     -10.190  17.412  66.221  1.00  0.00    -0.341 C  
HETATM   13  H   UNL     1      -8.399  18.166  65.869  1.00  0.00     0.000 HD 
HETATM   14  O   UNL     1      -8.808  17.310  65.829  1.00  0.00    -0.530 OA 
BRANCH  12  15
HETATM   15  C   UNL     1     -10.326  18.117  67.581  1.00  0.00    -0.397 C  
HETATM   16  O   UNL     1      -9.528  17.476  68.585  1.00  0.00    -0.274 OA 
HETATM   17  H   UNL     1      -9.612  17.911  69.426  1.00  0.00     0.000 HD 
ENDBRANCH  12  15
ENDBRANCH   9  12
ENDBRANCH   6   9
ENDBRANCH   3   6
TORSDOF 4
ENDMDL
MODEL       13
REMARK 921   NORMALIZED FREE ENERGY PREDICTED BY IDOCK:   -4.57 KCAL/MOL
REMARK 922        TOTAL FREE ENERGY PREDICTED BY IDOCK:   -6.51 KCAL/MOL
REMARK 923 INTER-LIGAND FREE ENERGY PREDICTED BY IDOCK:   -6.18 KCAL/MOL
REMARK 924 INTRA-LIGAND FREE ENERGY PREDICTED BY IDOCK:   -0.34 KCAL/MOL
REMARK 927      BINDING AFFINITY PREDICTED BY RF-SCORE:    0.00 PKD
ROOT
HETATM    1  C   UNL     1      -9.166   9.764  64.350  1.00  0.00    -0.245 C  
HETATM    2  O   UNL     1      -8.696   9.744  65.489  1.00  0.00    -0.136 OA 
HETATM    3  C   UNL     1      -9.736  11.001  63.683  1.00  0.00    -0.324 C  
HETATM    4  O   UNL     1      -8.726  11.594  62.860  1.00  0.00    -0.600 OA 
HETATM    5  H   UNL     1      -9.084  12.369  62.442  1.00  0.00     0.000 HD 
ENDROOT
BRANCH   3   6
HETATM    6  C   UNL     1     -10.241  12.027  64.706  1.00  0.00    -0.279 C  
HETATM    7  O   UNL     1      -9.129  12.392  65.549  1.00  0.00    -0.424 OA 
HETATM    8  H   UNL     1      -9.442  13.028  66.182  1.00  0.00     0.000 HD 
BRANCH   6   9
HETATM    9  C   UNL     1     -10.898  13.302  64.101  1.00  0.00    -0.343 C  
HETATM   10  O   UNL     1     -11.927  12.922  63.172  1.00  0.00    -0.747 OA 
HETATM   11  H   UNL     1     -12.328  13.700  62.803  1.00  0.00     0.000 HD 
BRANCH   9  12
HETATM   12  C   UNL     1     -11.487  14.319  65.101  1.00  0.00    -0.351 C  
HETATM   13  H   UNL     1     -13.288  14.905  65.660  1.00  0.00     0.000 HD 
HETATM   14  O   UNL     1     -12.925  14.278  65.045  1.00  0.00    -0.693 OA 
BRANCH  12  15
HETATM   15  C   UNL     1     -10.970  15.757  64.920  1.00  0.00    -0.427 C  
HETATM   16  O   UNL     1     -11.621  16.413  63.824  1.00  0.00    -1.605 OA 
HETATM   17  H   UNL     1     -11.301  17.302  63.712  1.00  0.00     0.000 HD 
ENDBRANCH  12  15
ENDBRANCH   9  12
ENDBRANCH   6   9
ENDBRANCH   3   6
TORSDOF 4
ENDMDL
MODEL       14
REMARK 921   NORMALIZED FREE ENERGY PREDICTED BY IDOCK:   -4.56 KCAL/MOL
REMARK 922        TOTAL FREE ENERGY PREDICTED BY IDOCK:   -6.49 KCAL/MOL
REMARK 923 INTER-LIGAND FREE ENERGY PREDICTED BY IDOCK:   -6.06 KCAL/MOL
REMARK 924 INTRA-LIGAND FREE ENERGY PREDICTED BY IDOCK:   -0.43 KCAL/MOL
REMARK 927      BINDING AFFINITY PREDICTED BY RF-SCORE:    0.00 PKD
ROOT
HETATM    1  C   UNL     1      -8.703  10.807  64.914  1.00  0.00    -0.126 C  
HETATM    2  O   UNL     1      -8.384  10.134  63.932  1.00  0.00    -0.157 OA 
HETATM    3  C   UNL     1      -9.967  11.639  65.004  1.00  0.00    -0.259 C  
HETATM    4  O   UNL     1     -10.977  10.882  65.679  1.00  0.00    -0.112 OA 
HETATM    5  H   UNL     1     -11.769  11.404  65.736  1.00  0.00     0.000 HD 
ENDROOT
BRANCH   3   6
HETATM    6  C   UNL     1     -10.477  12.066  63.621  1.00  0.00    -0.454 C  
HETATM    7  O   UNL     1     -10.773  10.869  62.872  1.00  0.00    -0.779 OA 
HETATM    8  H   UNL     1     -11.088  11.134  62.016  1.00  0.00     0.000 HD 
BRANCH   6   9
HETATM    9  C   UNL     1     -11.711  13.013  63.629  1.00  0.00    -0.490 C  
HETATM   10  O   UNL     1     -12.916  12.239  63.494  1.00  0.00    -0.776 OA 
HETATM   11  H   UNL     1     -13.670  12.818  63.499  1.00  0.00     0.000 HD 
BRANCH   9  12
HETATM   12  C   UNL     1     -11.860  13.949  64.847  1.00  0.00    -0.387 C  
HETATM   13  H   UNL     1     -13.339  14.618  65.971  1.00  0.00     0.000 HD 
HETATM   14  O   UNL     1     -13.247  14.042  65.222  1.00  0.00    -0.782 OA 
BRANCH  12  15
HETATM   15  C   UNL     1     -11.248  15.347  64.651  1.00  0.00    -0.364 C  
HETATM   16  O   UNL     1     -11.981  16.108  63.683  1.00  0.00    -1.375 OA 
HETATM   17  H   UNL     1     -11.602  16.972  63.562  1.00  0.00     0.000 HD 
ENDBRANCH  12  15
ENDBRANCH   9  12
ENDBRANCH   6   9
ENDBRANCH   3   6
TORSDOF 4
ENDMDL
MODEL       15
REMARK 921   NORMALIZED FREE ENERGY PREDICTED BY IDOCK:   -4.53 KCAL/MOL
REMARK 922        TOTAL FREE ENERGY PREDICTED BY IDOCK:   -6.46 KCAL/MOL
REMARK 923 INTER-LIGAND FREE ENERGY PREDICTED BY IDOCK:   -5.83 KCAL/MOL
REMARK 924 INTRA-LIGAND FREE ENERGY PREDICTED BY IDOCK:   -0.63 KCAL/MOL
REMARK 927      BINDING AFFINITY PREDICTED BY RF-SCORE:    0.00 PKD
ROOT
HETATM    1  C   UNL     1     -11.349  12.114  63.716  1.00  0.00    -0.451 C  
HETATM    2  O   UNL     1     -10.140  11.980  63.519  1.00  0.00    -0.408 OA 
HETATM    3  C   UNL     1     -12.006  13.414  64.140  1.00  0.00    -0.450 C  
HETATM    4  O   UNL     1     -12.513  14.081  62.980  1.00  0.00    -1.101 OA 
HETATM    5  H   UNL     1     -12.924  14.895  63.246  1.00  0.00     0.000 HD 
ENDROOT
BRANCH   3   6
HETATM    6  C   UNL     1     -11.032  14.336  64.885  1.00  0.00    -0.404 C  
HETATM    7  O   UNL     1     -11.040  15.615  64.218  1.00  0.00    -0.738 OA 
HETATM    8  H   UNL     1     -10.436  16.186  64.679  1.00  0.00     0.000 HD 
BRANCH   6   9
HETATM    9  C   UNL     1     -11.318  14.520  66.403  1.00  0.00    -0.349 C  
HETATM   10  O   UNL     1     -12.719  14.322  66.658  1.00  0.00    -0.518 OA 
HETATM   11  H   UNL     1     -12.894  14.435  67.586  1.00  0.00     0.000 HD 
BRANCH   9  12
HETATM   12  C   UNL     1     -10.509  13.635  67.375  1.00  0.00    -0.251 C  
HETATM   13  H   UNL     1      -8.954  12.424  67.257  1.00  0.00     0.000 HD 
HETATM   14  O   UNL     1      -9.452  12.969  66.660  1.00  0.00    -0.246 OA 
BRANCH  12  15
HETATM   15  C   UNL     1     -11.358  12.626  68.169  1.00  0.00    -0.290 C  
HETATM   16  O   UNL     1     -11.946  11.644  67.306  1.00  0.00    -0.627 OA 
HETATM   17  H   UNL     1     -12.471  11.021  67.796  1.00  0.00     0.000 HD 
ENDBRANCH  12  15
ENDBRANCH   9  12
ENDBRANCH   6   9
ENDBRANCH   3   6
TORSDOF 4
ENDMDL
MODEL       16
REMARK 921   NORMALIZED FREE ENERGY PREDICTED BY IDOCK:   -4.52 KCAL/MOL
REMARK 922        TOTAL FREE ENERGY PREDICTED BY IDOCK:   -6.45 KCAL/MOL
REMARK 923 INTER-LIGAND FREE ENERGY PREDICTED BY IDOCK:   -5.91 KCAL/MOL
REMARK 924 INTRA-LIGAND FREE ENERGY PREDICTED BY IDOCK:   -0.54 KCAL/MOL
REMARK 927      BINDING AFFINITY PREDICTED BY RF-SCORE:    0.00 PKD
ROOT
HETATM    1  C   UNL     1      -9.291  14.479  67.013  1.00  0.00    -0.238 C  
HETATM    2  O   UNL     1      -9.575  13.727  67.947  1.00  0.00    -0.208 OA 
HETATM    3  C   UNL     1     -10.291  14.995  65.997  1.00  0.00    -0.312 C  
HETATM    4  O   UNL     1     -10.737  16.294  66.399  1.00  0.00    -0.278 OA 
HETATM    5  H   UNL     1     -11.363  16.617  65.762  1.00  0.00     0.000 HD 
ENDROOT
BRANCH   3   6
HETATM    6  C   UNL     1     -11.496  14.056  65.846  1.00  0.00    -0.330 C  
HETATM    7  O   UNL     1     -12.374  14.283  66.968  1.00  0.00    -0.579 OA 
HETATM    8  H   UNL     1     -13.120  13.702  66.874  1.00  0.00     0.000 HD 
BRANCH   6   9
HETATM    9  C   UNL     1     -12.284  14.194  64.511  1.00  0.00    -0.445 C  
HETATM   10  O   UNL     1     -12.000  15.469  63.911  1.00  0.00    -0.974 OA 
HETATM   11  H   UNL     1     -12.481  15.553  63.096  1.00  0.00     0.000 HD 
BRANCH   9  12
HETATM   12  C   UNL     1     -12.059  13.091  63.456  1.00  0.00    -0.542 C  
HETATM   13  H   UNL     1     -12.998  11.458  62.863  1.00  0.00     0.000 HD 
HETATM   14  O   UNL     1     -13.136  12.137  63.513  1.00  0.00    -0.785 OA 
BRANCH  12  15
HETATM   15  C   UNL     1     -10.695  12.387  63.554  1.00  0.00    -0.430 C  
HETATM   16  O   UNL     1     -10.736  11.080  62.965  1.00  0.00    -0.786 OA 
HETATM   17  H   UNL     1      -9.893  10.645  63.027  1.00  0.00     0.000 HD 
ENDBRANCH  12  15
ENDBRANCH   9  12
ENDBRANCH   6   9
ENDBRANCH   3   6
TORSDOF 4
ENDMDL
MODEL       17
REMARK 921   NORMALIZED FREE ENERGY PREDICTED BY IDOCK:   -4.49 KCAL/MOL
REMARK 922        TOTAL FREE ENERGY PREDICTED BY IDOCK:   -6.41 KCAL/MOL
REMARK 923 INTER-LIGAND FREE ENERGY PREDICTED BY IDOCK:   -5.89 KCAL/MOL
REMARK 924 INTRA-LIGAND FREE ENERGY PREDICTED BY IDOCK:   -0.52 KCAL/MOL
REMARK 927      BINDING AFFINITY PREDICTED BY RF-SCORE:    0.00 PKD
ROOT
HETATM    1  C   UNL     1     -10.743  19.568  67.154  1.00  0.00    -0.482 C  
HETATM    2  O   UNL     1     -10.061  20.252  66.389  1.00  0.00    -0.439 OA 
HETATM    3  C   UNL     1     -10.616  18.064  67.298  1.00  0.00    -0.346 C  
HETATM    4  O   UNL     1      -9.768  17.773  68.414  1.00  0.00    -0.300 OA 
HETATM    5  H   UNL     1      -9.689  16.830  68.504  1.00  0.00     0.000 HD 
ENDROOT
BRANCH   3   6
HETATM    6  C   UNL     1     -10.050  17.409  66.031  1.00  0.00    -0.262 C  
HETATM    7  O   UNL     1      -8.614  17.543  66.071  1.00  0.00    -0.497 OA 
HETATM    8  H   UNL     1      -8.264  17.137  65.286  1.00  0.00     0.000 HD 
BRANCH   6   9
HETATM    9  C   UNL     1     -10.445  15.920  65.819  1.00  0.00    -0.370 C  
HETATM   10  O   UNL     1     -11.340  15.503  66.864  1.00  0.00    -0.227 OA 
HETATM   11  H   UNL     1     -11.582  14.593  66.734  1.00  0.00     0.000 HD 
BRANCH   9  12
HETATM   12  C   UNL     1     -11.073  15.555  64.457  1.00  0.00    -0.274 C  
HETATM   13  H   UNL     1     -12.071  16.498  63.038  1.00  0.00     0.000 HD 
HETATM   14  O   UNL     1     -11.684  16.722  63.876  1.00  0.00    -1.076 OA 
BRANCH  12  15
HETATM   15  C   UNL     1     -12.068  14.383  64.511  1.00  0.00    -0.481 C  
HETATM   16  O   UNL     1     -12.489  13.993  63.197  1.00  0.00    -1.137 OA 
HETATM   17  H   UNL     1     -13.104  13.269  63.230  1.00  0.00     0.000 HD 
ENDBRANCH  12  15
ENDBRANCH   9  12
ENDBRANCH   6   9
ENDBRANCH   3   6
TORSDOF 4
ENDMDL
MODEL       18
REMARK 921   NORMALIZED FREE ENERGY PREDICTED BY IDOCK:   -4.47 KCAL/MOL
REMARK 922        TOTAL FREE ENERGY PREDICTED BY IDOCK:   -6.38 KCAL/MOL
REMARK 923 INTER-LIGAND FREE ENERGY PREDICTED BY IDOCK:   -5.89 KCAL/MOL
REMARK 924 INTRA-LIGAND FREE ENERGY PREDICTED BY IDOCK:   -0.49 KCAL/MOL
REMARK 927      BINDING AFFINITY PREDICTED BY RF-SCORE:    0.00 PKD
ROOT
HETATM    1  C   UNL     1     -10.406  11.012  63.810  1.00  0.00    -0.364 C  
HETATM    2  O   UNL     1      -9.378  11.343  63.215  1.00  0.00    -0.280 OA 
HETATM    3  C   UNL     1     -11.661  11.859  63.883  1.00  0.00    -0.425 C  
HETATM    4  O   UNL     1     -12.573  11.431  62.867  1.00  0.00    -0.970 OA 
HETATM    5  H   UNL     1     -13.359  11.961  62.913  1.00  0.00     0.000 HD 
ENDROOT
BRANCH   3   6
HETATM    6  C   UNL     1     -11.359  13.354  63.712  1.00  0.00    -0.166 C  
HETATM    7  O   UNL     1     -12.545  13.985  63.187  1.00  0.00    -1.062 OA 
HETATM    8  H   UNL     1     -12.357  14.911  63.082  1.00  0.00     0.000 HD 
BRANCH   6   9
HETATM    9  C   UNL     1     -10.884  14.088  64.999  1.00  0.00    -0.392 C  
HETATM   10  O   UNL     1      -9.454  13.989  65.113  1.00  0.00    -0.484 OA 
HETATM   11  H   UNL     1      -9.164  14.437  65.899  1.00  0.00     0.000 HD 
BRANCH   9  12
HETATM   12  C   UNL     1     -11.288  15.571  65.141  1.00  0.00    -0.241 C  
HETATM   13  H   UNL     1     -11.417  17.144  63.954  1.00  0.00     0.000 HD 
HETATM   14  O   UNL     1     -11.169  16.232  63.867  1.00  0.00    -0.676 OA 
BRANCH  12  15
HETATM   15  C   UNL     1     -10.518  16.336  66.232  1.00  0.00    -0.308 C  
HETATM   16  O   UNL     1      -9.635  17.311  65.663  1.00  0.00    -0.527 OA 
HETATM   17  H   UNL     1      -9.159  17.784  66.337  1.00  0.00     0.000 HD 
ENDBRANCH  12  15
ENDBRANCH   9  12
ENDBRANCH   6   9
ENDBRANCH   3   6
TORSDOF 4
ENDMDL
MODEL       19
REMARK 921   NORMALIZED FREE ENERGY PREDICTED BY IDOCK:   -4.46 KCAL/MOL
REMARK 922        TOTAL FREE ENERGY PREDICTED BY IDOCK:   -6.37 KCAL/MOL
REMARK 923 INTER-LIGAND FREE ENERGY PREDICTED BY IDOCK:   -5.80 KCAL/MOL
REMARK 924 INTRA-LIGAND FREE ENERGY PREDICTED BY IDOCK:   -0.57 KCAL/MOL
REMARK 927      BINDING AFFINITY PREDICTED BY RF-SCORE:    0.00 PKD
ROOT
HETATM    1  C   UNL     1     -10.256  17.247  66.883  1.00  0.00    -0.322 C  
HETATM    2  O   UNL     1     -10.777  18.161  66.242  1.00  0.00    -0.306 OA 
HETATM    3  C   UNL     1     -10.010  15.853  66.337  1.00  0.00    -0.287 C  
HETATM    4  O   UNL     1      -8.662  15.770  65.861  1.00  0.00    -0.333 OA 
HETATM    5  H   UNL     1      -8.509  14.897  65.520  1.00  0.00     0.000 HD 
ENDROOT
BRANCH   3   6
HETATM    6  C   UNL     1     -10.983  15.497  65.205  1.00  0.00    -0.380 C  
HETATM    7  O   UNL     1     -10.928  16.557  64.228  1.00  0.00    -1.152 OA 
HETATM    8  H   UNL     1     -11.530  16.336  63.527  1.00  0.00     0.000 HD 
BRANCH   6   9
HETATM    9  C   UNL     1     -10.734  14.122  64.521  1.00  0.00    -0.303 C  
HETATM   10  O   UNL     1      -9.955  13.283  65.391  1.00  0.00    -0.416 OA 
HETATM   11  H   UNL     1      -9.803  12.443  64.973  1.00  0.00     0.000 HD 
BRANCH   9  12
HETATM   12  C   UNL     1     -11.982  13.337  64.066  1.00  0.00    -0.465 C  
HETATM   13  H   UNL     1     -13.787  12.972  64.777  1.00  0.00     0.000 HD 
HETATM   14  O   UNL     1     -13.019  13.455  65.057  1.00  0.00    -0.720 OA 
BRANCH  12  15
HETATM   15  C   UNL     1     -11.713  11.862  63.723  1.00  0.00    -0.457 C  
HETATM   16  O   UNL     1     -10.582  11.724  62.853  1.00  0.00    -0.662 OA 
HETATM   17  H   UNL     1     -10.416  10.812  62.641  1.00  0.00     0.000 HD 
ENDBRANCH  12  15
ENDBRANCH   9  12
ENDBRANCH   6   9
ENDBRANCH   3   6
TORSDOF 4
ENDMDL
MODEL       20
REMARK 921   NORMALIZED FREE ENERGY PREDICTED BY IDOCK:   -4.43 KCAL/MOL
REMARK 922        TOTAL FREE ENERGY PREDICTED BY IDOCK:   -6.33 KCAL/MOL
REMARK 923 INTER-LIGAND FREE ENERGY PREDICTED BY IDOCK:   -5.57 KCAL/MOL
REMARK 924 INTRA-LIGAND FREE ENERGY PREDICTED BY IDOCK:   -0.76 KCAL/MOL
REMARK 927      BINDING AFFINITY PREDICTED BY RF-SCORE:    0.00 PKD
ROOT
HETATM    1  C   UNL     1     -11.214  15.794  64.348  1.00  0.00    -0.236 C  
HETATM    2  O   UNL     1     -12.338  16.098  63.945  1.00  0.00    -0.895 OA 
HETATM    3  C   UNL     1     -10.873  14.474  65.012  1.00  0.00    -0.412 C  
HETATM    4  O   UNL     1     -10.339  13.581  64.029  1.00  0.00    -0.647 OA 
HETATM    5  H   UNL     1     -10.125  12.755  64.445  1.00  0.00     0.000 HD 
ENDROOT
BRANCH   3   6
HETATM    6  C   UNL     1     -12.094  13.834  65.686  1.00  0.00    -0.418 C  
HETATM    7  O   UNL     1     -12.932  13.286  64.647  1.00  0.00    -0.692 OA 
HETATM    8  H   UNL     1     -13.688  12.890  65.064  1.00  0.00     0.000 HD 
BRANCH   6   9
HETATM    9  C   UNL     1     -11.773  12.744  66.748  1.00  0.00    -0.392 C  
HETATM   10  O   UNL     1     -10.435  12.258  66.554  1.00  0.00    -0.223 OA 
HETATM   11  H   UNL     1     -10.239  11.592  67.204  1.00  0.00     0.000 HD 
BRANCH   9  12
HETATM   12  C   UNL     1     -11.943  13.147  68.228  1.00  0.00    -0.291 C  
HETATM   13  H   UNL     1     -11.115  14.443  69.468  1.00  0.00     0.000 HD 
HETATM   14  O   UNL     1     -11.012  14.195  68.557  1.00  0.00    -0.238 OA 
BRANCH  12  15
HETATM   15  C   UNL     1     -11.827  11.977  69.221  1.00  0.00    -0.318 C  
HETATM   16  O   UNL     1     -12.191  10.733  68.608  1.00  0.00    -0.813 OA 
HETATM   17  H   UNL     1     -12.120  10.010  69.222  1.00  0.00     0.000 HD 
ENDBRANCH  12  15
ENDBRANCH   9  12
ENDBRANCH   6   9
ENDBRANCH   3   6
TORSDOF 4
ENDMDL
MODEL       21
REMARK 921   NORMALIZED FREE ENERGY PREDICTED BY IDOCK:   -4.41 KCAL/MOL
REMARK 922        TOTAL FREE ENERGY PREDICTED BY IDOCK:   -6.31 KCAL/MOL
REMARK 923 INTER-LIGAND FREE ENERGY PREDICTED BY IDOCK:   -5.95 KCAL/MOL
REMARK 924 INTRA-LIGAND FREE ENERGY PREDICTED BY IDOCK:   -0.36 KCAL/MOL
REMARK 927      BINDING AFFINITY PREDICTED BY RF-SCORE:    0.00 PKD
ROOT
HETATM    1  C   UNL     1      -9.817  11.872  67.837  1.00  0.00    -0.190 C  
HETATM    2  O   UNL     1      -8.990  11.185  67.235  1.00  0.00    -0.145 OA 
HETATM    3  C   UNL     1     -11.184  12.236  67.291  1.00  0.00    -0.300 C  
HETATM    4  O   UNL     1     -12.152  11.314  67.804  1.00  0.00    -0.631 OA 
HETATM    5  H   UNL     1     -13.008  11.542  67.462  1.00  0.00     0.000 HD 
ENDROOT
BRANCH   3   6
HETATM    6  C   UNL     1     -11.216  12.221  65.756  1.00  0.00    -0.337 C  
HETATM    7  O   UNL     1     -12.582  12.006  65.347  1.00  0.00    -0.340 OA 
HETATM    8  H   UNL     1     -12.601  11.997  64.397  1.00  0.00     0.000 HD 
BRANCH   6   9
HETATM    9  C   UNL     1     -10.641  13.492  65.067  1.00  0.00    -0.372 C  
HETATM   10  O   UNL     1     -10.120  13.146  63.772  1.00  0.00    -0.731 OA 
HETATM   11  H   UNL     1      -9.769  13.922  63.351  1.00  0.00     0.000 HD 
BRANCH   9  12
HETATM   12  C   UNL     1     -11.602  14.689  64.907  1.00  0.00    -0.405 C  
HETATM   13  H   UNL     1     -13.038  15.222  63.662  1.00  0.00     0.000 HD 
HETATM   14  O   UNL     1     -12.448  14.485  63.760  1.00  0.00    -0.809 OA 
BRANCH  12  15
HETATM   15  C   UNL     1     -10.902  16.058  64.838  1.00  0.00    -0.372 C  
HETATM   16  O   UNL     1     -11.596  16.957  63.963  1.00  0.00    -1.319 OA 
HETATM   17  H   UNL     1     -11.164  17.802  63.920  1.00  0.00     0.000 HD 
ENDBRANCH  12  15
ENDBRANCH   9  12
ENDBRANCH   6   9
ENDBRANCH   3   6
TORSDOF 4
ENDMDL
MODEL       22
REMARK 921   NORMALIZED FREE ENERGY PREDICTED BY IDOCK:   -4.41 KCAL/MOL
REMARK 922        TOTAL FREE ENERGY PREDICTED BY IDOCK:   -6.31 KCAL/MOL
REMARK 923 INTER-LIGAND FREE ENERGY PREDICTED BY IDOCK:   -5.80 KCAL/MOL
REMARK 924 INTRA-LIGAND FREE ENERGY PREDICTED BY IDOCK:   -0.51 KCAL/MOL
REMARK 927      BINDING AFFINITY PREDICTED BY RF-SCORE:    0.00 PKD
ROOT
HETATM    1  C   UNL     1     -12.260  14.856  70.375  1.00  0.00    -0.336 C  
HETATM    2  O   UNL     1     -11.835  16.011  70.329  1.00  0.00    -0.337 OA 
HETATM    3  C   UNL     1     -12.069  13.831  69.274  1.00  0.00    -0.329 C  
HETATM    4  O   UNL     1     -10.935  13.015  69.587  1.00  0.00    -0.457 OA 
HETATM    5  H   UNL     1     -10.816  12.373  68.897  1.00  0.00     0.000 HD 
ENDROOT
BRANCH   3   6
HETATM    6  C   UNL     1     -11.872  14.488  67.902  1.00  0.00    -0.336 C  
HETATM    7  O   UNL     1     -10.680  15.298  67.969  1.00  0.00    -0.255 OA 
HETATM    8  H   UNL     1     -10.558  15.705  67.118  1.00  0.00     0.000 HD 
BRANCH   6   9
HETATM    9  C   UNL     1     -11.788  13.506  66.699  1.00  0.00    -0.407 C  
HETATM   10  O   UNL     1     -11.977  12.158  67.161  1.00  0.00    -0.580 OA 
HETATM   11  H   UNL     1     -11.925  11.557  66.426  1.00  0.00     0.000 HD 
BRANCH   9  12
HETATM   12  C   UNL     1     -12.752  13.764  65.522  1.00  0.00    -0.488 C  
HETATM   13  H   UNL     1     -13.792  12.668  64.250  1.00  0.00     0.000 HD 
HETATM   14  O   UNL     1     -13.199  12.510  64.975  1.00  0.00    -0.700 OA 
BRANCH  12  15
HETATM   15  C   UNL     1     -12.180  14.673  64.420  1.00  0.00    -0.452 C  
HETATM   16  O   UNL     1     -12.504  14.179  63.114  1.00  0.00    -1.126 OA 
HETATM   17  H   UNL     1     -12.150  14.741  62.433  1.00  0.00     0.000 HD 
ENDBRANCH  12  15
ENDBRANCH   9  12
ENDBRANCH   6   9
ENDBRANCH   3   6
TORSDOF 4
ENDMDL
MODEL       23
REMARK 921   NORMALIZED FREE ENERGY PREDICTED BY IDOCK:   -4.37 KCAL/MOL
REMARK 922        TOTAL FREE ENERGY PREDICTED BY IDOCK:   -6.26 KCAL/MOL
REMARK 923 INTER-LIGAND FREE ENERGY PREDICTED BY IDOCK:   -6.11 KCAL/MOL
REMARK 924 INTRA-LIGAND FREE ENERGY PREDICTED BY IDOCK:   -0.15 KCAL/MOL
REMARK 927      BINDING AFFINITY PREDICTED BY RF-SCORE:    0.00 PKD
ROOT
HETATM    1  C   UNL     1     -10.260  16.331  65.710  1.00  0.00    -0.367 C  
HETATM    2  O   UNL     1     -10.704  16.696  66.800  1.00  0.00    -0.253 OA 
HETATM    3  C   UNL     1     -11.019  15.461  64.727  1.00  0.00    -0.393 C  
HETATM    4  O   UNL     1     -11.650  16.299  63.753  1.00  0.00    -1.539 OA 
HETATM    5  H   UNL     1     -12.125  15.754  63.137  1.00  0.00     0.000 HD 
ENDROOT
BRANCH   3   6
HETATM    6  C   UNL     1     -12.073  14.589  65.422  1.00  0.00    -0.317 C  
HETATM    7  O   UNL     1     -12.642  13.711  64.429  1.00  0.00    -0.624 OA 
HETATM    8  H   UNL     1     -13.295  13.171  64.860  1.00  0.00     0.000 HD 
BRANCH   6   9
HETATM    9  C   UNL     1     -11.560  13.764  66.637  1.00  0.00    -0.369 C  
HETATM   10  O   UNL     1     -12.326  14.097  67.807  1.00  0.00    -0.565 OA 
HETATM   11  H   UNL     1     -12.012  13.593  68.549  1.00  0.00     0.000 HD 
BRANCH   9  12
HETATM   12  C   UNL     1     -11.544  12.229  66.478  1.00  0.00    -0.377 C  
HETATM   13  H   UNL     1     -11.990  10.665  67.596  1.00  0.00     0.000 HD 
HETATM   14  O   UNL     1     -12.000  11.609  67.694  1.00  0.00    -0.618 OA 
BRANCH  12  15
HETATM   15  C   UNL     1     -10.187  11.651  66.040  1.00  0.00    -0.232 C  
HETATM   16  O   UNL     1      -9.253  12.692  65.720  1.00  0.00    -0.452 OA 
HETATM   17  H   UNL     1      -8.415  12.335  65.449  1.00  0.00     0.000 HD 
ENDBRANCH  12  15
ENDBRANCH   9  12
ENDBRANCH   6   9
ENDBRANCH   3   6
TORSDOF 4
ENDMDL
MODEL       24
REMARK 921   NORMALIZED FREE ENERGY PREDICTED BY IDOCK:   -4.37 KCAL/MOL
REMARK 922        TOTAL FREE ENERGY PREDICTED BY IDOCK:   -6.26 KCAL/MOL
REMARK 923 INTER-LIGAND FREE ENERGY PREDICTED BY IDOCK:   -5.56 KCAL/MOL
REMARK 924 INTRA-LIGAND FREE ENERGY PREDICTED BY IDOCK:   -0.70 KCAL/MOL
REMARK 927      BINDING AFFINITY PREDICTED BY RF-SCORE:    0.00 PKD
ROOT
HETATM    1  C   UNL     1     -12.282  12.518  63.463  1.00  0.00    -0.558 C  
HETATM    2  O   UNL     1     -13.241  12.136  64.136  1.00  0.00    -0.740 OA 
HETATM    3  C   UNL     1     -10.858  12.032  63.651  1.00  0.00    -0.446 C  
HETATM    4  O   UNL     1     -10.598  10.979  62.718  1.00  0.00    -0.772 OA 
HETATM    5  H   UNL     1      -9.706  10.674  62.836  1.00  0.00     0.000 HD 
ENDROOT
BRANCH   3   6
HETATM    6  C   UNL     1     -10.603  11.534  65.080  1.00  0.00    -0.293 C  
HETATM    7  O   UNL     1      -9.675  10.432  65.002  1.00  0.00    -0.251 OA 
HETATM    8  H   UNL     1      -9.517  10.124  65.887  1.00  0.00     0.000 HD 
BRANCH   6   9
HETATM    9  C   UNL     1     -10.078  12.609  66.075  1.00  0.00    -0.262 C  
HETATM   10  O   UNL     1      -9.815  13.834  65.371  1.00  0.00    -0.496 OA 
HETATM   11  H   UNL     1      -9.494  14.490  65.979  1.00  0.00     0.000 HD 
BRANCH   9  12
HETATM   12  C   UNL     1     -10.973  12.923  67.293  1.00  0.00    -0.261 C  
HETATM   13  H   UNL     1     -12.449  12.034  68.257  1.00  0.00     0.000 HD 
HETATM   14  O   UNL     1     -11.898  11.841  67.508  1.00  0.00    -0.577 OA 
BRANCH  12  15
HETATM   15  C   UNL     1     -11.711  14.270  67.207  1.00  0.00    -0.395 C  
HETATM   16  O   UNL     1     -12.776  14.223  66.248  1.00  0.00    -0.510 OA 
HETATM   17  H   UNL     1     -13.232  15.055  66.195  1.00  0.00     0.000 HD 
ENDBRANCH  12  15
ENDBRANCH   9  12
ENDBRANCH   6   9
ENDBRANCH   3   6
TORSDOF 4
ENDMDL
MODEL       25
REMARK 921   NORMALIZED FREE ENERGY PREDICTED BY IDOCK:   -4.30 KCAL/MOL
REMARK 922        TOTAL FREE ENERGY PREDICTED BY IDOCK:   -6.18 KCAL/MOL
REMARK 923 INTER-LIGAND FREE ENERGY PREDICTED BY IDOCK:   -5.67 KCAL/MOL
REMARK 924 INTRA-LIGAND FREE ENERGY PREDICTED BY IDOCK:   -0.50 KCAL/MOL
REMARK 927      BINDING AFFINITY PREDICTED BY RF-SCORE:    0.00 PKD
ROOT
HETATM    1  C   UNL     1     -10.120  10.969  63.671  1.00  0.00    -0.371 C  
HETATM    2  O   UNL     1      -9.140  11.379  63.047  1.00  0.00    -0.266 OA 
HETATM    3  C   UNL     1     -11.419  11.737  63.822  1.00  0.00    -0.420 C  
HETATM    4  O   UNL     1     -12.346  11.285  62.830  1.00  0.00    -0.876 OA 
HETATM    5  H   UNL     1     -13.160  11.766  62.925  1.00  0.00     0.000 HD 
ENDROOT
BRANCH   3   6
HETATM    6  C   UNL     1     -11.213  13.252  63.689  1.00  0.00    -0.087 C  
HETATM    7  O   UNL     1     -12.307  13.777  62.908  1.00  0.00    -1.008 OA 
HETATM    8  H   UNL     1     -12.179  14.715  62.826  1.00  0.00     0.000 HD 
BRANCH   6   9
HETATM    9  C   UNL     1     -11.089  14.028  65.031  1.00  0.00    -0.363 C  
HETATM   10  O   UNL     1     -11.018  15.439  64.769  1.00  0.00    -0.516 OA 
HETATM   11  H   UNL     1     -10.942  15.914  65.589  1.00  0.00     0.000 HD 
BRANCH   9  12
HETATM   12  C   UNL     1     -12.191  13.777  66.082  1.00  0.00    -0.459 C  
HETATM   13  H   UNL     1     -14.144  14.039  66.206  1.00  0.00     0.000 HD 
HETATM   14  O   UNL     1     -13.466  14.193  65.559  1.00  0.00    -0.643 OA 
BRANCH  12  15
HETATM   15  C   UNL     1     -11.920  14.423  67.452  1.00  0.00    -0.373 C  
HETATM   16  O   UNL     1     -10.803  15.320  67.395  1.00  0.00    -0.291 OA 
HETATM   17  H   UNL     1     -10.635  15.719  68.241  1.00  0.00     0.000 HD 
ENDBRANCH  12  15
ENDBRANCH   9  12
ENDBRANCH   6   9
ENDBRANCH   3   6
TORSDOF 4
ENDMDL
MODEL       26
REMARK 921   NORMALIZED FREE ENERGY PREDICTED BY IDOCK:   -4.30 KCAL/MOL
REMARK 922        TOTAL FREE ENERGY PREDICTED BY IDOCK:   -6.18 KCAL/MOL
REMARK 923 INTER-LIGAND FREE ENERGY PREDICTED BY IDOCK:   -5.44 KCAL/MOL
REMARK 924 INTRA-LIGAND FREE ENERGY PREDICTED BY IDOCK:   -0.74 KCAL/MOL
REMARK 927      BINDING AFFINITY PREDICTED BY RF-SCORE:    0.00 PKD
ROOT
HETATM    1  C   UNL     1     -11.588  15.651  68.418  1.00  0.00    -0.350 C  
HETATM    2  O   UNL     1     -10.942  16.651  68.103  1.00  0.00    -0.352 OA 
HETATM    3  C   UNL     1     -11.695  14.400  67.567  1.00  0.00    -0.387 C  
HETATM    4  O   UNL     1     -10.731  13.444  68.019  1.00  0.00    -0.237 OA 
HETATM    5  H   UNL     1     -10.798  12.661  67.486  1.00  0.00     0.000 HD 
ENDROOT
BRANCH   3   6
HETATM    6  C   UNL     1     -11.475  14.696  66.077  1.00  0.00    -0.332 C  
HETATM    7  O   UNL     1     -10.219  14.101  65.692  1.00  0.00    -0.310 OA 
HETATM    8  H   UNL     1     -10.082  14.284  64.770  1.00  0.00     0.000 HD 
BRANCH   6   9
HETATM    9  C   UNL     1     -12.610  14.215  65.128  1.00  0.00    -0.408 C  
HETATM   10  O   UNL     1     -12.523  14.914  63.875  1.00  0.00    -1.009 OA 
HETATM   11  H   UNL     1     -13.216  14.620  63.296  1.00  0.00     0.000 HD 
BRANCH   9  12
HETATM   12  C   UNL     1     -12.681  12.699  64.843  1.00  0.00    -0.370 C  
HETATM   13  H   UNL     1     -11.957  11.051  65.653  1.00  0.00     0.000 HD 
HETATM   14  O   UNL     1     -11.914  11.983  65.828  1.00  0.00    -0.514 OA 
BRANCH  12  15
HETATM   15  C   UNL     1     -12.257  12.302  63.419  1.00  0.00    -0.527 C  
HETATM   16  O   UNL     1     -10.870  12.584  63.188  1.00  0.00    -0.643 OA 
HETATM   17  H   UNL     1     -10.608  12.339  62.307  1.00  0.00     0.000 HD 
ENDBRANCH  12  15
ENDBRANCH   9  12
ENDBRANCH   6   9
ENDBRANCH   3   6
TORSDOF 4
ENDMDL
MODEL       27
REMARK 921   NORMALIZED FREE ENERGY PREDICTED BY IDOCK:   -4.29 KCAL/MOL
REMARK 922        TOTAL FREE ENERGY PREDICTED BY IDOCK:   -6.17 KCAL/MOL
REMARK 923 INTER-LIGAND FREE ENERGY PREDICTED BY IDOCK:   -5.67 KCAL/MOL
REMARK 924 INTRA-LIGAND FREE ENERGY PREDICTED BY IDOCK:   -0.50 KCAL/MOL
REMARK 927      BINDING AFFINITY PREDICTED BY RF-SCORE:    0.00 PKD
ROOT
HETATM    1  C   UNL     1     -11.981  12.037  63.361  1.00  0.00    -0.471 C  
HETATM    2  O   UNL     1     -13.185  12.073  63.619  1.00  0.00    -0.737 OA 
HETATM    3  C   UNL     1     -10.942  12.931  64.010  1.00  0.00    -0.411 C  
HETATM    4  O   UNL     1     -10.335  12.227  65.099  1.00  0.00    -0.273 OA 
HETATM    5  H   UNL     1      -9.684  12.787  65.504  1.00  0.00     0.000 HD 
ENDROOT
BRANCH   3   6
HETATM    6  C   UNL     1     -11.547  14.247  64.515  1.00  0.00    -0.387 C  
HETATM    7  O   UNL     1     -12.536  14.673  63.555  1.00  0.00    -1.069 OA 
HETATM    8  H   UNL     1     -12.910  15.489  63.868  1.00  0.00     0.000 HD 
BRANCH   6   9
HETATM    9  C   UNL     1     -12.171  14.190  65.939  1.00  0.00    -0.439 C  
HETATM   10  O   UNL     1     -12.520  12.833  66.260  1.00  0.00    -0.477 OA 
HETATM   11  H   UNL     1     -12.901  12.798  67.130  1.00  0.00     0.000 HD 
BRANCH   9  12
HETATM   12  C   UNL     1     -11.322  14.767  67.092  1.00  0.00    -0.356 C  
HETATM   13  H   UNL     1      -9.464  15.389  67.336  1.00  0.00     0.000 HD 
HETATM   14  O   UNL     1      -9.987  15.034  66.626  1.00  0.00    -0.243 OA 
BRANCH  12  15
HETATM   15  C   UNL     1     -11.299  13.895  68.360  1.00  0.00    -0.285 C  
HETATM   16  O   UNL     1     -12.463  14.115  69.168  1.00  0.00    -0.519 OA 
HETATM   17  H   UNL     1     -12.448  13.577  69.951  1.00  0.00     0.000 HD 
ENDBRANCH  12  15
ENDBRANCH   9  12
ENDBRANCH   6   9
ENDBRANCH   3   6
TORSDOF 4
ENDMDL
MODEL       28
REMARK 921   NORMALIZED FREE ENERGY PREDICTED BY IDOCK:   -4.29 KCAL/MOL
REMARK 922        TOTAL FREE ENERGY PREDICTED BY IDOCK:   -6.17 KCAL/MOL
REMARK 923 INTER-LIGAND FREE ENERGY PREDICTED BY IDOCK:   -5.25 KCAL/MOL
REMARK 924 INTRA-LIGAND FREE ENERGY PREDICTED BY IDOCK:   -0.92 KCAL/MOL
REMARK 927      BINDING AFFINITY PREDICTED BY RF-SCORE:    0.00 PKD
ROOT
HETATM    1  C   UNL     1     -12.777  12.327  63.581  1.00  0.00    -0.411 C  
HETATM    2  O   UNL     1     -13.231  12.553  64.704  1.00  0.00    -0.848 OA 
HETATM    3  C   UNL     1     -11.298  12.316  63.244  1.00  0.00    -0.336 C  
HETATM    4  O   UNL     1     -10.820  10.968  63.286  1.00  0.00    -0.726 OA 
HETATM    5  H   UNL     1      -9.894  10.961  63.074  1.00  0.00     0.000 HD 
ENDROOT
BRANCH   3   6
HETATM    6  C   UNL     1     -10.480  13.187  64.207  1.00  0.00    -0.389 C  
HETATM    7  O   UNL     1     -11.146  14.462  64.320  1.00  0.00    -0.606 OA 
HETATM    8  H   UNL     1     -10.639  15.001  64.917  1.00  0.00     0.000 HD 
BRANCH   6   9
HETATM    9  C   UNL     1     -10.244  12.577  65.619  1.00  0.00    -0.267 C  
HETATM   10  O   UNL     1      -9.056  11.768  65.604  1.00  0.00    -0.374 OA 
HETATM   11  H   UNL     1      -8.911  11.396  66.466  1.00  0.00     0.000 HD 
BRANCH   9  12
HETATM   12  C   UNL     1     -10.150  13.569  66.797  1.00  0.00    -0.268 C  
HETATM   13  H   UNL     1      -8.918  13.896  68.304  1.00  0.00     0.000 HD 
HETATM   14  O   UNL     1      -8.975  13.286  67.579  1.00  0.00    -0.186 OA 
BRANCH  12  15
HETATM   15  C   UNL     1     -11.405  13.618  67.686  1.00  0.00    -0.300 C  
HETATM   16  O   UNL     1     -12.540  14.114  66.963  1.00  0.00    -0.539 OA 
HETATM   17  H   UNL     1     -13.315  14.144  67.513  1.00  0.00     0.000 HD 
ENDBRANCH  12  15
ENDBRANCH   9  12
ENDBRANCH   6   9
ENDBRANCH   3   6
TORSDOF 4
ENDMDL
MODEL       29
REMARK 921   NORMALIZED FREE ENERGY PREDICTED BY IDOCK:   -4.29 KCAL/MOL
REMARK 922        TOTAL FREE ENERGY PREDICTED BY IDOCK:   -6.16 KCAL/MOL
REMARK 923 INTER-LIGAND FREE ENERGY PREDICTED BY IDOCK:   -5.58 KCAL/MOL
REMARK 924 INTRA-LIGAND FREE ENERGY PREDICTED BY IDOCK:   -0.58 KCAL/MOL
REMARK 927      BINDING AFFINITY PREDICTED BY RF-SCORE:    0.00 PKD
ROOT
HETATM    1  C   UNL     1     -11.302  12.056  63.577  1.00  0.00    -0.442 C  
HETATM    2  O   UNL     1     -10.161  11.871  63.151  1.00  0.00    -0.415 OA 
HETATM    3  C   UNL     1     -11.796  13.368  64.154  1.00  0.00    -0.442 C  
HETATM    4  O   UNL     1     -12.476  14.102  63.131  1.00  0.00    -1.126 OA 
HETATM    5  H   UNL     1     -12.786  14.923  63.492  1.00  0.00     0.000 HD 
ENDROOT
BRANCH   3   6
HETATM    6  C   UNL     1     -10.651  14.215  64.726  1.00  0.00    -0.418 C  
HETATM    7  O   UNL     1     -10.940  15.598  64.435  1.00  0.00    -0.727 OA 
HETATM    8  H   UNL     1     -10.230  16.122  64.789  1.00  0.00     0.000 HD 
BRANCH   6   9
HETATM    9  C   UNL     1     -10.381  14.030  66.247  1.00  0.00    -0.293 C  
HETATM   10  O   UNL     1      -8.965  14.054  66.494  1.00  0.00    -0.421 OA 
HETATM   11  H   UNL     1      -8.801  13.941  67.423  1.00  0.00     0.000 HD 
BRANCH   9  12
HETATM   12  C   UNL     1     -11.065  15.033  67.200  1.00  0.00    -0.332 C  
HETATM   13  H   UNL     1     -10.716  16.866  67.848  1.00  0.00     0.000 HD 
HETATM   14  O   UNL     1     -10.295  16.248  67.261  1.00  0.00    -0.276 OA 
BRANCH  12  15
HETATM   15  C   UNL     1     -11.338  14.483  68.610  1.00  0.00    -0.276 C  
HETATM   16  O   UNL     1     -10.248  13.677  69.077  1.00  0.00    -0.412 OA 
HETATM   17  H   UNL     1     -10.417  13.336  69.949  1.00  0.00     0.000 HD 
ENDBRANCH  12  15
ENDBRANCH   9  12
ENDBRANCH   6   9
ENDBRANCH   3   6
TORSDOF 4
ENDMDL
MODEL       30
REMARK 921   NORMALIZED FREE ENERGY PREDICTED BY IDOCK:   -4.25 KCAL/MOL
REMARK 922        TOTAL FREE ENERGY PREDICTED BY IDOCK:   -6.11 KCAL/MOL
REMARK 923 INTER-LIGAND FREE ENERGY PREDICTED BY IDOCK:   -5.82 KCAL/MOL
REMARK 924 INTRA-LIGAND FREE ENERGY PREDICTED BY IDOCK:   -0.29 KCAL/MOL
REMARK 927      BINDING AFFINITY PREDICTED BY RF-SCORE:    0.00 PKD
ROOT
HETATM    1  C   UNL     1     -12.307  13.013  64.850  1.00  0.00    -0.459 C  
HETATM    2  O   UNL     1     -12.419  12.652  66.022  1.00  0.00    -0.555 OA 
HETATM    3  C   UNL     1     -11.208  13.924  64.338  1.00  0.00    -0.329 C  
HETATM    4  O   UNL     1     -10.157  13.124  63.787  1.00  0.00    -0.731 OA 
HETATM    5  H   UNL     1      -9.469  13.695  63.467  1.00  0.00     0.000 HD 
ENDROOT
BRANCH   3   6
HETATM    6  C   UNL     1     -10.646  14.828  65.444  1.00  0.00    -0.378 C  
HETATM    7  O   UNL     1      -9.507  14.159  66.022  1.00  0.00    -0.456 OA 
HETATM    8  H   UNL     1      -9.159  14.719  66.707  1.00  0.00     0.000 HD 
BRANCH   6   9
HETATM    9  C   UNL     1     -10.255  16.265  64.995  1.00  0.00     0.158 C  
HETATM   10  O   UNL     1     -11.195  16.739  64.016  1.00  0.00    -1.438 OA 
HETATM   11  H   UNL     1     -10.956  17.617  63.741  1.00  0.00     0.000 HD 
BRANCH   9  12
HETATM   12  C   UNL     1     -10.122  17.328  66.106  1.00  0.00    -0.302 C  
HETATM   13  H   UNL     1     -10.624  19.222  66.349  1.00  0.00     0.000 HD 
HETATM   14  O   UNL     1     -10.706  18.568  65.665  1.00  0.00    -0.549 OA 
BRANCH  12  15
HETATM   15  C   UNL     1      -8.683  17.544  66.607  1.00  0.00    -0.263 C  
HETATM   16  O   UNL     1      -7.863  18.148  65.597  1.00  0.00    -0.520 OA 
HETATM   17  H   UNL     1      -6.974  18.281  65.906  1.00  0.00     0.000 HD 
ENDBRANCH  12  15
ENDBRANCH   9  12
ENDBRANCH   6   9
ENDBRANCH   3   6
TORSDOF 4
ENDMDL
MODEL       31
REMARK 921   NORMALIZED FREE ENERGY PREDICTED BY IDOCK:   -4.25 KCAL/MOL
REMARK 922        TOTAL FREE ENERGY PREDICTED BY IDOCK:   -6.11 KCAL/MOL
REMARK 923 INTER-LIGAND FREE ENERGY PREDICTED BY IDOCK:   -5.39 KCAL/MOL
REMARK 924 INTRA-LIGAND FREE ENERGY PREDICTED BY IDOCK:   -0.72 KCAL/MOL
REMARK 927      BINDING AFFINITY PREDICTED BY RF-SCORE:    0.00 PKD
ROOT
HETATM    1  C   UNL     1     -11.848  13.331  70.007  1.00  0.00    -0.295 C  
HETATM    2  O   UNL     1     -12.039  14.453  70.479  1.00  0.00    -0.291 OA 
HETATM    3  C   UNL     1     -11.474  13.065  68.561  1.00  0.00    -0.304 C  
HETATM    4  O   UNL     1     -10.053  12.924  68.466  1.00  0.00    -0.257 OA 
HETATM    5  H   UNL     1      -9.819  12.757  67.560  1.00  0.00     0.000 HD 
ENDROOT
BRANCH   3   6
HETATM    6  C   UNL     1     -11.948  14.187  67.627  1.00  0.00    -0.370 C  
HETATM    7  O   UNL     1     -11.227  15.386  67.978  1.00  0.00    -0.303 OA 
HETATM    8  H   UNL     1     -11.520  16.080  67.399  1.00  0.00     0.000 HD 
BRANCH   6   9
HETATM    9  C   UNL     1     -11.798  13.894  66.106  1.00  0.00    -0.400 C  
HETATM   10  O   UNL     1     -13.025  14.213  65.428  1.00  0.00    -0.706 OA 
HETATM   11  H   UNL     1     -12.932  14.034  64.499  1.00  0.00     0.000 HD 
BRANCH   9  12
HETATM   12  C   UNL     1     -10.634  14.597  65.376  1.00  0.00    -0.374 C  
HETATM   13  H   UNL     1      -8.712  14.910  65.705  1.00  0.00     0.000 HD 
HETATM   14  O   UNL     1      -9.428  14.477  66.154  1.00  0.00    -0.294 OA 
BRANCH  12  15
HETATM   15  C   UNL     1     -10.909  16.066  65.011  1.00  0.00    -0.404 C  
HETATM   16  O   UNL     1     -11.584  16.175  63.751  1.00  0.00    -1.390 OA 
HETATM   17  H   UNL     1     -11.754  17.082  63.525  1.00  0.00     0.000 HD 
ENDBRANCH  12  15
ENDBRANCH   9  12
ENDBRANCH   6   9
ENDBRANCH   3   6
TORSDOF 4
ENDMDL
MODEL       32
REMARK 921   NORMALIZED FREE ENERGY PREDICTED BY IDOCK:   -4.18 KCAL/MOL
REMARK 922        TOTAL FREE ENERGY PREDICTED BY IDOCK:   -6.02 KCAL/MOL
REMARK 923 INTER-LIGAND FREE ENERGY PREDICTED BY IDOCK:   -5.66 KCAL/MOL
REMARK 924 INTRA-LIGAND FREE ENERGY PREDICTED BY IDOCK:   -0.36 KCAL/MOL
REMARK 927      BINDING AFFINITY PREDICTED BY RF-SCORE:    0.00 PKD
ROOT
HETATM    1  C   UNL     1      -9.536  16.064  67.655  1.00  0.00    -0.218 C  
HETATM    2  O   UNL     1     -10.646  16.218  68.168  1.00  0.00    -0.281 OA 
HETATM    3  C   UNL     1      -9.299  15.896  66.166  1.00  0.00    -0.350 C  
HETATM    4  O   UNL     1      -8.955  17.166  65.603  1.00  0.00    -0.491 OA 
HETATM    5  H   UNL     1      -8.806  17.061  64.671  1.00  0.00     0.000 HD 
ENDROOT
BRANCH   3   6
HETATM    6  C   UNL     1     -10.529  15.325  65.447  1.00  0.00    -0.398 C  
HETATM    7  O   UNL     1     -10.852  16.213  64.357  1.00  0.00    -0.898 OA 
HETATM    8  H   UNL     1     -11.613  15.860  63.912  1.00  0.00     0.000 HD 
BRANCH   6   9
HETATM    9  C   UNL     1     -10.378  13.867  64.925  1.00  0.00    -0.406 C  
HETATM   10  O   UNL     1      -9.283  13.223  65.599  1.00  0.00    -0.437 OA 
HETATM   11  H   UNL     1      -9.191  12.333  65.281  1.00  0.00     0.000 HD 
BRANCH   9  12
HETATM   12  C   UNL     1     -11.622  12.961  65.028  1.00  0.00    -0.332 C  
HETATM   13  H   UNL     1     -12.048  11.186  65.781  1.00  0.00     0.000 HD 
HETATM   14  O   UNL     1     -11.282  11.744  65.718  1.00  0.00    -0.322 OA 
BRANCH  12  15
HETATM   15  C   UNL     1     -12.299  12.658  63.680  1.00  0.00    -0.492 C  
HETATM   16  O   UNL     1     -12.440  13.845  62.887  1.00  0.00    -1.034 OA 
HETATM   17  H   UNL     1     -12.859  13.658  62.054  1.00  0.00     0.000 HD 
ENDBRANCH  12  15
ENDBRANCH   9  12
ENDBRANCH   6   9
ENDBRANCH   3   6
TORSDOF 4
ENDMDL
MODEL       33
REMARK 921   NORMALIZED FREE ENERGY PREDICTED BY IDOCK:   -4.17 KCAL/MOL
REMARK 922        TOTAL FREE ENERGY PREDICTED BY IDOCK:   -6.02 KCAL/MOL
REMARK 923 INTER-LIGAND FREE ENERGY PREDICTED BY IDOCK:   -5.65 KCAL/MOL
REMARK 924 INTRA-LIGAND FREE ENERGY PREDICTED BY IDOCK:   -0.36 KCAL/MOL
REMARK 927      BINDING AFFINITY PREDICTED BY RF-SCORE:    0.00 PKD
ROOT
HETATM    1  C   UNL     1      -9.136  10.746  64.930  1.00  0.00    -0.198 C  
HETATM    2  O   UNL     1      -8.641  11.042  66.018  1.00  0.00    -0.171 OA 
HETATM    3  C   UNL     1     -10.375  11.398  64.349  1.00  0.00    -0.320 C  
HETATM    4  O   UNL     1      -9.977  12.437  63.448  1.00  0.00    -0.542 OA 
HETATM    5  H   UNL     1     -10.753  12.846  63.084  1.00  0.00     0.000 HD 
ENDROOT
BRANCH   3   6
HETATM    6  C   UNL     1     -11.287  11.978  65.439  1.00  0.00    -0.321 C  
HETATM    7  O   UNL     1     -11.219  11.100  66.581  1.00  0.00    -0.257 OA 
HETATM    8  H   UNL     1     -11.784  11.459  67.256  1.00  0.00     0.000 HD 
BRANCH   6   9
HETATM    9  C   UNL     1     -10.968  13.440  65.866  1.00  0.00    -0.274 C  
HETATM   10  O   UNL     1      -9.573  13.713  65.651  1.00  0.00    -0.489 OA 
HETATM   11  H   UNL     1      -9.379  14.606  65.912  1.00  0.00     0.000 HD 
BRANCH   9  12
HETATM   12  C   UNL     1     -11.798  14.555  65.196  1.00  0.00    -0.374 C  
HETATM   13  H   UNL     1     -12.930  14.734  63.587  1.00  0.00     0.000 HD 
HETATM   14  O   UNL     1     -12.419  14.047  64.000  1.00  0.00    -0.682 OA 
BRANCH  12  15
HETATM   15  C   UNL     1     -11.010  15.843  64.902  1.00  0.00    -0.411 C  
HETATM   16  O   UNL     1     -11.491  16.493  63.718  1.00  0.00    -1.615 OA 
HETATM   17  H   UNL     1     -11.003  17.289  63.537  1.00  0.00     0.000 HD 
ENDBRANCH  12  15
ENDBRANCH   9  12
ENDBRANCH   6   9
ENDBRANCH   3   6
TORSDOF 4
ENDMDL
MODEL       34
REMARK 921   NORMALIZED FREE ENERGY PREDICTED BY IDOCK:   -4.16 KCAL/MOL
REMARK 922        TOTAL FREE ENERGY PREDICTED BY IDOCK:   -6.00 KCAL/MOL
REMARK 923 INTER-LIGAND FREE ENERGY PREDICTED BY IDOCK:   -5.78 KCAL/MOL
REMARK 924 INTRA-LIGAND FREE ENERGY PREDICTED BY IDOCK:   -0.22 KCAL/MOL
REMARK 927      BINDING AFFINITY PREDICTED BY RF-SCORE:    0.00 PKD
ROOT
HETATM    1  C   UNL     1     -12.505  12.699  65.097  1.00  0.00    -0.463 C  
HETATM    2  O   UNL     1     -13.109  13.771  65.036  1.00  0.00    -0.751 OA 
HETATM    3  C   UNL     1     -11.431  12.381  66.120  1.00  0.00    -0.379 C  
HETATM    4  O   UNL     1     -12.023  11.666  67.210  1.00  0.00    -0.627 OA 
HETATM    5  H   UNL     1     -11.350  11.467  67.850  1.00  0.00     0.000 HD 
ENDROOT
BRANCH   3   6
HETATM    6  C   UNL     1     -10.739  13.646  66.643  1.00  0.00    -0.280 C  
HETATM    7  O   UNL     1     -10.072  13.305  67.875  1.00  0.00    -0.223 OA 
HETATM    8  H   UNL     1      -9.643  14.089  68.199  1.00  0.00     0.000 HD 
BRANCH   6   9
HETATM    9  C   UNL     1      -9.738  14.314  65.657  1.00  0.00    -0.205 C  
HETATM   10  O   UNL     1      -9.942  13.791  64.333  1.00  0.00    -0.714 OA 
HETATM   11  H   UNL     1      -9.330  14.199  63.731  1.00  0.00     0.000 HD 
BRANCH   9  12
HETATM   12  C   UNL     1      -9.756  15.855  65.587  1.00  0.00    -0.271 C  
HETATM   13  H   UNL     1      -9.305  17.353  66.792  1.00  0.00     0.000 HD 
HETATM   14  O   UNL     1      -9.294  16.404  66.835  1.00  0.00    -0.215 OA 
BRANCH  12  15
HETATM   15  C   UNL     1     -11.117  16.456  65.191  1.00  0.00    -0.170 C  
HETATM   16  O   UNL     1     -11.334  16.374  63.776  1.00  0.00    -1.487 OA 
HETATM   17  H   UNL     1     -12.174  16.745  63.532  1.00  0.00     0.000 HD 
ENDBRANCH  12  15
ENDBRANCH   9  12
ENDBRANCH   6   9
ENDBRANCH   3   6
TORSDOF 4
ENDMDL
MODEL       35
REMARK 921   NORMALIZED FREE ENERGY PREDICTED BY IDOCK:   -4.16 KCAL/MOL
REMARK 922        TOTAL FREE ENERGY PREDICTED BY IDOCK:   -6.00 KCAL/MOL
REMARK 923 INTER-LIGAND FREE ENERGY PREDICTED BY IDOCK:   -5.45 KCAL/MOL
REMARK 924 INTRA-LIGAND FREE ENERGY PREDICTED BY IDOCK:   -0.55 KCAL/MOL
REMARK 927      BINDING AFFINITY PREDICTED BY RF-SCORE:    0.00 PKD
ROOT
HETATM    1  C   UNL     1      -9.150  11.733  68.346  1.00  0.00    -0.176 C  
HETATM    2  O   UNL     1      -9.393  10.579  67.990  1.00  0.00    -0.142 OA 
HETATM    3  C   UNL     1     -10.119  12.891  68.208  1.00  0.00    -0.242 C  
HETATM    4  O   UNL     1     -10.815  13.067  69.446  1.00  0.00    -0.438 OA 
HETATM    5  H   UNL     1     -11.422  13.793  69.359  1.00  0.00     0.000 HD 
ENDROOT
BRANCH   3   6
HETATM    6  C   UNL     1     -11.128  12.667  67.073  1.00  0.00    -0.281 C  
HETATM    7  O   UNL     1     -12.060  11.655  67.507  1.00  0.00    -0.611 OA 
HETATM    8  H   UNL     1     -12.685  11.517  66.804  1.00  0.00     0.000 HD 
BRANCH   6   9
HETATM    9  C   UNL     1     -11.893  13.937  66.602  1.00  0.00    -0.420 C  
HETATM   10  O   UNL     1     -12.216  14.756  67.739  1.00  0.00    -0.582 OA 
HETATM   11  H   UNL     1     -12.684  15.532  67.451  1.00  0.00     0.000 HD 
BRANCH   9  12
HETATM   12  C   UNL     1     -11.195  14.816  65.543  1.00  0.00    -0.346 C  
HETATM   13  H   UNL     1     -10.214  16.529  65.520  1.00  0.00     0.000 HD 
HETATM   14  O   UNL     1     -10.643  15.988  66.172  1.00  0.00    -0.312 OA 
BRANCH  12  15
HETATM   15  C   UNL     1     -12.087  15.199  64.350  1.00  0.00    -0.300 C  
HETATM   16  O   UNL     1     -11.654  16.425  63.745  1.00  0.00    -1.605 OA 
HETATM   17  H   UNL     1     -12.205  16.662  63.008  1.00  0.00     0.000 HD 
ENDBRANCH  12  15
ENDBRANCH   9  12
ENDBRANCH   6   9
ENDBRANCH   3   6
TORSDOF 4
ENDMDL
MODEL       36
REMARK 921   NORMALIZED FREE ENERGY PREDICTED BY IDOCK:   -4.15 KCAL/MOL
REMARK 922        TOTAL FREE ENERGY PREDICTED BY IDOCK:   -5.98 KCAL/MOL
REMARK 923 INTER-LIGAND FREE ENERGY PREDICTED BY IDOCK:   -5.40 KCAL/MOL
REMARK 924 INTRA-LIGAND FREE ENERGY PREDICTED BY IDOCK:   -0.58 KCAL/MOL
REMARK 927      BINDING AFFINITY PREDICTED BY RF-SCORE:    0.00 PKD
ROOT
HETATM    1  C   UNL     1     -10.974  12.938  68.787  1.00  0.00    -0.254 C  
HETATM    2  O   UNL     1     -12.003  13.272  69.377  1.00  0.00    -0.306 OA 
HETATM    3  C   UNL     1     -10.153  13.865  67.912  1.00  0.00    -0.242 C  
HETATM    4  O   UNL     1      -9.074  14.401  68.684  1.00  0.00    -0.194 OA 
HETATM    5  H   UNL     1      -8.560  14.981  68.135  1.00  0.00     0.000 HD 
ENDROOT
BRANCH   3   6
HETATM    6  C   UNL     1     -10.996  15.009  67.332  1.00  0.00    -0.315 C  
HETATM    7  O   UNL     1     -11.313  15.911  68.412  1.00  0.00    -0.346 OA 
HETATM    8  H   UNL     1     -11.835  16.620  68.053  1.00  0.00     0.000 HD 
BRANCH   6   9
HETATM    9  C   UNL     1     -10.341  15.788  66.156  1.00  0.00    -0.320 C  
HETATM   10  O   UNL     1      -8.951  15.434  66.055  1.00  0.00    -0.402 OA 
HETATM   11  H   UNL     1      -8.552  15.910  65.336  1.00  0.00     0.000 HD 
BRANCH   9  12
HETATM   12  C   UNL     1     -10.994  15.625  64.767  1.00  0.00    -0.400 C  
HETATM   13  H   UNL     1     -11.859  16.803  63.439  1.00  0.00     0.000 HD 
HETATM   14  O   UNL     1     -11.457  16.903  64.294  1.00  0.00    -1.142 OA 
BRANCH  12  15
HETATM   15  C   UNL     1     -12.119  14.577  64.714  1.00  0.00    -0.445 C  
HETATM   16  O   UNL     1     -12.221  13.983  63.413  1.00  0.00    -1.039 OA 
HETATM   17  H   UNL     1     -12.917  13.336  63.380  1.00  0.00     0.000 HD 
ENDBRANCH  12  15
ENDBRANCH   9  12
ENDBRANCH   6   9
ENDBRANCH   3   6
TORSDOF 4
ENDMDL
MODEL       37
REMARK 921   NORMALIZED FREE ENERGY PREDICTED BY IDOCK:   -4.12 KCAL/MOL
REMARK 922        TOTAL FREE ENERGY PREDICTED BY IDOCK:   -5.95 KCAL/MOL
REMARK 923 INTER-LIGAND FREE ENERGY PREDICTED BY IDOCK:   -6.16 KCAL/MOL
REMARK 924 INTRA-LIGAND FREE ENERGY PREDICTED BY IDOCK:    0.21 KCAL/MOL
REMARK 927      BINDING AFFINITY PREDICTED BY RF-SCORE:    0.00 PKD
ROOT
HETATM    1  C   UNL     1     -11.557  12.438  68.111  1.00  0.00    -0.341 C  
HETATM    2  O   UNL     1     -12.235  11.427  67.923  1.00  0.00    -0.592 OA 
HETATM    3  C   UNL     1     -11.631  13.687  67.254  1.00  0.00    -0.356 C  
HETATM    4  O   UNL     1     -12.508  14.630  67.878  1.00  0.00    -0.586 OA 
HETATM    5  H   UNL     1     -12.554  15.412  67.342  1.00  0.00     0.000 HD 
ENDROOT
BRANCH   3   6
HETATM    6  C   UNL     1     -12.121  13.384  65.832  1.00  0.00    -0.439 C  
HETATM    7  O   UNL     1     -13.298  14.184  65.593  1.00  0.00    -0.697 OA 
HETATM    8  H   UNL     1     -13.601  13.996  64.712  1.00  0.00     0.000 HD 
BRANCH   6   9
HETATM    9  C   UNL     1     -11.076  13.615  64.703  1.00  0.00    -0.381 C  
HETATM   10  O   UNL     1     -11.740  13.654  63.429  1.00  0.00    -0.674 OA 
HETATM   11  H   UNL     1     -11.101  13.795  62.740  1.00  0.00     0.000 HD 
BRANCH   9  12
HETATM   12  C   UNL     1     -10.180  14.865  64.832  1.00  0.00    -0.251 C  
HETATM   13  H   UNL     1      -8.832  15.541  66.106  1.00  0.00     0.000 HD 
HETATM   14  O   UNL     1      -9.383  14.771  66.027  1.00  0.00    -0.284 OA 
BRANCH  12  15
HETATM   15  C   UNL     1     -10.944  16.200  64.783  1.00  0.00    -0.313 C  
HETATM   16  O   UNL     1     -11.676  16.339  63.558  1.00  0.00    -1.247 OA 
HETATM   17  H   UNL     1     -12.147  17.164  63.527  1.00  0.00     0.000 HD 
ENDBRANCH  12  15
ENDBRANCH   9  12
ENDBRANCH   6   9
ENDBRANCH   3   6
TORSDOF 4
ENDMDL
MODEL       38
REMARK 921   NORMALIZED FREE ENERGY PREDICTED BY IDOCK:   -4.11 KCAL/MOL
REMARK 922        TOTAL FREE ENERGY PREDICTED BY IDOCK:   -5.94 KCAL/MOL
REMARK 923 INTER-LIGAND FREE ENERGY PREDICTED BY IDOCK:   -5.25 KCAL/MOL
REMARK 924 INTRA-LIGAND FREE ENERGY PREDICTED BY IDOCK:   -0.69 KCAL/MOL
REMARK 927      BINDING AFFINITY PREDICTED BY RF-SCORE:    0.00 PKD
ROOT
HETATM    1  C   UNL     1     -12.194  13.090  63.386  1.00  0.00    -0.472 C  
HETATM    2  O   UNL     1     -12.971  12.139  63.488  1.00  0.00    -0.794 OA 
HETATM    3  C   UNL     1     -11.401  13.672  64.540  1.00  0.00    -0.375 C  
HETATM    4  O   UNL     1     -10.089  13.100  64.540  1.00  0.00    -0.561 OA 
HETATM    5  H   UNL     1      -9.592  13.465  65.263  1.00  0.00     0.000 HD 
ENDROOT
BRANCH   3   6
HETATM    6  C   UNL     1     -12.079  13.417  65.893  1.00  0.00    -0.439 C  
HETATM    7  O   UNL     1     -12.043  11.996  66.142  1.00  0.00    -0.582 OA 
HETATM    8  H   UNL     1     -12.463  11.838  66.980  1.00  0.00     0.000 HD 
BRANCH   6   9
HETATM    9  C   UNL     1     -11.469  14.188  67.099  1.00  0.00    -0.353 C  
HETATM   10  O   UNL     1     -12.499  14.476  68.060  1.00  0.00    -0.598 OA 
HETATM   11  H   UNL     1     -12.127  14.947  68.796  1.00  0.00     0.000 HD 
BRANCH   9  12
HETATM   12  C   UNL     1     -10.288  13.515  67.829  1.00  0.00    -0.241 C  
HETATM   13  H   UNL     1     -10.047  12.013  69.089  1.00  0.00     0.000 HD 
HETATM   14  O   UNL     1     -10.773  12.428  68.639  1.00  0.00    -0.227 OA 
BRANCH  12  15
HETATM   15  C   UNL     1      -9.424  14.478  68.661  1.00  0.00    -0.205 C  
HETATM   16  O   UNL     1     -10.145  14.981  69.794  1.00  0.00    -0.397 OA 
HETATM   17  H   UNL     1      -9.611  15.577  70.308  1.00  0.00     0.000 HD 
ENDBRANCH  12  15
ENDBRANCH   9  12
ENDBRANCH   6   9
ENDBRANCH   3   6
TORSDOF 4
ENDMDL
MODEL       39
REMARK 921   NORMALIZED FREE ENERGY PREDICTED BY IDOCK:   -4.10 KCAL/MOL
REMARK 922        TOTAL FREE ENERGY PREDICTED BY IDOCK:   -5.93 KCAL/MOL
REMARK 923 INTER-LIGAND FREE ENERGY PREDICTED BY IDOCK:   -5.35 KCAL/MOL
REMARK 924 INTRA-LIGAND FREE ENERGY PREDICTED BY IDOCK:   -0.58 KCAL/MOL
REMARK 927      BINDING AFFINITY PREDICTED BY RF-SCORE:    0.00 PKD
ROOT
HETATM    1  C   UNL     1     -11.143  11.406  68.561  1.00  0.00    -0.235 C  
HETATM    2  O   UNL     1     -12.344  11.284  68.811  1.00  0.00    -0.518 OA 
HETATM    3  C   UNL     1     -10.532  12.612  67.876  1.00  0.00    -0.218 C  
HETATM    4  O   UNL     1     -10.020  13.504  68.871  1.00  0.00    -0.410 OA 
HETATM    5  H   UNL     1      -9.637  14.260  68.441  1.00  0.00     0.000 HD 
ENDROOT
BRANCH   3   6
HETATM    6  C   UNL     1     -11.547  13.349  66.991  1.00  0.00    -0.356 C  
HETATM    7  O   UNL     1     -12.374  14.160  67.852  1.00  0.00    -0.553 OA 
HETATM    8  H   UNL     1     -13.002  14.616  67.304  1.00  0.00     0.000 HD 
BRANCH   6   9
HETATM    9  C   UNL     1     -10.934  14.222  65.859  1.00  0.00    -0.304 C  
HETATM   10  O   UNL     1      -9.499  14.152  65.918  1.00  0.00    -0.484 OA 
HETATM   11  H   UNL     1      -9.124  14.685  65.226  1.00  0.00     0.000 HD 
BRANCH   9  12
HETATM   12  C   UNL     1     -11.384  13.904  64.417  1.00  0.00    -0.341 C  
HETATM   13  H   UNL     1     -12.729  14.597  63.148  1.00  0.00     0.000 HD 
HETATM   14  O   UNL     1     -12.451  14.792  64.035  1.00  0.00    -0.803 OA 
BRANCH  12  15
HETATM   15  C   UNL     1     -11.780  12.436  64.185  1.00  0.00    -0.400 C  
HETATM   16  O   UNL     1     -12.910  12.331  63.308  1.00  0.00    -0.725 OA 
HETATM   17  H   UNL     1     -13.155  11.423  63.165  1.00  0.00     0.000 HD 
ENDBRANCH  12  15
ENDBRANCH   9  12
ENDBRANCH   6   9
ENDBRANCH   3   6
TORSDOF 4
ENDMDL
MODEL       40
REMARK 921   NORMALIZED FREE ENERGY PREDICTED BY IDOCK:   -4.05 KCAL/MOL
REMARK 922        TOTAL FREE ENERGY PREDICTED BY IDOCK:   -5.86 KCAL/MOL
REMARK 923 INTER-LIGAND FREE ENERGY PREDICTED BY IDOCK:   -5.47 KCAL/MOL
REMARK 924 INTRA-LIGAND FREE ENERGY PREDICTED BY IDOCK:   -0.39 KCAL/MOL
REMARK 927      BINDING AFFINITY PREDICTED BY RF-SCORE:    0.00 PKD
ROOT
HETATM    1  C   UNL     1     -10.674  11.024  68.247  1.00  0.00    -0.196 C  
HETATM    2  O   UNL     1     -11.772  10.634  67.847  1.00  0.00    -0.506 OA 
HETATM    3  C   UNL     1     -10.115  12.410  67.989  1.00  0.00    -0.214 C  
HETATM    4  O   UNL     1     -10.391  13.242  69.121  1.00  0.00    -0.430 OA 
HETATM    5  H   UNL     1     -10.040  14.110  68.959  1.00  0.00     0.000 HD 
ENDROOT
BRANCH   3   6
HETATM    6  C   UNL     1     -10.705  13.044  66.722  1.00  0.00    -0.262 C  
HETATM    7  O   UNL     1     -10.439  12.152  65.620  1.00  0.00    -0.240 OA 
HETATM    8  H   UNL     1     -10.804  12.545  64.835  1.00  0.00     0.000 HD 
BRANCH   6   9
HETATM    9  C   UNL     1     -12.223  13.378  66.789  1.00  0.00    -0.312 C  
HETATM   10  O   UNL     1     -12.448  14.414  67.760  1.00  0.00    -0.588 OA 
HETATM   11  H   UNL     1     -13.375  14.617  67.801  1.00  0.00     0.000 HD 
BRANCH   9  12
HETATM   12  C   UNL     1     -12.903  13.786  65.466  1.00  0.00    -0.419 C  
HETATM   13  H   UNL     1     -13.657  12.860  63.893  1.00  0.00     0.000 HD 
HETATM   14  O   UNL     1     -13.239  12.609  64.708  1.00  0.00    -0.846 OA 
BRANCH  12  15
HETATM   15  C   UNL     1     -12.088  14.775  64.613  1.00  0.00    -0.427 C  
HETATM   16  O   UNL     1     -12.319  14.572  63.213  1.00  0.00    -1.033 OA 
HETATM   17  H   UNL     1     -11.816  15.183  62.686  1.00  0.00     0.000 HD 
ENDBRANCH  12  15
ENDBRANCH   9  12
ENDBRANCH   6   9
ENDBRANCH   3   6
TORSDOF 4
ENDMDL
MODEL       41
REMARK 921   NORMALIZED FREE ENERGY PREDICTED BY IDOCK:   -4.04 KCAL/MOL
REMARK 922        TOTAL FREE ENERGY PREDICTED BY IDOCK:   -5.85 KCAL/MOL
REMARK 923 INTER-LIGAND FREE ENERGY PREDICTED BY IDOCK:   -5.37 KCAL/MOL
REMARK 924 INTRA-LIGAND FREE ENERGY PREDICTED BY IDOCK:   -0.48 KCAL/MOL
REMARK 927      BINDING AFFINITY PREDICTED BY RF-SCORE:    0.00 PKD
ROOT
HETATM    1  C   UNL     1     -11.189  15.087  67.660  1.00  0.00    -0.326 C  
HETATM    2  O   UNL     1     -11.928  14.209  67.213  1.00  0.00    -0.397 OA 
HETATM    3  C   UNL     1     -10.847  15.250  69.128  1.00  0.00    -0.250 C  
HETATM    4  O   UNL     1      -9.596  14.606  69.390  1.00  0.00    -0.400 OA 
HETATM    5  H   UNL     1      -9.382  14.708  70.310  1.00  0.00     0.000 HD 
ENDROOT
BRANCH   3   6
HETATM    6  C   UNL     1     -11.933  14.666  70.042  1.00  0.00    -0.320 C  
HETATM    7  O   UNL     1     -11.657  13.260  70.210  1.00  0.00    -0.514 OA 
HETATM    8  H   UNL     1     -12.329  12.898  70.776  1.00  0.00     0.000 HD 
BRANCH   6   9
HETATM    9  C   UNL     1     -12.077  15.354  71.429  1.00  0.00    -0.373 C  
HETATM   10  O   UNL     1     -11.449  16.647  71.396  1.00  0.00    -0.541 OA 
HETATM   11  H   UNL     1     -11.537  17.068  72.243  1.00  0.00     0.000 HD 
BRANCH   9  12
HETATM   12  C   UNL     1     -13.510  15.517  71.979  1.00  0.00    -0.482 C  
HETATM   13  H   UNL     1     -14.343  16.160  73.649  1.00  0.00     0.000 HD 
HETATM   14  O   UNL     1     -13.461  16.060  73.311  1.00  0.00    -0.598 OA 
BRANCH  12  15
HETATM   15  C   UNL     1     -14.354  14.231  71.939  1.00  0.00    -0.513 C  
HETATM   16  O   UNL     1     -13.695  13.152  72.616  1.00  0.00    -0.651 OA 
HETATM   17  H   UNL     1     -14.216  12.357  72.591  1.00  0.00     0.000 HD 
ENDBRANCH  12  15
ENDBRANCH   9  12
ENDBRANCH   6   9
ENDBRANCH   3   6
TORSDOF 4
ENDMDL
MODEL       42
REMARK 921   NORMALIZED FREE ENERGY PREDICTED BY IDOCK:   -4.01 KCAL/MOL
REMARK 922        TOTAL FREE ENERGY PREDICTED BY IDOCK:   -5.81 KCAL/MOL
REMARK 923 INTER-LIGAND FREE ENERGY PREDICTED BY IDOCK:   -5.30 KCAL/MOL
REMARK 924 INTRA-LIGAND FREE ENERGY PREDICTED BY IDOCK:   -0.52 KCAL/MOL
REMARK 927      BINDING AFFINITY PREDICTED BY RF-SCORE:    0.00 PKD
ROOT
HETATM    1  C   UNL     1     -12.058  12.746  63.338  1.00  0.00    -0.534 C  
HETATM    2  O   UNL     1     -13.090  12.140  63.634  1.00  0.00    -0.787 OA 
HETATM    3  C   UNL     1     -11.014  13.194  64.341  1.00  0.00    -0.390 C  
HETATM    4  O   UNL     1      -9.966  12.219  64.391  1.00  0.00    -0.424 OA 
HETATM    5  H   UNL     1      -9.312  12.500  65.019  1.00  0.00     0.000 HD 
ENDROOT
BRANCH   3   6
HETATM    6  C   UNL     1     -11.606  13.391  65.743  1.00  0.00    -0.332 C  
HETATM    7  O   UNL     1     -12.096  12.112  66.197  1.00  0.00    -0.621 OA 
HETATM    8  H   UNL     1     -12.463  12.235  67.065  1.00  0.00     0.000 HD 
BRANCH   6   9
HETATM    9  C   UNL     1     -10.637  14.000  66.796  1.00  0.00    -0.277 C  
HETATM   10  O   UNL     1      -9.389  14.338  66.167  1.00  0.00    -0.445 OA 
HETATM   11  H   UNL     1      -8.797  14.710  66.810  1.00  0.00     0.000 HD 
BRANCH   9  12
HETATM   12  C   UNL     1     -11.144  15.230  67.577  1.00  0.00    -0.324 C  
HETATM   13  H   UNL     1     -10.604  17.117  67.793  1.00  0.00     0.000 HD 
HETATM   14  O   UNL     1     -10.292  16.360  67.312  1.00  0.00    -0.278 OA 
BRANCH  12  15
HETATM   15  C   UNL     1     -11.298  15.000  69.091  1.00  0.00    -0.296 C  
HETATM   16  O   UNL     1     -12.673  15.064  69.493  1.00  0.00    -0.588 OA 
HETATM   17  H   UNL     1     -12.768  14.923  70.428  1.00  0.00     0.000 HD 
ENDBRANCH  12  15
ENDBRANCH   9  12
ENDBRANCH   6   9
ENDBRANCH   3   6
TORSDOF 4
ENDMDL
MODEL       43
REMARK 921   NORMALIZED FREE ENERGY PREDICTED BY IDOCK:   -3.96 KCAL/MOL
REMARK 922        TOTAL FREE ENERGY PREDICTED BY IDOCK:   -5.75 KCAL/MOL
REMARK 923 INTER-LIGAND FREE ENERGY PREDICTED BY IDOCK:   -5.24 KCAL/MOL
REMARK 924 INTRA-LIGAND FREE ENERGY PREDICTED BY IDOCK:   -0.51 KCAL/MOL
REMARK 927      BINDING AFFINITY PREDICTED BY RF-SCORE:    0.00 PKD
ROOT
HETATM    1  C   UNL     1     -11.626  12.212  68.601  1.00  0.00    -0.321 C  
HETATM    2  O   UNL     1     -12.141  11.622  67.650  1.00  0.00    -0.615 OA 
HETATM    3  C   UNL     1     -11.433  13.714  68.670  1.00  0.00    -0.307 C  
HETATM    4  O   UNL     1     -12.520  14.291  69.401  1.00  0.00    -0.513 OA 
HETATM    5  H   UNL     1     -12.399  15.232  69.445  1.00  0.00     0.000 HD 
ENDROOT
BRANCH   3   6
HETATM    6  C   UNL     1     -11.349  14.350  67.276  1.00  0.00    -0.342 C  
HETATM    7  O   UNL     1     -12.639  14.204  66.648  1.00  0.00    -0.549 OA 
HETATM    8  H   UNL     1     -12.587  14.598  65.784  1.00  0.00     0.000 HD 
BRANCH   6   9
HETATM    9  C   UNL     1     -10.905  15.841  67.250  1.00  0.00    -0.298 C  
HETATM   10  O   UNL     1     -10.048  16.110  68.373  1.00  0.00    -0.226 OA 
HETATM   11  H   UNL     1      -9.776  17.021  68.357  1.00  0.00     0.000 HD 
BRANCH   9  12
HETATM   12  C   UNL     1     -10.205  16.335  65.966  1.00  0.00    -0.358 C  
HETATM   13  H   UNL     1      -8.554  17.322  65.519  1.00  0.00     0.000 HD 
HETATM   14  O   UNL     1      -8.985  17.017  66.309  1.00  0.00    -0.300 OA 
BRANCH  12  15
HETATM   15  C   UNL     1     -11.089  17.209  65.059  1.00  0.00     0.195 C  
HETATM   16  O   UNL     1     -11.483  16.503  63.875  1.00  0.00    -1.608 OA 
HETATM   17  H   UNL     1     -12.029  17.043  63.315  1.00  0.00     0.000 HD 
ENDBRANCH  12  15
ENDBRANCH   9  12
ENDBRANCH   6   9
ENDBRANCH   3   6
TORSDOF 4
ENDMDL
MODEL       44
REMARK 921   NORMALIZED FREE ENERGY PREDICTED BY IDOCK:   -3.95 KCAL/MOL
REMARK 922        TOTAL FREE ENERGY PREDICTED BY IDOCK:   -5.74 KCAL/MOL
REMARK 923 INTER-LIGAND FREE ENERGY PREDICTED BY IDOCK:   -5.02 KCAL/MOL
REMARK 924 INTRA-LIGAND FREE ENERGY PREDICTED BY IDOCK:   -0.72 KCAL/MOL
REMARK 927      BINDING AFFINITY PREDICTED BY RF-SCORE:    0.00 PKD
ROOT
HETATM    1  C   UNL     1     -10.767  17.063  65.768  1.00  0.00    -0.142 C  
HETATM    2  O   UNL     1     -11.158  17.260  64.616  1.00  0.00    -1.052 OA 
HETATM    3  C   UNL     1     -10.363  15.707  66.312  1.00  0.00    -0.306 C  
HETATM    4  O   UNL     1      -8.941  15.571  66.219  1.00  0.00    -0.297 OA 
HETATM    5  H   UNL     1      -8.688  14.722  66.560  1.00  0.00     0.000 HD 
ENDROOT
BRANCH   3   6
HETATM    6  C   UNL     1     -11.044  14.557  65.559  1.00  0.00    -0.339 C  
HETATM    7  O   UNL     1     -10.132  14.096  64.541  1.00  0.00    -0.645 OA 
HETATM    8  H   UNL     1     -10.554  13.383  64.075  1.00  0.00     0.000 HD 
BRANCH   6   9
HETATM    9  C   UNL     1     -11.509  13.364  66.444  1.00  0.00    -0.329 C  
HETATM   10  O   UNL     1     -12.188  12.393  65.630  1.00  0.00    -0.599 OA 
HETATM   11  H   UNL     1     -12.471  11.665  66.170  1.00  0.00     0.000 HD 
BRANCH   9  12
HETATM   12  C   UNL     1     -10.419  12.644  67.266  1.00  0.00    -0.228 C  
HETATM   13  H   UNL     1      -8.550  12.073  66.984  1.00  0.00     0.000 HD 
HETATM   14  O   UNL     1      -9.221  12.516  66.478  1.00  0.00    -0.232 OA 
BRANCH  12  15
HETATM   15  C   UNL     1     -10.852  11.282  67.835  1.00  0.00    -0.228 C  
HETATM   16  O   UNL     1     -12.237  11.284  68.204  1.00  0.00    -0.626 OA 
HETATM   17  H   UNL     1     -12.504  10.443  68.556  1.00  0.00     0.000 HD 
ENDBRANCH  12  15
ENDBRANCH   9  12
ENDBRANCH   6   9
ENDBRANCH   3   6
TORSDOF 4
ENDMDL
MODEL       45
REMARK 921   NORMALIZED FREE ENERGY PREDICTED BY IDOCK:   -3.95 KCAL/MOL
REMARK 922        TOTAL FREE ENERGY PREDICTED BY IDOCK:   -5.74 KCAL/MOL
REMARK 923 INTER-LIGAND FREE ENERGY PREDICTED BY IDOCK:   -4.90 KCAL/MOL
REMARK 924 INTRA-LIGAND FREE ENERGY PREDICTED BY IDOCK:   -0.84 KCAL/MOL
REMARK 927      BINDING AFFINITY PREDICTED BY RF-SCORE:    0.00 PKD
ROOT
HETATM    1  C   UNL     1     -10.444  13.927  67.872  1.00  0.00    -0.242 C  
HETATM    2  O   UNL     1      -9.482  13.187  67.662  1.00  0.00    -0.194 OA 
HETATM    3  C   UNL     1     -11.294  14.552  66.783  1.00  0.00    -0.352 C  
HETATM    4  O   UNL     1     -12.456  13.743  66.576  1.00  0.00    -0.404 OA 
HETATM    5  H   UNL     1     -12.988  14.135  65.894  1.00  0.00     0.000 HD 
ENDROOT
BRANCH   3   6
HETATM    6  C   UNL     1     -10.524  14.702  65.464  1.00  0.00    -0.356 C  
HETATM    7  O   UNL     1      -9.163  15.055  65.787  1.00  0.00    -0.478 OA 
HETATM    8  H   UNL     1      -8.686  15.147  64.970  1.00  0.00     0.000 HD 
BRANCH   6   9
HETATM    9  C   UNL     1     -10.549  13.456  64.533  1.00  0.00    -0.425 C  
HETATM   10  O   UNL     1     -10.578  12.258  65.329  1.00  0.00    -0.270 OA 
HETATM   11  H   UNL     1     -10.594  11.497  64.760  1.00  0.00     0.000 HD 
BRANCH   9  12
HETATM   12  C   UNL     1     -11.690  13.387  63.496  1.00  0.00    -0.251 C  
HETATM   13  H   UNL     1     -13.296  14.448  63.056  1.00  0.00     0.000 HD 
HETATM   14  O   UNL     1     -12.593  14.490  63.693  1.00  0.00    -0.798 OA 
BRANCH  12  15
HETATM   15  C   UNL     1     -12.451  12.049  63.478  1.00  0.00    -0.540 C  
HETATM   16  O   UNL     1     -13.533  12.050  64.419  1.00  0.00    -0.591 OA 
HETATM   17  H   UNL     1     -14.002  11.223  64.408  1.00  0.00     0.000 HD 
ENDBRANCH  12  15
ENDBRANCH   9  12
ENDBRANCH   6   9
ENDBRANCH   3   6
TORSDOF 4
ENDMDL
MODEL       46
REMARK 921   NORMALIZED FREE ENERGY PREDICTED BY IDOCK:   -3.95 KCAL/MOL
REMARK 922        TOTAL FREE ENERGY PREDICTED BY IDOCK:   -5.74 KCAL/MOL
REMARK 923 INTER-LIGAND FREE ENERGY PREDICTED BY IDOCK:   -5.14 KCAL/MOL
REMARK 924 INTRA-LIGAND FREE ENERGY PREDICTED BY IDOCK:   -0.60 KCAL/MOL
REMARK 927      BINDING AFFINITY PREDICTED BY RF-SCORE:    0.00 PKD
ROOT
HETATM    1  C   UNL     1     -11.382  15.351  68.151  1.00  0.00    -0.348 C  
HETATM    2  O   UNL     1     -10.224  15.618  67.825  1.00  0.00    -0.245 OA 
HETATM    3  C   UNL     1     -11.953  13.947  68.202  1.00  0.00    -0.350 C  
HETATM    4  O   UNL     1     -11.872  13.459  69.545  1.00  0.00    -0.298 OA 
HETATM    5  H   UNL     1     -12.230  12.579  69.576  1.00  0.00     0.000 HD 
ENDROOT
BRANCH   3   6
HETATM    6  C   UNL     1     -11.216  12.990  67.256  1.00  0.00    -0.289 C  
HETATM    7  O   UNL     1     -11.781  11.675  67.434  1.00  0.00    -0.556 OA 
HETATM    8  H   UNL     1     -11.324  11.082  66.848  1.00  0.00     0.000 HD 
BRANCH   6   9
HETATM    9  C   UNL     1     -11.243  13.388  65.752  1.00  0.00    -0.290 C  
HETATM   10  O   UNL     1      -9.923  13.771  65.329  1.00  0.00    -0.489 OA 
HETATM   11  H   UNL     1      -9.940  14.014  64.411  1.00  0.00     0.000 HD 
BRANCH   9  12
HETATM   12  C   UNL     1     -11.791  12.335  64.766  1.00  0.00    -0.364 C  
HETATM   13  H   UNL     1     -11.141  10.661  63.944  1.00  0.00     0.000 HD 
HETATM   14  O   UNL     1     -10.804  11.309  64.551  1.00  0.00    -0.329 OA 
BRANCH  12  15
HETATM   15  C   UNL     1     -12.281  12.916  63.427  1.00  0.00    -0.490 C  
HETATM   16  O   UNL     1     -12.407  14.342  63.491  1.00  0.00    -1.091 OA 
HETATM   17  H   UNL     1     -12.711  14.701  62.664  1.00  0.00     0.000 HD 
ENDBRANCH  12  15
ENDBRANCH   9  12
ENDBRANCH   6   9
ENDBRANCH   3   6
TORSDOF 4
ENDMDL
MODEL       47
REMARK 921   NORMALIZED FREE ENERGY PREDICTED BY IDOCK:   -3.95 KCAL/MOL
REMARK 922        TOTAL FREE ENERGY PREDICTED BY IDOCK:   -5.74 KCAL/MOL
REMARK 923 INTER-LIGAND FREE ENERGY PREDICTED BY IDOCK:   -5.14 KCAL/MOL
REMARK 924 INTRA-LIGAND FREE ENERGY PREDICTED BY IDOCK:   -0.60 KCAL/MOL
REMARK 927      BINDING AFFINITY PREDICTED BY RF-SCORE:    0.00 PKD
ROOT
HETATM    1  C   UNL     1     -12.244  13.059  65.241  1.00  0.00    -0.466 C  
HETATM    2  O   UNL     1     -13.273  12.706  64.661  1.00  0.00    -0.828 OA 
HETATM    3  C   UNL     1     -10.850  12.599  64.863  1.00  0.00    -0.298 C  
HETATM    4  O   UNL     1     -10.248  13.583  64.015  1.00  0.00    -0.723 OA 
HETATM    5  H   UNL     1      -9.374  13.294  63.778  1.00  0.00     0.000 HD 
ENDROOT
BRANCH   3   6
HETATM    6  C   UNL     1     -10.864  11.239  64.152  1.00  0.00    -0.337 C  
HETATM    7  O   UNL     1     -11.454  11.430  62.850  1.00  0.00    -0.827 OA 
HETATM    8  H   UNL     1     -11.462  10.588  62.410  1.00  0.00     0.000 HD 
BRANCH   6   9
HETATM    9  C   UNL     1      -9.478  10.544  64.017  1.00  0.00    -0.289 C  
HETATM   10  O   UNL     1      -8.634  11.314  63.144  1.00  0.00    -0.436 OA 
HETATM   11  H   UNL     1      -7.788  10.889  63.062  1.00  0.00     0.000 HD 
BRANCH   9  12
HETATM   12  C   UNL     1      -8.711  10.267  65.327  1.00  0.00    -0.172 C  
HETATM   13  H   UNL     1      -6.859   9.806  65.836  1.00  0.00     0.000 HD 
HETATM   14  O   UNL     1      -7.332   9.977  65.030  1.00  0.00    -0.129 OA 
BRANCH  12  15
HETATM   15  C   UNL     1      -9.329   9.164  66.203  1.00  0.00    -0.228 C  
HETATM   16  O   UNL     1      -9.349   7.903  65.520  1.00  0.00    -0.401 OA 
HETATM   17  H   UNL     1      -9.731   7.221  66.061  1.00  0.00     0.000 HD 
ENDBRANCH  12  15
ENDBRANCH   9  12
ENDBRANCH   6   9
ENDBRANCH   3   6
TORSDOF 4
ENDMDL
MODEL       48
REMARK 921   NORMALIZED FREE ENERGY PREDICTED BY IDOCK:   -3.93 KCAL/MOL
REMARK 922        TOTAL FREE ENERGY PREDICTED BY IDOCK:   -5.71 KCAL/MOL
REMARK 923 INTER-LIGAND FREE ENERGY PREDICTED BY IDOCK:   -5.33 KCAL/MOL
REMARK 924 INTRA-LIGAND FREE ENERGY PREDICTED BY IDOCK:   -0.38 KCAL/MOL
REMARK 927      BINDING AFFINITY PREDICTED BY RF-SCORE:    0.00 PKD
ROOT
HETATM    1  C   UNL     1      -8.134  17.879  67.679  1.00  0.00    -0.224 C  
HETATM    2  O   UNL     1      -7.623  17.297  66.721  1.00  0.00    -0.192 OA 
HETATM    3  C   UNL     1      -9.610  17.826  68.022  1.00  0.00    -0.291 C  
HETATM    4  O   UNL     1      -9.822  16.819  69.017  1.00  0.00    -0.259 OA 
HETATM    5  H   UNL     1     -10.746  16.786  69.232  1.00  0.00     0.000 HD 
ENDROOT
BRANCH   3   6
HETATM    6  C   UNL     1     -10.478  17.531  66.792  1.00  0.00    -0.270 C  
HETATM    7  O   UNL     1     -10.019  18.376  65.717  1.00  0.00    -0.523 OA 
HETATM    8  H   UNL     1     -10.557  18.193  64.955  1.00  0.00     0.000 HD 
BRANCH   6   9
HETATM    9  C   UNL     1     -10.501  16.044  66.334  1.00  0.00    -0.309 C  
HETATM   10  O   UNL     1     -11.399  15.294  67.169  1.00  0.00    -0.323 OA 
HETATM   11  H   UNL     1     -11.412  14.386  66.889  1.00  0.00     0.000 HD 
BRANCH   9  12
HETATM   12  C   UNL     1     -10.862  15.778  64.857  1.00  0.00    -0.413 C  
HETATM   13  H   UNL     1     -11.785  16.749  63.407  1.00  0.00     0.000 HD 
HETATM   14  O   UNL     1     -11.562  16.913  64.316  1.00  0.00    -1.032 OA 
BRANCH  12  15
HETATM   15  C   UNL     1     -11.654  14.480  64.623  1.00  0.00    -0.408 C  
HETATM   16  O   UNL     1     -12.490  14.579  63.462  1.00  0.00    -1.089 OA 
HETATM   17  H   UNL     1     -12.980  13.777  63.317  1.00  0.00     0.000 HD 
ENDBRANCH  12  15
ENDBRANCH   9  12
ENDBRANCH   6   9
ENDBRANCH   3   6
TORSDOF 4
ENDMDL
MODEL       49
REMARK 921   NORMALIZED FREE ENERGY PREDICTED BY IDOCK:   -3.93 KCAL/MOL
REMARK 922        TOTAL FREE ENERGY PREDICTED BY IDOCK:   -5.71 KCAL/MOL
REMARK 923 INTER-LIGAND FREE ENERGY PREDICTED BY IDOCK:   -5.14 KCAL/MOL
REMARK 924 INTRA-LIGAND FREE ENERGY PREDICTED BY IDOCK:   -0.57 KCAL/MOL
REMARK 927      BINDING AFFINITY PREDICTED BY RF-SCORE:    0.00 PKD
ROOT
HETATM    1  C   UNL     1     -12.453  13.823  65.127  1.00  0.00    -0.450 C  
HETATM    2  O   UNL     1     -13.117  12.817  64.867  1.00  0.00    -0.833 OA 
HETATM    3  C   UNL     1     -11.616  13.992  66.379  1.00  0.00    -0.369 C  
HETATM    4  O   UNL     1     -10.259  13.646  66.083  1.00  0.00    -0.289 OA 
HETATM    5  H   UNL     1      -9.734  13.752  66.868  1.00  0.00     0.000 HD 
ENDROOT
BRANCH   3   6
HETATM    6  C   UNL     1     -12.131  13.130  67.539  1.00  0.00    -0.248 C  
HETATM    7  O   UNL     1     -11.923  11.747  67.185  1.00  0.00    -0.617 OA 
HETATM    8  H   UNL     1     -12.242  11.213  67.904  1.00  0.00     0.000 HD 
BRANCH   6   9
HETATM    9  C   UNL     1     -11.494  13.431  68.926  1.00  0.00    -0.304 C  
HETATM   10  O   UNL     1     -10.085  13.148  68.884  1.00  0.00    -0.419 OA 
HETATM   11  H   UNL     1      -9.696  13.332  69.731  1.00  0.00     0.000 HD 
BRANCH   9  12
HETATM   12  C   UNL     1     -11.694  14.854  69.488  1.00  0.00    -0.320 C  
HETATM   13  H   UNL     1     -10.537  16.334  70.095  1.00  0.00     0.000 HD 
HETATM   14  O   UNL     1     -10.414  15.459  69.749  1.00  0.00    -0.260 OA 
BRANCH  12  15
HETATM   15  C   UNL     1     -12.600  14.924  70.730  1.00  0.00    -0.354 C  
HETATM   16  O   UNL     1     -13.605  15.937  70.589  1.00  0.00    -0.679 OA 
HETATM   17  H   UNL     1     -14.164  15.980  71.356  1.00  0.00     0.000 HD 
ENDBRANCH  12  15
ENDBRANCH   9  12
ENDBRANCH   6   9
ENDBRANCH   3   6
TORSDOF 4
ENDMDL
MODEL       50
REMARK 921   NORMALIZED FREE ENERGY PREDICTED BY IDOCK:   -3.91 KCAL/MOL
REMARK 922        TOTAL FREE ENERGY PREDICTED BY IDOCK:   -5.69 KCAL/MOL
REMARK 923 INTER-LIGAND FREE ENERGY PREDICTED BY IDOCK:   -5.22 KCAL/MOL
REMARK 924 INTRA-LIGAND FREE ENERGY PREDICTED BY IDOCK:   -0.47 KCAL/MOL
REMARK 927      BINDING AFFINITY PREDICTED BY RF-SCORE:    0.00 PKD
ROOT
HETATM    1  C   UNL     1     -12.475  12.129  63.367  1.00  0.00    -0.512 C  
HETATM    2  O   UNL     1     -13.312  12.238  64.265  1.00  0.00    -0.777 OA 
HETATM    3  C   UNL     1     -10.976  12.116  63.594  1.00  0.00    -0.461 C  
HETATM    4  O   UNL     1     -10.524  10.759  63.650  1.00  0.00    -0.509 OA 
HETATM    5  H   UNL     1      -9.585  10.751  63.792  1.00  0.00     0.000 HD 
ENDROOT
BRANCH   3   6
HETATM    6  C   UNL     1     -10.581  12.848  64.884  1.00  0.00    -0.323 C  
HETATM    7  O   UNL     1      -9.378  12.233  65.388  1.00  0.00    -0.435 OA 
HETATM    8  H   UNL     1      -9.133  12.687  66.187  1.00  0.00     0.000 HD 
BRANCH   6   9
HETATM    9  C   UNL     1     -10.381  14.384  64.743  1.00  0.00    -0.320 C  
HETATM   10  O   UNL     1     -11.584  14.984  64.233  1.00  0.00    -0.631 OA 
HETATM   11  H   UNL     1     -11.461  15.923  64.147  1.00  0.00     0.000 HD 
BRANCH   9  12
HETATM   12  C   UNL     1      -9.949  15.148  66.013  1.00  0.00    -0.311 C  
HETATM   13  H   UNL     1      -9.653  14.716  67.917  1.00  0.00     0.000 HD 
HETATM   14  O   UNL     1      -9.918  14.246  67.135  1.00  0.00    -0.248 OA 
BRANCH  12  15
HETATM   15  C   UNL     1     -10.802  16.389  66.327  1.00  0.00    -0.066 C  
HETATM   16  O   UNL     1     -10.416  17.508  65.518  1.00  0.00    -0.628 OA 
HETATM   17  H   UNL     1     -10.943  18.275  65.712  1.00  0.00     0.000 HD 
ENDBRANCH  12  15
ENDBRANCH   9  12
ENDBRANCH   6   9
ENDBRANCH   3   6
TORSDOF 4
ENDMDL
MODEL       51
REMARK 921   NORMALIZED FREE ENERGY PREDICTED BY IDOCK:   -3.90 KCAL/MOL
REMARK 922        TOTAL FREE ENERGY PREDICTED BY IDOCK:   -5.68 KCAL/MOL
REMARK 923 INTER-LIGAND FREE ENERGY PREDICTED BY IDOCK:   -5.11 KCAL/MOL
REMARK 924 INTRA-LIGAND FREE ENERGY PREDICTED BY IDOCK:   -0.57 KCAL/MOL
REMARK 927      BINDING AFFINITY PREDICTED BY RF-SCORE:    0.00 PKD
ROOT
HETATM    1  C   UNL     1     -11.020  11.481  67.951  1.00  0.00    -0.233 C  
HETATM    2  O   UNL     1     -10.107  11.798  68.716  1.00  0.00    -0.206 OA 
HETATM    3  C   UNL     1     -11.023  11.765  66.462  1.00  0.00    -0.295 C  
HETATM    4  O   UNL     1     -10.557  10.606  65.765  1.00  0.00    -0.194 OA 
HETATM    5  H   UNL     1     -10.559  10.784  64.831  1.00  0.00     0.000 HD 
ENDROOT
BRANCH   3   6
HETATM    6  C   UNL     1     -10.148  12.974  66.103  1.00  0.00    -0.285 C  
HETATM    7  O   UNL     1      -8.769  12.566  66.213  1.00  0.00    -0.415 OA 
HETATM    8  H   UNL     1      -8.227  13.315  65.990  1.00  0.00     0.000 HD 
BRANCH   6   9
HETATM    9  C   UNL     1     -10.415  13.596  64.702  1.00  0.00    -0.423 C  
HETATM   10  O   UNL     1     -10.131  12.626  63.680  1.00  0.00    -0.536 OA 
HETATM   11  H   UNL     1     -10.294  13.006  62.824  1.00  0.00     0.000 HD 
BRANCH   9  12
HETATM   12  C   UNL     1     -11.824  14.174  64.456  1.00  0.00    -0.436 C  
HETATM   13  H   UNL     1     -13.085  14.288  62.941  1.00  0.00     0.000 HD 
HETATM   14  O   UNL     1     -12.218  13.932  63.092  1.00  0.00    -0.577 OA 
BRANCH  12  15
HETATM   15  C   UNL     1     -11.971  15.663  64.816  1.00  0.00     0.049 C  
HETATM   16  O   UNL     1     -11.337  16.502  63.841  1.00  0.00    -1.557 OA 
HETATM   17  H   UNL     1     -11.427  17.421  64.063  1.00  0.00     0.000 HD 
ENDBRANCH  12  15
ENDBRANCH   9  12
ENDBRANCH   6   9
ENDBRANCH   3   6
TORSDOF 4
ENDMDL
MODEL       52
REMARK 921   NORMALIZED FREE ENERGY PREDICTED BY IDOCK:   -3.87 KCAL/MOL
REMARK 922        TOTAL FREE ENERGY PREDICTED BY IDOCK:   -5.64 KCAL/MOL
REMARK 923 INTER-LIGAND FREE ENERGY PREDICTED BY IDOCK:   -5.46 KCAL/MOL
REMARK 924 INTRA-LIGAND FREE ENERGY PREDICTED BY IDOCK:   -0.18 KCAL/MOL
REMARK 927      BINDING AFFINITY PREDICTED BY RF-SCORE:    0.00 PKD
ROOT
HETATM    1  C   UNL     1     -12.151  13.839  64.107  1.00  0.00    -0.433 C  
HETATM    2  O   UNL     1     -11.368  13.072  63.544  1.00  0.00    -0.406 OA 
HETATM    3  C   UNL     1     -11.750  15.158  64.737  1.00  0.00    -0.331 C  
HETATM    4  O   UNL     1     -11.993  16.215  63.803  1.00  0.00    -1.394 OA 
HETATM    5  H   UNL     1     -11.741  17.041  64.199  1.00  0.00     0.000 HD 
ENDROOT
BRANCH   3   6
HETATM    6  C   UNL     1     -10.275  15.169  65.162  1.00  0.00    -0.351 C  
HETATM    7  O   UNL     1      -9.895  16.542  65.391  1.00  0.00    -0.530 OA 
HETATM    8  H   UNL     1      -8.981  16.549  65.654  1.00  0.00     0.000 HD 
BRANCH   6   9
HETATM    9  C   UNL     1      -9.935  14.302  66.408  1.00  0.00    -0.292 C  
HETATM   10  O   UNL     1      -8.564  13.875  66.340  1.00  0.00    -0.424 OA 
HETATM   11  H   UNL     1      -8.356  13.346  67.102  1.00  0.00     0.000 HD 
BRANCH   9  12
HETATM   12  C   UNL     1     -10.184  14.944  67.790  1.00  0.00    -0.236 C  
HETATM   13  H   UNL     1      -9.189  15.134  69.485  1.00  0.00     0.000 HD 
HETATM   14  O   UNL     1      -9.036  14.739  68.635  1.00  0.00    -0.178 OA 
BRANCH  12  15
HETATM   15  C   UNL     1     -11.472  14.471  68.486  1.00  0.00    -0.301 C  
HETATM   16  O   UNL     1     -12.209  15.574  69.028  1.00  0.00    -0.584 OA 
HETATM   17  H   UNL     1     -13.005  15.282  69.458  1.00  0.00     0.000 HD 
ENDBRANCH  12  15
ENDBRANCH   9  12
ENDBRANCH   6   9
ENDBRANCH   3   6
TORSDOF 4
ENDMDL
MODEL       53
REMARK 921   NORMALIZED FREE ENERGY PREDICTED BY IDOCK:   -3.86 KCAL/MOL
REMARK 922        TOTAL FREE ENERGY PREDICTED BY IDOCK:   -5.63 KCAL/MOL
REMARK 923 INTER-LIGAND FREE ENERGY PREDICTED BY IDOCK:   -4.91 KCAL/MOL
REMARK 924 INTRA-LIGAND FREE ENERGY PREDICTED BY IDOCK:   -0.72 KCAL/MOL
REMARK 927      BINDING AFFINITY PREDICTED BY RF-SCORE:    0.00 PKD
ROOT
HETATM    1  C   UNL     1     -11.065  11.195  67.725  1.00  0.00    -0.285 C  
HETATM    2  O   UNL     1     -12.256  11.153  68.038  1.00  0.00    -0.584 OA 
HETATM    3  C   UNL     1     -10.406  12.369  67.027  1.00  0.00    -0.220 C  
HETATM    4  O   UNL     1      -9.778  13.202  68.008  1.00  0.00    -0.211 OA 
HETATM    5  H   UNL     1      -9.365  13.937  67.570  1.00  0.00     0.000 HD 
ENDROOT
BRANCH   3   6
HETATM    6  C   UNL     1     -11.410  13.194  66.212  1.00  0.00    -0.315 C  
HETATM    7  O   UNL     1     -12.244  13.915  67.141  1.00  0.00    -0.423 OA 
HETATM    8  H   UNL     1     -12.866  14.426  66.636  1.00  0.00     0.000 HD 
BRANCH   6   9
HETATM    9  C   UNL     1     -10.784  14.174  65.179  1.00  0.00    -0.388 C  
HETATM   10  O   UNL     1     -11.377  13.959  63.887  1.00  0.00    -0.589 OA 
HETATM   11  H   UNL     1     -10.994  14.558  63.256  1.00  0.00     0.000 HD 
BRANCH   9  12
HETATM   12  C   UNL     1     -10.862  15.678  65.513  1.00  0.00    -0.346 C  
HETATM   13  H   UNL     1     -11.451  17.325  64.596  1.00  0.00     0.000 HD 
HETATM   14  O   UNL     1     -11.403  16.399  64.390  1.00  0.00    -0.784 OA 
BRANCH  12  15
HETATM   15  C   UNL     1      -9.530  16.295  65.973  1.00  0.00    -0.334 C  
HETATM   16  O   UNL     1      -8.560  15.283  66.272  1.00  0.00    -0.426 OA 
HETATM   17  H   UNL     1      -7.737  15.664  66.556  1.00  0.00     0.000 HD 
ENDBRANCH  12  15
ENDBRANCH   9  12
ENDBRANCH   6   9
ENDBRANCH   3   6
TORSDOF 4
ENDMDL
MODEL       54
REMARK 921   NORMALIZED FREE ENERGY PREDICTED BY IDOCK:   -3.86 KCAL/MOL
REMARK 922        TOTAL FREE ENERGY PREDICTED BY IDOCK:   -5.63 KCAL/MOL
REMARK 923 INTER-LIGAND FREE ENERGY PREDICTED BY IDOCK:   -5.05 KCAL/MOL
REMARK 924 INTRA-LIGAND FREE ENERGY PREDICTED BY IDOCK:   -0.57 KCAL/MOL
REMARK 927      BINDING AFFINITY PREDICTED BY RF-SCORE:    0.00 PKD
ROOT
HETATM    1  C   UNL     1      -9.614  10.377  63.555  1.00  0.00    -0.310 C  
HETATM    2  O   UNL     1      -8.517  10.859  63.267  1.00  0.00    -0.109 OA 
HETATM    3  C   UNL     1     -10.760  11.163  64.161  1.00  0.00    -0.345 C  
HETATM    4  O   UNL     1     -11.648  11.574  63.116  1.00  0.00    -0.840 OA 
HETATM    5  H   UNL     1     -12.366  12.066  63.496  1.00  0.00     0.000 HD 
ENDROOT
BRANCH   3   6
HETATM    6  C   UNL     1     -10.269  12.392  64.938  1.00  0.00    -0.278 C  
HETATM    7  O   UNL     1      -9.951  13.421  63.979  1.00  0.00    -0.764 OA 
HETATM    8  H   UNL     1      -9.647  14.182  64.461  1.00  0.00     0.000 HD 
BRANCH   6   9
HETATM    9  C   UNL     1     -11.257  12.941  66.008  1.00  0.00    -0.293 C  
HETATM   10  O   UNL     1     -12.608  12.636  65.621  1.00  0.00    -0.611 OA 
HETATM   11  H   UNL     1     -13.211  12.972  66.274  1.00  0.00     0.000 HD 
BRANCH   9  12
HETATM   12  C   UNL     1     -11.041  12.468  67.461  1.00  0.00    -0.267 C  
HETATM   13  H   UNL     1     -11.908  11.200  68.701  1.00  0.00     0.000 HD 
HETATM   14  O   UNL     1     -12.040  11.491  67.807  1.00  0.00    -0.626 OA 
BRANCH  12  15
HETATM   15  C   UNL     1     -10.998  13.604  68.498  1.00  0.00    -0.267 C  
HETATM   16  O   UNL     1     -12.284  13.814  69.097  1.00  0.00    -0.344 OA 
HETATM   17  H   UNL     1     -12.257  14.516  69.737  1.00  0.00     0.000 HD 
ENDBRANCH  12  15
ENDBRANCH   9  12
ENDBRANCH   6   9
ENDBRANCH   3   6
TORSDOF 4
ENDMDL
MODEL       55
REMARK 921   NORMALIZED FREE ENERGY PREDICTED BY IDOCK:   -3.84 KCAL/MOL
REMARK 922        TOTAL FREE ENERGY PREDICTED BY IDOCK:   -5.60 KCAL/MOL
REMARK 923 INTER-LIGAND FREE ENERGY PREDICTED BY IDOCK:   -5.23 KCAL/MOL
REMARK 924 INTRA-LIGAND FREE ENERGY PREDICTED BY IDOCK:   -0.38 KCAL/MOL
REMARK 927      BINDING AFFINITY PREDICTED BY RF-SCORE:    0.00 PKD
ROOT
HETATM    1  C   UNL     1      -8.310  17.590  66.044  1.00  0.00    -0.080 C  
HETATM    2  O   UNL     1      -7.460  16.720  66.239  1.00  0.00    -0.284 OA 
HETATM    3  C   UNL     1      -9.791  17.313  65.869  1.00  0.00    -0.126 C  
HETATM    4  O   UNL     1     -10.451  17.495  67.126  1.00  0.00    -0.335 OA 
HETATM    5  H   UNL     1     -11.379  17.322  67.016  1.00  0.00     0.000 HD 
ENDROOT
BRANCH   3   6
HETATM    6  C   UNL     1     -10.055  15.895  65.345  1.00  0.00    -0.261 C  
HETATM    7  O   UNL     1      -9.623  14.964  66.358  1.00  0.00    -0.260 OA 
HETATM    8  H   UNL     1      -9.786  14.086  66.033  1.00  0.00     0.000 HD 
BRANCH   6   9
HETATM    9  C   UNL     1     -11.527  15.600  64.936  1.00  0.00    -0.245 C  
HETATM   10  O   UNL     1     -11.886  16.408  63.803  1.00  0.00    -1.455 OA 
HETATM   11  H   UNL     1     -12.785  16.228  63.553  1.00  0.00     0.000 HD 
BRANCH   9  12
HETATM   12  C   UNL     1     -11.879  14.130  64.625  1.00  0.00    -0.431 C  
HETATM   13  H   UNL     1     -12.764  13.144  63.161  1.00  0.00     0.000 HD 
HETATM   14  O   UNL     1     -12.546  14.049  63.352  1.00  0.00    -0.845 OA 
BRANCH  12  15
HETATM   15  C   UNL     1     -12.700  13.429  65.722  1.00  0.00    -0.318 C  
HETATM   16  O   UNL     1     -11.978  12.330  66.294  1.00  0.00    -0.588 OA 
HETATM   17  H   UNL     1     -12.485  11.897  66.971  1.00  0.00     0.000 HD 
ENDBRANCH  12  15
ENDBRANCH   9  12
ENDBRANCH   6   9
ENDBRANCH   3   6
TORSDOF 4
ENDMDL
MODEL       56
REMARK 921   NORMALIZED FREE ENERGY PREDICTED BY IDOCK:   -3.77 KCAL/MOL
REMARK 922        TOTAL FREE ENERGY PREDICTED BY IDOCK:   -5.52 KCAL/MOL
REMARK 923 INTER-LIGAND FREE ENERGY PREDICTED BY IDOCK:   -4.94 KCAL/MOL
REMARK 924 INTRA-LIGAND FREE ENERGY PREDICTED BY IDOCK:   -0.58 KCAL/MOL
REMARK 927      BINDING AFFINITY PREDICTED BY RF-SCORE:    0.00 PKD
ROOT
HETATM    1  C   UNL     1      -9.956   9.460  70.359  1.00  0.00    -0.252 C  
HETATM    2  O   UNL     1      -9.679   9.767  69.198  1.00  0.00    -0.167 OA 
HETATM    3  C   UNL     1     -11.294   9.731  71.019  1.00  0.00    -0.387 C  
HETATM    4  O   UNL     1     -12.107   8.557  70.923  1.00  0.00    -0.423 OA 
HETATM    5  H   UNL     1     -12.945   8.727  71.337  1.00  0.00     0.000 HD 
ENDROOT
BRANCH   3   6
HETATM    6  C   UNL     1     -12.022  10.921  70.379  1.00  0.00    -0.362 C  
HETATM    7  O   UNL     1     -12.577  10.473  69.125  1.00  0.00    -0.740 OA 
HETATM    8  H   UNL     1     -13.028  11.210  68.729  1.00  0.00     0.000 HD 
BRANCH   6   9
HETATM    9  C   UNL     1     -13.130  11.572  71.255  1.00  0.00    -0.184 C  
HETATM   10  O   UNL     1     -13.487  10.682  72.325  1.00  0.00    -0.594 OA 
HETATM   11  H   UNL     1     -14.164  11.080  72.861  1.00  0.00     0.000 HD 
BRANCH   9  12
HETATM   12  C   UNL     1     -12.817  12.960  71.852  1.00  0.00    -0.210 C  
HETATM   13  H   UNL     1     -13.758  14.290  72.968  1.00  0.00     0.000 HD 
HETATM   14  O   UNL     1     -13.951  13.435  72.600  1.00  0.00    -0.755 OA 
BRANCH  12  15
HETATM   15  C   UNL     1     -12.361  14.006  70.820  1.00  0.00    -0.373 C  
HETATM   16  O   UNL     1     -11.060  14.521  71.136  1.00  0.00    -0.493 OA 
HETATM   17  H   UNL     1     -10.779  15.168  70.498  1.00  0.00     0.000 HD 
ENDBRANCH  12  15
ENDBRANCH   9  12
ENDBRANCH   6   9
ENDBRANCH   3   6
TORSDOF 4
ENDMDL
MODEL       57
REMARK 921   NORMALIZED FREE ENERGY PREDICTED BY IDOCK:   -3.77 KCAL/MOL
REMARK 922        TOTAL FREE ENERGY PREDICTED BY IDOCK:   -5.51 KCAL/MOL
REMARK 923 INTER-LIGAND FREE ENERGY PREDICTED BY IDOCK:   -4.85 KCAL/MOL
REMARK 924 INTRA-LIGAND FREE ENERGY PREDICTED BY IDOCK:   -0.67 KCAL/MOL
REMARK 927      BINDING AFFINITY PREDICTED BY RF-SCORE:    0.00 PKD
ROOT
HETATM    1  C   UNL     1     -11.964  13.769  68.604  1.00  0.00    -0.366 C  
HETATM    2  O   UNL     1     -11.031  14.277  69.226  1.00  0.00    -0.252 OA 
HETATM    3  C   UNL     1     -11.820  13.077  67.262  1.00  0.00    -0.363 C  
HETATM    4  O   UNL     1     -11.703  11.667  67.475  1.00  0.00    -0.535 OA 
HETATM    5  H   UNL     1     -11.613  11.233  66.634  1.00  0.00     0.000 HD 
ENDROOT
BRANCH   3   6
HETATM    6  C   UNL     1     -10.604  13.587  66.478  1.00  0.00    -0.281 C  
HETATM    7  O   UNL     1      -9.422  13.259  67.237  1.00  0.00    -0.218 OA 
HETATM    8  H   UNL     1      -8.669  13.575  66.751  1.00  0.00     0.000 HD 
BRANCH   6   9
HETATM    9  C   UNL     1     -10.475  13.048  65.024  1.00  0.00    -0.328 C  
HETATM   10  O   UNL     1     -10.382  11.613  65.047  1.00  0.00    -0.256 OA 
HETATM   11  H   UNL     1     -10.303  11.284  64.159  1.00  0.00     0.000 HD 
BRANCH   9  12
HETATM   12  C   UNL     1     -11.585  13.454  64.032  1.00  0.00    -0.385 C  
HETATM   13  H   UNL     1     -12.864  14.946  63.841  1.00  0.00     0.000 HD 
HETATM   14  O   UNL     1     -12.181  14.696  64.451  1.00  0.00    -0.487 OA 
BRANCH  12  15
HETATM   15  C   UNL     1     -12.660  12.377  63.807  1.00  0.00    -0.437 C  
HETATM   16  O   UNL     1     -12.194  11.350  62.921  1.00  0.00    -0.940 OA 
HETATM   17  H   UNL     1     -12.858  10.684  62.781  1.00  0.00     0.000 HD 
ENDBRANCH  12  15
ENDBRANCH   9  12
ENDBRANCH   6   9
ENDBRANCH   3   6
TORSDOF 4
ENDMDL
MODEL       58
REMARK 921   NORMALIZED FREE ENERGY PREDICTED BY IDOCK:   -3.76 KCAL/MOL
REMARK 922        TOTAL FREE ENERGY PREDICTED BY IDOCK:   -5.51 KCAL/MOL
REMARK 923 INTER-LIGAND FREE ENERGY PREDICTED BY IDOCK:   -4.70 KCAL/MOL
REMARK 924 INTRA-LIGAND FREE ENERGY PREDICTED BY IDOCK:   -0.81 KCAL/MOL
REMARK 927      BINDING AFFINITY PREDICTED BY RF-SCORE:    0.00 PKD
ROOT
HETATM    1  C   UNL     1     -13.103  11.310  71.231  1.00  0.00    -0.219 C  
HETATM    2  O   UNL     1     -13.335  11.853  72.313  1.00  0.00    -0.471 OA 
HETATM    3  C   UNL     1     -13.067   9.809  71.020  1.00  0.00    -0.291 C  
HETATM    4  O   UNL     1     -14.338   9.377  70.525  1.00  0.00    -0.262 OA 
HETATM    5  H   UNL     1     -14.315   8.437  70.392  1.00  0.00     0.000 HD 
ENDROOT
BRANCH   3   6
HETATM    6  C   UNL     1     -12.729   9.052  72.312  1.00  0.00    -0.387 C  
HETATM    7  O   UNL     1     -13.911   9.043  73.138  1.00  0.00    -1.130 OA 
HETATM    8  H   UNL     1     -13.701   8.574  73.938  1.00  0.00     0.000 HD 
BRANCH   6   9
HETATM    9  C   UNL     1     -12.199   7.603  72.115  1.00  0.00    -0.264 C  
HETATM   10  O   UNL     1     -12.423   7.186  70.757  1.00  0.00    -0.550 OA 
HETATM   11  H   UNL     1     -12.100   6.300  70.637  1.00  0.00     0.000 HD 
BRANCH   9  12
HETATM   12  C   UNL     1     -10.719   7.350  72.471  1.00  0.00    -0.272 C  
HETATM   13  H   UNL     1      -9.694   6.869  74.088  1.00  0.00     0.000 HD 
HETATM   14  O   UNL     1     -10.604   7.024  73.869  1.00  0.00    -0.371 OA 
BRANCH  12  15
HETATM   15  C   UNL     1      -9.771   8.501  72.094  1.00  0.00    -0.317 C  
HETATM   16  O   UNL     1      -9.598   8.593  70.673  1.00  0.00    -0.168 OA 
HETATM   17  H   UNL     1      -9.012   9.304  70.440  1.00  0.00     0.000 HD 
ENDBRANCH  12  15
ENDBRANCH   9  12
ENDBRANCH   6   9
ENDBRANCH   3   6
TORSDOF 4
ENDMDL
MODEL       59
REMARK 921   NORMALIZED FREE ENERGY PREDICTED BY IDOCK:   -3.70 KCAL/MOL
REMARK 922        TOTAL FREE ENERGY PREDICTED BY IDOCK:   -5.43 KCAL/MOL
REMARK 923 INTER-LIGAND FREE ENERGY PREDICTED BY IDOCK:   -4.84 KCAL/MOL
REMARK 924 INTRA-LIGAND FREE ENERGY PREDICTED BY IDOCK:   -0.60 KCAL/MOL
REMARK 927      BINDING AFFINITY PREDICTED BY RF-SCORE:    0.00 PKD
ROOT
HETATM    1  C   UNL     1     -11.777  11.803  67.990  1.00  0.00    -0.293 C  
HETATM    2  O   UNL     1     -10.911  11.104  67.460  1.00  0.00    -0.237 OA 
HETATM    3  C   UNL     1     -12.119  11.765  69.467  1.00  0.00    -0.250 C  
HETATM    4  O   UNL     1     -11.412  12.814  70.136  1.00  0.00    -0.519 OA 
HETATM    5  H   UNL     1     -11.626  12.790  71.062  1.00  0.00     0.000 HD 
ENDROOT
BRANCH   3   6
HETATM    6  C   UNL     1     -11.771  10.414  70.106  1.00  0.00    -0.312 C  
HETATM    7  O   UNL     1     -10.335  10.340  70.222  1.00  0.00    -0.413 OA 
HETATM    8  H   UNL     1     -10.119   9.503  70.617  1.00  0.00     0.000 HD 
BRANCH   6   9
HETATM    9  C   UNL     1     -12.436  10.138  71.485  1.00  0.00    -0.427 C  
HETATM   10  O   UNL     1     -13.194  11.289  71.895  1.00  0.00    -0.482 OA 
HETATM   11  H   UNL     1     -13.601  11.120  72.737  1.00  0.00     0.000 HD 
BRANCH   9  12
HETATM   12  C   UNL     1     -13.340   8.891  71.582  1.00  0.00    -0.365 C  
HETATM   13  H   UNL     1     -14.845   8.294  72.712  1.00  0.00     0.000 HD 
HETATM   14  O   UNL     1     -14.289   9.062  72.651  1.00  0.00    -0.603 OA 
BRANCH  12  15
HETATM   15  C   UNL     1     -12.576   7.564  71.731  1.00  0.00    -0.334 C  
HETATM   16  O   UNL     1     -12.452   6.888  70.472  1.00  0.00    -0.601 OA 
HETATM   17  H   UNL     1     -11.980   6.068  70.564  1.00  0.00     0.000 HD 
ENDBRANCH  12  15
ENDBRANCH   9  12
ENDBRANCH   6   9
ENDBRANCH   3   6
TORSDOF 4
ENDMDL
MODEL       60
REMARK 921   NORMALIZED FREE ENERGY PREDICTED BY IDOCK:   -3.68 KCAL/MOL
REMARK 922        TOTAL FREE ENERGY PREDICTED BY IDOCK:   -5.41 KCAL/MOL
REMARK 923 INTER-LIGAND FREE ENERGY PREDICTED BY IDOCK:   -4.81 KCAL/MOL
REMARK 924 INTRA-LIGAND FREE ENERGY PREDICTED BY IDOCK:   -0.60 KCAL/MOL
REMARK 927      BINDING AFFINITY PREDICTED BY RF-SCORE:    0.00 PKD
ROOT
HETATM    1  C   UNL     1     -12.583  14.922  70.465  1.00  0.00    -0.360 C  
HETATM    2  O   UNL     1     -11.936  15.867  70.920  1.00  0.00    -0.376 OA 
HETATM    3  C   UNL     1     -12.078  13.982  69.387  1.00  0.00    -0.340 C  
HETATM    4  O   UNL     1     -11.537  12.811  70.005  1.00  0.00    -0.495 OA 
HETATM    5  H   UNL     1     -11.221  12.222  69.330  1.00  0.00     0.000 HD 
ENDROOT
BRANCH   3   6
HETATM    6  C   UNL     1     -11.013  14.641  68.500  1.00  0.00    -0.252 C  
HETATM    7  O   UNL     1      -9.778  14.672  69.246  1.00  0.00    -0.372 OA 
HETATM    8  H   UNL     1      -9.119  15.080  68.696  1.00  0.00     0.000 HD 
BRANCH   6   9
HETATM    9  C   UNL     1     -10.788  13.965  67.117  1.00  0.00    -0.284 C  
HETATM   10  O   UNL     1     -10.055  12.740  67.290  1.00  0.00    -0.222 OA 
HETATM   11  H   UNL     1      -9.918  12.328  66.445  1.00  0.00     0.000 HD 
BRANCH   9  12
HETATM   12  C   UNL     1     -12.047  13.671  66.275  1.00  0.00    -0.434 C  
HETATM   13  H   UNL     1     -12.958  12.070  65.563  1.00  0.00     0.000 HD 
HETATM   14  O   UNL     1     -12.183  12.251  66.082  1.00  0.00    -0.647 OA 
BRANCH  12  15
HETATM   15  C   UNL     1     -12.099  14.417  64.930  1.00  0.00    -0.436 C  
HETATM   16  O   UNL     1     -11.187  13.847  63.981  1.00  0.00    -0.588 OA 
HETATM   17  H   UNL     1     -11.219  14.308  63.150  1.00  0.00     0.000 HD 
ENDBRANCH  12  15
ENDBRANCH   9  12
ENDBRANCH   6   9
ENDBRANCH   3   6
TORSDOF 4
ENDMDL
MODEL       61
REMARK 921   NORMALIZED FREE ENERGY PREDICTED BY IDOCK:   -3.67 KCAL/MOL
REMARK 922        TOTAL FREE ENERGY PREDICTED BY IDOCK:   -5.39 KCAL/MOL
REMARK 923 INTER-LIGAND FREE ENERGY PREDICTED BY IDOCK:   -4.91 KCAL/MOL
REMARK 924 INTRA-LIGAND FREE ENERGY PREDICTED BY IDOCK:   -0.48 KCAL/MOL
REMARK 927      BINDING AFFINITY PREDICTED BY RF-SCORE:    0.00 PKD
ROOT
HETATM    1  C   UNL     1     -12.360  12.008  63.464  1.00  0.00    -0.551 C  
HETATM    2  O   UNL     1     -11.314  11.375  63.619  1.00  0.00    -0.386 OA 
HETATM    3  C   UNL     1     -12.702  13.286  64.204  1.00  0.00    -0.035 C  
HETATM    4  O   UNL     1     -12.358  14.407  63.383  1.00  0.00    -1.094 OA 
HETATM    5  H   UNL     1     -12.573  15.207  63.847  1.00  0.00     0.000 HD 
ENDROOT
BRANCH   3   6
HETATM    6  C   UNL     1     -11.974  13.386  65.551  1.00  0.00    -0.398 C  
HETATM    7  O   UNL     1     -12.028  12.087  66.178  1.00  0.00    -0.581 OA 
HETATM    8  H   UNL     1     -11.577  12.149  67.012  1.00  0.00     0.000 HD 
BRANCH   6   9
HETATM    9  C   UNL     1     -10.503  13.885  65.477  1.00  0.00    -0.323 C  
HETATM   10  O   UNL     1     -10.455  15.151  64.796  1.00  0.00    -0.499 OA 
HETATM   11  H   UNL     1      -9.556  15.456  64.751  1.00  0.00     0.000 HD 
BRANCH   9  12
HETATM   12  C   UNL     1      -9.746  14.016  66.816  1.00  0.00    -0.278 C  
HETATM   13  H   UNL     1      -8.712  12.825  68.004  1.00  0.00     0.000 HD 
HETATM   14  O   UNL     1      -9.177  12.745  67.180  1.00  0.00    -0.204 OA 
BRANCH  12  15
HETATM   15  C   UNL     1     -10.589  14.592  67.967  1.00  0.00    -0.240 C  
HETATM   16  O   UNL     1     -11.104  15.890  67.640  1.00  0.00    -0.323 OA 
HETATM   17  H   UNL     1     -11.625  16.246  68.351  1.00  0.00     0.000 HD 
ENDBRANCH  12  15
ENDBRANCH   9  12
ENDBRANCH   6   9
ENDBRANCH   3   6
TORSDOF 4
ENDMDL
MODEL       62
REMARK 921   NORMALIZED FREE ENERGY PREDICTED BY IDOCK:   -3.67 KCAL/MOL
REMARK 922        TOTAL FREE ENERGY PREDICTED BY IDOCK:   -5.39 KCAL/MOL
REMARK 923 INTER-LIGAND FREE ENERGY PREDICTED BY IDOCK:   -4.65 KCAL/MOL
REMARK 924 INTRA-LIGAND FREE ENERGY PREDICTED BY IDOCK:   -0.74 KCAL/MOL
REMARK 927      BINDING AFFINITY PREDICTED BY RF-SCORE:    0.00 PKD
ROOT
HETATM    1  C   UNL     1      -9.802  10.398  68.382  1.00  0.00    -0.162 C  
HETATM    2  O   UNL     1      -9.054  11.307  68.746  1.00  0.00    -0.174 OA 
HETATM    3  C   UNL     1     -11.184  10.149  68.954  1.00  0.00    -0.170 C  
HETATM    4  O   UNL     1     -12.158  10.767  68.106  1.00  0.00    -0.802 OA 
HETATM    5  H   UNL     1     -13.023  10.611  68.464  1.00  0.00     0.000 HD 
ENDROOT
BRANCH   3   6
HETATM    6  C   UNL     1     -11.323  10.688  70.384  1.00  0.00    -0.304 C  
HETATM    7  O   UNL     1     -11.522  12.114  70.298  1.00  0.00    -0.517 OA 
HETATM    8  H   UNL     1     -11.608  12.448  71.184  1.00  0.00     0.000 HD 
BRANCH   6   9
HETATM    9  C   UNL     1     -12.452  10.038  71.233  1.00  0.00    -0.392 C  
HETATM   10  O   UNL     1     -13.606   9.806  70.408  1.00  0.00    -0.534 OA 
HETATM   11  H   UNL     1     -14.296   9.409  70.927  1.00  0.00     0.000 HD 
BRANCH   9  12
HETATM   12  C   UNL     1     -12.101   8.728  71.969  1.00  0.00    -0.377 C  
HETATM   13  H   UNL     1     -10.506   7.951  72.836  1.00  0.00     0.000 HD 
HETATM   14  O   UNL     1     -10.723   8.757  72.383  1.00  0.00    -0.315 OA 
BRANCH  12  15
HETATM   15  C   UNL     1     -12.409   7.450  71.170  1.00  0.00    -0.314 C  
HETATM   16  O   UNL     1     -13.821   7.219  71.076  1.00  0.00    -0.592 OA 
HETATM   17  H   UNL     1     -14.011   6.429  70.582  1.00  0.00     0.000 HD 
ENDBRANCH  12  15
ENDBRANCH   9  12
ENDBRANCH   6   9
ENDBRANCH   3   6
TORSDOF 4
ENDMDL
MODEL       63
REMARK 921   NORMALIZED FREE ENERGY PREDICTED BY IDOCK:   -3.66 KCAL/MOL
REMARK 922        TOTAL FREE ENERGY PREDICTED BY IDOCK:   -5.38 KCAL/MOL
REMARK 923 INTER-LIGAND FREE ENERGY PREDICTED BY IDOCK:   -4.74 KCAL/MOL
REMARK 924 INTRA-LIGAND FREE ENERGY PREDICTED BY IDOCK:   -0.65 KCAL/MOL
REMARK 927      BINDING AFFINITY PREDICTED BY RF-SCORE:    0.00 PKD
ROOT
HETATM    1  C   UNL     1     -10.411  17.707  67.004  1.00  0.00    -0.305 C  
HETATM    2  O   UNL     1     -10.858  17.004  67.912  1.00  0.00    -0.357 OA 
HETATM    3  C   UNL     1     -10.055  17.192  65.623  1.00  0.00    -0.079 C  
HETATM    4  O   UNL     1     -11.157  17.426  64.739  1.00  0.00    -0.973 OA 
HETATM    5  H   UNL     1     -10.934  17.104  63.874  1.00  0.00     0.000 HD 
ENDROOT
BRANCH   3   6
HETATM    6  C   UNL     1      -9.709  15.698  65.635  1.00  0.00    -0.313 C  
HETATM    7  O   UNL     1      -9.008  15.419  66.865  1.00  0.00    -0.213 OA 
HETATM    8  H   UNL     1      -8.794  14.493  66.873  1.00  0.00     0.000 HD 
BRANCH   6   9
HETATM    9  C   UNL     1     -10.918  14.732  65.475  1.00  0.00    -0.346 C  
HETATM   10  O   UNL     1     -11.088  14.396  64.087  1.00  0.00    -0.589 OA 
HETATM   11  H   UNL     1     -11.827  13.806  63.990  1.00  0.00     0.000 HD 
BRANCH   9  12
HETATM   12  C   UNL     1     -10.878  13.427  66.297  1.00  0.00    -0.289 C  
HETATM   13  H   UNL     1      -9.633  11.911  66.526  1.00  0.00     0.000 HD 
HETATM   14  O   UNL     1      -9.658  12.715  66.020  1.00  0.00    -0.247 OA 
BRANCH  12  15
HETATM   15  C   UNL     1     -12.103  12.517  66.103  1.00  0.00    -0.286 C  
HETATM   16  O   UNL     1     -13.036  13.087  65.175  1.00  0.00    -0.740 OA 
HETATM   17  H   UNL     1     -13.794  12.525  65.055  1.00  0.00     0.000 HD 
ENDBRANCH  12  15
ENDBRANCH   9  12
ENDBRANCH   6   9
ENDBRANCH   3   6
TORSDOF 4
ENDMDL
MODEL       64
REMARK 921   NORMALIZED FREE ENERGY PREDICTED BY IDOCK:   -3.65 KCAL/MOL
REMARK 922        TOTAL FREE ENERGY PREDICTED BY IDOCK:   -5.37 KCAL/MOL
REMARK 923 INTER-LIGAND FREE ENERGY PREDICTED BY IDOCK:   -4.50 KCAL/MOL
REMARK 924 INTRA-LIGAND FREE ENERGY PREDICTED BY IDOCK:   -0.88 KCAL/MOL
REMARK 927      BINDING AFFINITY PREDICTED BY RF-SCORE:    0.00 PKD
ROOT
HETATM    1  C   UNL     1      -9.367  11.076  68.037  1.00  0.00    -0.163 C  
HETATM    2  O   UNL     1      -9.405  10.138  68.835  1.00  0.00    -0.160 OA 
HETATM    3  C   UNL     1     -10.315  12.259  68.064  1.00  0.00    -0.214 C  
HETATM    4  O   UNL     1      -9.694  13.339  68.768  1.00  0.00    -0.398 OA 
HETATM    5  H   UNL     1     -10.289  14.080  68.784  1.00  0.00     0.000 HD 
ENDROOT
BRANCH   3   6
HETATM    6  C   UNL     1     -11.655  11.910  68.725  1.00  0.00    -0.309 C  
HETATM    7  O   UNL     1     -12.044  10.599  68.264  1.00  0.00    -0.817 OA 
HETATM    8  H   UNL     1     -12.874  10.383  68.674  1.00  0.00     0.000 HD 
BRANCH   6   9
HETATM    9  C   UNL     1     -11.663  11.957  70.280  1.00  0.00    -0.205 C  
HETATM   10  O   UNL     1     -11.900  13.304  70.721  1.00  0.00    -0.513 OA 
HETATM   11  H   UNL     1     -11.904  13.333  71.672  1.00  0.00     0.000 HD 
BRANCH   9  12
HETATM   12  C   UNL     1     -12.657  11.020  70.998  1.00  0.00    -0.411 C  
HETATM   13  H   UNL     1     -13.901  11.146  72.526  1.00  0.00     0.000 HD 
HETATM   14  O   UNL     1     -13.289  11.723  72.084  1.00  0.00    -0.497 OA 
BRANCH  12  15
HETATM   15  C   UNL     1     -12.043   9.695  71.482  1.00  0.00    -0.401 C  
HETATM   16  O   UNL     1     -11.552   8.914  70.385  1.00  0.00    -0.407 OA 
HETATM   17  H   UNL     1     -11.173   8.095  70.684  1.00  0.00     0.000 HD 
ENDBRANCH  12  15
ENDBRANCH   9  12
ENDBRANCH   6   9
ENDBRANCH   3   6
TORSDOF 4
ENDMDL
MODEL       65
REMARK 921   NORMALIZED FREE ENERGY PREDICTED BY IDOCK:   -3.64 KCAL/MOL
REMARK 922        TOTAL FREE ENERGY PREDICTED BY IDOCK:   -5.36 KCAL/MOL
REMARK 923 INTER-LIGAND FREE ENERGY PREDICTED BY IDOCK:   -4.55 KCAL/MOL
REMARK 924 INTRA-LIGAND FREE ENERGY PREDICTED BY IDOCK:   -0.81 KCAL/MOL
REMARK 927      BINDING AFFINITY PREDICTED BY RF-SCORE:    0.00 PKD
ROOT
HETATM    1  C   UNL     1      -9.659   9.152  67.041  1.00  0.00    -0.170 C  
HETATM    2  O   UNL     1     -10.569   8.326  67.133  1.00  0.00    -0.317 OA 
HETATM    3  C   UNL     1      -9.857  10.653  67.121  1.00  0.00    -0.175 C  
HETATM    4  O   UNL     1      -9.593  11.088  68.459  1.00  0.00    -0.174 OA 
HETATM    5  H   UNL     1      -9.717  12.028  68.508  1.00  0.00     0.000 HD 
ENDROOT
BRANCH   3   6
HETATM    6  C   UNL     1     -11.275  11.071  66.709  1.00  0.00    -0.089 C  
HETATM    7  O   UNL     1     -12.135  10.893  67.852  1.00  0.00    -0.736 OA 
HETATM    8  H   UNL     1     -13.013  11.152  67.597  1.00  0.00     0.000 HD 
BRANCH   6   9
HETATM    9  C   UNL     1     -11.408  12.519  66.157  1.00  0.00    -0.343 C  
HETATM   10  O   UNL     1     -10.166  13.221  66.336  1.00  0.00    -0.278 OA 
HETATM   11  H   UNL     1     -10.247  14.106  65.999  1.00  0.00     0.000 HD 
BRANCH   9  12
HETATM   12  C   UNL     1     -11.848  12.664  64.685  1.00  0.00    -0.380 C  
HETATM   13  H   UNL     1     -13.529  12.482  63.665  1.00  0.00     0.000 HD 
HETATM   14  O   UNL     1     -13.258  12.394  64.570  1.00  0.00    -0.834 OA 
BRANCH  12  15
HETATM   15  C   UNL     1     -11.041  11.807  63.694  1.00  0.00    -0.439 C  
HETATM   16  O   UNL     1      -9.721  12.332  63.503  1.00  0.00    -0.613 OA 
HETATM   17  H   UNL     1      -9.222  11.803  62.890  1.00  0.00     0.000 HD 
ENDBRANCH  12  15
ENDBRANCH   9  12
ENDBRANCH   6   9
ENDBRANCH   3   6
TORSDOF 4
ENDMDL
MODEL       66
REMARK 921   NORMALIZED FREE ENERGY PREDICTED BY IDOCK:   -3.63 KCAL/MOL
REMARK 922        TOTAL FREE ENERGY PREDICTED BY IDOCK:   -5.35 KCAL/MOL
REMARK 923 INTER-LIGAND FREE ENERGY PREDICTED BY IDOCK:   -4.55 KCAL/MOL
REMARK 924 INTRA-LIGAND FREE ENERGY PREDICTED BY IDOCK:   -0.80 KCAL/MOL
REMARK 927      BINDING AFFINITY PREDICTED BY RF-SCORE:    0.00 PKD
ROOT
HETATM    1  C   UNL     1     -11.946  14.777  64.256  1.00  0.00    -0.368 C  
HETATM    2  O   UNL     1     -11.094  15.317  64.964  1.00  0.00    -0.385 OA 
HETATM    3  C   UNL     1     -12.183  13.281  64.197  1.00  0.00    -0.401 C  
HETATM    4  O   UNL     1     -13.259  12.944  65.079  1.00  0.00    -0.765 OA 
HETATM    5  H   UNL     1     -13.408  12.006  65.042  1.00  0.00     0.000 HD 
ENDROOT
BRANCH   3   6
HETATM    6  C   UNL     1     -10.930  12.482  64.579  1.00  0.00    -0.323 C  
HETATM    7  O   UNL     1      -9.801  13.094  63.921  1.00  0.00    -0.735 OA 
HETATM    8  H   UNL     1      -9.025  12.599  64.157  1.00  0.00     0.000 HD 
BRANCH   6   9
HETATM    9  C   UNL     1     -10.658  12.359  66.106  1.00  0.00    -0.254 C  
HETATM   10  O   UNL     1     -11.431  11.275  66.649  1.00  0.00    -0.373 OA 
HETATM   11  H   UNL     1     -11.265  11.200  67.582  1.00  0.00     0.000 HD 
BRANCH   9  12
HETATM   12  C   UNL     1      -9.187  12.180  66.538  1.00  0.00    -0.216 C  
HETATM   13  H   UNL     1      -7.740  10.880  66.202  1.00  0.00     0.000 HD 
HETATM   14  O   UNL     1      -8.645  10.990  65.936  1.00  0.00    -0.176 OA 
BRANCH  12  15
HETATM   15  C   UNL     1      -8.970  12.176  68.061  1.00  0.00    -0.189 C  
HETATM   16  O   UNL     1     -10.172  12.521  68.762  1.00  0.00    -0.363 OA 
HETATM   17  H   UNL     1     -10.037  12.519  69.703  1.00  0.00     0.000 HD 
ENDBRANCH  12  15
ENDBRANCH   9  12
ENDBRANCH   6   9
ENDBRANCH   3   6
TORSDOF 4
ENDMDL
MODEL       67
REMARK 921   NORMALIZED FREE ENERGY PREDICTED BY IDOCK:   -3.61 KCAL/MOL
REMARK 922        TOTAL FREE ENERGY PREDICTED BY IDOCK:   -5.33 KCAL/MOL
REMARK 923 INTER-LIGAND FREE ENERGY PREDICTED BY IDOCK:   -4.61 KCAL/MOL
REMARK 924 INTRA-LIGAND FREE ENERGY PREDICTED BY IDOCK:   -0.72 KCAL/MOL
REMARK 927      BINDING AFFINITY PREDICTED BY RF-SCORE:    0.00 PKD
ROOT
HETATM    1  C   UNL     1     -11.754  12.909  67.750  1.00  0.00    -0.362 C  
HETATM    2  O   UNL     1     -12.243  12.194  66.873  1.00  0.00    -0.537 OA 
HETATM    3  C   UNL     1     -11.345  12.417  69.124  1.00  0.00    -0.269 C  
HETATM    4  O   UNL     1      -9.942  12.131  69.118  1.00  0.00    -0.411 OA 
HETATM    5  H   UNL     1      -9.686  11.822  69.979  1.00  0.00     0.000 HD 
ENDROOT
BRANCH   3   6
HETATM    6  C   UNL     1     -12.128  11.166  69.546  1.00  0.00    -0.326 C  
HETATM    7  O   UNL     1     -11.752  10.092  68.660  1.00  0.00    -0.542 OA 
HETATM    8  H   UNL     1     -12.237   9.318  68.921  1.00  0.00     0.000 HD 
BRANCH   6   9
HETATM    9  C   UNL     1     -11.938  10.731  71.028  1.00  0.00    -0.304 C  
HETATM   10  O   UNL     1     -13.119  11.054  71.782  1.00  0.00    -0.469 OA 
HETATM   11  H   UNL     1     -13.003  10.789  72.687  1.00  0.00     0.000 HD 
BRANCH   9  12
HETATM   12  C   UNL     1     -11.585   9.250  71.276  1.00  0.00    -0.349 C  
HETATM   13  H   UNL     1     -12.127   7.837  72.545  1.00  0.00     0.000 HD 
HETATM   14  O   UNL     1     -12.345   8.749  72.392  1.00  0.00    -0.378 OA 
BRANCH  12  15
HETATM   15  C   UNL     1     -10.082   8.980  71.469  1.00  0.00    -0.339 C  
HETATM   16  O   UNL     1      -9.284   9.901  70.713  1.00  0.00    -0.322 OA 
HETATM   17  H   UNL     1      -8.356   9.734  70.831  1.00  0.00     0.000 HD 
ENDBRANCH  12  15
ENDBRANCH   9  12
ENDBRANCH   6   9
ENDBRANCH   3   6
TORSDOF 4
ENDMDL
MODEL       68
REMARK 921   NORMALIZED FREE ENERGY PREDICTED BY IDOCK:   -3.60 KCAL/MOL
REMARK 922        TOTAL FREE ENERGY PREDICTED BY IDOCK:   -5.32 KCAL/MOL
REMARK 923 INTER-LIGAND FREE ENERGY PREDICTED BY IDOCK:   -4.76 KCAL/MOL
REMARK 924 INTRA-LIGAND FREE ENERGY PREDICTED BY IDOCK:   -0.56 KCAL/MOL
REMARK 927      BINDING AFFINITY PREDICTED BY RF-SCORE:    0.00 PKD
ROOT
HETATM    1  C   UNL     1     -12.285  13.624  64.037  1.00  0.00    -0.390 C  
HETATM    2  O   UNL     1     -12.495  12.815  63.131  1.00  0.00    -0.612 OA 
HETATM    3  C   UNL     1     -11.063  13.602  64.934  1.00  0.00    -0.351 C  
HETATM    4  O   UNL     1     -10.089  14.515  64.417  1.00  0.00    -0.560 OA 
HETATM    5  H   UNL     1      -9.323  14.502  64.980  1.00  0.00     0.000 HD 
ENDROOT
BRANCH   3   6
HETATM    6  C   UNL     1     -10.451  12.199  65.043  1.00  0.00    -0.290 C  
HETATM    7  O   UNL     1      -9.659  11.971  63.860  1.00  0.00    -0.510 OA 
HETATM    8  H   UNL     1      -9.280  11.102  63.928  1.00  0.00     0.000 HD 
BRANCH   6   9
HETATM    9  C   UNL     1      -9.599  11.942  66.319  1.00  0.00    -0.229 C  
HETATM   10  O   UNL     1      -8.726  13.060  66.551  1.00  0.00    -0.418 OA 
HETATM   11  H   UNL     1      -8.205  12.903  67.331  1.00  0.00     0.000 HD 
BRANCH   9  12
HETATM   12  C   UNL     1     -10.370  11.639  67.620  1.00  0.00    -0.189 C  
HETATM   13  H   UNL     1     -12.016  10.669  68.121  1.00  0.00     0.000 HD 
HETATM   14  O   UNL     1     -11.541  10.856  67.321  1.00  0.00    -0.475 OA 
BRANCH  12  15
HETATM   15  C   UNL     1     -10.738  12.885  68.444  1.00  0.00    -0.255 C  
HETATM   16  O   UNL     1     -11.126  12.534  69.779  1.00  0.00    -0.478 OA 
HETATM   17  H   UNL     1     -11.353  13.304  70.288  1.00  0.00     0.000 HD 
ENDBRANCH  12  15
ENDBRANCH   9  12
ENDBRANCH   6   9
ENDBRANCH   3   6
TORSDOF 4
ENDMDL
MODEL       69
REMARK 921   NORMALIZED FREE ENERGY PREDICTED BY IDOCK:   -3.60 KCAL/MOL
REMARK 922        TOTAL FREE ENERGY PREDICTED BY IDOCK:   -5.31 KCAL/MOL
REMARK 923 INTER-LIGAND FREE ENERGY PREDICTED BY IDOCK:   -4.94 KCAL/MOL
REMARK 924 INTRA-LIGAND FREE ENERGY PREDICTED BY IDOCK:   -0.37 KCAL/MOL
REMARK 927      BINDING AFFINITY PREDICTED BY RF-SCORE:    0.00 PKD
ROOT
HETATM    1  C   UNL     1     -12.250  12.958  63.458  1.00  0.00    -0.512 C  
HETATM    2  O   UNL     1     -12.976  12.103  63.967  1.00  0.00    -0.696 OA 
HETATM    3  C   UNL     1     -11.411  13.946  64.245  1.00  0.00    -0.318 C  
HETATM    4  O   UNL     1     -10.078  13.438  64.360  1.00  0.00    -0.613 OA 
HETATM    5  H   UNL     1      -9.553  14.058  64.853  1.00  0.00     0.000 HD 
ENDROOT
BRANCH   3   6
HETATM    6  C   UNL     1     -11.989  14.208  65.642  1.00  0.00    -0.396 C  
HETATM    7  O   UNL     1     -13.425  14.266  65.520  1.00  0.00    -0.683 OA 
HETATM    8  H   UNL     1     -13.783  14.429  66.386  1.00  0.00     0.000 HD 
BRANCH   6   9
HETATM    9  C   UNL     1     -11.584  13.178  66.735  1.00  0.00    -0.366 C  
HETATM   10  O   UNL     1     -11.114  11.971  66.111  1.00  0.00    -0.296 OA 
HETATM   11  H   UNL     1     -10.866  11.341  66.779  1.00  0.00     0.000 HD 
BRANCH   9  12
HETATM   12  C   UNL     1     -10.535  13.639  67.769  1.00  0.00    -0.240 C  
HETATM   13  H   UNL     1     -10.473  13.921  69.722  1.00  0.00     0.000 HD 
HETATM   14  O   UNL     1     -11.118  13.637  69.086  1.00  0.00    -0.253 OA 
BRANCH  12  15
HETATM   15  C   UNL     1      -9.890  14.999  67.454  1.00  0.00    -0.224 C  
HETATM   16  O   UNL     1      -8.830  14.867  66.498  1.00  0.00    -0.341 OA 
HETATM   17  H   UNL     1      -8.431  15.707  66.304  1.00  0.00     0.000 HD 
ENDBRANCH  12  15
ENDBRANCH   9  12
ENDBRANCH   6   9
ENDBRANCH   3   6
TORSDOF 4
ENDMDL
MODEL       70
REMARK 921   NORMALIZED FREE ENERGY PREDICTED BY IDOCK:   -3.60 KCAL/MOL
REMARK 922        TOTAL FREE ENERGY PREDICTED BY IDOCK:   -5.31 KCAL/MOL
REMARK 923 INTER-LIGAND FREE ENERGY PREDICTED BY IDOCK:   -4.81 KCAL/MOL
REMARK 924 INTRA-LIGAND FREE ENERGY PREDICTED BY IDOCK:   -0.49 KCAL/MOL
REMARK 927      BINDING AFFINITY PREDICTED BY RF-SCORE:    0.00 PKD
ROOT
HETATM    1  C   UNL     1     -12.541  12.198  71.169  1.00  0.00    -0.260 C  
HETATM    2  O   UNL     1     -13.459  12.338  71.980  1.00  0.00    -0.467 OA 
HETATM    3  C   UNL     1     -12.096  10.864  70.604  1.00  0.00    -0.371 C  
HETATM    4  O   UNL     1     -12.730  10.659  69.337  1.00  0.00    -0.671 OA 
HETATM    5  H   UNL     1     -12.450   9.822  68.983  1.00  0.00     0.000 HD 
ENDROOT
BRANCH   3   6
HETATM    6  C   UNL     1     -12.430   9.698  71.545  1.00  0.00    -0.386 C  
HETATM    7  O   UNL     1     -13.805   9.328  71.317  1.00  0.00    -0.476 OA 
HETATM    8  H   UNL     1     -14.011   8.607  71.900  1.00  0.00     0.000 HD 
BRANCH   6   9
HETATM    9  C   UNL     1     -11.509   8.452  71.414  1.00  0.00    -0.277 C  
HETATM   10  O   UNL     1     -10.964   8.115  72.701  1.00  0.00    -0.351 OA 
HETATM   11  H   UNL     1     -10.401   7.353  72.620  1.00  0.00     0.000 HD 
BRANCH   9  12
HETATM   12  C   UNL     1     -12.139   7.185  70.798  1.00  0.00    -0.288 C  
HETATM   13  H   UNL     1     -13.138   5.614  71.454  1.00  0.00     0.000 HD 
HETATM   14  O   UNL     1     -12.750   6.393  71.833  1.00  0.00    -0.280 OA 
BRANCH  12  15
HETATM   15  C   UNL     1     -11.167   6.337  69.958  1.00  0.00    -0.412 C  
HETATM   16  O   UNL     1     -11.432   6.472  68.556  1.00  0.00    -0.575 OA 
HETATM   17  H   UNL     1     -10.832   5.948  68.037  1.00  0.00     0.000 HD 
ENDBRANCH  12  15
ENDBRANCH   9  12
ENDBRANCH   6   9
ENDBRANCH   3   6
TORSDOF 4
ENDMDL
MODEL       71
REMARK 921   NORMALIZED FREE ENERGY PREDICTED BY IDOCK:   -3.58 KCAL/MOL
REMARK 922        TOTAL FREE ENERGY PREDICTED BY IDOCK:   -5.29 KCAL/MOL
REMARK 923 INTER-LIGAND FREE ENERGY PREDICTED BY IDOCK:   -5.10 KCAL/MOL
REMARK 924 INTRA-LIGAND FREE ENERGY PREDICTED BY IDOCK:   -0.19 KCAL/MOL
REMARK 927      BINDING AFFINITY PREDICTED BY RF-SCORE:    0.00 PKD
ROOT
HETATM    1  C   UNL     1     -11.589  11.181  68.996  1.00  0.00    -0.324 C  
HETATM    2  O   UNL     1     -12.371  11.605  68.144  1.00  0.00    -0.429 OA 
HETATM    3  C   UNL     1     -11.919  11.053  70.470  1.00  0.00    -0.379 C  
HETATM    4  O   UNL     1     -12.335   9.710  70.741  1.00  0.00    -0.397 OA 
HETATM    5  H   UNL     1     -12.542   9.630  71.664  1.00  0.00     0.000 HD 
ENDROOT
BRANCH   3   6
HETATM    6  C   UNL     1     -13.018  12.033  70.903  1.00  0.00     0.000 C  
HETATM    7  O   UNL     1     -13.562  11.561  72.152  1.00  0.00    -0.477 OA 
HETATM    8  H   UNL     1     -14.242  12.168  72.420  1.00  0.00     0.000 HD 
BRANCH   6   9
HETATM    9  C   UNL     1     -12.570  13.517  71.038  1.00  0.00    -0.359 C  
HETATM   10  O   UNL     1     -12.437  14.103  69.732  1.00  0.00    -0.405 OA 
HETATM   11  H   UNL     1     -12.164  15.010  69.815  1.00  0.00     0.000 HD 
BRANCH   9  12
HETATM   12  C   UNL     1     -13.461  14.435  71.902  1.00  0.00    -0.393 C  
HETATM   13  H   UNL     1     -14.467  16.114  71.647  1.00  0.00     0.000 HD 
HETATM   14  O   UNL     1     -13.919  15.549  71.115  1.00  0.00    -0.547 OA 
BRANCH  12  15
HETATM   15  C   UNL     1     -12.799  14.916  73.205  1.00  0.00    -0.530 C  
HETATM   16  O   UNL     1     -13.530  16.000  73.794  1.00  0.00    -0.860 OA 
HETATM   17  H   UNL     1     -13.121  16.298  74.599  1.00  0.00     0.000 HD 
ENDBRANCH  12  15
ENDBRANCH   9  12
ENDBRANCH   6   9
ENDBRANCH   3   6
TORSDOF 4
ENDMDL
MODEL       72
REMARK 921   NORMALIZED FREE ENERGY PREDICTED BY IDOCK:   -3.57 KCAL/MOL
REMARK 922        TOTAL FREE ENERGY PREDICTED BY IDOCK:   -5.27 KCAL/MOL
REMARK 923 INTER-LIGAND FREE ENERGY PREDICTED BY IDOCK:   -4.41 KCAL/MOL
REMARK 924 INTRA-LIGAND FREE ENERGY PREDICTED BY IDOCK:   -0.86 KCAL/MOL
REMARK 927      BINDING AFFINITY PREDICTED BY RF-SCORE:    0.00 PKD
ROOT
HETATM    1  C   UNL     1     -10.821   9.188  70.181  1.00  0.00    -0.240 C  
HETATM    2  O   UNL     1     -10.497   8.689  69.102  1.00  0.00    -0.220 OA 
HETATM    3  C   UNL     1     -11.602  10.480  70.324  1.00  0.00    -0.332 C  
HETATM    4  O   UNL     1     -12.990  10.170  70.491  1.00  0.00    -0.545 OA 
HETATM    5  H   UNL     1     -13.479  10.980  70.580  1.00  0.00     0.000 HD 
ENDROOT
BRANCH   3   6
HETATM    6  C   UNL     1     -11.418  11.402  69.111  1.00  0.00    -0.299 C  
HETATM    7  O   UNL     1     -11.991  10.740  67.965  1.00  0.00    -0.780 OA 
HETATM    8  H   UNL     1     -11.877  11.312  67.214  1.00  0.00     0.000 HD 
BRANCH   6   9
HETATM    9  C   UNL     1     -12.019  12.829  69.263  1.00  0.00    -0.246 C  
HETATM   10  O   UNL     1     -11.893  13.264  70.628  1.00  0.00    -0.518 OA 
HETATM   11  H   UNL     1     -12.260  14.136  70.720  1.00  0.00     0.000 HD 
BRANCH   9  12
HETATM   12  C   UNL     1     -11.445  13.926  68.341  1.00  0.00    -0.311 C  
HETATM   13  H   UNL     1     -10.090  14.033  66.909  1.00  0.00     0.000 HD 
HETATM   14  O   UNL     1     -10.443  13.359  67.476  1.00  0.00    -0.234 OA 
BRANCH  12  15
HETATM   15  C   UNL     1     -10.898  15.157  69.084  1.00  0.00    -0.251 C  
HETATM   16  O   UNL     1      -9.647  14.870  69.722  1.00  0.00    -0.436 OA 
HETATM   17  H   UNL     1      -9.309  15.631  70.181  1.00  0.00     0.000 HD 
ENDBRANCH  12  15
ENDBRANCH   9  12
ENDBRANCH   6   9
ENDBRANCH   3   6
TORSDOF 4
ENDMDL
MODEL       73
REMARK 921   NORMALIZED FREE ENERGY PREDICTED BY IDOCK:   -3.56 KCAL/MOL
REMARK 922        TOTAL FREE ENERGY PREDICTED BY IDOCK:   -5.26 KCAL/MOL
REMARK 923 INTER-LIGAND FREE ENERGY PREDICTED BY IDOCK:   -4.67 KCAL/MOL
REMARK 924 INTRA-LIGAND FREE ENERGY PREDICTED BY IDOCK:   -0.59 KCAL/MOL
REMARK 927      BINDING AFFINITY PREDICTED BY RF-SCORE:    0.00 PKD
ROOT
HETATM    1  C   UNL     1     -12.010  16.062  71.668  1.00  0.00    -0.499 C  
HETATM    2  O   UNL     1     -11.589  15.373  72.598  1.00  0.00    -0.459 OA 
HETATM    3  C   UNL     1     -12.368  15.521  70.298  1.00  0.00    -0.396 C  
HETATM    4  O   UNL     1     -13.778  15.279  70.246  1.00  0.00    -0.498 OA 
HETATM    5  H   UNL     1     -14.002  14.941  69.387  1.00  0.00     0.000 HD 
ENDROOT
BRANCH   3   6
HETATM    6  C   UNL     1     -11.608  14.229  69.971  1.00  0.00    -0.261 C  
HETATM    7  O   UNL     1     -11.960  13.247  70.967  1.00  0.00    -0.454 OA 
HETATM    8  H   UNL     1     -11.489  12.447  70.764  1.00  0.00     0.000 HD 
BRANCH   6   9
HETATM    9  C   UNL     1     -11.849  13.657  68.544  1.00  0.00    -0.371 C  
HETATM   10  O   UNL     1     -12.529  14.635  67.740  1.00  0.00    -0.575 OA 
HETATM   11  H   UNL     1     -12.677  14.286  66.868  1.00  0.00     0.000 HD 
BRANCH   9  12
HETATM   12  C   UNL     1     -10.606  13.163  67.775  1.00  0.00    -0.234 C  
HETATM   13  H   UNL     1      -9.190  11.814  68.047  1.00  0.00     0.000 HD 
HETATM   14  O   UNL     1      -9.955  12.118  68.521  1.00  0.00    -0.210 OA 
BRANCH  12  15
HETATM   15  C   UNL     1      -9.609  14.274  67.401  1.00  0.00    -0.214 C  
HETATM   16  O   UNL     1      -9.164  14.143  66.044  1.00  0.00    -0.500 OA 
HETATM   17  H   UNL     1      -8.548  14.829  65.813  1.00  0.00     0.000 HD 
ENDBRANCH  12  15
ENDBRANCH   9  12
ENDBRANCH   6   9
ENDBRANCH   3   6
TORSDOF 4
ENDMDL
MODEL       74
REMARK 921   NORMALIZED FREE ENERGY PREDICTED BY IDOCK:   -3.55 KCAL/MOL
REMARK 922        TOTAL FREE ENERGY PREDICTED BY IDOCK:   -5.25 KCAL/MOL
REMARK 923 INTER-LIGAND FREE ENERGY PREDICTED BY IDOCK:   -4.46 KCAL/MOL
REMARK 924 INTRA-LIGAND FREE ENERGY PREDICTED BY IDOCK:   -0.79 KCAL/MOL
REMARK 927      BINDING AFFINITY PREDICTED BY RF-SCORE:    0.00 PKD
ROOT
HETATM    1  C   UNL     1     -13.255  10.320  71.761  1.00  0.00    -0.430 C  
HETATM    2  O   UNL     1     -12.505  11.295  71.696  1.00  0.00    -0.270 OA 
HETATM    3  C   UNL     1     -12.799   8.880  71.621  1.00  0.00    -0.349 C  
HETATM    4  O   UNL     1     -12.598   8.325  72.924  1.00  0.00    -0.634 OA 
HETATM    5  H   UNL     1     -12.312   7.424  72.836  1.00  0.00     0.000 HD 
ENDROOT
BRANCH   3   6
HETATM    6  C   UNL     1     -11.507   8.762  70.801  1.00  0.00    -0.270 C  
HETATM    7  O   UNL     1     -10.451   9.397  71.551  1.00  0.00    -0.337 OA 
HETATM    8  H   UNL     1      -9.651   9.323  71.043  1.00  0.00     0.000 HD 
BRANCH   6   9
HETATM    9  C   UNL     1     -11.095   7.313  70.414  1.00  0.00    -0.268 C  
HETATM   10  O   UNL     1     -12.269   6.493  70.286  1.00  0.00    -0.496 OA 
HETATM   11  H   UNL     1     -12.017   5.608  70.049  1.00  0.00     0.000 HD 
BRANCH   9  12
HETATM   12  C   UNL     1     -10.240   7.151  69.139  1.00  0.00    -0.194 C  
HETATM   13  H   UNL     1      -9.524   8.336  67.730  1.00  0.00     0.000 HD 
HETATM   14  O   UNL     1     -10.050   8.435  68.515  1.00  0.00    -0.186 OA 
BRANCH  12  15
HETATM   15  C   UNL     1     -10.789   6.126  68.133  1.00  0.00    -0.306 C  
HETATM   16  O   UNL     1     -11.647   6.748  67.167  1.00  0.00    -0.725 OA 
HETATM   17  H   UNL     1     -11.987   6.114  66.545  1.00  0.00     0.000 HD 
ENDBRANCH  12  15
ENDBRANCH   9  12
ENDBRANCH   6   9
ENDBRANCH   3   6
TORSDOF 4
ENDMDL
MODEL       75
REMARK 921   NORMALIZED FREE ENERGY PREDICTED BY IDOCK:   -3.55 KCAL/MOL
REMARK 922        TOTAL FREE ENERGY PREDICTED BY IDOCK:   -5.25 KCAL/MOL
REMARK 923 INTER-LIGAND FREE ENERGY PREDICTED BY IDOCK:   -4.82 KCAL/MOL
REMARK 924 INTRA-LIGAND FREE ENERGY PREDICTED BY IDOCK:   -0.43 KCAL/MOL
REMARK 927      BINDING AFFINITY PREDICTED BY RF-SCORE:    0.00 PKD
ROOT
HETATM    1  C   UNL     1      -8.167  17.394  67.904  1.00  0.00    -0.225 C  
HETATM    2  O   UNL     1      -8.146  16.935  69.047  1.00  0.00    -0.237 OA 
HETATM    3  C   UNL     1      -9.151  16.968  66.831  1.00  0.00    -0.236 C  
HETATM    4  O   UNL     1     -10.244  17.891  66.807  1.00  0.00    -0.329 OA 
HETATM    5  H   UNL     1     -10.860  17.624  66.135  1.00  0.00     0.000 HD 
ENDROOT
BRANCH   3   6
HETATM    6  C   UNL     1      -9.677  15.545  67.063  1.00  0.00    -0.224 C  
HETATM    7  O   UNL     1     -10.766  15.628  68.006  1.00  0.00    -0.269 OA 
HETATM    8  H   UNL     1     -11.092  14.746  68.149  1.00  0.00     0.000 HD 
BRANCH   6   9
HETATM    9  C   UNL     1     -10.131  14.786  65.783  1.00  0.00    -0.339 C  
HETATM   10  O   UNL     1      -9.426  13.537  65.686  1.00  0.00    -0.488 OA 
HETATM   11  H   UNL     1      -9.703  13.073  64.904  1.00  0.00     0.000 HD 
BRANCH   9  12
HETATM   12  C   UNL     1     -11.642  14.512  65.637  1.00  0.00    -0.344 C  
HETATM   13  H   UNL     1     -12.843  12.954  65.811  1.00  0.00     0.000 HD 
HETATM   14  O   UNL     1     -11.912  13.123  65.901  1.00  0.00    -0.383 OA 
BRANCH  12  15
HETATM   15  C   UNL     1     -12.237  14.942  64.285  1.00  0.00    -0.344 C  
HETATM   16  O   UNL     1     -11.867  16.287  63.954  1.00  0.00    -1.400 OA 
HETATM   17  H   UNL     1     -12.234  16.552  63.119  1.00  0.00     0.000 HD 
ENDBRANCH  12  15
ENDBRANCH   9  12
ENDBRANCH   6   9
ENDBRANCH   3   6
TORSDOF 4
ENDMDL
MODEL       76
REMARK 921   NORMALIZED FREE ENERGY PREDICTED BY IDOCK:   -3.55 KCAL/MOL
REMARK 922        TOTAL FREE ENERGY PREDICTED BY IDOCK:   -5.25 KCAL/MOL
REMARK 923 INTER-LIGAND FREE ENERGY PREDICTED BY IDOCK:   -4.63 KCAL/MOL
REMARK 924 INTRA-LIGAND FREE ENERGY PREDICTED BY IDOCK:   -0.61 KCAL/MOL
REMARK 927      BINDING AFFINITY PREDICTED BY RF-SCORE:    0.00 PKD
ROOT
HETATM    1  C   UNL     1     -12.305  15.445  63.880  1.00  0.00     0.271 C  
HETATM    2  O   UNL     1     -11.485  16.342  64.086  1.00  0.00    -0.951 OA 
HETATM    3  C   UNL     1     -12.367  14.149  64.664  1.00  0.00    -0.410 C  
HETATM    4  O   UNL     1     -13.346  14.277  65.700  1.00  0.00    -0.659 OA 
HETATM    5  H   UNL     1     -13.385  13.465  66.191  1.00  0.00     0.000 HD 
ENDROOT
BRANCH   3   6
HETATM    6  C   UNL     1     -11.009  13.779  65.276  1.00  0.00    -0.322 C  
HETATM    7  O   UNL     1     -10.047  13.713  64.203  1.00  0.00    -0.757 OA 
HETATM    8  H   UNL     1      -9.206  13.484  64.583  1.00  0.00     0.000 HD 
BRANCH   6   9
HETATM    9  C   UNL     1     -10.501  14.733  66.395  1.00  0.00    -0.293 C  
HETATM   10  O   UNL     1     -11.026  14.311  67.666  1.00  0.00    -0.267 OA 
HETATM   11  H   UNL     1     -10.715  14.893  68.349  1.00  0.00     0.000 HD 
BRANCH   9  12
HETATM   12  C   UNL     1      -8.973  14.901  66.524  1.00  0.00    -0.253 C  
HETATM   13  H   UNL     1      -7.603  14.571  67.908  1.00  0.00     0.000 HD 
HETATM   14  O   UNL     1      -8.544  14.468  67.828  1.00  0.00    -0.159 OA 
BRANCH  12  15
HETATM   15  C   UNL     1      -8.463  16.320  66.219  1.00  0.00    -0.334 C  
HETATM   16  O   UNL     1      -9.547  17.219  65.950  1.00  0.00    -0.500 OA 
HETATM   17  H   UNL     1      -9.232  18.096  65.762  1.00  0.00     0.000 HD 
ENDBRANCH  12  15
ENDBRANCH   9  12
ENDBRANCH   6   9
ENDBRANCH   3   6
TORSDOF 4
ENDMDL
MODEL       77
REMARK 921   NORMALIZED FREE ENERGY PREDICTED BY IDOCK:   -3.55 KCAL/MOL
REMARK 922        TOTAL FREE ENERGY PREDICTED BY IDOCK:   -5.24 KCAL/MOL
REMARK 923 INTER-LIGAND FREE ENERGY PREDICTED BY IDOCK:   -4.55 KCAL/MOL
REMARK 924 INTRA-LIGAND FREE ENERGY PREDICTED BY IDOCK:   -0.70 KCAL/MOL
REMARK 927      BINDING AFFINITY PREDICTED BY RF-SCORE:    0.00 PKD
ROOT
HETATM    1  C   UNL     1     -13.240  10.351  71.273  1.00  0.00    -0.339 C  
HETATM    2  O   UNL     1     -12.162  10.941  71.182  1.00  0.00    -0.352 OA 
HETATM    3  C   UNL     1     -13.388   8.904  71.699  1.00  0.00    -0.365 C  
HETATM    4  O   UNL     1     -13.686   8.857  73.098  1.00  0.00    -1.009 OA 
HETATM    5  H   UNL     1     -13.779   7.950  73.365  1.00  0.00     0.000 HD 
ENDROOT
BRANCH   3   6
HETATM    6  C   UNL     1     -12.123   8.084  71.410  1.00  0.00    -0.305 C  
HETATM    7  O   UNL     1     -11.588   8.531  70.147  1.00  0.00    -0.463 OA 
HETATM    8  H   UNL     1     -10.805   8.024  69.969  1.00  0.00     0.000 HD 
BRANCH   6   9
HETATM    9  C   UNL     1     -11.024   8.146  72.510  1.00  0.00    -0.369 C  
HETATM   10  O   UNL     1     -11.263   7.121  73.490  1.00  0.00    -0.561 OA 
HETATM   11  H   UNL     1     -10.592   7.159  74.162  1.00  0.00     0.000 HD 
BRANCH   9  12
HETATM   12  C   UNL     1      -9.560   8.043  72.036  1.00  0.00    -0.201 C  
HETATM   13  H   UNL     1      -8.283   9.188  71.057  1.00  0.00     0.000 HD 
HETATM   14  O   UNL     1      -9.185   9.252  71.350  1.00  0.00    -0.282 OA 
BRANCH  12  15
HETATM   15  C   UNL     1      -9.258   6.804  71.174  1.00  0.00    -0.159 C  
HETATM   16  O   UNL     1      -8.893   7.173  69.837  1.00  0.00    -0.141 OA 
HETATM   17  H   UNL     1      -8.707   6.408  69.304  1.00  0.00     0.000 HD 
ENDBRANCH  12  15
ENDBRANCH   9  12
ENDBRANCH   6   9
ENDBRANCH   3   6
TORSDOF 4
ENDMDL
MODEL       78
REMARK 921   NORMALIZED FREE ENERGY PREDICTED BY IDOCK:   -3.54 KCAL/MOL
REMARK 922        TOTAL FREE ENERGY PREDICTED BY IDOCK:   -5.24 KCAL/MOL
REMARK 923 INTER-LIGAND FREE ENERGY PREDICTED BY IDOCK:   -4.58 KCAL/MOL
REMARK 924 INTRA-LIGAND FREE ENERGY PREDICTED BY IDOCK:   -0.65 KCAL/MOL
REMARK 927      BINDING AFFINITY PREDICTED BY RF-SCORE:    0.00 PKD
ROOT
HETATM    1  C   UNL     1     -10.783   9.668  70.748  1.00  0.00    -0.331 C  
HETATM    2  O   UNL     1      -9.805   9.405  71.450  1.00  0.00    -0.260 OA 
HETATM    3  C   UNL     1     -12.222   9.487  71.187  1.00  0.00    -0.338 C  
HETATM    4  O   UNL     1     -12.722  10.737  71.675  1.00  0.00    -0.411 OA 
HETATM    5  H   UNL     1     -13.624  10.623  71.950  1.00  0.00     0.000 HD 
ENDROOT
BRANCH   3   6
HETATM    6  C   UNL     1     -12.364   8.412  72.273  1.00  0.00    -0.376 C  
HETATM    7  O   UNL     1     -13.483   8.775  73.108  1.00  0.00    -0.953 OA 
HETATM    8  H   UNL     1     -13.571   8.109  73.780  1.00  0.00     0.000 HD 
BRANCH   6   9
HETATM    9  C   UNL     1     -12.533   6.956  71.751  1.00  0.00    -0.356 C  
HETATM   10  O   UNL     1     -12.473   6.948  70.314  1.00  0.00    -0.613 OA 
HETATM   11  H   UNL     1     -12.576   6.059  69.995  1.00  0.00     0.000 HD 
BRANCH   9  12
HETATM   12  C   UNL     1     -11.542   5.905  72.292  1.00  0.00    -0.282 C  
HETATM   13  H   UNL     1     -10.274   5.769  73.800  1.00  0.00     0.000 HD 
HETATM   14  O   UNL     1     -10.885   6.416  73.467  1.00  0.00    -0.260 OA 
BRANCH  12  15
HETATM   15  C   UNL     1     -10.515   5.410  71.259  1.00  0.00    -0.226 C  
HETATM   16  O   UNL     1      -9.662   6.474  70.817  1.00  0.00    -0.178 OA 
HETATM   17  H   UNL     1      -9.028   6.168  70.178  1.00  0.00     0.000 HD 
ENDBRANCH  12  15
ENDBRANCH   9  12
ENDBRANCH   6   9
ENDBRANCH   3   6
TORSDOF 4
ENDMDL
MODEL       79
REMARK 921   NORMALIZED FREE ENERGY PREDICTED BY IDOCK:   -3.53 KCAL/MOL
REMARK 922        TOTAL FREE ENERGY PREDICTED BY IDOCK:   -5.23 KCAL/MOL
REMARK 923 INTER-LIGAND FREE ENERGY PREDICTED BY IDOCK:   -4.68 KCAL/MOL
REMARK 924 INTRA-LIGAND FREE ENERGY PREDICTED BY IDOCK:   -0.55 KCAL/MOL
REMARK 927      BINDING AFFINITY PREDICTED BY RF-SCORE:    0.00 PKD
ROOT
HETATM    1  C   UNL     1     -13.183   9.797  71.171  1.00  0.00    -0.331 C  
HETATM    2  O   UNL     1     -12.014  10.033  70.862  1.00  0.00    -0.308 OA 
HETATM    3  C   UNL     1     -13.639   8.544  71.893  1.00  0.00    -0.396 C  
HETATM    4  O   UNL     1     -13.730   8.820  73.295  1.00  0.00    -1.033 OA 
HETATM    5  H   UNL     1     -14.016   8.035  73.746  1.00  0.00     0.000 HD 
ENDROOT
BRANCH   3   6
HETATM    6  C   UNL     1     -12.687   7.363  71.657  1.00  0.00    -0.365 C  
HETATM    7  O   UNL     1     -12.607   7.141  70.234  1.00  0.00    -0.545 OA 
HETATM    8  H   UNL     1     -12.017   6.409  70.089  1.00  0.00     0.000 HD 
BRANCH   6   9
HETATM    9  C   UNL     1     -11.261   7.528  72.257  1.00  0.00    -0.283 C  
HETATM   10  O   UNL     1     -11.345   7.613  73.689  1.00  0.00    -0.516 OA 
HETATM   11  H   UNL     1     -10.474   7.713  74.056  1.00  0.00     0.000 HD 
BRANCH   9  12
HETATM   12  C   UNL     1     -10.224   6.446  71.887  1.00  0.00    -0.195 C  
HETATM   13  H   UNL     1      -9.263   5.875  70.260  1.00  0.00     0.000 HD 
HETATM   14  O   UNL     1      -9.901   6.541  70.487  1.00  0.00    -0.178 OA 
BRANCH  12  15
HETATM   15  C   UNL     1     -10.641   5.013  72.261  1.00  0.00    -0.206 C  
HETATM   16  O   UNL     1     -11.228   4.963  73.568  1.00  0.00    -0.323 OA 
HETATM   17  H   UNL     1     -11.485   4.077  73.799  1.00  0.00     0.000 HD 
ENDBRANCH  12  15
ENDBRANCH   9  12
ENDBRANCH   6   9
ENDBRANCH   3   6
TORSDOF 4
ENDMDL
MODEL       80
REMARK 921   NORMALIZED FREE ENERGY PREDICTED BY IDOCK:   -3.53 KCAL/MOL
REMARK 922        TOTAL FREE ENERGY PREDICTED BY IDOCK:   -5.22 KCAL/MOL
REMARK 923 INTER-LIGAND FREE ENERGY PREDICTED BY IDOCK:   -4.44 KCAL/MOL
REMARK 924 INTRA-LIGAND FREE ENERGY PREDICTED BY IDOCK:   -0.78 KCAL/MOL
REMARK 927      BINDING AFFINITY PREDICTED BY RF-SCORE:    0.00 PKD
ROOT
HETATM    1  C   UNL     1      -9.979  18.213  66.554  1.00  0.00    -0.374 C  
HETATM    2  O   UNL     1      -9.093  17.665  65.896  1.00  0.00    -0.515 OA 
HETATM    3  C   UNL     1     -10.272  17.908  68.010  1.00  0.00    -0.376 C  
HETATM    4  O   UNL     1      -9.603  18.871  68.832  1.00  0.00    -0.367 OA 
HETATM    5  H   UNL     1      -9.787  18.680  69.744  1.00  0.00     0.000 HD 
ENDROOT
BRANCH   3   6
HETATM    6  C   UNL     1      -9.830  16.493  68.404  1.00  0.00    -0.237 C  
HETATM    7  O   UNL     1      -8.388  16.480  68.453  1.00  0.00    -0.183 OA 
HETATM    8  H   UNL     1      -8.114  15.604  68.698  1.00  0.00     0.000 HD 
BRANCH   6   9
HETATM    9  C   UNL     1     -10.417  15.960  69.743  1.00  0.00    -0.311 C  
HETATM   10  O   UNL     1     -11.047  17.037  70.458  1.00  0.00    -0.326 OA 
HETATM   11  H   UNL     1     -11.406  16.712  71.275  1.00  0.00     0.000 HD 
BRANCH   9  12
HETATM   12  C   UNL     1     -11.413  14.785  69.645  1.00  0.00    -0.292 C  
HETATM   13  H   UNL     1     -12.639  14.051  68.282  1.00  0.00     0.000 HD 
HETATM   14  O   UNL     1     -12.026  14.774  68.342  1.00  0.00    -0.303 OA 
BRANCH  12  15
HETATM   15  C   UNL     1     -12.478  14.762  70.755  1.00  0.00    -0.337 C  
HETATM   16  O   UNL     1     -13.526  15.705  70.494  1.00  0.00    -0.821 OA 
HETATM   17  H   UNL     1     -14.184  15.691  71.180  1.00  0.00     0.000 HD 
ENDBRANCH  12  15
ENDBRANCH   9  12
ENDBRANCH   6   9
ENDBRANCH   3   6
TORSDOF 4
ENDMDL
MODEL       81
REMARK 921   NORMALIZED FREE ENERGY PREDICTED BY IDOCK:   -3.50 KCAL/MOL
REMARK 922        TOTAL FREE ENERGY PREDICTED BY IDOCK:   -5.19 KCAL/MOL
REMARK 923 INTER-LIGAND FREE ENERGY PREDICTED BY IDOCK:   -4.61 KCAL/MOL
REMARK 924 INTRA-LIGAND FREE ENERGY PREDICTED BY IDOCK:   -0.58 KCAL/MOL
REMARK 927      BINDING AFFINITY PREDICTED BY RF-SCORE:    0.00 PKD
ROOT
HETATM    1  C   UNL     1     -12.075  15.626  64.086  1.00  0.00     0.009 C  
HETATM    2  O   UNL     1     -11.147  16.265  64.584  1.00  0.00    -0.634 OA 
HETATM    3  C   UNL     1     -12.229  14.122  64.193  1.00  0.00    -0.390 C  
HETATM    4  O   UNL     1     -13.113  13.819  65.277  1.00  0.00    -0.756 OA 
HETATM    5  H   UNL     1     -13.210  12.876  65.344  1.00  0.00     0.000 HD 
ENDROOT
BRANCH   3   6
HETATM    6  C   UNL     1     -10.883  13.417  64.409  1.00  0.00    -0.406 C  
HETATM    7  O   UNL     1     -10.397  13.788  65.716  1.00  0.00    -0.290 OA 
HETATM    8  H   UNL     1      -9.563  13.352  65.849  1.00  0.00     0.000 HD 
BRANCH   6   9
HETATM    9  C   UNL     1     -10.911  11.868  64.266  1.00  0.00    -0.353 C  
HETATM   10  O   UNL     1     -11.705  11.502  63.125  1.00  0.00    -0.854 OA 
HETATM   11  H   UNL     1     -11.722  10.556  63.038  1.00  0.00     0.000 HD 
BRANCH   9  12
HETATM   12  C   UNL     1      -9.546  11.155  64.167  1.00  0.00    -0.255 C  
HETATM   13  H   UNL     1      -8.770   9.679  63.110  1.00  0.00     0.000 HD 
HETATM   14  O   UNL     1      -9.610  10.119  63.170  1.00  0.00    -0.300 OA 
BRANCH  12  15
HETATM   15  C   UNL     1      -9.022  10.602  65.504  1.00  0.00    -0.191 C  
HETATM   16  O   UNL     1      -9.854  11.005  66.600  1.00  0.00    -0.191 OA 
HETATM   17  H   UNL     1      -9.529  10.664  67.426  1.00  0.00     0.000 HD 
ENDBRANCH  12  15
ENDBRANCH   9  12
ENDBRANCH   6   9
ENDBRANCH   3   6
TORSDOF 4
ENDMDL
MODEL       82
REMARK 921   NORMALIZED FREE ENERGY PREDICTED BY IDOCK:   -3.50 KCAL/MOL
REMARK 922        TOTAL FREE ENERGY PREDICTED BY IDOCK:   -5.19 KCAL/MOL
REMARK 923 INTER-LIGAND FREE ENERGY PREDICTED BY IDOCK:   -4.37 KCAL/MOL
REMARK 924 INTRA-LIGAND FREE ENERGY PREDICTED BY IDOCK:   -0.82 KCAL/MOL
REMARK 927      BINDING AFFINITY PREDICTED BY RF-SCORE:    0.00 PKD
ROOT
HETATM    1  C   UNL     1     -10.648  15.925  65.766  1.00  0.00    -0.355 C  
HETATM    2  O   UNL     1     -10.707  16.826  64.927  1.00  0.00    -0.721 OA 
HETATM    3  C   UNL     1      -9.997  16.066  67.127  1.00  0.00    -0.249 C  
HETATM    4  O   UNL     1     -11.003  16.375  68.097  1.00  0.00    -0.337 OA 
HETATM    5  H   UNL     1     -10.595  16.464  68.950  1.00  0.00     0.000 HD 
ENDROOT
BRANCH   3   6
HETATM    6  C   UNL     1      -8.914  17.154  67.139  1.00  0.00    -0.228 C  
HETATM    7  O   UNL     1      -8.213  17.089  65.880  1.00  0.00    -0.505 OA 
HETATM    8  H   UNL     1      -7.543  17.763  65.887  1.00  0.00     0.000 HD 
BRANCH   6   9
HETATM    9  C   UNL     1      -9.426  18.600  67.396  1.00  0.00    -0.297 C  
HETATM   10  O   UNL     1      -9.839  18.731  68.766  1.00  0.00    -0.368 OA 
HETATM   11  H   UNL     1     -10.152  19.615  68.923  1.00  0.00     0.000 HD 
BRANCH   9  12
HETATM   12  C   UNL     1      -8.452  19.750  67.062  1.00  0.00    -0.319 C  
HETATM   13  H   UNL     1      -7.679  20.549  65.431  1.00  0.00     0.000 HD 
HETATM   14  O   UNL     1      -8.278  19.842  65.636  1.00  0.00    -0.383 OA 
BRANCH  12  15
HETATM   15  C   UNL     1      -7.094  19.659  67.778  1.00  0.00    -0.256 C  
HETATM   16  O   UNL     1      -7.248  19.714  69.203  1.00  0.00    -0.354 OA 
HETATM   17  H   UNL     1      -6.408  19.658  69.645  1.00  0.00     0.000 HD 
ENDBRANCH  12  15
ENDBRANCH   9  12
ENDBRANCH   6   9
ENDBRANCH   3   6
TORSDOF 4
ENDMDL
MODEL       83
REMARK 921   NORMALIZED FREE ENERGY PREDICTED BY IDOCK:   -3.49 KCAL/MOL
REMARK 922        TOTAL FREE ENERGY PREDICTED BY IDOCK:   -5.17 KCAL/MOL
REMARK 923 INTER-LIGAND FREE ENERGY PREDICTED BY IDOCK:   -4.92 KCAL/MOL
REMARK 924 INTRA-LIGAND FREE ENERGY PREDICTED BY IDOCK:   -0.25 KCAL/MOL
REMARK 927      BINDING AFFINITY PREDICTED BY RF-SCORE:    0.00 PKD
ROOT
HETATM    1  C   UNL     1     -12.097  13.805  64.109  1.00  0.00    -0.433 C  
HETATM    2  O   UNL     1     -11.140  13.099  63.784  1.00  0.00    -0.371 OA 
HETATM    3  C   UNL     1     -11.969  15.175  64.747  1.00  0.00    -0.250 C  
HETATM    4  O   UNL     1     -12.074  16.175  63.729  1.00  0.00    -1.355 OA 
HETATM    5  H   UNL     1     -11.995  17.033  64.129  1.00  0.00     0.000 HD 
ENDROOT
BRANCH   3   6
HETATM    6  C   UNL     1     -10.643  15.339  65.502  1.00  0.00    -0.373 C  
HETATM    7  O   UNL     1     -10.144  16.665  65.229  1.00  0.00    -0.575 OA 
HETATM    8  H   UNL     1      -9.323  16.766  65.697  1.00  0.00     0.000 HD 
BRANCH   6   9
HETATM    9  C   UNL     1     -10.716  15.098  67.037  1.00  0.00    -0.307 C  
HETATM   10  O   UNL     1     -12.077  14.841  67.422  1.00  0.00    -0.506 OA 
HETATM   11  H   UNL     1     -12.122  14.693  68.360  1.00  0.00     0.000 HD 
BRANCH   9  12
HETATM   12  C   UNL     1      -9.822  13.976  67.607  1.00  0.00    -0.233 C  
HETATM   13  H   UNL     1      -9.740  12.909  69.266  1.00  0.00     0.000 HD 
HETATM   14  O   UNL     1     -10.290  13.599  68.915  1.00  0.00    -0.209 OA 
BRANCH  12  15
HETATM   15  C   UNL     1      -8.322  14.315  67.635  1.00  0.00    -0.181 C  
HETATM   16  O   UNL     1      -8.086  15.601  68.224  1.00  0.00    -0.130 OA 
HETATM   17  H   UNL     1      -7.159  15.810  68.241  1.00  0.00     0.000 HD 
ENDBRANCH  12  15
ENDBRANCH   9  12
ENDBRANCH   6   9
ENDBRANCH   3   6
TORSDOF 4
ENDMDL
MODEL       84
REMARK 921   NORMALIZED FREE ENERGY PREDICTED BY IDOCK:   -3.48 KCAL/MOL
REMARK 922        TOTAL FREE ENERGY PREDICTED BY IDOCK:   -5.16 KCAL/MOL
REMARK 923 INTER-LIGAND FREE ENERGY PREDICTED BY IDOCK:   -4.48 KCAL/MOL
REMARK 924 INTRA-LIGAND FREE ENERGY PREDICTED BY IDOCK:   -0.68 KCAL/MOL
REMARK 927      BINDING AFFINITY PREDICTED BY RF-SCORE:    0.00 PKD
ROOT
HETATM    1  C   UNL     1     -10.013  14.812  67.188  1.00  0.00    -0.236 C  
HETATM    2  O   UNL     1     -10.921  15.103  66.408  1.00  0.00    -0.331 OA 
HETATM    3  C   UNL     1      -9.259  15.820  68.035  1.00  0.00    -0.188 C  
HETATM    4  O   UNL     1      -9.844  15.862  69.340  1.00  0.00    -0.251 OA 
HETATM    5  H   UNL     1      -9.372  16.493  69.871  1.00  0.00     0.000 HD 
ENDROOT
BRANCH   3   6
HETATM    6  C   UNL     1      -9.275  17.223  67.413  1.00  0.00    -0.231 C  
HETATM    7  O   UNL     1      -9.072  17.076  65.992  1.00  0.00    -0.464 OA 
HETATM    8  H   UNL     1      -9.081  17.945  65.608  1.00  0.00     0.000 HD 
BRANCH   6   9
HETATM    9  C   UNL     1     -10.557  18.059  67.689  1.00  0.00    -0.399 C  
HETATM   10  O   UNL     1     -10.607  18.424  69.079  1.00  0.00    -0.379 OA 
HETATM   11  H   UNL     1     -11.391  18.935  69.247  1.00  0.00     0.000 HD 
BRANCH   9  12
HETATM   12  C   UNL     1     -10.753  19.331  66.838  1.00  0.00    -0.444 C  
HETATM   13  H   UNL     1     -10.994  19.755  64.924  1.00  0.00     0.000 HD 
HETATM   14  O   UNL     1     -10.874  18.973  65.448  1.00  0.00    -0.541 OA 
BRANCH  12  15
HETATM   15  C   UNL     1      -9.666  20.401  67.038  1.00  0.00    -0.447 C  
HETATM   16  O   UNL     1      -8.649  20.309  66.032  1.00  0.00    -0.565 OA 
HETATM   17  H   UNL     1      -7.977  20.969  66.156  1.00  0.00     0.000 HD 
ENDBRANCH  12  15
ENDBRANCH   9  12
ENDBRANCH   6   9
ENDBRANCH   3   6
TORSDOF 4
ENDMDL
MODEL       85
REMARK 921   NORMALIZED FREE ENERGY PREDICTED BY IDOCK:   -3.46 KCAL/MOL
REMARK 922        TOTAL FREE ENERGY PREDICTED BY IDOCK:   -5.14 KCAL/MOL
REMARK 923 INTER-LIGAND FREE ENERGY PREDICTED BY IDOCK:   -4.61 KCAL/MOL
REMARK 924 INTRA-LIGAND FREE ENERGY PREDICTED BY IDOCK:   -0.53 KCAL/MOL
REMARK 927      BINDING AFFINITY PREDICTED BY RF-SCORE:    0.00 PKD
ROOT
HETATM    1  C   UNL     1     -10.877   6.010  71.257  1.00  0.00    -0.272 C  
HETATM    2  O   UNL     1      -9.787   6.371  70.810  1.00  0.00    -0.182 OA 
HETATM    3  C   UNL     1     -11.958   6.956  71.742  1.00  0.00    -0.333 C  
HETATM    4  O   UNL     1     -12.899   7.171  70.684  1.00  0.00    -0.609 OA 
HETATM    5  H   UNL     1     -13.576   7.764  70.989  1.00  0.00     0.000 HD 
ENDROOT
BRANCH   3   6
HETATM    6  C   UNL     1     -11.382   8.301  72.205  1.00  0.00    -0.378 C  
HETATM    7  O   UNL     1     -10.141   8.035  72.890  1.00  0.00    -0.282 OA 
HETATM    8  H   UNL     1      -9.784   8.868  73.177  1.00  0.00     0.000 HD 
BRANCH   6   9
HETATM    9  C   UNL     1     -11.160   9.353  71.081  1.00  0.00    -0.362 C  
HETATM   10  O   UNL     1     -11.018   8.687  69.815  1.00  0.00    -0.329 OA 
HETATM   11  H   UNL     1     -10.882   9.330  69.129  1.00  0.00     0.000 HD 
BRANCH   9  12
HETATM   12  C   UNL     1     -12.231  10.456  70.941  1.00  0.00    -0.383 C  
HETATM   13  H   UNL     1     -14.200  10.537  70.824  1.00  0.00     0.000 HD 
HETATM   14  O   UNL     1     -13.541   9.859  70.911  1.00  0.00    -0.301 OA 
BRANCH  12  15
HETATM   15  C   UNL     1     -12.024  11.391  69.737  1.00  0.00    -0.353 C  
HETATM   16  O   UNL     1     -12.405  10.755  68.509  1.00  0.00    -0.825 OA 
HETATM   17  H   UNL     1     -12.277  11.333  67.765  1.00  0.00     0.000 HD 
ENDBRANCH  12  15
ENDBRANCH   9  12
ENDBRANCH   6   9
ENDBRANCH   3   6
TORSDOF 4
ENDMDL
MODEL       86
REMARK 921   NORMALIZED FREE ENERGY PREDICTED BY IDOCK:   -3.46 KCAL/MOL
REMARK 922        TOTAL FREE ENERGY PREDICTED BY IDOCK:   -5.13 KCAL/MOL
REMARK 923 INTER-LIGAND FREE ENERGY PREDICTED BY IDOCK:   -4.66 KCAL/MOL
REMARK 924 INTRA-LIGAND FREE ENERGY PREDICTED BY IDOCK:   -0.47 KCAL/MOL
REMARK 927      BINDING AFFINITY PREDICTED BY RF-SCORE:    0.00 PKD
ROOT
HETATM    1  C   UNL     1      -8.074  11.597  67.334  1.00  0.00    -0.153 C  
HETATM    2  O   UNL     1      -8.814  10.613  67.393  1.00  0.00    -0.132 OA 
HETATM    3  C   UNL     1      -8.547  13.030  67.481  1.00  0.00    -0.192 C  
HETATM    4  O   UNL     1      -8.354  13.448  68.836  1.00  0.00    -0.350 OA 
HETATM    5  H   UNL     1      -8.650  14.346  68.928  1.00  0.00     0.000 HD 
ENDROOT
BRANCH   3   6
HETATM    6  C   UNL     1     -10.023  13.194  67.092  1.00  0.00    -0.236 C  
HETATM    7  O   UNL     1     -10.750  13.577  68.278  1.00  0.00    -0.243 OA 
HETATM    8  H   UNL     1     -11.663  13.678  68.037  1.00  0.00     0.000 HD 
BRANCH   6   9
HETATM    9  C   UNL     1     -10.300  14.204  65.942  1.00  0.00    -0.316 C  
HETATM   10  O   UNL     1      -9.791  13.679  64.704  1.00  0.00    -0.619 OA 
HETATM   11  H   UNL     1      -9.960  14.296  64.002  1.00  0.00     0.000 HD 
BRANCH   9  12
HETATM   12  C   UNL     1     -11.769  14.628  65.731  1.00  0.00    -0.302 C  
HETATM   13  H   UNL     1     -13.550  13.940  66.234  1.00  0.00     0.000 HD 
HETATM   14  O   UNL     1     -12.646  13.679  66.364  1.00  0.00    -0.364 OA 
BRANCH  12  15
HETATM   15  C   UNL     1     -12.161  14.843  64.258  1.00  0.00    -0.353 C  
HETATM   16  O   UNL     1     -11.720  16.120  63.780  1.00  0.00    -1.404 OA 
HETATM   17  H   UNL     1     -11.963  16.253  62.870  1.00  0.00     0.000 HD 
ENDBRANCH  12  15
ENDBRANCH   9  12
ENDBRANCH   6   9
ENDBRANCH   3   6
TORSDOF 4
ENDMDL
MODEL       87
REMARK 921   NORMALIZED FREE ENERGY PREDICTED BY IDOCK:   -3.45 KCAL/MOL
REMARK 922        TOTAL FREE ENERGY PREDICTED BY IDOCK:   -5.12 KCAL/MOL
REMARK 923 INTER-LIGAND FREE ENERGY PREDICTED BY IDOCK:   -5.05 KCAL/MOL
REMARK 924 INTRA-LIGAND FREE ENERGY PREDICTED BY IDOCK:   -0.07 KCAL/MOL
REMARK 927      BINDING AFFINITY PREDICTED BY RF-SCORE:    0.00 PKD
ROOT
HETATM    1  C   UNL     1     -11.176   9.909  70.804  1.00  0.00    -0.353 C  
HETATM    2  O   UNL     1     -10.146   9.540  71.371  1.00  0.00    -0.258 OA 
HETATM    3  C   UNL     1     -12.568   9.771  71.387  1.00  0.00    -0.386 C  
HETATM    4  O   UNL     1     -12.935  11.003  72.017  1.00  0.00    -0.452 OA 
HETATM    5  H   UNL     1     -13.807  10.916  72.382  1.00  0.00     0.000 HD 
ENDROOT
BRANCH   3   6
HETATM    6  C   UNL     1     -12.657   8.623  72.402  1.00  0.00    -0.362 C  
HETATM    7  O   UNL     1     -13.777   8.891  73.272  1.00  0.00    -1.085 OA 
HETATM    8  H   UNL     1     -13.832   8.180  73.900  1.00  0.00     0.000 HD 
BRANCH   6   9
HETATM    9  C   UNL     1     -12.784   7.199  71.788  1.00  0.00    -0.339 C  
HETATM   10  O   UNL     1     -13.710   7.227  70.689  1.00  0.00    -0.422 OA 
HETATM   11  H   UNL     1     -13.787   6.357  70.313  1.00  0.00     0.000 HD 
BRANCH   9  12
HETATM   12  C   UNL     1     -11.476   6.529  71.314  1.00  0.00    -0.318 C  
HETATM   13  H   UNL     1     -10.801   5.718  69.645  1.00  0.00     0.000 HD 
HETATM   14  O   UNL     1     -11.606   6.131  69.937  1.00  0.00    -0.404 OA 
BRANCH  12  15
HETATM   15  C   UNL     1     -11.016   5.349  72.188  1.00  0.00    -0.201 C  
HETATM   16  O   UNL     1     -11.390   5.537  73.560  1.00  0.00    -0.469 OA 
HETATM   17  H   UNL     1     -11.105   4.808  74.099  1.00  0.00     0.000 HD 
ENDBRANCH  12  15
ENDBRANCH   9  12
ENDBRANCH   6   9
ENDBRANCH   3   6
TORSDOF 4
ENDMDL
MODEL       88
REMARK 921   NORMALIZED FREE ENERGY PREDICTED BY IDOCK:   -3.45 KCAL/MOL
REMARK 922        TOTAL FREE ENERGY PREDICTED BY IDOCK:   -5.12 KCAL/MOL
REMARK 923 INTER-LIGAND FREE ENERGY PREDICTED BY IDOCK:   -4.38 KCAL/MOL
REMARK 924 INTRA-LIGAND FREE ENERGY PREDICTED BY IDOCK:   -0.75 KCAL/MOL
REMARK 927      BINDING AFFINITY PREDICTED BY RF-SCORE:    0.00 PKD
ROOT
HETATM    1  C   UNL     1     -11.284  15.003  65.579  1.00  0.00    -0.344 C  
HETATM    2  O   UNL     1     -10.569  14.630  64.648  1.00  0.00    -0.392 OA 
HETATM    3  C   UNL     1     -11.802  14.093  66.676  1.00  0.00    -0.424 C  
HETATM    4  O   UNL     1     -10.936  14.192  67.811  1.00  0.00    -0.255 OA 
HETATM    5  H   UNL     1     -11.261  13.622  68.498  1.00  0.00     0.000 HD 
ENDROOT
BRANCH   3   6
HETATM    6  C   UNL     1     -11.893  12.631  66.218  1.00  0.00    -0.410 C  
HETATM    7  O   UNL     1     -12.769  12.583  65.073  1.00  0.00    -0.649 OA 
HETATM    8  H   UNL     1     -12.825  11.678  64.790  1.00  0.00     0.000 HD 
BRANCH   6   9
HETATM    9  C   UNL     1     -10.533  11.953  65.883  1.00  0.00    -0.258 C  
HETATM   10  O   UNL     1      -9.861  11.589  67.100  1.00  0.00    -0.189 OA 
HETATM   11  H   UNL     1      -9.030  11.175  66.895  1.00  0.00     0.000 HD 
BRANCH   9  12
HETATM   12  C   UNL     1     -10.583  10.718  64.958  1.00  0.00    -0.173 C  
HETATM   13  H   UNL     1      -9.900   8.866  64.999  1.00  0.00     0.000 HD 
HETATM   14  O   UNL     1      -9.870   9.626  65.568  1.00  0.00    -0.302 OA 
BRANCH  12  15
HETATM   15  C   UNL     1     -10.077  10.976  63.528  1.00  0.00    -0.373 C  
HETATM   16  O   UNL     1     -10.640  12.176  62.983  1.00  0.00    -0.609 OA 
HETATM   17  H   UNL     1     -10.328  12.335  62.099  1.00  0.00     0.000 HD 
ENDBRANCH  12  15
ENDBRANCH   9  12
ENDBRANCH   6   9
ENDBRANCH   3   6
TORSDOF 4
ENDMDL
MODEL       89
REMARK 921   NORMALIZED FREE ENERGY PREDICTED BY IDOCK:   -3.45 KCAL/MOL
REMARK 922        TOTAL FREE ENERGY PREDICTED BY IDOCK:   -5.12 KCAL/MOL
REMARK 923 INTER-LIGAND FREE ENERGY PREDICTED BY IDOCK:   -4.85 KCAL/MOL
REMARK 924 INTRA-LIGAND FREE ENERGY PREDICTED BY IDOCK:   -0.27 KCAL/MOL
REMARK 927      BINDING AFFINITY PREDICTED BY RF-SCORE:    0.00 PKD
ROOT
HETATM    1  C   UNL     1     -11.127  16.788  65.045  1.00  0.00    -0.057 C  
HETATM    2  O   UNL     1     -11.586  16.554  63.925  1.00  0.00    -1.175 OA 
HETATM    3  C   UNL     1     -10.321  15.798  65.862  1.00  0.00    -0.354 C  
HETATM    4  O   UNL     1      -8.927  16.053  65.662  1.00  0.00    -0.331 OA 
HETATM    5  H   UNL     1      -8.422  15.433  66.174  1.00  0.00     0.000 HD 
ENDROOT
BRANCH   3   6
HETATM    6  C   UNL     1     -10.641  14.344  65.487  1.00  0.00    -0.347 C  
HETATM    7  O   UNL     1     -10.175  14.125  64.139  1.00  0.00    -0.556 OA 
HETATM    8  H   UNL     1     -10.374  13.225  63.907  1.00  0.00     0.000 HD 
BRANCH   6   9
HETATM    9  C   UNL     1     -10.053  13.266  66.441  1.00  0.00    -0.290 C  
HETATM   10  O   UNL     1      -8.684  13.583  66.745  1.00  0.00    -0.386 OA 
HETATM   11  H   UNL     1      -8.325  12.924  67.328  1.00  0.00     0.000 HD 
BRANCH   9  12
HETATM   12  C   UNL     1     -10.809  13.023  67.764  1.00  0.00    -0.240 C  
HETATM   13  H   UNL     1     -12.562  12.293  68.303  1.00  0.00     0.000 HD 
HETATM   14  O   UNL     1     -12.097  12.442  67.489  1.00  0.00    -0.491 OA 
BRANCH  12  15
HETATM   15  C   UNL     1     -10.946  14.270  68.654  1.00  0.00    -0.252 C  
HETATM   16  O   UNL     1     -11.475  13.938  69.944  1.00  0.00    -0.373 OA 
HETATM   17  H   UNL     1     -11.560  14.708  70.494  1.00  0.00     0.000 HD 
ENDBRANCH  12  15
ENDBRANCH   9  12
ENDBRANCH   6   9
ENDBRANCH   3   6
TORSDOF 4
ENDMDL
MODEL       90
REMARK 921   NORMALIZED FREE ENERGY PREDICTED BY IDOCK:   -3.44 KCAL/MOL
REMARK 922        TOTAL FREE ENERGY PREDICTED BY IDOCK:   -5.11 KCAL/MOL
REMARK 923 INTER-LIGAND FREE ENERGY PREDICTED BY IDOCK:   -4.79 KCAL/MOL
REMARK 924 INTRA-LIGAND FREE ENERGY PREDICTED BY IDOCK:   -0.32 KCAL/MOL
REMARK 927      BINDING AFFINITY PREDICTED BY RF-SCORE:    0.00 PKD
ROOT
HETATM    1  C   UNL     1     -10.274  17.425  66.648  1.00  0.00    -0.324 C  
HETATM    2  O   UNL     1      -9.321  17.224  65.893  1.00  0.00    -0.507 OA 
HETATM    3  C   UNL     1     -10.656  16.517  67.801  1.00  0.00    -0.332 C  
HETATM    4  O   UNL     1     -10.087  17.032  69.009  1.00  0.00    -0.278 OA 
HETATM    5  H   UNL     1     -10.327  16.463  69.731  1.00  0.00     0.000 HD 
ENDROOT
BRANCH   3   6
HETATM    6  C   UNL     1     -10.184  15.073  67.579  1.00  0.00    -0.234 C  
HETATM    7  O   UNL     1      -9.353  14.705  68.699  1.00  0.00    -0.199 OA 
HETATM    8  H   UNL     1      -9.061  13.811  68.562  1.00  0.00     0.000 HD 
BRANCH   6   9
HETATM    9  C   UNL     1     -11.317  14.026  67.383  1.00  0.00    -0.329 C  
HETATM   10  O   UNL     1     -12.433  14.356  68.227  1.00  0.00    -0.587 OA 
HETATM   11  H   UNL     1     -13.125  13.716  68.107  1.00  0.00     0.000 HD 
BRANCH   9  12
HETATM   12  C   UNL     1     -11.832  13.820  65.943  1.00  0.00    -0.383 C  
HETATM   13  H   UNL     1     -12.662  12.357  64.909  1.00  0.00     0.000 HD 
HETATM   14  O   UNL     1     -12.346  12.484  65.796  1.00  0.00    -0.627 OA 
BRANCH  12  15
HETATM   15  C   UNL     1     -10.796  14.135  64.849  1.00  0.00    -0.411 C  
HETATM   16  O   UNL     1      -9.973  12.996  64.564  1.00  0.00    -0.577 OA 
HETATM   17  H   UNL     1      -9.333  13.191  63.888  1.00  0.00     0.000 HD 
ENDBRANCH  12  15
ENDBRANCH   9  12
ENDBRANCH   6   9
ENDBRANCH   3   6
TORSDOF 4
ENDMDL
MODEL       91
REMARK 921   NORMALIZED FREE ENERGY PREDICTED BY IDOCK:   -3.43 KCAL/MOL
REMARK 922        TOTAL FREE ENERGY PREDICTED BY IDOCK:   -5.10 KCAL/MOL
REMARK 923 INTER-LIGAND FREE ENERGY PREDICTED BY IDOCK:   -4.77 KCAL/MOL
REMARK 924 INTRA-LIGAND FREE ENERGY PREDICTED BY IDOCK:   -0.33 KCAL/MOL
REMARK 927      BINDING AFFINITY PREDICTED BY RF-SCORE:    0.00 PKD
ROOT
HETATM    1  C   UNL     1      -9.130  15.026  68.539  1.00  0.00    -0.188 C  
HETATM    2  O   UNL     1     -10.083  15.000  69.319  1.00  0.00    -0.233 OA 
HETATM    3  C   UNL     1      -9.133  15.754  67.210  1.00  0.00    -0.207 C  
HETATM    4  O   UNL     1      -8.530  17.041  67.381  1.00  0.00    -0.192 OA 
HETATM    5  H   UNL     1      -8.532  17.497  66.547  1.00  0.00     0.000 HD 
ENDROOT
BRANCH   3   6
HETATM    6  C   UNL     1     -10.551  15.917  66.644  1.00  0.00    -0.305 C  
HETATM    7  O   UNL     1     -10.451  16.669  65.417  1.00  0.00    -0.571 OA 
HETATM    8  H   UNL     1     -11.329  16.769  65.068  1.00  0.00     0.000 HD 
BRANCH   6   9
HETATM    9  C   UNL     1     -11.326  14.590  66.400  1.00  0.00    -0.349 C  
HETATM   10  O   UNL     1     -12.384  14.463  67.364  1.00  0.00    -0.623 OA 
HETATM   11  H   UNL     1     -12.857  13.653  67.215  1.00  0.00     0.000 HD 
BRANCH   9  12
HETATM   12  C   UNL     1     -11.917  14.382  64.989  1.00  0.00    -0.412 C  
HETATM   13  H   UNL     1     -13.681  13.934  64.223  1.00  0.00     0.000 HD 
HETATM   14  O   UNL     1     -13.317  14.063  65.091  1.00  0.00    -0.703 OA 
BRANCH  12  15
HETATM   15  C   UNL     1     -11.175  13.336  64.139  1.00  0.00    -0.379 C  
HETATM   16  O   UNL     1      -9.820  13.169  64.579  1.00  0.00    -0.604 OA 
HETATM   17  H   UNL     1      -9.361  12.523  64.054  1.00  0.00     0.000 HD 
ENDBRANCH  12  15
ENDBRANCH   9  12
ENDBRANCH   6   9
ENDBRANCH   3   6
TORSDOF 4
ENDMDL
MODEL       92
REMARK 921   NORMALIZED FREE ENERGY PREDICTED BY IDOCK:   -3.43 KCAL/MOL
REMARK 922        TOTAL FREE ENERGY PREDICTED BY IDOCK:   -5.10 KCAL/MOL
REMARK 923 INTER-LIGAND FREE ENERGY PREDICTED BY IDOCK:   -4.37 KCAL/MOL
REMARK 924 INTRA-LIGAND FREE ENERGY PREDICTED BY IDOCK:   -0.73 KCAL/MOL
REMARK 927      BINDING AFFINITY PREDICTED BY RF-SCORE:    0.00 PKD
ROOT
HETATM    1  C   UNL     1     -10.787   6.724  71.255  1.00  0.00    -0.232 C  
HETATM    2  O   UNL     1     -11.611   6.770  70.340  1.00  0.00    -0.339 OA 
HETATM    3  C   UNL     1     -10.645   7.782  72.331  1.00  0.00    -0.278 C  
HETATM    4  O   UNL     1     -11.378   7.372  73.489  1.00  0.00    -0.601 OA 
HETATM    5  H   UNL     1     -11.288   8.035  74.163  1.00  0.00     0.000 HD 
ENDROOT
BRANCH   3   6
HETATM    6  C   UNL     1     -11.144   9.155  71.860  1.00  0.00    -0.315 C  
HETATM    7  O   UNL     1     -10.489   9.456  70.610  1.00  0.00    -0.245 OA 
HETATM    8  H   UNL     1     -10.799  10.306  70.318  1.00  0.00     0.000 HD 
BRANCH   6   9
HETATM    9  C   UNL     1     -12.687   9.284  71.703  1.00  0.00    -0.364 C  
HETATM   10  O   UNL     1     -13.314   9.193  72.993  1.00  0.00    -0.801 OA 
HETATM   11  H   UNL     1     -14.256   9.271  72.897  1.00  0.00     0.000 HD 
BRANCH   9  12
HETATM   12  C   UNL     1     -13.208  10.549  70.989  1.00  0.00    -0.239 C  
HETATM   13  H   UNL     1     -13.132  11.305  69.167  1.00  0.00     0.000 HD 
HETATM   14  O   UNL     1     -12.811  10.526  69.606  1.00  0.00    -0.141 OA 
BRANCH  12  15
HETATM   15  C   UNL     1     -12.794  11.871  71.659  1.00  0.00    -0.312 C  
HETATM   16  O   UNL     1     -13.658  12.195  72.756  1.00  0.00    -0.500 OA 
HETATM   17  H   UNL     1     -13.403  13.012  73.170  1.00  0.00     0.000 HD 
ENDBRANCH  12  15
ENDBRANCH   9  12
ENDBRANCH   6   9
ENDBRANCH   3   6
TORSDOF 4
ENDMDL
MODEL       93
REMARK 921   NORMALIZED FREE ENERGY PREDICTED BY IDOCK:   -3.42 KCAL/MOL
REMARK 922        TOTAL FREE ENERGY PREDICTED BY IDOCK:   -5.09 KCAL/MOL
REMARK 923 INTER-LIGAND FREE ENERGY PREDICTED BY IDOCK:   -4.79 KCAL/MOL
REMARK 924 INTRA-LIGAND FREE ENERGY PREDICTED BY IDOCK:   -0.30 KCAL/MOL
REMARK 927      BINDING AFFINITY PREDICTED BY RF-SCORE:    0.00 PKD
ROOT
HETATM    1  C   UNL     1      -9.264   5.553  72.919  1.00  0.00    -0.134 C  
HETATM    2  O   UNL     1      -9.030   5.852  71.747  1.00  0.00    -0.139 OA 
HETATM    3  C   UNL     1     -10.462   6.052  73.705  1.00  0.00    -0.269 C  
HETATM    4  O   UNL     1     -11.497   5.066  73.652  1.00  0.00    -0.430 OA 
HETATM    5  H   UNL     1     -12.247   5.378  74.145  1.00  0.00     0.000 HD 
ENDROOT
BRANCH   3   6
HETATM    6  C   UNL     1     -10.989   7.388  73.166  1.00  0.00    -0.359 C  
HETATM    7  O   UNL     1      -9.851   8.205  72.823  1.00  0.00    -0.257 OA 
HETATM    8  H   UNL     1     -10.178   9.033  72.490  1.00  0.00     0.000 HD 
BRANCH   6   9
HETATM    9  C   UNL     1     -11.958   7.281  71.953  1.00  0.00    -0.306 C  
HETATM   10  O   UNL     1     -13.011   6.351  72.256  1.00  0.00    -0.545 OA 
HETATM   11  H   UNL     1     -13.603   6.286  71.515  1.00  0.00     0.000 HD 
BRANCH   9  12
HETATM   12  C   UNL     1     -12.591   8.597  71.452  1.00  0.00    -0.291 C  
HETATM   13  H   UNL     1     -12.096  10.508  71.423  1.00  0.00     0.000 HD 
HETATM   14  O   UNL     1     -11.707   9.699  71.731  1.00  0.00    -0.388 OA 
BRANCH  12  15
HETATM   15  C   UNL     1     -14.002   8.870  71.999  1.00  0.00    -0.437 C  
HETATM   16  O   UNL     1     -14.018   8.864  73.433  1.00  0.00    -1.236 OA 
HETATM   17  H   UNL     1     -14.890   9.033  73.771  1.00  0.00     0.000 HD 
ENDBRANCH  12  15
ENDBRANCH   9  12
ENDBRANCH   6   9
ENDBRANCH   3   6
TORSDOF 4
ENDMDL
MODEL       94
REMARK 921   NORMALIZED FREE ENERGY PREDICTED BY IDOCK:   -3.42 KCAL/MOL
REMARK 922        TOTAL FREE ENERGY PREDICTED BY IDOCK:   -5.09 KCAL/MOL
REMARK 923 INTER-LIGAND FREE ENERGY PREDICTED BY IDOCK:   -4.88 KCAL/MOL
REMARK 924 INTRA-LIGAND FREE ENERGY PREDICTED BY IDOCK:   -0.20 KCAL/MOL
REMARK 927      BINDING AFFINITY PREDICTED BY RF-SCORE:    0.00 PKD
ROOT
HETATM    1  C   UNL     1      -9.320   9.137  66.097  1.00  0.00    -0.228 C  
HETATM    2  O   UNL     1      -9.301   9.038  67.325  1.00  0.00    -0.135 OA 
HETATM    3  C   UNL     1      -9.336  10.454  65.346  1.00  0.00    -0.204 C  
HETATM    4  O   UNL     1      -7.999  10.792  64.966  1.00  0.00    -0.333 OA 
HETATM    5  H   UNL     1      -8.009  11.617  64.495  1.00  0.00     0.000 HD 
ENDROOT
BRANCH   3   6
HETATM    6  C   UNL     1      -9.940  11.589  66.184  1.00  0.00    -0.224 C  
HETATM    7  O   UNL     1      -9.135  12.767  65.974  1.00  0.00    -0.436 OA 
HETATM    8  H   UNL     1      -9.509  13.469  66.494  1.00  0.00     0.000 HD 
BRANCH   6   9
HETATM    9  C   UNL     1     -11.437  11.903  65.900  1.00  0.00    -0.278 C  
HETATM   10  O   UNL     1     -12.161  11.972  67.140  1.00  0.00    -0.587 OA 
HETATM   11  H   UNL     1     -13.075  12.164  66.966  1.00  0.00     0.000 HD 
BRANCH   9  12
HETATM   12  C   UNL     1     -11.735  13.178  65.083  1.00  0.00    -0.336 C  
HETATM   13  H   UNL     1     -13.046  14.654  65.152  1.00  0.00     0.000 HD 
HETATM   14  O   UNL     1     -12.862  13.869  65.655  1.00  0.00    -0.541 OA 
BRANCH  12  15
HETATM   15  C   UNL     1     -11.945  12.933  63.579  1.00  0.00    -0.556 C  
HETATM   16  O   UNL     1     -12.636  14.027  62.962  1.00  0.00    -1.027 OA 
HETATM   17  H   UNL     1     -12.766  13.875  62.032  1.00  0.00     0.000 HD 
ENDBRANCH  12  15
ENDBRANCH   9  12
ENDBRANCH   6   9
ENDBRANCH   3   6
TORSDOF 4
ENDMDL
MODEL       95
REMARK 921   NORMALIZED FREE ENERGY PREDICTED BY IDOCK:   -3.42 KCAL/MOL
REMARK 922        TOTAL FREE ENERGY PREDICTED BY IDOCK:   -5.09 KCAL/MOL
REMARK 923 INTER-LIGAND FREE ENERGY PREDICTED BY IDOCK:   -4.27 KCAL/MOL
REMARK 924 INTRA-LIGAND FREE ENERGY PREDICTED BY IDOCK:   -0.82 KCAL/MOL
REMARK 927      BINDING AFFINITY PREDICTED BY RF-SCORE:    0.00 PKD
ROOT
HETATM    1  C   UNL     1     -12.391  12.056  70.510  1.00  0.00    -0.282 C  
HETATM    2  O   UNL     1     -12.435  13.090  71.180  1.00  0.00    -0.361 OA 
HETATM    3  C   UNL     1     -11.515  11.867  69.287  1.00  0.00    -0.306 C  
HETATM    4  O   UNL     1     -10.307  11.206  69.677  1.00  0.00    -0.440 OA 
HETATM    5  H   UNL     1      -9.758  11.088  68.910  1.00  0.00     0.000 HD 
ENDROOT
BRANCH   3   6
HETATM    6  C   UNL     1     -11.180  13.201  68.606  1.00  0.00    -0.276 C  
HETATM    7  O   UNL     1     -10.406  13.987  69.535  1.00  0.00    -0.428 OA 
HETATM    8  H   UNL     1     -10.199  14.813  69.112  1.00  0.00     0.000 HD 
BRANCH   6   9
HETATM    9  C   UNL     1     -10.432  13.084  67.246  1.00  0.00    -0.238 C  
HETATM   10  O   UNL     1     -10.407  11.711  66.824  1.00  0.00    -0.212 OA 
HETATM   11  H   UNL     1      -9.950  11.640  65.994  1.00  0.00     0.000 HD 
BRANCH   9  12
HETATM   12  C   UNL     1     -10.966  13.948  66.084  1.00  0.00    -0.293 C  
HETATM   13  H   UNL     1     -10.940  15.858  65.585  1.00  0.00     0.000 HD 
HETATM   14  O   UNL     1     -10.612  15.327  66.300  1.00  0.00    -0.294 OA 
BRANCH  12  15
HETATM   15  C   UNL     1     -12.476  13.802  65.827  1.00  0.00    -0.485 C  
HETATM   16  O   UNL     1     -12.783  12.541  65.217  1.00  0.00    -0.654 OA 
HETATM   17  H   UNL     1     -13.716  12.451  65.058  1.00  0.00     0.000 HD 
ENDBRANCH  12  15
ENDBRANCH   9  12
ENDBRANCH   6   9
ENDBRANCH   3   6
TORSDOF 4
ENDMDL
MODEL       96
REMARK 921   NORMALIZED FREE ENERGY PREDICTED BY IDOCK:   -3.41 KCAL/MOL
REMARK 922        TOTAL FREE ENERGY PREDICTED BY IDOCK:   -5.07 KCAL/MOL
REMARK 923 INTER-LIGAND FREE ENERGY PREDICTED BY IDOCK:   -4.40 KCAL/MOL
REMARK 924 INTRA-LIGAND FREE ENERGY PREDICTED BY IDOCK:   -0.67 KCAL/MOL
REMARK 927      BINDING AFFINITY PREDICTED BY RF-SCORE:    0.00 PKD
ROOT
HETATM    1  C   UNL     1     -11.029  10.440  67.638  1.00  0.00    -0.312 C  
HETATM    2  O   UNL     1     -10.232  10.077  68.505  1.00  0.00    -0.162 OA 
HETATM    3  C   UNL     1     -11.298  11.889  67.279  1.00  0.00    -0.329 C  
HETATM    4  O   UNL     1     -10.499  12.245  66.146  1.00  0.00    -0.232 OA 
HETATM    5  H   UNL     1     -10.669  13.152  65.921  1.00  0.00     0.000 HD 
ENDROOT
BRANCH   3   6
HETATM    6  C   UNL     1     -10.997  12.838  68.446  1.00  0.00    -0.254 C  
HETATM    7  O   UNL     1      -9.601  12.696  68.780  1.00  0.00    -0.403 OA 
HETATM    8  H   UNL     1      -9.415  13.284  69.503  1.00  0.00     0.000 HD 
BRANCH   6   9
HETATM    9  C   UNL     1     -11.338  14.335  68.192  1.00  0.00    -0.288 C  
HETATM   10  O   UNL     1     -12.484  14.430  67.329  1.00  0.00    -0.601 OA 
HETATM   11  H   UNL     1     -12.693  15.344  67.174  1.00  0.00     0.000 HD 
BRANCH   9  12
HETATM   12  C   UNL     1     -11.585  15.212  69.438  1.00  0.00    -0.323 C  
HETATM   13  H   UNL     1     -10.482  16.044  70.849  1.00  0.00     0.000 HD 
HETATM   14  O   UNL     1     -10.331  15.504  70.082  1.00  0.00    -0.304 OA 
BRANCH  12  15
HETATM   15  C   UNL     1     -12.594  14.623  70.439  1.00  0.00    -0.343 C  
HETATM   16  O   UNL     1     -13.716  15.496  70.626  1.00  0.00    -0.851 OA 
HETATM   17  H   UNL     1     -14.339  15.132  71.245  1.00  0.00     0.000 HD 
ENDBRANCH  12  15
ENDBRANCH   9  12
ENDBRANCH   6   9
ENDBRANCH   3   6
TORSDOF 4
ENDMDL
MODEL       97
REMARK 921   NORMALIZED FREE ENERGY PREDICTED BY IDOCK:   -3.40 KCAL/MOL
REMARK 922        TOTAL FREE ENERGY PREDICTED BY IDOCK:   -5.06 KCAL/MOL
REMARK 923 INTER-LIGAND FREE ENERGY PREDICTED BY IDOCK:   -4.88 KCAL/MOL
REMARK 924 INTRA-LIGAND FREE ENERGY PREDICTED BY IDOCK:   -0.18 KCAL/MOL
REMARK 927      BINDING AFFINITY PREDICTED BY RF-SCORE:    0.00 PKD
ROOT
HETATM    1  C   UNL     1     -13.338  10.230  71.424  1.00  0.00    -0.304 C  
HETATM    2  O   UNL     1     -12.617  11.218  71.572  1.00  0.00    -0.361 OA 
HETATM    3  C   UNL     1     -13.053   8.868  72.025  1.00  0.00    -0.402 C  
HETATM    4  O   UNL     1     -13.782   8.736  73.250  1.00  0.00    -1.033 OA 
HETATM    5  H   UNL     1     -13.603   7.882  73.626  1.00  0.00     0.000 HD 
ENDROOT
BRANCH   3   6
HETATM    6  C   UNL     1     -11.556   8.654  72.286  1.00  0.00    -0.354 C  
HETATM    7  O   UNL     1     -11.429   7.818  73.455  1.00  0.00    -0.548 OA 
HETATM    8  H   UNL     1     -10.501   7.686  73.617  1.00  0.00     0.000 HD 
BRANCH   6   9
HETATM    9  C   UNL     1     -10.754   8.046  71.101  1.00  0.00    -0.220 C  
HETATM   10  O   UNL     1     -11.663   7.504  70.128  1.00  0.00    -0.489 OA 
HETATM   11  H   UNL     1     -11.173   7.132  69.404  1.00  0.00     0.000 HD 
BRANCH   9  12
HETATM   12  C   UNL     1      -9.762   8.983  70.380  1.00  0.00    -0.206 C  
HETATM   13  H   UNL     1      -8.194  10.074  70.881  1.00  0.00     0.000 HD 
HETATM   14  O   UNL     1      -8.804   9.497  71.324  1.00  0.00    -0.235 OA 
BRANCH  12  15
HETATM   15  C   UNL     1     -10.428  10.126  69.594  1.00  0.00    -0.252 C  
HETATM   16  O   UNL     1     -11.352   9.623  68.620  1.00  0.00    -0.480 OA 
HETATM   17  H   UNL     1     -11.763  10.329  68.134  1.00  0.00     0.000 HD 
ENDBRANCH  12  15
ENDBRANCH   9  12
ENDBRANCH   6   9
ENDBRANCH   3   6
TORSDOF 4
ENDMDL
MODEL       98
REMARK 921   NORMALIZED FREE ENERGY PREDICTED BY IDOCK:   -3.39 KCAL/MOL
REMARK 922        TOTAL FREE ENERGY PREDICTED BY IDOCK:   -5.05 KCAL/MOL
REMARK 923 INTER-LIGAND FREE ENERGY PREDICTED BY IDOCK:   -4.68 KCAL/MOL
REMARK 924 INTRA-LIGAND FREE ENERGY PREDICTED BY IDOCK:   -0.38 KCAL/MOL
REMARK 927      BINDING AFFINITY PREDICTED BY RF-SCORE:    0.00 PKD
ROOT
HETATM    1  C   UNL     1     -14.358   8.160  71.807  1.00  0.00    -0.484 C  
HETATM    2  O   UNL     1     -14.007   6.995  71.616  1.00  0.00    -0.348 OA 
HETATM    3  C   UNL     1     -13.412   9.345  71.825  1.00  0.00    -0.412 C  
HETATM    4  O   UNL     1     -13.415   9.964  70.535  1.00  0.00    -0.610 OA 
HETATM    5  H   UNL     1     -12.822  10.707  70.546  1.00  0.00     0.000 HD 
ENDROOT
BRANCH   3   6
HETATM    6  C   UNL     1     -11.982   8.936  72.202  1.00  0.00    -0.349 C  
HETATM    7  O   UNL     1     -12.070   7.848  73.144  1.00  0.00    -0.655 OA 
HETATM    8  H   UNL     1     -11.184   7.594  73.377  1.00  0.00     0.000 HD 
BRANCH   6   9
HETATM    9  C   UNL     1     -11.066   8.540  71.008  1.00  0.00    -0.260 C  
HETATM   10  O   UNL     1     -11.832   7.816  70.030  1.00  0.00    -0.461 OA 
HETATM   11  H   UNL     1     -11.273   7.574  69.301  1.00  0.00     0.000 HD 
BRANCH   9  12
HETATM   12  C   UNL     1     -10.318   9.687  70.297  1.00  0.00    -0.280 C  
HETATM   13  H   UNL     1     -10.583  10.791  68.681  1.00  0.00     0.000 HD 
HETATM   14  O   UNL     1     -11.044  10.085  69.119  1.00  0.00    -0.225 OA 
BRANCH  12  15
HETATM   15  C   UNL     1      -8.850   9.373  69.959  1.00  0.00    -0.211 C  
HETATM   16  O   UNL     1      -8.007  10.513  70.176  1.00  0.00    -0.381 OA 
HETATM   17  H   UNL     1      -7.101  10.319  69.967  1.00  0.00     0.000 HD 
ENDBRANCH  12  15
ENDBRANCH   9  12
ENDBRANCH   6   9
ENDBRANCH   3   6
TORSDOF 4
ENDMDL
MODEL       99
REMARK 921   NORMALIZED FREE ENERGY PREDICTED BY IDOCK:   -3.39 KCAL/MOL
REMARK 922        TOTAL FREE ENERGY PREDICTED BY IDOCK:   -5.05 KCAL/MOL
REMARK 923 INTER-LIGAND FREE ENERGY PREDICTED BY IDOCK:   -4.87 KCAL/MOL
REMARK 924 INTRA-LIGAND FREE ENERGY PREDICTED BY IDOCK:   -0.18 KCAL/MOL
REMARK 927      BINDING AFFINITY PREDICTED BY RF-SCORE:    0.00 PKD
ROOT
HETATM    1  C   UNL     1     -13.525  10.290  71.421  1.00  0.00    -0.218 C  
HETATM    2  O   UNL     1     -12.726  11.220  71.541  1.00  0.00    -0.397 OA 
HETATM    3  C   UNL     1     -13.330   8.913  72.026  1.00  0.00    -0.421 C  
HETATM    4  O   UNL     1     -14.035   8.847  73.270  1.00  0.00    -1.203 OA 
HETATM    5  H   UNL     1     -13.913   7.985  73.649  1.00  0.00     0.000 HD 
ENDROOT
BRANCH   3   6
HETATM    6  C   UNL     1     -11.848   8.586  72.251  1.00  0.00    -0.383 C  
HETATM    7  O   UNL     1     -11.778   7.447  73.133  1.00  0.00    -0.582 OA 
HETATM    8  H   UNL     1     -10.860   7.245  73.272  1.00  0.00     0.000 HD 
BRANCH   6   9
HETATM    9  C   UNL     1     -11.022   8.318  70.960  1.00  0.00    -0.245 C  
HETATM   10  O   UNL     1      -9.628   8.551  71.220  1.00  0.00    -0.169 OA 
HETATM   11  H   UNL     1      -9.123   8.387  70.431  1.00  0.00     0.000 HD 
BRANCH   9  12
HETATM   12  C   UNL     1     -11.177   6.925  70.314  1.00  0.00    -0.316 C  
HETATM   13  H   UNL     1     -10.925   5.047  70.872  1.00  0.00     0.000 HD 
HETATM   14  O   UNL     1     -10.830   5.905  71.270  1.00  0.00    -0.257 OA 
BRANCH  12  15
HETATM   15  C   UNL     1     -10.391   6.742  69.005  1.00  0.00    -0.195 C  
HETATM   16  O   UNL     1     -11.072   7.346  67.897  1.00  0.00    -0.481 OA 
HETATM   17  H   UNL     1     -10.586   7.233  67.087  1.00  0.00     0.000 HD 
ENDBRANCH  12  15
ENDBRANCH   9  12
ENDBRANCH   6   9
ENDBRANCH   3   6
TORSDOF 4
ENDMDL
MODEL      100
REMARK 921   NORMALIZED FREE ENERGY PREDICTED BY IDOCK:   -3.39 KCAL/MOL
REMARK 922        TOTAL FREE ENERGY PREDICTED BY IDOCK:   -5.05 KCAL/MOL
REMARK 923 INTER-LIGAND FREE ENERGY PREDICTED BY IDOCK:   -4.79 KCAL/MOL
REMARK 924 INTRA-LIGAND FREE ENERGY PREDICTED BY IDOCK:   -0.25 KCAL/MOL
REMARK 927      BINDING AFFINITY PREDICTED BY RF-SCORE:    0.00 PKD
ROOT
HETATM    1  C   UNL     1     -10.098   6.209  70.730  1.00  0.00    -0.193 C  
HETATM    2  O   UNL     1      -9.512   7.107  71.336  1.00  0.00    -0.161 OA 
HETATM    3  C   UNL     1     -11.562   6.256  70.339  1.00  0.00    -0.300 C  
HETATM    4  O   UNL     1     -11.668   6.709  68.985  1.00  0.00    -0.608 OA 
HETATM    5  H   UNL     1     -12.585   6.739  68.740  1.00  0.00     0.000 HD 
ENDROOT
BRANCH   3   6
HETATM    6  C   UNL     1     -12.376   7.176  71.259  1.00  0.00    -0.379 C  
HETATM    7  O   UNL     1     -12.392   6.580  72.573  1.00  0.00    -0.516 OA 
HETATM    8  H   UNL     1     -12.896   7.150  73.142  1.00  0.00     0.000 HD 
BRANCH   6   9
HETATM    9  C   UNL     1     -11.876   8.647  71.342  1.00  0.00    -0.297 C  
HETATM   10  O   UNL     1     -11.704   9.175  70.016  1.00  0.00    -0.459 OA 
HETATM   11  H   UNL     1     -11.398  10.074  70.067  1.00  0.00     0.000 HD 
BRANCH   9  12
HETATM   12  C   UNL     1     -12.743   9.630  72.156  1.00  0.00    -0.344 C  
HETATM   13  H   UNL     1     -14.543   9.624  72.967  1.00  0.00     0.000 HD 
HETATM   14  O   UNL     1     -14.009   9.019  72.466  1.00  0.00    -0.478 OA 
BRANCH  12  15
HETATM   15  C   UNL     1     -12.942  11.002  71.489  1.00  0.00    -0.448 C  
HETATM   16  O   UNL     1     -13.521  11.947  72.399  1.00  0.00    -0.611 OA 
HETATM   17  H   UNL     1     -13.644  12.795  71.986  1.00  0.00     0.000 HD 
ENDBRANCH  12  15
ENDBRANCH   9  12
ENDBRANCH   6   9
ENDBRANCH   3   6
TORSDOF 4
ENDMDL
MODEL      101
REMARK 921   NORMALIZED FREE ENERGY PREDICTED BY IDOCK:   -3.39 KCAL/MOL
REMARK 922        TOTAL FREE ENERGY PREDICTED BY IDOCK:   -5.05 KCAL/MOL
REMARK 923 INTER-LIGAND FREE ENERGY PREDICTED BY IDOCK:   -4.27 KCAL/MOL
REMARK 924 INTRA-LIGAND FREE ENERGY PREDICTED BY IDOCK:   -0.78 KCAL/MOL
REMARK 927      BINDING AFFINITY PREDICTED BY RF-SCORE:    0.00 PKD
ROOT
HETATM    1  C   UNL     1     -14.392   8.149  71.859  1.00  0.00    -0.472 C  
HETATM    2  O   UNL     1     -14.171   7.220  71.080  1.00  0.00    -0.343 OA 
HETATM    3  C   UNL     1     -13.337   9.122  72.348  1.00  0.00    -0.463 C  
HETATM    4  O   UNL     1     -13.380  10.302  71.539  1.00  0.00    -0.359 OA 
HETATM    5  H   UNL     1     -12.719  10.911  71.846  1.00  0.00     0.000 HD 
ENDROOT
BRANCH   3   6
HETATM    6  C   UNL     1     -11.928   8.515  72.308  1.00  0.00    -0.385 C  
HETATM    7  O   UNL     1     -12.039   7.123  72.671  1.00  0.00    -0.506 OA 
HETATM    8  H   UNL     1     -11.166   6.747  72.646  1.00  0.00     0.000 HD 
BRANCH   6   9
HETATM    9  C   UNL     1     -11.180   8.659  70.952  1.00  0.00    -0.267 C  
HETATM   10  O   UNL     1     -10.713  10.010  70.798  1.00  0.00    -0.308 OA 
HETATM   11  H   UNL     1     -10.256  10.098  69.969  1.00  0.00     0.000 HD 
BRANCH   9  12
HETATM   12  C   UNL     1      -9.998   7.698  70.706  1.00  0.00    -0.181 C  
HETATM   13  H   UNL     1      -8.128   7.850  70.091  1.00  0.00     0.000 HD 
HETATM   14  O   UNL     1      -8.855   8.441  70.243  1.00  0.00    -0.136 OA 
BRANCH  12  15
HETATM   15  C   UNL     1     -10.317   6.530  69.755  1.00  0.00    -0.195 C  
HETATM   16  O   UNL     1     -11.718   6.469  69.454  1.00  0.00    -0.649 OA 
HETATM   17  H   UNL     1     -11.915   5.747  68.867  1.00  0.00     0.000 HD 
ENDBRANCH  12  15
ENDBRANCH   9  12
ENDBRANCH   6   9
ENDBRANCH   3   6
TORSDOF 4
ENDMDL
MODEL      102
REMARK 921   NORMALIZED FREE ENERGY PREDICTED BY IDOCK:   -3.38 KCAL/MOL
REMARK 922        TOTAL FREE ENERGY PREDICTED BY IDOCK:   -5.04 KCAL/MOL
REMARK 923 INTER-LIGAND FREE ENERGY PREDICTED BY IDOCK:   -4.87 KCAL/MOL
REMARK 924 INTRA-LIGAND FREE ENERGY PREDICTED BY IDOCK:   -0.17 KCAL/MOL
REMARK 927      BINDING AFFINITY PREDICTED BY RF-SCORE:    0.00 PKD
ROOT
HETATM    1  C   UNL     1     -11.134   6.049  70.758  1.00  0.00    -0.286 C  
HETATM    2  O   UNL     1     -11.586   6.363  69.656  1.00  0.00    -0.417 OA 
HETATM    3  C   UNL     1     -11.551   6.693  72.066  1.00  0.00    -0.301 C  
HETATM    4  O   UNL     1     -12.561   5.888  72.682  1.00  0.00    -0.530 OA 
HETATM    5  H   UNL     1     -12.822   6.292  73.502  1.00  0.00     0.000 HD 
ENDROOT
BRANCH   3   6
HETATM    6  C   UNL     1     -12.075   8.121  71.865  1.00  0.00    -0.323 C  
HETATM    7  O   UNL     1     -12.898   8.452  73.003  1.00  0.00    -0.706 OA 
HETATM    8  H   UNL     1     -13.222   9.336  72.878  1.00  0.00     0.000 HD 
BRANCH   6   9
HETATM    9  C   UNL     1     -10.982   9.209  71.658  1.00  0.00    -0.374 C  
HETATM   10  O   UNL     1      -9.725   8.735  72.169  1.00  0.00    -0.307 OA 
HETATM   11  H   UNL     1      -9.057   9.400  72.043  1.00  0.00     0.000 HD 
BRANCH   9  12
HETATM   12  C   UNL     1     -10.770   9.714  70.215  1.00  0.00    -0.281 C  
HETATM   13  H   UNL     1      -9.231  10.180  69.070  1.00  0.00     0.000 HD 
HETATM   14  O   UNL     1      -9.362   9.870  69.957  1.00  0.00    -0.227 OA 
BRANCH  12  15
HETATM   15  C   UNL     1     -11.538  11.002  69.875  1.00  0.00    -0.337 C  
HETATM   16  O   UNL     1     -12.528  10.770  68.864  1.00  0.00    -0.782 OA 
HETATM   17  H   UNL     1     -13.002  11.566  68.653  1.00  0.00     0.000 HD 
ENDBRANCH  12  15
ENDBRANCH   9  12
ENDBRANCH   6   9
ENDBRANCH   3   6
TORSDOF 4
ENDMDL
MODEL      103
REMARK 921   NORMALIZED FREE ENERGY PREDICTED BY IDOCK:   -3.38 KCAL/MOL
REMARK 922        TOTAL FREE ENERGY PREDICTED BY IDOCK:   -5.03 KCAL/MOL
REMARK 923 INTER-LIGAND FREE ENERGY PREDICTED BY IDOCK:   -4.85 KCAL/MOL
REMARK 924 INTRA-LIGAND FREE ENERGY PREDICTED BY IDOCK:   -0.19 KCAL/MOL
REMARK 927      BINDING AFFINITY PREDICTED BY RF-SCORE:    0.00 PKD
ROOT
HETATM    1  C   UNL     1     -12.262  12.609  63.430  1.00  0.00    -0.517 C  
HETATM    2  O   UNL     1     -13.113  11.990  64.071  1.00  0.00    -0.660 OA 
HETATM    3  C   UNL     1     -10.773  12.552  63.711  1.00  0.00    -0.445 C  
HETATM    4  O   UNL     1     -10.170  11.590  62.839  1.00  0.00    -0.609 OA 
HETATM    5  H   UNL     1      -9.237  11.555  63.015  1.00  0.00     0.000 HD 
ENDROOT
BRANCH   3   6
HETATM    6  C   UNL     1     -10.474  12.188  65.171  1.00  0.00    -0.281 C  
HETATM    7  O   UNL     1      -9.042  12.098  65.318  1.00  0.00    -0.416 OA 
HETATM    8  H   UNL     1      -8.857  11.873  66.222  1.00  0.00     0.000 HD 
BRANCH   6   9
HETATM    9  C   UNL     1     -11.063  13.160  66.234  1.00  0.00    -0.287 C  
HETATM   10  O   UNL     1     -12.055  12.477  67.018  1.00  0.00    -0.521 OA 
HETATM   11  H   UNL     1     -12.415  13.071  67.667  1.00  0.00     0.000 HD 
BRANCH   9  12
HETATM   12  C   UNL     1     -10.057  13.835  67.190  1.00  0.00    -0.241 C  
HETATM   13  H   UNL     1      -8.551  15.102  67.030  1.00  0.00     0.000 HD 
HETATM   14  O   UNL     1      -9.170  14.687  66.441  1.00  0.00    -0.274 OA 
BRANCH  12  15
HETATM   15  C   UNL     1      -9.264  12.854  68.071  1.00  0.00    -0.212 C  
HETATM   16  O   UNL     1     -10.138  12.036  68.861  1.00  0.00    -0.382 OA 
HETATM   17  H   UNL     1      -9.649  11.430  69.406  1.00  0.00     0.000 HD 
ENDBRANCH  12  15
ENDBRANCH   9  12
ENDBRANCH   6   9
ENDBRANCH   3   6
TORSDOF 4
ENDMDL
MODEL      104
REMARK 921   NORMALIZED FREE ENERGY PREDICTED BY IDOCK:   -3.37 KCAL/MOL
REMARK 922        TOTAL FREE ENERGY PREDICTED BY IDOCK:   -5.03 KCAL/MOL
REMARK 923 INTER-LIGAND FREE ENERGY PREDICTED BY IDOCK:   -5.03 KCAL/MOL
REMARK 924 INTRA-LIGAND FREE ENERGY PREDICTED BY IDOCK:    0.00 KCAL/MOL
REMARK 927      BINDING AFFINITY PREDICTED BY RF-SCORE:    0.00 PKD
ROOT
HETATM    1  C   UNL     1      -8.959   7.748  72.117  1.00  0.00    -0.137 C  
HETATM    2  O   UNL     1      -8.962   8.901  72.551  1.00  0.00    -0.367 OA 
HETATM    3  C   UNL     1     -10.129   7.102  71.400  1.00  0.00    -0.188 C  
HETATM    4  O   UNL     1      -9.935   7.222  69.988  1.00  0.00    -0.182 OA 
HETATM    5  H   UNL     1     -10.668   6.817  69.539  1.00  0.00     0.000 HD 
ENDROOT
BRANCH   3   6
HETATM    6  C   UNL     1     -11.469   7.736  71.796  1.00  0.00    -0.266 C  
HETATM    7  O   UNL     1     -11.539   7.752  73.237  1.00  0.00    -0.644 OA 
HETATM    8  H   UNL     1     -12.369   8.145  73.482  1.00  0.00     0.000 HD 
BRANCH   6   9
HETATM    9  C   UNL     1     -11.725   9.162  71.230  1.00  0.00    -0.326 C  
HETATM   10  O   UNL     1     -11.381   9.196  69.834  1.00  0.00    -0.406 OA 
HETATM   11  H   UNL     1     -11.537  10.068  69.488  1.00  0.00     0.000 HD 
BRANCH   9  12
HETATM   12  C   UNL     1     -13.148   9.732  71.401  1.00  0.00    -0.400 C  
HETATM   13  H   UNL     1     -13.974  11.289  72.292  1.00  0.00     0.000 HD 
HETATM   14  O   UNL     1     -13.098  10.938  72.186  1.00  0.00    -0.463 OA 
BRANCH  12  15
HETATM   15  C   UNL     1     -14.164   8.736  71.987  1.00  0.00    -0.414 C  
HETATM   16  O   UNL     1     -14.282   8.884  73.408  1.00  0.00    -1.241 OA 
HETATM   17  H   UNL     1     -14.909   8.268  73.771  1.00  0.00     0.000 HD 
ENDBRANCH  12  15
ENDBRANCH   9  12
ENDBRANCH   6   9
ENDBRANCH   3   6
TORSDOF 4
ENDMDL
MODEL      105
REMARK 921   NORMALIZED FREE ENERGY PREDICTED BY IDOCK:   -3.37 KCAL/MOL
REMARK 922        TOTAL FREE ENERGY PREDICTED BY IDOCK:   -5.03 KCAL/MOL
REMARK 923 INTER-LIGAND FREE ENERGY PREDICTED BY IDOCK:   -4.45 KCAL/MOL
REMARK 924 INTRA-LIGAND FREE ENERGY PREDICTED BY IDOCK:   -0.58 KCAL/MOL
REMARK 927      BINDING AFFINITY PREDICTED BY RF-SCORE:    0.00 PKD
ROOT
HETATM    1  C   UNL     1     -11.648  14.170  68.322  1.00  0.00    -0.321 C  
HETATM    2  O   UNL     1     -10.673  13.721  68.926  1.00  0.00    -0.248 OA 
HETATM    3  C   UNL     1     -11.659  14.495  66.841  1.00  0.00    -0.385 C  
HETATM    4  O   UNL     1     -12.211  13.386  66.124  1.00  0.00    -0.416 OA 
HETATM    5  H   UNL     1     -12.218  13.590  65.196  1.00  0.00     0.000 HD 
ENDROOT
BRANCH   3   6
HETATM    6  C   UNL     1     -10.254  14.810  66.308  1.00  0.00    -0.298 C  
HETATM    7  O   UNL     1     -10.241  14.508  64.898  1.00  0.00    -0.405 OA 
HETATM    8  H   UNL     1      -9.371  14.703  64.568  1.00  0.00     0.000 HD 
BRANCH   6   9
HETATM    9  C   UNL     1      -9.761  16.265  66.551  1.00  0.00    -0.263 C  
HETATM   10  O   UNL     1      -8.578  16.511  65.773  1.00  0.00    -0.442 OA 
HETATM   11  H   UNL     1      -8.276  17.400  65.921  1.00  0.00     0.000 HD 
BRANCH   9  12
HETATM   12  C   UNL     1     -10.775  17.396  66.279  1.00  0.00    -0.082 C  
HETATM   13  H   UNL     1     -11.581  18.250  64.691  1.00  0.00     0.000 HD 
HETATM   14  O   UNL     1     -10.957  17.554  64.859  1.00  0.00    -0.887 OA 
BRANCH  12  15
HETATM   15  C   UNL     1     -10.419  18.739  66.941  1.00  0.00    -0.414 C  
HETATM   16  O   UNL     1      -9.019  19.025  66.825  1.00  0.00    -0.291 OA 
HETATM   17  H   UNL     1      -8.800  19.854  67.235  1.00  0.00     0.000 HD 
ENDBRANCH  12  15
ENDBRANCH   9  12
ENDBRANCH   6   9
ENDBRANCH   3   6
TORSDOF 4
ENDMDL
MODEL      106
REMARK 921   NORMALIZED FREE ENERGY PREDICTED BY IDOCK:   -3.36 KCAL/MOL
REMARK 922        TOTAL FREE ENERGY PREDICTED BY IDOCK:   -5.02 KCAL/MOL
REMARK 923 INTER-LIGAND FREE ENERGY PREDICTED BY IDOCK:   -4.46 KCAL/MOL
REMARK 924 INTRA-LIGAND FREE ENERGY PREDICTED BY IDOCK:   -0.56 KCAL/MOL
REMARK 927      BINDING AFFINITY PREDICTED BY RF-SCORE:    0.00 PKD
ROOT
HETATM    1  C   UNL     1      -8.638  10.173  68.328  1.00  0.00    -0.116 C  
HETATM    2  O   UNL     1      -7.607   9.786  68.880  1.00  0.00    -0.076 OA 
HETATM    3  C   UNL     1     -10.011  10.155  68.972  1.00  0.00    -0.208 C  
HETATM    4  O   UNL     1     -10.284  11.446  69.526  1.00  0.00    -0.430 OA 
HETATM    5  H   UNL     1     -11.144  11.434  69.929  1.00  0.00     0.000 HD 
ENDROOT
BRANCH   3   6
HETATM    6  C   UNL     1     -10.120   9.086  70.067  1.00  0.00    -0.196 C  
HETATM    7  O   UNL     1      -9.369   9.549  71.209  1.00  0.00    -0.295 OA 
HETATM    8  H   UNL     1      -9.437   8.887  71.888  1.00  0.00     0.000 HD 
BRANCH   6   9
HETATM    9  C   UNL     1     -11.569   8.714  70.492  1.00  0.00    -0.139 C  
HETATM   10  O   UNL     1     -11.787   7.307  70.291  1.00  0.00    -0.509 OA 
HETATM   11  H   UNL     1     -12.672   7.080  70.550  1.00  0.00     0.000 HD 
BRANCH   9  12
HETATM   12  C   UNL     1     -11.985   9.075  71.934  1.00  0.00    -0.375 C  
HETATM   13  H   UNL     1     -11.730   8.310  73.736  1.00  0.00     0.000 HD 
HETATM   14  O   UNL     1     -11.474   8.088  72.849  1.00  0.00    -0.411 OA 
BRANCH  12  15
HETATM   15  C   UNL     1     -13.498   9.274  72.127  1.00  0.00    -0.473 C  
HETATM   16  O   UNL     1     -13.918   8.863  73.435  1.00  0.00    -1.236 OA 
HETATM   17  H   UNL     1     -14.853   8.985  73.554  1.00  0.00     0.000 HD 
ENDBRANCH  12  15
ENDBRANCH   9  12
ENDBRANCH   6   9
ENDBRANCH   3   6
TORSDOF 4
ENDMDL
MODEL      107
REMARK 921   NORMALIZED FREE ENERGY PREDICTED BY IDOCK:   -3.36 KCAL/MOL
REMARK 922        TOTAL FREE ENERGY PREDICTED BY IDOCK:   -5.01 KCAL/MOL
REMARK 923 INTER-LIGAND FREE ENERGY PREDICTED BY IDOCK:   -4.40 KCAL/MOL
REMARK 924 INTRA-LIGAND FREE ENERGY PREDICTED BY IDOCK:   -0.62 KCAL/MOL
REMARK 927      BINDING AFFINITY PREDICTED BY RF-SCORE:    0.00 PKD
ROOT
HETATM    1  C   UNL     1      -9.815  15.609  69.145  1.00  0.00    -0.247 C  
HETATM    2  O   UNL     1      -8.703  16.132  69.244  1.00  0.00    -0.247 OA 
HETATM    3  C   UNL     1     -10.918  16.117  68.238  1.00  0.00    -0.340 C  
HETATM    4  O   UNL     1     -10.890  15.380  67.011  1.00  0.00    -0.315 OA 
HETATM    5  H   UNL     1     -11.582  15.698  66.443  1.00  0.00     0.000 HD 
ENDROOT
BRANCH   3   6
HETATM    6  C   UNL     1     -10.781  17.617  67.945  1.00  0.00    -0.337 C  
HETATM    7  O   UNL     1     -10.426  18.275  69.179  1.00  0.00    -0.445 OA 
HETATM    8  H   UNL     1     -10.341  19.204  68.998  1.00  0.00     0.000 HD 
BRANCH   6   9
HETATM    9  C   UNL     1      -9.765  17.987  66.827  1.00  0.00    -0.323 C  
HETATM   10  O   UNL     1     -10.455  18.132  65.574  1.00  0.00    -0.626 OA 
HETATM   11  H   UNL     1      -9.833  18.358  64.891  1.00  0.00     0.000 HD 
BRANCH   9  12
HETATM   12  C   UNL     1      -8.901  19.245  67.063  1.00  0.00    -0.293 C  
HETATM   13  H   UNL     1      -9.204  21.192  67.189  1.00  0.00     0.000 HD 
HETATM   14  O   UNL     1      -9.735  20.418  67.045  1.00  0.00    -0.425 OA 
BRANCH  12  15
HETATM   15  C   UNL     1      -7.720  19.394  66.088  1.00  0.00    -0.303 C  
HETATM   16  O   UNL     1      -7.456  20.772  65.793  1.00  0.00    -0.496 OA 
HETATM   17  H   UNL     1      -6.727  20.865  65.190  1.00  0.00     0.000 HD 
ENDBRANCH  12  15
ENDBRANCH   9  12
ENDBRANCH   6   9
ENDBRANCH   3   6
TORSDOF 4
ENDMDL
MODEL      108
REMARK 921   NORMALIZED FREE ENERGY PREDICTED BY IDOCK:   -3.34 KCAL/MOL
REMARK 922        TOTAL FREE ENERGY PREDICTED BY IDOCK:   -4.99 KCAL/MOL
REMARK 923 INTER-LIGAND FREE ENERGY PREDICTED BY IDOCK:   -4.43 KCAL/MOL
REMARK 924 INTRA-LIGAND FREE ENERGY PREDICTED BY IDOCK:   -0.56 KCAL/MOL
REMARK 927      BINDING AFFINITY PREDICTED BY RF-SCORE:    0.00 PKD
ROOT
HETATM    1  C   UNL     1      -9.670   8.126  67.885  1.00  0.00    -0.161 C  
HETATM    2  O   UNL     1      -8.580   7.809  68.363  1.00  0.00    -0.128 OA 
HETATM    3  C   UNL     1     -10.620   9.125  68.516  1.00  0.00    -0.169 C  
HETATM    4  O   UNL     1     -10.418  10.407  67.912  1.00  0.00    -0.181 OA 
HETATM    5  H   UNL     1     -11.014  11.033  68.307  1.00  0.00     0.000 HD 
ENDROOT
BRANCH   3   6
HETATM    6  C   UNL     1     -10.424   9.230  70.034  1.00  0.00    -0.226 C  
HETATM    7  O   UNL     1      -9.293  10.092  70.272  1.00  0.00    -0.378 OA 
HETATM    8  H   UNL     1      -9.171  10.157  71.213  1.00  0.00     0.000 HD 
BRANCH   6   9
HETATM    9  C   UNL     1     -11.661   9.733  70.832  1.00  0.00    -0.361 C  
HETATM   10  O   UNL     1     -12.603  10.340  69.933  1.00  0.00    -0.550 OA 
HETATM   11  H   UNL     1     -13.359  10.647  70.421  1.00  0.00     0.000 HD 
BRANCH   9  12
HETATM   12  C   UNL     1     -12.402   8.689  71.693  1.00  0.00    -0.333 C  
HETATM   13  H   UNL     1     -12.749   6.746  71.613  1.00  0.00     0.000 HD 
HETATM   14  O   UNL     1     -12.293   7.389  71.084  1.00  0.00    -0.327 OA 
BRANCH  12  15
HETATM   15  C   UNL     1     -13.872   9.037  71.986  1.00  0.00    -0.444 C  
HETATM   16  O   UNL     1     -14.205   8.793  73.359  1.00  0.00    -1.173 OA 
HETATM   17  H   UNL     1     -15.113   9.008  73.540  1.00  0.00     0.000 HD 
ENDBRANCH  12  15
ENDBRANCH   9  12
ENDBRANCH   6   9
ENDBRANCH   3   6
TORSDOF 4
ENDMDL
MODEL      109
REMARK 921   NORMALIZED FREE ENERGY PREDICTED BY IDOCK:   -3.34 KCAL/MOL
REMARK 922        TOTAL FREE ENERGY PREDICTED BY IDOCK:   -4.99 KCAL/MOL
REMARK 923 INTER-LIGAND FREE ENERGY PREDICTED BY IDOCK:   -4.23 KCAL/MOL
REMARK 924 INTRA-LIGAND FREE ENERGY PREDICTED BY IDOCK:   -0.76 KCAL/MOL
REMARK 927      BINDING AFFINITY PREDICTED BY RF-SCORE:    0.00 PKD
ROOT
HETATM    1  C   UNL     1     -10.904  15.891  67.450  1.00  0.00    -0.291 C  
HETATM    2  O   UNL     1     -10.517  16.467  68.469  1.00  0.00    -0.266 OA 
HETATM    3  C   UNL     1     -11.175  14.402  67.362  1.00  0.00    -0.325 C  
HETATM    4  O   UNL     1     -12.574  14.171  67.557  1.00  0.00    -0.480 OA 
HETATM    5  H   UNL     1     -12.744  13.238  67.502  1.00  0.00     0.000 HD 
ENDROOT
BRANCH   3   6
HETATM    6  C   UNL     1     -10.369  13.606  68.397  1.00  0.00    -0.248 C  
HETATM    7  O   UNL     1     -11.139  13.562  69.616  1.00  0.00    -0.444 OA 
HETATM    8  H   UNL     1     -10.639  13.069  70.256  1.00  0.00     0.000 HD 
BRANCH   6   9
HETATM    9  C   UNL     1      -9.966  12.167  67.963  1.00  0.00    -0.203 C  
HETATM   10  O   UNL     1      -9.503  11.429  69.107  1.00  0.00    -0.408 OA 
HETATM   11  H   UNL     1      -9.257  10.550  68.842  1.00  0.00     0.000 HD 
BRANCH   9  12
HETATM   12  C   UNL     1     -11.044  11.333  67.241  1.00  0.00    -0.305 C  
HETATM   13  H   UNL     1     -12.895  10.750  67.609  1.00  0.00     0.000 HD 
HETATM   14  O   UNL     1     -12.231  11.264  68.053  1.00  0.00    -0.621 OA 
BRANCH  12  15
HETATM   15  C   UNL     1     -10.582   9.927  66.821  1.00  0.00    -0.144 C  
HETATM   16  O   UNL     1     -10.978   8.937  67.780  1.00  0.00    -0.494 OA 
HETATM   17  H   UNL     1     -10.692   8.069  67.521  1.00  0.00     0.000 HD 
ENDBRANCH  12  15
ENDBRANCH   9  12
ENDBRANCH   6   9
ENDBRANCH   3   6
TORSDOF 4
ENDMDL
MODEL      110
REMARK 921   NORMALIZED FREE ENERGY PREDICTED BY IDOCK:   -3.33 KCAL/MOL
REMARK 922        TOTAL FREE ENERGY PREDICTED BY IDOCK:   -4.98 KCAL/MOL
REMARK 923 INTER-LIGAND FREE ENERGY PREDICTED BY IDOCK:   -4.16 KCAL/MOL
REMARK 924 INTRA-LIGAND FREE ENERGY PREDICTED BY IDOCK:   -0.82 KCAL/MOL
REMARK 927      BINDING AFFINITY PREDICTED BY RF-SCORE:    0.00 PKD
ROOT
HETATM    1  C   UNL     1     -11.194  12.252  64.061  1.00  0.00    -0.392 C  
HETATM    2  O   UNL     1     -10.287  11.425  63.950  1.00  0.00    -0.308 OA 
HETATM    3  C   UNL     1     -11.196  13.387  65.066  1.00  0.00    -0.317 C  
HETATM    4  O   UNL     1     -10.716  14.575  64.428  1.00  0.00    -0.614 OA 
HETATM    5  H   UNL     1     -10.718  15.287  65.058  1.00  0.00     0.000 HD 
ENDROOT
BRANCH   3   6
HETATM    6  C   UNL     1     -10.332  13.072  66.295  1.00  0.00    -0.285 C  
HETATM    7  O   UNL     1      -8.986  13.505  66.008  1.00  0.00    -0.444 OA 
HETATM    8  H   UNL     1      -8.451  13.310  66.769  1.00  0.00     0.000 HD 
BRANCH   6   9
HETATM    9  C   UNL     1     -10.824  13.697  67.632  1.00  0.00    -0.256 C  
HETATM   10  O   UNL     1      -9.825  13.510  68.649  1.00  0.00    -0.329 OA 
HETATM   11  H   UNL     1     -10.126  13.892  69.466  1.00  0.00     0.000 HD 
BRANCH   9  12
HETATM   12  C   UNL     1     -11.220  15.188  67.597  1.00  0.00    -0.327 C  
HETATM   13  H   UNL     1     -10.336  16.899  67.164  1.00  0.00     0.000 HD 
HETATM   14  O   UNL     1     -10.092  15.982  67.185  1.00  0.00    -0.258 OA 
BRANCH  12  15
HETATM   15  C   UNL     1     -11.813  15.717  68.915  1.00  0.00    -0.352 C  
HETATM   16  O   UNL     1     -10.805  15.852  69.926  1.00  0.00    -0.277 OA 
HETATM   17  H   UNL     1     -11.172  16.178  70.740  1.00  0.00     0.000 HD 
ENDBRANCH  12  15
ENDBRANCH   9  12
ENDBRANCH   6   9
ENDBRANCH   3   6
TORSDOF 4
ENDMDL
MODEL      111
REMARK 921   NORMALIZED FREE ENERGY PREDICTED BY IDOCK:   -3.32 KCAL/MOL
REMARK 922        TOTAL FREE ENERGY PREDICTED BY IDOCK:   -4.97 KCAL/MOL
REMARK 923 INTER-LIGAND FREE ENERGY PREDICTED BY IDOCK:   -4.34 KCAL/MOL
REMARK 924 INTRA-LIGAND FREE ENERGY PREDICTED BY IDOCK:   -0.63 KCAL/MOL
REMARK 927      BINDING AFFINITY PREDICTED BY RF-SCORE:    0.00 PKD
ROOT
HETATM    1  C   UNL     1     -12.372  14.026  65.163  1.00  0.00    -0.453 C  
HETATM    2  O   UNL     1     -12.167  14.967  64.395  1.00  0.00    -0.481 OA 
HETATM    3  C   UNL     1     -11.795  13.924  66.561  1.00  0.00    -0.414 C  
HETATM    4  O   UNL     1     -12.765  14.398  67.502  1.00  0.00    -0.358 OA 
HETATM    5  H   UNL     1     -12.403  14.333  68.378  1.00  0.00     0.000 HD 
ENDROOT
BRANCH   3   6
HETATM    6  C   UNL     1     -10.494  14.724  66.709  1.00  0.00    -0.282 C  
HETATM    7  O   UNL     1      -9.771  14.621  65.465  1.00  0.00    -0.465 OA 
HETATM    8  H   UNL     1      -8.966  15.117  65.557  1.00  0.00     0.000 HD 
BRANCH   6   9
HETATM    9  C   UNL     1     -10.673  16.218  67.104  1.00  0.00    -0.247 C  
HETATM   10  O   UNL     1     -10.779  16.332  68.533  1.00  0.00    -0.273 OA 
HETATM   11  H   UNL     1     -10.888  17.244  68.774  1.00  0.00     0.000 HD 
BRANCH   9  12
HETATM   12  C   UNL     1      -9.591  17.201  66.610  1.00  0.00    -0.267 C  
HETATM   13  H   UNL     1      -7.872  17.901  67.283  1.00  0.00     0.000 HD 
HETATM   14  O   UNL     1      -8.538  17.296  67.587  1.00  0.00    -0.213 OA 
BRANCH  12  15
HETATM   15  C   UNL     1     -10.124  18.596  66.238  1.00  0.00    -0.400 C  
HETATM   16  O   UNL     1     -10.824  19.199  67.334  1.00  0.00    -0.483 OA 
HETATM   17  H   UNL     1     -11.153  20.060  67.104  1.00  0.00     0.000 HD 
ENDBRANCH  12  15
ENDBRANCH   9  12
ENDBRANCH   6   9
ENDBRANCH   3   6
TORSDOF 4
ENDMDL
MODEL      112
REMARK 921   NORMALIZED FREE ENERGY PREDICTED BY IDOCK:   -3.31 KCAL/MOL
REMARK 922        TOTAL FREE ENERGY PREDICTED BY IDOCK:   -4.95 KCAL/MOL
REMARK 923 INTER-LIGAND FREE ENERGY PREDICTED BY IDOCK:   -4.65 KCAL/MOL
REMARK 924 INTRA-LIGAND FREE ENERGY PREDICTED BY IDOCK:   -0.30 KCAL/MOL
REMARK 927      BINDING AFFINITY PREDICTED BY RF-SCORE:    0.00 PKD
ROOT
HETATM    1  C   UNL     1     -11.465  11.088  69.108  1.00  0.00    -0.301 C  
HETATM    2  O   UNL     1     -12.489  10.499  68.756  1.00  0.00    -0.161 OA 
HETATM    3  C   UNL     1     -11.269  12.588  69.016  1.00  0.00    -0.268 C  
HETATM    4  O   UNL     1     -11.579  13.178  70.283  1.00  0.00    -0.520 OA 
HETATM    5  H   UNL     1     -11.455  14.118  70.225  1.00  0.00     0.000 HD 
ENDROOT
BRANCH   3   6
HETATM    6  C   UNL     1     -12.141  13.219  67.922  1.00  0.00    -0.228 C  
HETATM    7  O   UNL     1     -12.325  14.610  68.255  1.00  0.00    -0.594 OA 
HETATM    8  H   UNL     1     -12.866  15.000  67.577  1.00  0.00     0.000 HD 
BRANCH   6   9
HETATM    9  C   UNL     1     -11.594  13.081  66.472  1.00  0.00    -0.356 C  
HETATM   10  O   UNL     1     -12.386  12.127  65.745  1.00  0.00    -0.564 OA 
HETATM   11  H   UNL     1     -12.052  12.043  64.859  1.00  0.00     0.000 HD 
BRANCH   9  12
HETATM   12  C   UNL     1     -11.496  14.377  65.641  1.00  0.00    -0.336 C  
HETATM   13  H   UNL     1     -12.314  15.090  63.991  1.00  0.00     0.000 HD 
HETATM   14  O   UNL     1     -12.374  14.292  64.503  1.00  0.00    -0.539 OA 
BRANCH  12  15
HETATM   15  C   UNL     1     -10.067  14.746  65.207  1.00  0.00    -0.354 C  
HETATM   16  O   UNL     1      -9.097  13.877  65.806  1.00  0.00    -0.428 OA 
HETATM   17  H   UNL     1      -8.214  14.105  65.539  1.00  0.00     0.000 HD 
ENDBRANCH  12  15
ENDBRANCH   9  12
ENDBRANCH   6   9
ENDBRANCH   3   6
TORSDOF 4
ENDMDL
MODEL      113
REMARK 921   NORMALIZED FREE ENERGY PREDICTED BY IDOCK:   -3.27 KCAL/MOL
REMARK 922        TOTAL FREE ENERGY PREDICTED BY IDOCK:   -4.91 KCAL/MOL
REMARK 923 INTER-LIGAND FREE ENERGY PREDICTED BY IDOCK:   -4.44 KCAL/MOL
REMARK 924 INTRA-LIGAND FREE ENERGY PREDICTED BY IDOCK:   -0.47 KCAL/MOL
REMARK 927      BINDING AFFINITY PREDICTED BY RF-SCORE:    0.00 PKD
ROOT
HETATM    1  C   UNL     1     -11.317  11.055  67.877  1.00  0.00    -0.311 C  
HETATM    2  O   UNL     1     -11.945  11.590  66.962  1.00  0.00    -0.556 OA 
HETATM    3  C   UNL     1     -11.532  11.356  69.348  1.00  0.00    -0.310 C  
HETATM    4  O   UNL     1     -12.416  10.375  69.900  1.00  0.00    -0.519 OA 
HETATM    5  H   UNL     1     -12.550  10.563  70.822  1.00  0.00     0.000 HD 
ENDROOT
BRANCH   3   6
HETATM    6  C   UNL     1     -12.109  12.760  69.572  1.00  0.00    -0.205 C  
HETATM    7  O   UNL     1     -12.123  13.007  70.993  1.00  0.00    -0.436 OA 
HETATM    8  H   UNL     1     -12.480  13.877  71.132  1.00  0.00     0.000 HD 
BRANCH   6   9
HETATM    9  C   UNL     1     -11.366  13.910  68.834  1.00  0.00    -0.282 C  
HETATM   10  O   UNL     1     -12.173  14.384  67.742  1.00  0.00    -0.599 OA 
HETATM   11  H   UNL     1     -11.719  15.087  67.291  1.00  0.00     0.000 HD 
BRANCH   9  12
HETATM   12  C   UNL     1     -10.935  15.120  69.690  1.00  0.00    -0.281 C  
HETATM   13  H   UNL     1     -11.817  16.420  70.887  1.00  0.00     0.000 HD 
HETATM   14  O   UNL     1     -12.082  15.675  70.360  1.00  0.00    -0.361 OA 
BRANCH  12  15
HETATM   15  C   UNL     1     -10.173  16.207  68.912  1.00  0.00    -0.245 C  
HETATM   16  O   UNL     1     -11.056  16.975  68.084  1.00  0.00    -0.334 OA 
HETATM   17  H   UNL     1     -10.586  17.647  67.603  1.00  0.00     0.000 HD 
ENDBRANCH  12  15
ENDBRANCH   9  12
ENDBRANCH   6   9
ENDBRANCH   3   6
TORSDOF 4
ENDMDL
MODEL      114
REMARK 921   NORMALIZED FREE ENERGY PREDICTED BY IDOCK:   -3.25 KCAL/MOL
REMARK 922        TOTAL FREE ENERGY PREDICTED BY IDOCK:   -4.88 KCAL/MOL
REMARK 923 INTER-LIGAND FREE ENERGY PREDICTED BY IDOCK:   -4.11 KCAL/MOL
REMARK 924 INTRA-LIGAND FREE ENERGY PREDICTED BY IDOCK:   -0.77 KCAL/MOL
REMARK 927      BINDING AFFINITY PREDICTED BY RF-SCORE:    0.00 PKD
ROOT
HETATM    1  C   UNL     1      -9.580  14.355  68.138  1.00  0.00    -0.218 C  
HETATM    2  O   UNL     1     -10.690  14.031  68.563  1.00  0.00    -0.242 OA 
HETATM    3  C   UNL     1      -9.270  15.690  67.490  1.00  0.00    -0.201 C  
HETATM    4  O   UNL     1      -8.722  16.571  68.475  1.00  0.00    -0.208 OA 
HETATM    5  H   UNL     1      -8.527  17.407  68.069  1.00  0.00     0.000 HD 
ENDROOT
BRANCH   3   6
HETATM    6  C   UNL     1     -10.515  16.328  66.859  1.00  0.00    -0.302 C  
HETATM    7  O   UNL     1     -11.384  16.750  67.930  1.00  0.00    -0.177 OA 
HETATM    8  H   UNL     1     -12.155  17.145  67.539  1.00  0.00     0.000 HD 
BRANCH   6   9
HETATM    9  C   UNL     1     -10.237  17.516  65.893  1.00  0.00    -0.242 C  
HETATM   10  O   UNL     1     -10.953  17.317  64.662  1.00  0.00    -1.013 OA 
HETATM   11  H   UNL     1     -10.783  18.042  64.072  1.00  0.00     0.000 HD 
BRANCH   9  12
HETATM   12  C   UNL     1     -10.552  18.930  66.423  1.00  0.00    -0.387 C  
HETATM   13  H   UNL     1     -11.139  20.654  65.658  1.00  0.00     0.000 HD 
HETATM   14  O   UNL     1     -10.945  19.783  65.332  1.00  0.00    -0.414 OA 
BRANCH  12  15
HETATM   15  C   UNL     1      -9.416  19.569  67.240  1.00  0.00    -0.329 C  
HETATM   16  O   UNL     1      -9.608  19.374  68.647  1.00  0.00    -0.381 OA 
HETATM   17  H   UNL     1      -8.906  19.769  69.152  1.00  0.00     0.000 HD 
ENDBRANCH  12  15
ENDBRANCH   9  12
ENDBRANCH   6   9
ENDBRANCH   3   6
TORSDOF 4
ENDMDL
MODEL      115
REMARK 921   NORMALIZED FREE ENERGY PREDICTED BY IDOCK:   -3.25 KCAL/MOL
REMARK 922        TOTAL FREE ENERGY PREDICTED BY IDOCK:   -4.88 KCAL/MOL
REMARK 923 INTER-LIGAND FREE ENERGY PREDICTED BY IDOCK:   -4.27 KCAL/MOL
REMARK 924 INTRA-LIGAND FREE ENERGY PREDICTED BY IDOCK:   -0.61 KCAL/MOL
REMARK 927      BINDING AFFINITY PREDICTED BY RF-SCORE:    0.00 PKD
ROOT
HETATM    1  C   UNL     1     -10.137  10.690  69.097  1.00  0.00    -0.216 C  
HETATM    2  O   UNL     1      -9.285  10.870  68.226  1.00  0.00    -0.148 OA 
HETATM    3  C   UNL     1     -11.389  11.532  69.254  1.00  0.00    -0.288 C  
HETATM    4  O   UNL     1     -12.478  10.876  68.597  1.00  0.00    -0.772 OA 
HETATM    5  H   UNL     1     -13.262  11.403  68.696  1.00  0.00     0.000 HD 
ENDROOT
BRANCH   3   6
HETATM    6  C   UNL     1     -11.210  12.944  68.680  1.00  0.00    -0.281 C  
HETATM    7  O   UNL     1      -9.873  13.381  68.997  1.00  0.00    -0.413 OA 
HETATM    8  H   UNL     1      -9.763  14.256  68.642  1.00  0.00     0.000 HD 
BRANCH   6   9
HETATM    9  C   UNL     1     -11.472  13.079  67.153  1.00  0.00    -0.331 C  
HETATM   10  O   UNL     1     -12.412  14.140  66.915  1.00  0.00    -0.565 OA 
HETATM   11  H   UNL     1     -12.572  14.223  65.982  1.00  0.00     0.000 HD 
BRANCH   9  12
HETATM   12  C   UNL     1     -10.237  13.304  66.254  1.00  0.00    -0.296 C  
HETATM   13  H   UNL     1      -9.096  14.829  65.738  1.00  0.00     0.000 HD 
HETATM   14  O   UNL     1      -9.855  14.691  66.291  1.00  0.00    -0.271 OA 
BRANCH  12  15
HETATM   15  C   UNL     1     -10.412  12.819  64.804  1.00  0.00    -0.335 C  
HETATM   16  O   UNL     1     -11.670  12.155  64.622  1.00  0.00    -0.350 OA 
HETATM   17  H   UNL     1     -11.778  11.855  63.727  1.00  0.00     0.000 HD 
ENDBRANCH  12  15
ENDBRANCH   9  12
ENDBRANCH   6   9
ENDBRANCH   3   6
TORSDOF 4
ENDMDL
MODEL      116
REMARK 921   NORMALIZED FREE ENERGY PREDICTED BY IDOCK:   -3.24 KCAL/MOL
REMARK 922        TOTAL FREE ENERGY PREDICTED BY IDOCK:   -4.87 KCAL/MOL
REMARK 923 INTER-LIGAND FREE ENERGY PREDICTED BY IDOCK:   -4.13 KCAL/MOL
REMARK 924 INTRA-LIGAND FREE ENERGY PREDICTED BY IDOCK:   -0.74 KCAL/MOL
REMARK 927      BINDING AFFINITY PREDICTED BY RF-SCORE:    0.00 PKD
ROOT
HETATM    1  C   UNL     1     -12.171  12.687  63.646  1.00  0.00    -0.536 C  
HETATM    2  O   UNL     1     -13.232  12.311  64.146  1.00  0.00    -0.745 OA 
HETATM    3  C   UNL     1     -10.967  13.148  64.444  1.00  0.00    -0.390 C  
HETATM    4  O   UNL     1     -10.059  12.052  64.595  1.00  0.00    -0.269 OA 
HETATM    5  H   UNL     1      -9.305  12.341  65.095  1.00  0.00     0.000 HD 
ENDROOT
BRANCH   3   6
HETATM    6  C   UNL     1     -11.362  13.689  65.825  1.00  0.00    -0.306 C  
HETATM    7  O   UNL     1     -11.656  12.558  66.671  1.00  0.00    -0.340 OA 
HETATM    8  H   UNL     1     -11.901  12.893  67.526  1.00  0.00     0.000 HD 
BRANCH   6   9
HETATM    9  C   UNL     1     -10.311  14.611  66.505  1.00  0.00    -0.282 C  
HETATM   10  O   UNL     1     -10.254  15.871  65.816  1.00  0.00    -0.318 OA 
HETATM   11  H   UNL     1      -9.612  16.435  66.232  1.00  0.00     0.000 HD 
BRANCH   9  12
HETATM   12  C   UNL     1     -10.496  14.881  68.013  1.00  0.00    -0.246 C  
HETATM   13  H   UNL     1     -11.991  15.350  69.215  1.00  0.00     0.000 HD 
HETATM   14  O   UNL     1     -11.877  15.184  68.287  1.00  0.00    -0.331 OA 
BRANCH  12  15
HETATM   15  C   UNL     1      -9.570  15.970  68.581  1.00  0.00    -0.222 C  
HETATM   16  O   UNL     1      -8.247  15.867  68.039  1.00  0.00    -0.145 OA 
HETATM   17  H   UNL     1      -7.675  16.540  68.390  1.00  0.00     0.000 HD 
ENDBRANCH  12  15
ENDBRANCH   9  12
ENDBRANCH   6   9
ENDBRANCH   3   6
TORSDOF 4
ENDMDL
MODEL      117
REMARK 921   NORMALIZED FREE ENERGY PREDICTED BY IDOCK:   -3.23 KCAL/MOL
REMARK 922        TOTAL FREE ENERGY PREDICTED BY IDOCK:   -4.86 KCAL/MOL
REMARK 923 INTER-LIGAND FREE ENERGY PREDICTED BY IDOCK:   -4.38 KCAL/MOL
REMARK 924 INTRA-LIGAND FREE ENERGY PREDICTED BY IDOCK:   -0.48 KCAL/MOL
REMARK 927      BINDING AFFINITY PREDICTED BY RF-SCORE:    0.00 PKD
ROOT
HETATM    1  C   UNL     1     -11.121  14.913  64.894  1.00  0.00    -0.414 C  
HETATM    2  O   UNL     1     -10.779  16.088  64.757  1.00  0.00    -0.611 OA 
HETATM    3  C   UNL     1     -11.399  14.255  66.231  1.00  0.00    -0.346 C  
HETATM    4  O   UNL     1     -12.807  14.290  66.485  1.00  0.00    -0.462 OA 
HETATM    5  H   UNL     1     -12.981  13.878  67.322  1.00  0.00     0.000 HD 
ENDROOT
BRANCH   3   6
HETATM    6  C   UNL     1     -10.647  14.942  67.379  1.00  0.00    -0.263 C  
HETATM    7  O   UNL     1     -11.048  16.327  67.400  1.00  0.00    -0.232 OA 
HETATM    8  H   UNL     1     -10.582  16.752  68.111  1.00  0.00     0.000 HD 
BRANCH   6   9
HETATM    9  C   UNL     1     -10.849  14.303  68.784  1.00  0.00    -0.253 C  
HETATM   10  O   UNL     1      -9.570  14.045  69.387  1.00  0.00    -0.357 OA 
HETATM   11  H   UNL     1      -9.694  13.655  70.244  1.00  0.00     0.000 HD 
BRANCH   9  12
HETATM   12  C   UNL     1     -11.718  15.092  69.786  1.00  0.00    -0.307 C  
HETATM   13  H   UNL     1     -11.477  16.642  70.985  1.00  0.00     0.000 HD 
HETATM   14  O   UNL     1     -10.943  16.156  70.368  1.00  0.00    -0.341 OA 
BRANCH  12  15
HETATM   15  C   UNL     1     -12.370  14.226  70.878  1.00  0.00    -0.359 C  
HETATM   16  O   UNL     1     -13.745  14.581  71.076  1.00  0.00    -0.434 OA 
HETATM   17  H   UNL     1     -14.148  14.047  71.751  1.00  0.00     0.000 HD 
ENDBRANCH  12  15
ENDBRANCH   9  12
ENDBRANCH   6   9
ENDBRANCH   3   6
TORSDOF 4
ENDMDL
MODEL      118
REMARK 921   NORMALIZED FREE ENERGY PREDICTED BY IDOCK:   -3.23 KCAL/MOL
REMARK 922        TOTAL FREE ENERGY PREDICTED BY IDOCK:   -4.86 KCAL/MOL
REMARK 923 INTER-LIGAND FREE ENERGY PREDICTED BY IDOCK:   -3.93 KCAL/MOL
REMARK 924 INTRA-LIGAND FREE ENERGY PREDICTED BY IDOCK:   -0.93 KCAL/MOL
REMARK 927      BINDING AFFINITY PREDICTED BY RF-SCORE:    0.00 PKD
ROOT
HETATM    1  C   UNL     1     -10.354  15.898  66.194  1.00  0.00    -0.328 C  
HETATM    2  O   UNL     1     -10.013  14.999  65.423  1.00  0.00    -0.344 OA 
HETATM    3  C   UNL     1     -11.070  15.669  67.510  1.00  0.00    -0.289 C  
HETATM    4  O   UNL     1     -10.108  15.654  68.569  1.00  0.00    -0.206 OA 
HETATM    5  H   UNL     1     -10.557  15.511  69.394  1.00  0.00     0.000 HD 
ENDROOT
BRANCH   3   6
HETATM    6  C   UNL     1     -11.865  14.356  67.513  1.00  0.00    -0.386 C  
HETATM    7  O   UNL     1     -12.436  14.184  66.200  1.00  0.00    -0.466 OA 
HETATM    8  H   UNL     1     -12.928  13.371  66.202  1.00  0.00     0.000 HD 
BRANCH   6   9
HETATM    9  C   UNL     1     -11.057  13.090  67.918  1.00  0.00    -0.255 C  
HETATM   10  O   UNL     1     -10.996  12.992  69.351  1.00  0.00    -0.432 OA 
HETATM   11  H   UNL     1     -10.503  12.218  69.598  1.00  0.00     0.000 HD 
BRANCH   9  12
HETATM   12  C   UNL     1     -11.551  11.741  67.352  1.00  0.00    -0.280 C  
HETATM   13  H   UNL     1     -12.056   9.977  68.081  1.00  0.00     0.000 HD 
HETATM   14  O   UNL     1     -11.752  10.807  68.429  1.00  0.00    -0.428 OA 
BRANCH  12  15
HETATM   15  C   UNL     1     -10.645  11.140  66.264  1.00  0.00    -0.253 C  
HETATM   16  O   UNL     1     -10.243  12.133  65.310  1.00  0.00    -0.263 OA 
HETATM   17  H   UNL     1      -9.684  11.762  64.638  1.00  0.00     0.000 HD 
ENDBRANCH  12  15
ENDBRANCH   9  12
ENDBRANCH   6   9
ENDBRANCH   3   6
TORSDOF 4
ENDMDL
MODEL      119
REMARK 921   NORMALIZED FREE ENERGY PREDICTED BY IDOCK:   -3.22 KCAL/MOL
REMARK 922        TOTAL FREE ENERGY PREDICTED BY IDOCK:   -4.84 KCAL/MOL
REMARK 923 INTER-LIGAND FREE ENERGY PREDICTED BY IDOCK:   -4.12 KCAL/MOL
REMARK 924 INTRA-LIGAND FREE ENERGY PREDICTED BY IDOCK:   -0.72 KCAL/MOL
REMARK 927      BINDING AFFINITY PREDICTED BY RF-SCORE:    0.00 PKD
ROOT
HETATM    1  C   UNL     1      -9.267  16.855  67.401  1.00  0.00    -0.222 C  
HETATM    2  O   UNL     1      -9.826  17.360  66.426  1.00  0.00    -0.281 OA 
HETATM    3  C   UNL     1      -9.187  15.364  67.661  1.00  0.00    -0.187 C  
HETATM    4  O   UNL     1      -7.933  14.872  67.175  1.00  0.00    -0.200 OA 
HETATM    5  H   UNL     1      -7.883  13.938  67.339  1.00  0.00     0.000 HD 
ENDROOT
BRANCH   3   6
HETATM    6  C   UNL     1     -10.338  14.599  66.995  1.00  0.00    -0.263 C  
HETATM    7  O   UNL     1     -11.530  15.400  67.122  1.00  0.00    -0.266 OA 
HETATM    8  H   UNL     1     -12.243  14.926  66.710  1.00  0.00     0.000 HD 
BRANCH   6   9
HETATM    9  C   UNL     1     -10.107  14.213  65.506  1.00  0.00    -0.336 C  
HETATM   10  O   UNL     1      -9.430  12.946  65.434  1.00  0.00    -0.466 OA 
HETATM   11  H   UNL     1      -9.288  12.711  64.524  1.00  0.00     0.000 HD 
BRANCH   9  12
HETATM   12  C   UNL     1     -11.356  14.156  64.601  1.00  0.00    -0.371 C  
HETATM   13  H   UNL     1     -12.624  15.454  63.822  1.00  0.00     0.000 HD 
HETATM   14  O   UNL     1     -11.855  15.488  64.379  1.00  0.00    -0.385 OA 
BRANCH  12  15
HETATM   15  C   UNL     1     -12.470  13.229  65.116  1.00  0.00    -0.470 C  
HETATM   16  O   UNL     1     -13.636  13.973  65.495  1.00  0.00    -0.673 OA 
HETATM   17  H   UNL     1     -14.325  13.400  65.814  1.00  0.00     0.000 HD 
ENDBRANCH  12  15
ENDBRANCH   9  12
ENDBRANCH   6   9
ENDBRANCH   3   6
TORSDOF 4
ENDMDL
MODEL      120
REMARK 921   NORMALIZED FREE ENERGY PREDICTED BY IDOCK:   -3.21 KCAL/MOL
REMARK 922        TOTAL FREE ENERGY PREDICTED BY IDOCK:   -4.83 KCAL/MOL
REMARK 923 INTER-LIGAND FREE ENERGY PREDICTED BY IDOCK:   -4.12 KCAL/MOL
REMARK 924 INTRA-LIGAND FREE ENERGY PREDICTED BY IDOCK:   -0.71 KCAL/MOL
REMARK 927      BINDING AFFINITY PREDICTED BY RF-SCORE:    0.00 PKD
ROOT
HETATM    1  C   UNL     1      -9.614   9.213  68.149  1.00  0.00    -0.144 C  
HETATM    2  O   UNL     1     -10.523   8.395  68.304  1.00  0.00    -0.206 OA 
HETATM    3  C   UNL     1      -9.832  10.686  67.862  1.00  0.00    -0.161 C  
HETATM    4  O   UNL     1      -9.757  11.417  69.090  1.00  0.00    -0.404 OA 
HETATM    5  H   UNL     1      -9.893  12.340  68.910  1.00  0.00     0.000 HD 
ENDROOT
BRANCH   3   6
HETATM    6  C   UNL     1     -11.183  10.949  67.184  1.00  0.00    -0.184 C  
HETATM    7  O   UNL     1     -12.155  11.196  68.221  1.00  0.00    -0.663 OA 
HETATM    8  H   UNL     1     -12.992  11.359  67.800  1.00  0.00     0.000 HD 
BRANCH   6   9
HETATM    9  C   UNL     1     -11.194  12.110  66.149  1.00  0.00    -0.338 C  
HETATM   10  O   UNL     1     -12.471  12.160  65.491  1.00  0.00    -0.517 OA 
HETATM   11  H   UNL     1     -12.478  12.870  64.858  1.00  0.00     0.000 HD 
BRANCH   9  12
HETATM   12  C   UNL     1     -10.859  13.519  66.682  1.00  0.00    -0.283 C  
HETATM   13  H   UNL     1     -11.237  14.563  68.315  1.00  0.00     0.000 HD 
HETATM   14  O   UNL     1     -11.443  13.696  67.986  1.00  0.00    -0.274 OA 
BRANCH  12  15
HETATM   15  C   UNL     1     -11.260  14.666  65.739  1.00  0.00    -0.336 C  
HETATM   16  O   UNL     1     -10.886  14.384  64.384  1.00  0.00    -0.611 OA 
HETATM   17  H   UNL     1     -11.134  15.093  63.801  1.00  0.00     0.000 HD 
ENDBRANCH  12  15
ENDBRANCH   9  12
ENDBRANCH   6   9
ENDBRANCH   3   6
TORSDOF 4
ENDMDL
MODEL      121
REMARK 921   NORMALIZED FREE ENERGY PREDICTED BY IDOCK:   -3.21 KCAL/MOL
REMARK 922        TOTAL FREE ENERGY PREDICTED BY IDOCK:   -4.83 KCAL/MOL
REMARK 923 INTER-LIGAND FREE ENERGY PREDICTED BY IDOCK:   -4.12 KCAL/MOL
REMARK 924 INTRA-LIGAND FREE ENERGY PREDICTED BY IDOCK:   -0.71 KCAL/MOL
REMARK 927      BINDING AFFINITY PREDICTED BY RF-SCORE:    0.00 PKD
ROOT
HETATM    1  C   UNL     1     -11.677  11.378  69.497  1.00  0.00    -0.348 C  
HETATM    2  O   UNL     1     -12.451  10.940  68.645  1.00  0.00    -0.418 OA 
HETATM    3  C   UNL     1     -11.069  10.544  70.608  1.00  0.00    -0.105 C  
HETATM    4  O   UNL     1      -9.766  10.109  70.205  1.00  0.00    -0.393 OA 
HETATM    5  H   UNL     1      -9.385   9.586  70.901  1.00  0.00     0.000 HD 
ENDROOT
BRANCH   3   6
HETATM    6  C   UNL     1     -11.937   9.328  70.958  1.00  0.00    -0.300 C  
HETATM    7  O   UNL     1     -11.757   8.345  69.917  1.00  0.00    -0.422 OA 
HETATM    8  H   UNL     1     -12.294   7.592  70.134  1.00  0.00     0.000 HD 
BRANCH   6   9
HETATM    9  C   UNL     1     -11.662   8.692  72.351  1.00  0.00    -0.323 C  
HETATM   10  O   UNL     1     -12.907   8.342  72.977  1.00  0.00    -0.706 OA 
HETATM   11  H   UNL     1     -12.739   7.954  73.829  1.00  0.00     0.000 HD 
BRANCH   9  12
HETATM   12  C   UNL     1     -10.732   7.461  72.380  1.00  0.00    -0.253 C  
HETATM   13  H   UNL     1     -10.872   5.568  72.925  1.00  0.00     0.000 HD 
HETATM   14  O   UNL     1     -11.444   6.326  72.906  1.00  0.00    -0.204 OA 
BRANCH  12  15
HETATM   15  C   UNL     1      -9.412   7.681  73.139  1.00  0.00    -0.243 C  
HETATM   16  O   UNL     1      -8.716   8.838  72.654  1.00  0.00    -0.408 OA 
HETATM   17  H   UNL     1      -7.900   8.974  73.123  1.00  0.00     0.000 HD 
ENDBRANCH  12  15
ENDBRANCH   9  12
ENDBRANCH   6   9
ENDBRANCH   3   6
TORSDOF 4
ENDMDL
MODEL      122
REMARK 921   NORMALIZED FREE ENERGY PREDICTED BY IDOCK:   -3.21 KCAL/MOL
REMARK 922        TOTAL FREE ENERGY PREDICTED BY IDOCK:   -4.83 KCAL/MOL
REMARK 923 INTER-LIGAND FREE ENERGY PREDICTED BY IDOCK:   -4.31 KCAL/MOL
REMARK 924 INTRA-LIGAND FREE ENERGY PREDICTED BY IDOCK:   -0.52 KCAL/MOL
REMARK 927      BINDING AFFINITY PREDICTED BY RF-SCORE:    0.00 PKD
ROOT
HETATM    1  C   UNL     1      -8.959  17.024  68.922  1.00  0.00    -0.210 C  
HETATM    2  O   UNL     1      -9.276  17.543  67.851  1.00  0.00    -0.255 OA 
HETATM    3  C   UNL     1      -9.711  15.879  69.573  1.00  0.00    -0.255 C  
HETATM    4  O   UNL     1      -9.070  14.646  69.230  1.00  0.00    -0.372 OA 
HETATM    5  H   UNL     1      -9.542  13.929  69.638  1.00  0.00     0.000 HD 
ENDROOT
BRANCH   3   6
HETATM    6  C   UNL     1     -11.183  15.837  69.141  1.00  0.00    -0.322 C  
HETATM    7  O   UNL     1     -11.223  15.443  67.754  1.00  0.00    -0.316 OA 
HETATM    8  H   UNL     1     -12.135  15.417  67.487  1.00  0.00     0.000 HD 
BRANCH   6   9
HETATM    9  C   UNL     1     -12.099  14.910  69.990  1.00  0.00    -0.338 C  
HETATM   10  O   UNL     1     -11.346  13.775  70.451  1.00  0.00    -0.499 OA 
HETATM   11  H   UNL     1     -11.906  13.209  70.970  1.00  0.00     0.000 HD 
BRANCH   9  12
HETATM   12  C   UNL     1     -12.810  15.554  71.199  1.00  0.00    -0.489 C  
HETATM   13  H   UNL     1     -12.311  16.117  73.025  1.00  0.00     0.000 HD 
HETATM   14  O   UNL     1     -11.874  15.721  72.281  1.00  0.00    -0.410 OA 
BRANCH  12  15
HETATM   15  C   UNL     1     -14.067  14.802  71.670  1.00  0.00    -0.503 C  
HETATM   16  O   UNL     1     -14.106  14.692  73.099  1.00  0.00    -0.340 OA 
HETATM   17  H   UNL     1     -14.882  14.227  73.390  1.00  0.00     0.000 HD 
ENDBRANCH  12  15
ENDBRANCH   9  12
ENDBRANCH   6   9
ENDBRANCH   3   6
TORSDOF 4
ENDMDL
MODEL      123
REMARK 921   NORMALIZED FREE ENERGY PREDICTED BY IDOCK:   -3.21 KCAL/MOL
REMARK 922        TOTAL FREE ENERGY PREDICTED BY IDOCK:   -4.83 KCAL/MOL
REMARK 923 INTER-LIGAND FREE ENERGY PREDICTED BY IDOCK:   -4.15 KCAL/MOL
REMARK 924 INTRA-LIGAND FREE ENERGY PREDICTED BY IDOCK:   -0.68 KCAL/MOL
REMARK 927      BINDING AFFINITY PREDICTED BY RF-SCORE:    0.00 PKD
ROOT
HETATM    1  C   UNL     1     -11.009  12.234  64.124  1.00  0.00    -0.363 C  
HETATM    2  O   UNL     1     -10.087  11.418  64.068  1.00  0.00    -0.262 OA 
HETATM    3  C   UNL     1     -11.044  13.418  65.070  1.00  0.00    -0.319 C  
HETATM    4  O   UNL     1     -10.572  14.580  64.382  1.00  0.00    -0.583 OA 
HETATM    5  H   UNL     1     -10.595  15.322  64.975  1.00  0.00     0.000 HD 
ENDROOT
BRANCH   3   6
HETATM    6  C   UNL     1     -10.196  13.179  66.327  1.00  0.00    -0.293 C  
HETATM    7  O   UNL     1      -8.843  13.577  66.026  1.00  0.00    -0.348 OA 
HETATM    8  H   UNL     1      -8.318  13.429  66.804  1.00  0.00     0.000 HD 
BRANCH   6   9
HETATM    9  C   UNL     1     -10.694  13.897  67.613  1.00  0.00    -0.249 C  
HETATM   10  O   UNL     1     -11.667  14.897  67.264  1.00  0.00    -0.362 OA 
HETATM   11  H   UNL     1     -11.971  15.335  68.050  1.00  0.00     0.000 HD 
BRANCH   9  12
HETATM   12  C   UNL     1     -11.284  13.002  68.724  1.00  0.00    -0.282 C  
HETATM   13  H   UNL     1     -12.652  11.584  68.850  1.00  0.00     0.000 HD 
HETATM   14  O   UNL     1     -12.289  12.134  68.167  1.00  0.00    -0.265 OA 
BRANCH  12  15
HETATM   15  C   UNL     1     -11.835  13.775  69.935  1.00  0.00    -0.327 C  
HETATM   16  O   UNL     1     -12.999  14.536  69.585  1.00  0.00    -0.494 OA 
HETATM   17  H   UNL     1     -13.338  15.014  70.334  1.00  0.00     0.000 HD 
ENDBRANCH  12  15
ENDBRANCH   9  12
ENDBRANCH   6   9
ENDBRANCH   3   6
TORSDOF 4
ENDMDL
MODEL      124
REMARK 921   NORMALIZED FREE ENERGY PREDICTED BY IDOCK:   -3.21 KCAL/MOL
REMARK 922        TOTAL FREE ENERGY PREDICTED BY IDOCK:   -4.82 KCAL/MOL
REMARK 923 INTER-LIGAND FREE ENERGY PREDICTED BY IDOCK:   -4.38 KCAL/MOL
REMARK 924 INTRA-LIGAND FREE ENERGY PREDICTED BY IDOCK:   -0.44 KCAL/MOL
REMARK 927      BINDING AFFINITY PREDICTED BY RF-SCORE:    0.00 PKD
ROOT
HETATM    1  C   UNL     1     -10.452  19.472  66.668  1.00  0.00    -0.488 C  
HETATM    2  O   UNL     1      -9.424  19.746  66.047  1.00  0.00    -0.383 OA 
HETATM    3  C   UNL     1     -10.535  18.428  67.765  1.00  0.00    -0.409 C  
HETATM    4  O   UNL     1     -10.403  19.074  69.035  1.00  0.00    -0.515 OA 
HETATM    5  H   UNL     1     -10.455  18.420  69.722  1.00  0.00     0.000 HD 
ENDROOT
BRANCH   3   6
HETATM    6  C   UNL     1      -9.455  17.348  67.616  1.00  0.00    -0.251 C  
HETATM    7  O   UNL     1      -8.214  17.898  68.104  1.00  0.00    -0.252 OA 
HETATM    8  H   UNL     1      -7.545  17.230  68.013  1.00  0.00     0.000 HD 
BRANCH   6   9
HETATM    9  C   UNL     1      -9.760  15.998  68.327  1.00  0.00    -0.214 C  
HETATM   10  O   UNL     1      -8.865  15.823  69.438  1.00  0.00    -0.252 OA 
HETATM   11  H   UNL     1      -9.051  14.998  69.872  1.00  0.00     0.000 HD 
BRANCH   9  12
HETATM   12  C   UNL     1     -11.207  15.786  68.822  1.00  0.00    -0.342 C  
HETATM   13  H   UNL     1     -12.177  15.945  70.534  1.00  0.00     0.000 HD 
HETATM   14  O   UNL     1     -11.287  16.076  70.230  1.00  0.00    -0.339 OA 
BRANCH  12  15
HETATM   15  C   UNL     1     -11.784  14.394  68.513  1.00  0.00    -0.335 C  
HETATM   16  O   UNL     1     -12.463  14.377  67.250  1.00  0.00    -0.601 OA 
HETATM   17  H   UNL     1     -12.820  13.518  67.059  1.00  0.00     0.000 HD 
ENDBRANCH  12  15
ENDBRANCH   9  12
ENDBRANCH   6   9
ENDBRANCH   3   6
TORSDOF 4
ENDMDL
MODEL      125
REMARK 921   NORMALIZED FREE ENERGY PREDICTED BY IDOCK:   -3.20 KCAL/MOL
REMARK 922        TOTAL FREE ENERGY PREDICTED BY IDOCK:   -4.82 KCAL/MOL
REMARK 923 INTER-LIGAND FREE ENERGY PREDICTED BY IDOCK:   -4.07 KCAL/MOL
REMARK 924 INTRA-LIGAND FREE ENERGY PREDICTED BY IDOCK:   -0.75 KCAL/MOL
REMARK 927      BINDING AFFINITY PREDICTED BY RF-SCORE:    0.00 PKD
ROOT
HETATM    1  C   UNL     1     -10.498  11.375  65.818  1.00  0.00    -0.262 C  
HETATM    2  O   UNL     1     -10.642  12.095  64.828  1.00  0.00    -0.273 OA 
HETATM    3  C   UNL     1     -10.767  11.819  67.243  1.00  0.00    -0.237 C  
HETATM    4  O   UNL     1     -12.086  11.410  67.618  1.00  0.00    -0.630 OA 
HETATM    5  H   UNL     1     -12.254  11.688  68.511  1.00  0.00     0.000 HD 
ENDROOT
BRANCH   3   6
HETATM    6  C   UNL     1     -10.627  13.338  67.410  1.00  0.00    -0.246 C  
HETATM    7  O   UNL     1     -11.615  13.966  66.567  1.00  0.00    -0.337 OA 
HETATM    8  H   UNL     1     -11.528  14.907  66.671  1.00  0.00     0.000 HD 
BRANCH   6   9
HETATM    9  C   UNL     1     -10.755  13.862  68.869  1.00  0.00    -0.236 C  
HETATM   10  O   UNL     1      -9.600  14.650  69.204  1.00  0.00    -0.336 OA 
HETATM   11  H   UNL     1      -9.678  14.969  70.096  1.00  0.00     0.000 HD 
BRANCH   9  12
HETATM   12  C   UNL     1     -12.022  14.676  69.206  1.00  0.00    -0.302 C  
HETATM   13  H   UNL     1     -12.649  16.530  68.943  1.00  0.00     0.000 HD 
HETATM   14  O   UNL     1     -11.870  16.029  68.735  1.00  0.00    -0.375 OA 
BRANCH  12  15
HETATM   15  C   UNL     1     -12.415  14.652  70.693  1.00  0.00    -0.344 C  
HETATM   16  O   UNL     1     -11.257  14.633  71.540  1.00  0.00    -0.491 OA 
HETATM   17  H   UNL     1     -11.500  14.617  72.459  1.00  0.00     0.000 HD 
ENDBRANCH  12  15
ENDBRANCH   9  12
ENDBRANCH   6   9
ENDBRANCH   3   6
TORSDOF 4
ENDMDL
MODEL      126
REMARK 921   NORMALIZED FREE ENERGY PREDICTED BY IDOCK:   -3.19 KCAL/MOL
REMARK 922        TOTAL FREE ENERGY PREDICTED BY IDOCK:   -4.80 KCAL/MOL
REMARK 923 INTER-LIGAND FREE ENERGY PREDICTED BY IDOCK:   -4.58 KCAL/MOL
REMARK 924 INTRA-LIGAND FREE ENERGY PREDICTED BY IDOCK:   -0.22 KCAL/MOL
REMARK 927      BINDING AFFINITY PREDICTED BY RF-SCORE:    0.00 PKD
ROOT
HETATM    1  C   UNL     1      -9.776  19.212  68.451  1.00  0.00    -0.388 C  
HETATM    2  O   UNL     1     -10.336  20.123  67.839  1.00  0.00    -0.388 OA 
HETATM    3  C   UNL     1      -8.781  18.251  67.830  1.00  0.00    -0.265 C  
HETATM    4  O   UNL     1      -7.454  18.720  68.090  1.00  0.00    -0.252 OA 
HETATM    5  H   UNL     1      -6.831  18.117  67.701  1.00  0.00     0.000 HD 
ENDROOT
BRANCH   3   6
HETATM    6  C   UNL     1      -8.992  18.100  66.318  1.00  0.00    -0.177 C  
HETATM    7  O   UNL     1      -8.018  17.153  65.831  1.00  0.00    -0.501 OA 
HETATM    8  H   UNL     1      -8.149  17.060  64.894  1.00  0.00     0.000 HD 
BRANCH   6   9
HETATM    9  C   UNL     1     -10.423  17.670  65.884  1.00  0.00    -0.246 C  
HETATM   10  O   UNL     1     -11.030  18.720  65.112  1.00  0.00    -0.514 OA 
HETATM   11  H   UNL     1     -11.904  18.458  64.847  1.00  0.00     0.000 HD 
BRANCH   9  12
HETATM   12  C   UNL     1     -10.542  16.348  65.098  1.00  0.00    -0.264 C  
HETATM   13  H   UNL     1     -11.662  15.645  63.632  1.00  0.00     0.000 HD 
HETATM   14  O   UNL     1     -11.588  16.459  64.115  1.00  0.00    -0.962 OA 
BRANCH  12  15
HETATM   15  C   UNL     1     -10.744  15.103  65.979  1.00  0.00    -0.329 C  
HETATM   16  O   UNL     1     -10.848  15.454  67.365  1.00  0.00    -0.298 OA 
HETATM   17  H   UNL     1     -10.973  14.685  67.910  1.00  0.00     0.000 HD 
ENDBRANCH  12  15
ENDBRANCH   9  12
ENDBRANCH   6   9
ENDBRANCH   3   6
TORSDOF 4
ENDMDL
MODEL      127
REMARK 921   NORMALIZED FREE ENERGY PREDICTED BY IDOCK:   -3.19 KCAL/MOL
REMARK 922        TOTAL FREE ENERGY PREDICTED BY IDOCK:   -4.80 KCAL/MOL
REMARK 923 INTER-LIGAND FREE ENERGY PREDICTED BY IDOCK:   -3.97 KCAL/MOL
REMARK 924 INTRA-LIGAND FREE ENERGY PREDICTED BY IDOCK:   -0.83 KCAL/MOL
REMARK 927      BINDING AFFINITY PREDICTED BY RF-SCORE:    0.00 PKD
ROOT
HETATM    1  C   UNL     1     -11.065  10.772  68.517  1.00  0.00    -0.262 C  
HETATM    2  O   UNL     1     -12.072  11.348  68.102  1.00  0.00    -0.623 OA 
HETATM    3  C   UNL     1      -9.657  11.055  68.029  1.00  0.00    -0.170 C  
HETATM    4  O   UNL     1      -9.029  11.976  68.926  1.00  0.00    -0.381 OA 
HETATM    5  H   UNL     1      -8.147  12.153  68.620  1.00  0.00     0.000 HD 
ENDROOT
BRANCH   3   6
HETATM    6  C   UNL     1      -9.644  11.625  66.605  1.00  0.00    -0.204 C  
HETATM    7  O   UNL     1     -10.645  10.922  65.840  1.00  0.00    -0.241 OA 
HETATM    8  H   UNL     1     -10.636  11.276  64.958  1.00  0.00     0.000 HD 
BRANCH   6   9
HETATM    9  C   UNL     1      -9.869  13.161  66.501  1.00  0.00    -0.265 C  
HETATM   10  O   UNL     1      -8.612  13.845  66.631  1.00  0.00    -0.430 OA 
HETATM   11  H   UNL     1      -8.749  14.783  66.568  1.00  0.00     0.000 HD 
BRANCH   9  12
HETATM   12  C   UNL     1     -10.580  13.674  65.230  1.00  0.00    -0.346 C  
HETATM   13  H   UNL     1     -10.576  13.233  63.306  1.00  0.00     0.000 HD 
HETATM   14  O   UNL     1     -10.139  12.917  64.087  1.00  0.00    -0.350 OA 
BRANCH  12  15
HETATM   15  C   UNL     1     -10.425  15.185  64.983  1.00  0.00    -0.389 C  
HETATM   16  O   UNL     1     -10.777  15.944  66.148  1.00  0.00    -0.314 OA 
HETATM   17  H   UNL     1     -10.681  16.877  65.995  1.00  0.00     0.000 HD 
ENDBRANCH  12  15
ENDBRANCH   9  12
ENDBRANCH   6   9
ENDBRANCH   3   6
TORSDOF 4
ENDMDL
MODEL      128
REMARK 921   NORMALIZED FREE ENERGY PREDICTED BY IDOCK:   -3.18 KCAL/MOL
REMARK 922        TOTAL FREE ENERGY PREDICTED BY IDOCK:   -4.80 KCAL/MOL
REMARK 923 INTER-LIGAND FREE ENERGY PREDICTED BY IDOCK:   -4.37 KCAL/MOL
REMARK 924 INTRA-LIGAND FREE ENERGY PREDICTED BY IDOCK:   -0.42 KCAL/MOL
REMARK 927      BINDING AFFINITY PREDICTED BY RF-SCORE:    0.00 PKD
ROOT
HETATM    1  C   UNL     1     -12.598  15.446  70.974  1.00  0.00    -0.431 C  
HETATM    2  O   UNL     1     -12.079  16.195  71.802  1.00  0.00    -0.472 OA 
HETATM    3  C   UNL     1     -11.868  14.846  69.789  1.00  0.00    -0.315 C  
HETATM    4  O   UNL     1     -11.427  13.528  70.131  1.00  0.00    -0.492 OA 
HETATM    5  H   UNL     1     -10.969  13.152  69.388  1.00  0.00     0.000 HD 
ENDROOT
BRANCH   3   6
HETATM    6  C   UNL     1     -10.668  15.699  69.358  1.00  0.00    -0.252 C  
HETATM    7  O   UNL     1      -9.541  14.816  69.180  1.00  0.00    -0.292 OA 
HETATM    8  H   UNL     1      -8.798  15.345  68.913  1.00  0.00     0.000 HD 
BRANCH   6   9
HETATM    9  C   UNL     1     -10.885  16.556  68.078  1.00  0.00    -0.337 C  
HETATM   10  O   UNL     1     -10.377  17.884  68.292  1.00  0.00    -0.362 OA 
HETATM   11  H   UNL     1     -10.510  18.407  67.510  1.00  0.00     0.000 HD 
BRANCH   9  12
HETATM   12  C   UNL     1     -10.290  16.006  66.765  1.00  0.00    -0.300 C  
HETATM   13  H   UNL     1      -9.823  16.728  64.987  1.00  0.00     0.000 HD 
HETATM   14  O   UNL     1     -10.189  17.066  65.796  1.00  0.00    -0.506 OA 
BRANCH  12  15
HETATM   15  C   UNL     1     -11.046  14.799  66.183  1.00  0.00    -0.339 C  
HETATM   16  O   UNL     1     -10.416  13.563  66.545  1.00  0.00    -0.277 OA 
HETATM   17  H   UNL     1     -10.882  12.817  66.185  1.00  0.00     0.000 HD 
ENDBRANCH  12  15
ENDBRANCH   9  12
ENDBRANCH   6   9
ENDBRANCH   3   6
TORSDOF 4
ENDMDL
MODEL      129
REMARK 921   NORMALIZED FREE ENERGY PREDICTED BY IDOCK:   -3.18 KCAL/MOL
REMARK 922        TOTAL FREE ENERGY PREDICTED BY IDOCK:   -4.79 KCAL/MOL
REMARK 923 INTER-LIGAND FREE ENERGY PREDICTED BY IDOCK:   -4.62 KCAL/MOL
REMARK 924 INTRA-LIGAND FREE ENERGY PREDICTED BY IDOCK:   -0.17 KCAL/MOL
REMARK 927      BINDING AFFINITY PREDICTED BY RF-SCORE:    0.00 PKD
ROOT
HETATM    1  C   UNL     1     -10.262  15.885  65.554  1.00  0.00    -0.365 C  
HETATM    2  O   UNL     1     -10.740  16.684  64.746  1.00  0.00    -0.721 OA 
HETATM    3  C   UNL     1      -9.980  16.208  67.008  1.00  0.00    -0.258 C  
HETATM    4  O   UNL     1     -11.080  15.762  67.807  1.00  0.00    -0.331 OA 
HETATM    5  H   UNL     1     -10.903  15.964  68.718  1.00  0.00     0.000 HD 
ENDROOT
BRANCH   3   6
HETATM    6  C   UNL     1      -9.750  17.708  67.232  1.00  0.00    -0.284 C  
HETATM    7  O   UNL     1     -10.238  18.036  68.549  1.00  0.00    -0.367 OA 
HETATM    8  H   UNL     1     -10.096  18.965  68.688  1.00  0.00     0.000 HD 
BRANCH   6   9
HETATM    9  C   UNL     1      -8.279  18.188  67.070  1.00  0.00    -0.235 C  
HETATM   10  O   UNL     1      -7.895  18.115  65.687  1.00  0.00    -0.520 OA 
HETATM   11  H   UNL     1      -6.996  18.408  65.588  1.00  0.00     0.000 HD 
BRANCH   9  12
HETATM   12  C   UNL     1      -7.946  19.598  67.601  1.00  0.00    -0.285 C  
HETATM   13  H   UNL     1      -7.306  20.380  69.297  1.00  0.00     0.000 HD 
HETATM   14  O   UNL     1      -7.510  19.512  68.970  1.00  0.00    -0.363 OA 
BRANCH  12  15
HETATM   15  C   UNL     1      -9.087  20.618  67.449  1.00  0.00    -0.259 C  
HETATM   16  O   UNL     1      -9.537  20.702  66.090  1.00  0.00    -0.633 OA 
HETATM   17  H   UNL     1     -10.242  21.333  65.996  1.00  0.00     0.000 HD 
ENDBRANCH  12  15
ENDBRANCH   9  12
ENDBRANCH   6   9
ENDBRANCH   3   6
TORSDOF 4
ENDMDL
MODEL      130
REMARK 921   NORMALIZED FREE ENERGY PREDICTED BY IDOCK:   -3.17 KCAL/MOL
REMARK 922        TOTAL FREE ENERGY PREDICTED BY IDOCK:   -4.78 KCAL/MOL
REMARK 923 INTER-LIGAND FREE ENERGY PREDICTED BY IDOCK:   -4.21 KCAL/MOL
REMARK 924 INTRA-LIGAND FREE ENERGY PREDICTED BY IDOCK:   -0.57 KCAL/MOL
REMARK 927      BINDING AFFINITY PREDICTED BY RF-SCORE:    0.00 PKD
ROOT
HETATM    1  C   UNL     1     -10.375  16.562  66.370  1.00  0.00    -0.311 C  
HETATM    2  O   UNL     1      -9.469  16.900  65.606  1.00  0.00    -0.524 OA 
HETATM    3  C   UNL     1     -10.342  15.318  67.236  1.00  0.00    -0.264 C  
HETATM    4  O   UNL     1      -9.894  15.674  68.548  1.00  0.00    -0.199 OA 
HETATM    5  H   UNL     1      -9.874  14.895  69.090  1.00  0.00     0.000 HD 
ENDROOT
BRANCH   3   6
HETATM    6  C   UNL     1      -9.428  14.232  66.652  1.00  0.00    -0.286 C  
HETATM    7  O   UNL     1      -8.074  14.728  66.696  1.00  0.00    -0.361 OA 
HETATM    8  H   UNL     1      -7.508  14.055  66.335  1.00  0.00     0.000 HD 
BRANCH   6   9
HETATM    9  C   UNL     1      -9.515  12.844  67.348  1.00  0.00    -0.198 C  
HETATM   10  O   UNL     1      -9.437  13.011  68.774  1.00  0.00    -0.403 OA 
HETATM   11  H   UNL     1      -9.490  12.163  69.199  1.00  0.00     0.000 HD 
BRANCH   9  12
HETATM   12  C   UNL     1     -10.750  11.979  67.020  1.00  0.00    -0.242 C  
HETATM   13  H   UNL     1     -12.023  11.804  65.521  1.00  0.00     0.000 HD 
HETATM   14  O   UNL     1     -11.263  12.335  65.723  1.00  0.00    -0.309 OA 
BRANCH  12  15
HETATM   15  C   UNL     1     -11.861  12.030  68.084  1.00  0.00    -0.286 C  
HETATM   16  O   UNL     1     -12.226  10.715  68.523  1.00  0.00    -0.822 OA 
HETATM   17  H   UNL     1     -12.912  10.747  69.180  1.00  0.00     0.000 HD 
ENDBRANCH  12  15
ENDBRANCH   9  12
ENDBRANCH   6   9
ENDBRANCH   3   6
TORSDOF 4
ENDMDL
MODEL      131
REMARK 921   NORMALIZED FREE ENERGY PREDICTED BY IDOCK:   -3.16 KCAL/MOL
REMARK 922        TOTAL FREE ENERGY PREDICTED BY IDOCK:   -4.77 KCAL/MOL
REMARK 923 INTER-LIGAND FREE ENERGY PREDICTED BY IDOCK:   -4.01 KCAL/MOL
REMARK 924 INTRA-LIGAND FREE ENERGY PREDICTED BY IDOCK:   -0.76 KCAL/MOL
REMARK 927      BINDING AFFINITY PREDICTED BY RF-SCORE:    0.00 PKD
ROOT
HETATM    1  C   UNL     1     -11.176  11.091  68.562  1.00  0.00    -0.268 C  
HETATM    2  O   UNL     1     -11.453  10.607  67.464  1.00  0.00    -0.460 OA 
HETATM    3  C   UNL     1     -10.497  10.330  69.684  1.00  0.00    -0.253 C  
HETATM    4  O   UNL     1      -9.091  10.597  69.645  1.00  0.00    -0.402 OA 
HETATM    5  H   UNL     1      -8.666  10.120  70.348  1.00  0.00     0.000 HD 
ENDROOT
BRANCH   3   6
HETATM    6  C   UNL     1     -10.741   8.818  69.586  1.00  0.00    -0.208 C  
HETATM    7  O   UNL     1      -9.800   8.282  68.633  1.00  0.00    -0.167 OA 
HETATM    8  H   UNL     1      -9.951   7.346  68.573  1.00  0.00     0.000 HD 
BRANCH   6   9
HETATM    9  C   UNL     1     -10.647   8.040  70.930  1.00  0.00    -0.213 C  
HETATM   10  O   UNL     1     -11.120   8.870  72.004  1.00  0.00    -0.356 OA 
HETATM   11  H   UNL     1     -11.063   8.395  72.825  1.00  0.00     0.000 HD 
BRANCH   9  12
HETATM   12  C   UNL     1     -11.377   6.682  70.998  1.00  0.00    -0.315 C  
HETATM   13  H   UNL     1     -11.897   5.265  69.725  1.00  0.00     0.000 HD 
HETATM   14  O   UNL     1     -11.447   6.101  69.683  1.00  0.00    -0.429 OA 
BRANCH  12  15
HETATM   15  C   UNL     1     -12.770   6.743  71.649  1.00  0.00    -0.312 C  
HETATM   16  O   UNL     1     -13.674   7.542  70.875  1.00  0.00    -0.623 OA 
HETATM   17  H   UNL     1     -14.535   7.580  71.277  1.00  0.00     0.000 HD 
ENDBRANCH  12  15
ENDBRANCH   9  12
ENDBRANCH   6   9
ENDBRANCH   3   6
TORSDOF 4
ENDMDL
MODEL      132
REMARK 921   NORMALIZED FREE ENERGY PREDICTED BY IDOCK:   -3.16 KCAL/MOL
REMARK 922        TOTAL FREE ENERGY PREDICTED BY IDOCK:   -4.76 KCAL/MOL
REMARK 923 INTER-LIGAND FREE ENERGY PREDICTED BY IDOCK:   -4.53 KCAL/MOL
REMARK 924 INTRA-LIGAND FREE ENERGY PREDICTED BY IDOCK:   -0.24 KCAL/MOL
REMARK 927      BINDING AFFINITY PREDICTED BY RF-SCORE:    0.00 PKD
ROOT
HETATM    1  C   UNL     1      -8.978   7.141  72.674  1.00  0.00    -0.126 C  
HETATM    2  O   UNL     1      -8.655   6.169  71.988  1.00  0.00    -0.131 OA 
HETATM    3  C   UNL     1     -10.408   7.493  73.034  1.00  0.00    -0.322 C  
HETATM    4  O   UNL     1     -10.706   6.967  74.332  1.00  0.00    -0.482 OA 
HETATM    5  H   UNL     1     -11.602   7.188  74.557  1.00  0.00     0.000 HD 
ENDROOT
BRANCH   3   6
HETATM    6  C   UNL     1     -11.413   6.948  72.010  1.00  0.00    -0.274 C  
HETATM    7  O   UNL     1     -12.285   6.027  72.697  1.00  0.00    -0.540 OA 
HETATM    8  H   UNL     1     -12.907   5.689  72.063  1.00  0.00     0.000 HD 
BRANCH   6   9
HETATM    9  C   UNL     1     -12.251   8.024  71.261  1.00  0.00    -0.287 C  
HETATM   10  O   UNL     1     -13.478   7.441  70.791  1.00  0.00    -0.599 OA 
HETATM   11  H   UNL     1     -13.990   8.099  70.334  1.00  0.00     0.000 HD 
BRANCH   9  12
HETATM   12  C   UNL     1     -12.584   9.312  72.043  1.00  0.00    -0.390 C  
HETATM   13  H   UNL     1     -14.064   9.960  73.180  1.00  0.00     0.000 HD 
HETATM   14  O   UNL     1     -13.858   9.167  72.698  1.00  0.00    -0.470 OA 
BRANCH  12  15
HETATM   15  C   UNL     1     -12.544  10.596  71.197  1.00  0.00    -0.423 C  
HETATM   16  O   UNL     1     -13.194  11.685  71.866  1.00  0.00    -0.485 OA 
HETATM   17  H   UNL     1     -13.169  12.478  71.343  1.00  0.00     0.000 HD 
ENDBRANCH  12  15
ENDBRANCH   9  12
ENDBRANCH   6   9
ENDBRANCH   3   6
TORSDOF 4
ENDMDL
MODEL      133
REMARK 921   NORMALIZED FREE ENERGY PREDICTED BY IDOCK:   -3.16 KCAL/MOL
REMARK 922        TOTAL FREE ENERGY PREDICTED BY IDOCK:   -4.76 KCAL/MOL
REMARK 923 INTER-LIGAND FREE ENERGY PREDICTED BY IDOCK:   -4.07 KCAL/MOL
REMARK 924 INTRA-LIGAND FREE ENERGY PREDICTED BY IDOCK:   -0.69 KCAL/MOL
REMARK 927      BINDING AFFINITY PREDICTED BY RF-SCORE:    0.00 PKD
ROOT
HETATM    1  C   UNL     1     -10.857   8.231  72.380  1.00  0.00    -0.351 C  
HETATM    2  O   UNL     1      -9.655   8.252  72.650  1.00  0.00    -0.253 OA 
HETATM    3  C   UNL     1     -11.450   8.739  71.081  1.00  0.00    -0.286 C  
HETATM    4  O   UNL     1     -11.624   7.637  70.184  1.00  0.00    -0.472 OA 
HETATM    5  H   UNL     1     -11.996   7.956  69.371  1.00  0.00     0.000 HD 
ENDROOT
BRANCH   3   6
HETATM    6  C   UNL     1     -10.567   9.809  70.423  1.00  0.00    -0.304 C  
HETATM    7  O   UNL     1      -9.320   9.185  70.057  1.00  0.00    -0.172 OA 
HETATM    8  H   UNL     1      -8.773   9.847  69.650  1.00  0.00     0.000 HD 
BRANCH   6   9
HETATM    9  C   UNL     1     -11.193  10.523  69.191  1.00  0.00    -0.256 C  
HETATM   10  O   UNL     1     -12.626  10.429  69.253  1.00  0.00    -0.686 OA 
HETATM   11  H   UNL     1     -13.008  10.865  68.500  1.00  0.00     0.000 HD 
BRANCH   9  12
HETATM   12  C   UNL     1     -10.805  12.001  68.974  1.00  0.00    -0.177 C  
HETATM   13  H   UNL     1     -11.456  13.761  69.585  1.00  0.00     0.000 HD 
HETATM   14  O   UNL     1     -11.695  12.852  69.719  1.00  0.00    -0.307 OA 
BRANCH  12  15
HETATM   15  C   UNL     1     -10.741  12.429  67.497  1.00  0.00    -0.228 C  
HETATM   16  O   UNL     1     -12.028  12.341  66.871  1.00  0.00    -0.578 OA 
HETATM   17  H   UNL     1     -11.988  12.605  65.958  1.00  0.00     0.000 HD 
ENDBRANCH  12  15
ENDBRANCH   9  12
ENDBRANCH   6   9
ENDBRANCH   3   6
TORSDOF 4
ENDMDL
MODEL      134
REMARK 921   NORMALIZED FREE ENERGY PREDICTED BY IDOCK:   -3.15 KCAL/MOL
REMARK 922        TOTAL FREE ENERGY PREDICTED BY IDOCK:   -4.76 KCAL/MOL
REMARK 923 INTER-LIGAND FREE ENERGY PREDICTED BY IDOCK:   -3.91 KCAL/MOL
REMARK 924 INTRA-LIGAND FREE ENERGY PREDICTED BY IDOCK:   -0.84 KCAL/MOL
REMARK 927      BINDING AFFINITY PREDICTED BY RF-SCORE:    0.00 PKD
ROOT
HETATM    1  C   UNL     1     -11.792  14.360  64.929  1.00  0.00    -0.417 C  
HETATM    2  O   UNL     1     -10.969  13.696  64.297  1.00  0.00    -0.382 OA 
HETATM    3  C   UNL     1     -11.986  14.274  66.431  1.00  0.00    -0.419 C  
HETATM    4  O   UNL     1     -11.237  15.321  67.058  1.00  0.00    -0.330 OA 
HETATM    5  H   UNL     1     -11.358  15.267  67.999  1.00  0.00     0.000 HD 
ENDROOT
BRANCH   3   6
HETATM    6  C   UNL     1     -11.549  12.915  66.993  1.00  0.00    -0.362 C  
HETATM    7  O   UNL     1     -12.015  11.894  66.086  1.00  0.00    -0.537 OA 
HETATM    8  H   UNL     1     -11.744  11.052  66.434  1.00  0.00     0.000 HD 
BRANCH   6   9
HETATM    9  C   UNL     1     -10.021  12.757  67.241  1.00  0.00    -0.219 C  
HETATM   10  O   UNL     1      -9.720  13.055  68.614  1.00  0.00    -0.370 OA 
HETATM   11  H   UNL     1      -8.787  12.959  68.765  1.00  0.00     0.000 HD 
BRANCH   9  12
HETATM   12  C   UNL     1      -9.398  11.390  66.885  1.00  0.00    -0.181 C  
HETATM   13  H   UNL     1      -9.686   9.504  67.395  1.00  0.00     0.000 HD 
HETATM   14  O   UNL     1     -10.069  10.345  67.614  1.00  0.00    -0.175 OA 
BRANCH  12  15
HETATM   15  C   UNL     1      -7.875  11.315  67.092  1.00  0.00    -0.151 C  
HETATM   16  O   UNL     1      -7.259  12.598  66.919  1.00  0.00    -0.373 OA 
HETATM   17  H   UNL     1      -6.319  12.551  67.047  1.00  0.00     0.000 HD 
ENDBRANCH  12  15
ENDBRANCH   9  12
ENDBRANCH   6   9
ENDBRANCH   3   6
TORSDOF 4
ENDMDL
MODEL      135
REMARK 921   NORMALIZED FREE ENERGY PREDICTED BY IDOCK:   -3.14 KCAL/MOL
REMARK 922        TOTAL FREE ENERGY PREDICTED BY IDOCK:   -4.74 KCAL/MOL
REMARK 923 INTER-LIGAND FREE ENERGY PREDICTED BY IDOCK:   -3.82 KCAL/MOL
REMARK 924 INTRA-LIGAND FREE ENERGY PREDICTED BY IDOCK:   -0.92 KCAL/MOL
REMARK 927      BINDING AFFINITY PREDICTED BY RF-SCORE:    0.00 PKD
ROOT
HETATM    1  C   UNL     1      -8.723  15.386  67.489  1.00  0.00    -0.175 C  
HETATM    2  O   UNL     1      -9.082  15.073  68.626  1.00  0.00    -0.177 OA 
HETATM    3  C   UNL     1      -9.425  14.945  66.220  1.00  0.00    -0.309 C  
HETATM    4  O   UNL     1     -10.325  15.976  65.802  1.00  0.00    -0.337 OA 
HETATM    5  H   UNL     1     -10.765  15.699  65.006  1.00  0.00     0.000 HD 
ENDROOT
BRANCH   3   6
HETATM    6  C   UNL     1     -10.194  13.631  66.413  1.00  0.00    -0.292 C  
HETATM    7  O   UNL     1     -11.257  13.878  67.355  1.00  0.00    -0.293 OA 
HETATM    8  H   UNL     1     -11.733  13.064  67.474  1.00  0.00     0.000 HD 
BRANCH   6   9
HETATM    9  C   UNL     1     -10.766  12.997  65.112  1.00  0.00    -0.306 C  
HETATM   10  O   UNL     1      -9.966  13.398  63.986  1.00  0.00    -0.764 OA 
HETATM   11  H   UNL     1     -10.316  13.011  63.192  1.00  0.00     0.000 HD 
BRANCH   9  12
HETATM   12  C   UNL     1     -10.908  11.461  65.093  1.00  0.00    -0.238 C  
HETATM   13  H   UNL     1     -10.839   9.996  66.415  1.00  0.00     0.000 HD 
HETATM   14  O   UNL     1     -10.752  10.941  66.426  1.00  0.00    -0.249 OA 
BRANCH  12  15
HETATM   15  C   UNL     1      -9.963  10.748  64.110  1.00  0.00    -0.343 C  
HETATM   16  O   UNL     1      -8.592  10.886  64.509  1.00  0.00    -0.341 OA 
HETATM   17  H   UNL     1      -8.008  10.447  63.902  1.00  0.00     0.000 HD 
ENDBRANCH  12  15
ENDBRANCH   9  12
ENDBRANCH   6   9
ENDBRANCH   3   6
TORSDOF 4
ENDMDL
MODEL      136
REMARK 921   NORMALIZED FREE ENERGY PREDICTED BY IDOCK:   -3.14 KCAL/MOL
REMARK 922        TOTAL FREE ENERGY PREDICTED BY IDOCK:   -4.74 KCAL/MOL
REMARK 923 INTER-LIGAND FREE ENERGY PREDICTED BY IDOCK:   -4.06 KCAL/MOL
REMARK 924 INTRA-LIGAND FREE ENERGY PREDICTED BY IDOCK:   -0.68 KCAL/MOL
REMARK 927      BINDING AFFINITY PREDICTED BY RF-SCORE:    0.00 PKD
ROOT
HETATM    1  C   UNL     1     -12.053  13.916  68.756  1.00  0.00    -0.309 C  
HETATM    2  O   UNL     1     -11.620  14.025  67.607  1.00  0.00    -0.313 OA 
HETATM    3  C   UNL     1     -11.782  14.911  69.868  1.00  0.00    -0.305 C  
HETATM    4  O   UNL     1     -12.881  15.824  69.954  1.00  0.00    -0.585 OA 
HETATM    5  H   UNL     1     -12.712  16.447  70.651  1.00  0.00     0.000 HD 
ENDROOT
BRANCH   3   6
HETATM    6  C   UNL     1     -10.479  15.689  69.642  1.00  0.00    -0.283 C  
HETATM    7  O   UNL     1      -9.498  14.763  69.129  1.00  0.00    -0.298 OA 
HETATM    8  H   UNL     1      -8.691  15.245  68.989  1.00  0.00     0.000 HD 
BRANCH   6   9
HETATM    9  C   UNL     1     -10.594  16.925  68.705  1.00  0.00    -0.360 C  
HETATM   10  O   UNL     1     -10.533  18.131  69.484  1.00  0.00    -0.346 OA 
HETATM   11  H   UNL     1     -10.603  18.886  68.911  1.00  0.00     0.000 HD 
BRANCH   9  12
HETATM   12  C   UNL     1      -9.564  17.025  67.559  1.00  0.00    -0.249 C  
HETATM   13  H   UNL     1      -7.615  17.297  67.400  1.00  0.00     0.000 HD 
HETATM   14  O   UNL     1      -8.249  17.235  68.105  1.00  0.00    -0.216 OA 
BRANCH  12  15
HETATM   15  C   UNL     1      -9.897  18.089  66.499  1.00  0.00    -0.353 C  
HETATM   16  O   UNL     1     -10.775  19.094  67.024  1.00  0.00    -0.442 OA 
HETATM   17  H   UNL     1     -10.981  19.752  66.369  1.00  0.00     0.000 HD 
ENDBRANCH  12  15
ENDBRANCH   9  12
ENDBRANCH   6   9
ENDBRANCH   3   6
TORSDOF 4
ENDMDL
MODEL      137
REMARK 921   NORMALIZED FREE ENERGY PREDICTED BY IDOCK:   -3.13 KCAL/MOL
REMARK 922        TOTAL FREE ENERGY PREDICTED BY IDOCK:   -4.72 KCAL/MOL
REMARK 923 INTER-LIGAND FREE ENERGY PREDICTED BY IDOCK:   -3.96 KCAL/MOL
REMARK 924 INTRA-LIGAND FREE ENERGY PREDICTED BY IDOCK:   -0.76 KCAL/MOL
REMARK 927      BINDING AFFINITY PREDICTED BY RF-SCORE:    0.00 PKD
ROOT
HETATM    1  C   UNL     1      -9.855  15.605  67.366  1.00  0.00    -0.225 C  
HETATM    2  O   UNL     1      -8.749  15.866  66.890  1.00  0.00    -0.202 OA 
HETATM    3  C   UNL     1     -10.461  14.216  67.405  1.00  0.00    -0.271 C  
HETATM    4  O   UNL     1     -10.202  13.630  68.684  1.00  0.00    -0.232 OA 
HETATM    5  H   UNL     1     -10.583  12.760  68.709  1.00  0.00     0.000 HD 
ENDROOT
BRANCH   3   6
HETATM    6  C   UNL     1      -9.904  13.312  66.297  1.00  0.00    -0.285 C  
HETATM    7  O   UNL     1      -8.548  12.968  66.651  1.00  0.00    -0.410 OA 
HETATM    8  H   UNL     1      -8.203  12.408  65.965  1.00  0.00     0.000 HD 
BRANCH   6   9
HETATM    9  C   UNL     1     -10.728  12.023  66.012  1.00  0.00    -0.279 C  
HETATM   10  O   UNL     1     -12.089  12.217  66.431  1.00  0.00    -0.630 OA 
HETATM   11  H   UNL     1     -12.592  11.430  66.257  1.00  0.00     0.000 HD 
BRANCH   9  12
HETATM   12  C   UNL     1     -10.728  11.507  64.557  1.00  0.00    -0.329 C  
HETATM   13  H   UNL     1      -9.391  11.237  63.129  1.00  0.00     0.000 HD 
HETATM   14  O   UNL     1      -9.391  11.555  64.024  1.00  0.00    -0.134 OA 
BRANCH  12  15
HETATM   15  C   UNL     1     -11.717  12.232  63.628  1.00  0.00    -0.504 C  
HETATM   16  O   UNL     1     -12.855  11.410  63.332  1.00  0.00    -0.461 OA 
HETATM   17  H   UNL     1     -13.466  11.858  62.757  1.00  0.00     0.000 HD 
ENDBRANCH  12  15
ENDBRANCH   9  12
ENDBRANCH   6   9
ENDBRANCH   3   6
TORSDOF 4
ENDMDL
MODEL      138
REMARK 921   NORMALIZED FREE ENERGY PREDICTED BY IDOCK:   -3.12 KCAL/MOL
REMARK 922        TOTAL FREE ENERGY PREDICTED BY IDOCK:   -4.72 KCAL/MOL
REMARK 923 INTER-LIGAND FREE ENERGY PREDICTED BY IDOCK:   -4.15 KCAL/MOL
REMARK 924 INTRA-LIGAND FREE ENERGY PREDICTED BY IDOCK:   -0.57 KCAL/MOL
REMARK 927      BINDING AFFINITY PREDICTED BY RF-SCORE:    0.00 PKD
ROOT
HETATM    1  C   UNL     1      -9.307   7.771  70.493  1.00  0.00    -0.163 C  
HETATM    2  O   UNL     1      -8.319   7.985  69.788  1.00  0.00    -0.119 OA 
HETATM    3  C   UNL     1     -10.594   8.570  70.425  1.00  0.00    -0.223 C  
HETATM    4  O   UNL     1     -11.526   7.883  69.584  1.00  0.00    -0.443 OA 
HETATM    5  H   UNL     1     -12.332   8.384  69.542  1.00  0.00     0.000 HD 
ENDROOT
BRANCH   3   6
HETATM    6  C   UNL     1     -10.363   9.991  69.893  1.00  0.00    -0.272 C  
HETATM    7  O   UNL     1      -9.808   9.879  68.567  1.00  0.00    -0.150 OA 
HETATM    8  H   UNL     1      -9.665  10.759  68.238  1.00  0.00     0.000 HD 
BRANCH   6   9
HETATM    9  C   UNL     1     -11.621  10.906  69.874  1.00  0.00    -0.331 C  
HETATM   10  O   UNL     1     -12.516  10.477  68.834  1.00  0.00    -0.776 OA 
HETATM   11  H   UNL     1     -13.284  11.036  68.822  1.00  0.00     0.000 HD 
BRANCH   9  12
HETATM   12  C   UNL     1     -12.416  11.022  71.192  1.00  0.00    -0.397 C  
HETATM   13  H   UNL     1     -13.969  10.123  72.016  1.00  0.00     0.000 HD 
HETATM   14  O   UNL     1     -13.479  10.052  71.205  1.00  0.00    -0.357 OA 
BRANCH  12  15
HETATM   15  C   UNL     1     -12.954  12.433  71.485  1.00  0.00    -0.285 C  
HETATM   16  O   UNL     1     -13.605  12.491  72.761  1.00  0.00    -0.639 OA 
HETATM   17  H   UNL     1     -13.938  13.362  72.942  1.00  0.00     0.000 HD 
ENDBRANCH  12  15
ENDBRANCH   9  12
ENDBRANCH   6   9
ENDBRANCH   3   6
TORSDOF 4
ENDMDL
MODEL      139
REMARK 921   NORMALIZED FREE ENERGY PREDICTED BY IDOCK:   -3.10 KCAL/MOL
REMARK 922        TOTAL FREE ENERGY PREDICTED BY IDOCK:   -4.69 KCAL/MOL
REMARK 923 INTER-LIGAND FREE ENERGY PREDICTED BY IDOCK:   -4.34 KCAL/MOL
REMARK 924 INTRA-LIGAND FREE ENERGY PREDICTED BY IDOCK:   -0.35 KCAL/MOL
REMARK 927      BINDING AFFINITY PREDICTED BY RF-SCORE:    0.00 PKD
ROOT
HETATM    1  C   UNL     1     -11.814  11.420  69.595  1.00  0.00    -0.362 C  
HETATM    2  O   UNL     1     -12.460  11.081  68.602  1.00  0.00    -0.462 OA 
HETATM    3  C   UNL     1     -11.816  12.819  70.178  1.00  0.00    -0.251 C  
HETATM    4  O   UNL     1     -12.761  12.877  71.251  1.00  0.00    -0.367 OA 
HETATM    5  H   UNL     1     -12.761  13.754  71.616  1.00  0.00     0.000 HD 
ENDROOT
BRANCH   3   6
HETATM    6  C   UNL     1     -12.159  13.882  69.126  1.00  0.00    -0.338 C  
HETATM    7  O   UNL     1     -12.998  14.871  69.757  1.00  0.00    -0.583 OA 
HETATM    8  H   UNL     1     -13.210  15.529  69.105  1.00  0.00     0.000 HD 
BRANCH   6   9
HETATM    9  C   UNL     1     -10.937  14.568  68.449  1.00  0.00    -0.245 C  
HETATM   10  O   UNL     1      -9.721  14.085  69.043  1.00  0.00    -0.401 OA 
HETATM   11  H   UNL     1      -8.974  14.504  68.630  1.00  0.00     0.000 HD 
BRANCH   9  12
HETATM   12  C   UNL     1     -10.825  14.430  66.916  1.00  0.00    -0.301 C  
HETATM   13  H   UNL     1     -11.246  13.055  65.563  1.00  0.00     0.000 HD 
HETATM   14  O   UNL     1     -11.315  13.140  66.506  1.00  0.00    -0.295 OA 
BRANCH  12  15
HETATM   15  C   UNL     1      -9.415  14.687  66.358  1.00  0.00    -0.299 C  
HETATM   16  O   UNL     1      -8.514  13.626  66.704  1.00  0.00    -0.437 OA 
HETATM   17  H   UNL     1      -7.642  13.785  66.359  1.00  0.00     0.000 HD 
ENDBRANCH  12  15
ENDBRANCH   9  12
ENDBRANCH   6   9
ENDBRANCH   3   6
TORSDOF 4
ENDMDL
MODEL      140
REMARK 921   NORMALIZED FREE ENERGY PREDICTED BY IDOCK:   -3.07 KCAL/MOL
REMARK 922        TOTAL FREE ENERGY PREDICTED BY IDOCK:   -4.65 KCAL/MOL
REMARK 923 INTER-LIGAND FREE ENERGY PREDICTED BY IDOCK:   -3.77 KCAL/MOL
REMARK 924 INTRA-LIGAND FREE ENERGY PREDICTED BY IDOCK:   -0.88 KCAL/MOL
REMARK 927      BINDING AFFINITY PREDICTED BY RF-SCORE:    0.00 PKD
ROOT
HETATM    1  C   UNL     1     -11.924  11.669  69.670  1.00  0.00    -0.324 C  
HETATM    2  O   UNL     1     -11.076  12.488  69.314  1.00  0.00    -0.220 OA 
HETATM    3  C   UNL     1     -11.626  10.218  69.995  1.00  0.00    -0.276 C  
HETATM    4  O   UNL     1     -11.461  10.081  71.410  1.00  0.00    -0.360 OA 
HETATM    5  H   UNL     1     -11.274   9.172  71.614  1.00  0.00     0.000 HD 
ENDROOT
BRANCH   3   6
HETATM    6  C   UNL     1     -10.370   9.711  69.274  1.00  0.00    -0.209 C  
HETATM    7  O   UNL     1      -9.236  10.419  69.817  1.00  0.00    -0.393 OA 
HETATM    8  H   UNL     1      -8.458  10.105  69.370  1.00  0.00     0.000 HD 
BRANCH   6   9
HETATM    9  C   UNL     1     -10.131   8.176  69.351  1.00  0.00    -0.194 C  
HETATM   10  O   UNL     1     -11.366   7.510  69.667  1.00  0.00    -0.456 OA 
HETATM   11  H   UNL     1     -11.220   6.572  69.714  1.00  0.00     0.000 HD 
BRANCH   9  12
HETATM   12  C   UNL     1      -9.514   7.506  68.106  1.00  0.00    -0.143 C  
HETATM   13  H   UNL     1      -7.875   7.718  67.025  1.00  0.00     0.000 HD 
HETATM   14  O   UNL     1      -8.255   8.130  67.791  1.00  0.00    -0.125 OA 
BRANCH  12  15
HETATM   15  C   UNL     1     -10.438   7.479  66.876  1.00  0.00    -0.315 C  
HETATM   16  O   UNL     1     -11.527   6.565  67.059  1.00  0.00    -0.752 OA 
HETATM   17  H   UNL     1     -12.098   6.548  66.299  1.00  0.00     0.000 HD 
ENDBRANCH  12  15
ENDBRANCH   9  12
ENDBRANCH   6   9
ENDBRANCH   3   6
TORSDOF 4
ENDMDL
MODEL      141
REMARK 921   NORMALIZED FREE ENERGY PREDICTED BY IDOCK:   -3.06 KCAL/MOL
REMARK 922        TOTAL FREE ENERGY PREDICTED BY IDOCK:   -4.64 KCAL/MOL
REMARK 923 INTER-LIGAND FREE ENERGY PREDICTED BY IDOCK:   -4.33 KCAL/MOL
REMARK 924 INTRA-LIGAND FREE ENERGY PREDICTED BY IDOCK:   -0.32 KCAL/MOL
REMARK 927      BINDING AFFINITY PREDICTED BY RF-SCORE:    0.00 PKD
ROOT
HETATM    1  C   UNL     1     -10.582   7.339  73.325  1.00  0.00    -0.382 C  
HETATM    2  O   UNL     1      -9.509   6.932  72.877  1.00  0.00    -0.138 OA 
HETATM    3  C   UNL     1     -11.715   7.875  72.471  1.00  0.00    -0.367 C  
HETATM    4  O   UNL     1     -12.656   6.823  72.232  1.00  0.00    -0.527 OA 
HETATM    5  H   UNL     1     -13.366   7.159  71.697  1.00  0.00     0.000 HD 
ENDROOT
BRANCH   3   6
HETATM    6  C   UNL     1     -11.214   8.437  71.134  1.00  0.00    -0.263 C  
HETATM    7  O   UNL     1     -12.017   7.858  70.085  1.00  0.00    -0.457 OA 
HETATM    8  H   UNL     1     -11.706   8.206  69.257  1.00  0.00     0.000 HD 
BRANCH   6   9
HETATM    9  C   UNL     1     -11.220   9.989  71.020  1.00  0.00    -0.314 C  
HETATM   10  O   UNL     1     -10.083  10.422  70.254  1.00  0.00    -0.411 OA 
HETATM   11  H   UNL     1     -10.087  11.370  70.185  1.00  0.00     0.000 HD 
BRANCH   9  12
HETATM   12  C   UNL     1     -12.490  10.637  70.429  1.00  0.00    -0.338 C  
HETATM   13  H   UNL     1     -13.111  11.210  68.645  1.00  0.00     0.000 HD 
HETATM   14  O   UNL     1     -12.330  10.811  69.009  1.00  0.00    -0.422 OA 
BRANCH  12  15
HETATM   15  C   UNL     1     -12.901  11.957  71.104  1.00  0.00    -0.249 C  
HETATM   16  O   UNL     1     -13.701  11.722  72.270  1.00  0.00    -0.459 OA 
HETATM   17  H   UNL     1     -13.955  12.538  72.686  1.00  0.00     0.000 HD 
ENDBRANCH  12  15
ENDBRANCH   9  12
ENDBRANCH   6   9
ENDBRANCH   3   6
TORSDOF 4
ENDMDL
MODEL      142
REMARK 921   NORMALIZED FREE ENERGY PREDICTED BY IDOCK:   -3.04 KCAL/MOL
REMARK 922        TOTAL FREE ENERGY PREDICTED BY IDOCK:   -4.61 KCAL/MOL
REMARK 923 INTER-LIGAND FREE ENERGY PREDICTED BY IDOCK:   -4.37 KCAL/MOL
REMARK 924 INTRA-LIGAND FREE ENERGY PREDICTED BY IDOCK:   -0.25 KCAL/MOL
REMARK 927      BINDING AFFINITY PREDICTED BY RF-SCORE:    0.00 PKD
ROOT
HETATM    1  C   UNL     1      -9.412  11.467  67.492  1.00  0.00    -0.167 C  
HETATM    2  O   UNL     1     -10.241  11.841  68.323  1.00  0.00    -0.192 OA 
HETATM    3  C   UNL     1      -8.792  12.366  66.440  1.00  0.00    -0.046 C  
HETATM    4  O   UNL     1      -7.528  12.839  66.917  1.00  0.00    -0.378 OA 
HETATM    5  H   UNL     1      -7.140  13.402  66.258  1.00  0.00     0.000 HD 
ENDROOT
BRANCH   3   6
HETATM    6  C   UNL     1      -9.695  13.558  66.094  1.00  0.00    -0.252 C  
HETATM    7  O   UNL     1      -8.873  14.743  66.082  1.00  0.00    -0.472 OA 
HETATM    8  H   UNL     1      -9.433  15.481  65.868  1.00  0.00     0.000 HD 
BRANCH   6   9
HETATM    9  C   UNL     1     -10.478  13.433  64.756  1.00  0.00    -0.403 C  
HETATM   10  O   UNL     1      -9.841  12.461  63.911  1.00  0.00    -0.574 OA 
HETATM   11  H   UNL     1     -10.319  12.385  63.093  1.00  0.00     0.000 HD 
BRANCH   9  12
HETATM   12  C   UNL     1     -11.979  13.089  64.859  1.00  0.00    -0.396 C  
HETATM   13  H   UNL     1     -13.495  12.885  63.611  1.00  0.00     0.000 HD 
HETATM   14  O   UNL     1     -12.571  13.097  63.547  1.00  0.00    -0.722 OA 
BRANCH  12  15
HETATM   15  C   UNL     1     -12.771  13.987  65.826  1.00  0.00    -0.450 C  
HETATM   16  O   UNL     1     -12.560  13.600  67.191  1.00  0.00    -0.317 OA 
HETATM   17  H   UNL     1     -13.050  14.155  67.788  1.00  0.00     0.000 HD 
ENDBRANCH  12  15
ENDBRANCH   9  12
ENDBRANCH   6   9
ENDBRANCH   3   6
TORSDOF 4
ENDMDL
MODEL      143
REMARK 921   NORMALIZED FREE ENERGY PREDICTED BY IDOCK:   -3.03 KCAL/MOL
REMARK 922        TOTAL FREE ENERGY PREDICTED BY IDOCK:   -4.61 KCAL/MOL
REMARK 923 INTER-LIGAND FREE ENERGY PREDICTED BY IDOCK:   -3.87 KCAL/MOL
REMARK 924 INTRA-LIGAND FREE ENERGY PREDICTED BY IDOCK:   -0.73 KCAL/MOL
REMARK 927      BINDING AFFINITY PREDICTED BY RF-SCORE:    0.00 PKD
ROOT
HETATM    1  C   UNL     1     -10.717  19.633  66.558  1.00  0.00    -0.434 C  
HETATM    2  O   UNL     1      -9.873  19.974  65.728  1.00  0.00    -0.397 OA 
HETATM    3  C   UNL     1     -10.604  18.401  67.435  1.00  0.00    -0.413 C  
HETATM    4  O   UNL     1     -10.070  18.782  68.708  1.00  0.00    -0.386 OA 
HETATM    5  H   UNL     1     -10.000  18.010  69.257  1.00  0.00     0.000 HD 
ENDROOT
BRANCH   3   6
HETATM    6  C   UNL     1      -9.716  17.321  66.802  1.00  0.00    -0.281 C  
HETATM    7  O   UNL     1      -8.362  17.819  66.786  1.00  0.00    -0.229 OA 
HETATM    8  H   UNL     1      -7.813  17.150  66.394  1.00  0.00     0.000 HD 
BRANCH   6   9
HETATM    9  C   UNL     1      -9.768  15.928  67.492  1.00  0.00    -0.223 C  
HETATM   10  O   UNL     1     -10.994  15.800  68.232  1.00  0.00    -0.295 OA 
HETATM   11  H   UNL     1     -11.026  14.949  68.654  1.00  0.00     0.000 HD 
BRANCH   9  12
HETATM   12  C   UNL     1      -9.614  14.695  66.577  1.00  0.00    -0.289 C  
HETATM   13  H   UNL     1     -10.311  14.110  64.824  1.00  0.00     0.000 HD 
HETATM   14  O   UNL     1     -10.405  14.869  65.387  1.00  0.00    -0.331 OA 
BRANCH  12  15
HETATM   15  C   UNL     1      -9.936  13.354  67.261  1.00  0.00    -0.232 C  
HETATM   16  O   UNL     1      -9.436  13.318  68.604  1.00  0.00    -0.364 OA 
HETATM   17  H   UNL     1      -9.635  12.490  69.026  1.00  0.00     0.000 HD 
ENDBRANCH  12  15
ENDBRANCH   9  12
ENDBRANCH   6   9
ENDBRANCH   3   6
TORSDOF 4
ENDMDL
MODEL      144
REMARK 921   NORMALIZED FREE ENERGY PREDICTED BY IDOCK:   -3.02 KCAL/MOL
REMARK 922        TOTAL FREE ENERGY PREDICTED BY IDOCK:   -4.60 KCAL/MOL
REMARK 923 INTER-LIGAND FREE ENERGY PREDICTED BY IDOCK:   -3.90 KCAL/MOL
REMARK 924 INTRA-LIGAND FREE ENERGY PREDICTED BY IDOCK:   -0.70 KCAL/MOL
REMARK 927      BINDING AFFINITY PREDICTED BY RF-SCORE:    0.00 PKD
ROOT
HETATM    1  C   UNL     1     -12.177   8.610  72.185  1.00  0.00    -0.386 C  
HETATM    2  O   UNL     1     -11.900   7.434  71.945  1.00  0.00    -0.280 OA 
HETATM    3  C   UNL     1     -11.919   9.760  71.232  1.00  0.00    -0.386 C  
HETATM    4  O   UNL     1     -13.115  10.032  70.494  1.00  0.00    -0.583 OA 
HETATM    5  H   UNL     1     -12.953  10.753  69.897  1.00  0.00     0.000 HD 
ENDROOT
BRANCH   3   6
HETATM    6  C   UNL     1     -10.768   9.458  70.262  1.00  0.00    -0.253 C  
HETATM    7  O   UNL     1     -11.263   8.539  69.266  1.00  0.00    -0.433 OA 
HETATM    8  H   UNL     1     -10.550   8.353  68.665  1.00  0.00     0.000 HD 
BRANCH   6   9
HETATM    9  C   UNL     1     -10.131  10.702  69.577  1.00  0.00    -0.132 C  
HETATM   10  O   UNL     1      -8.699  10.574  69.578  1.00  0.00    -0.322 OA 
HETATM   11  H   UNL     1      -8.311  11.334  69.160  1.00  0.00     0.000 HD 
BRANCH   9  12
HETATM   12  C   UNL     1     -10.597  11.017  68.140  1.00  0.00    -0.191 C  
HETATM   13  H   UNL     1     -12.315  11.078  67.168  1.00  0.00     0.000 HD 
HETATM   14  O   UNL     1     -12.028  10.884  68.052  1.00  0.00    -0.586 OA 
BRANCH  12  15
HETATM   15  C   UNL     1      -9.899  10.185  67.050  1.00  0.00    -0.191 C  
HETATM   16  O   UNL     1      -8.768  10.879  66.506  1.00  0.00    -0.152 OA 
HETATM   17  H   UNL     1      -8.337  10.366  65.833  1.00  0.00     0.000 HD 
ENDBRANCH  12  15
ENDBRANCH   9  12
ENDBRANCH   6   9
ENDBRANCH   3   6
TORSDOF 4
ENDMDL
MODEL      145
REMARK 921   NORMALIZED FREE ENERGY PREDICTED BY IDOCK:   -3.02 KCAL/MOL
REMARK 922        TOTAL FREE ENERGY PREDICTED BY IDOCK:   -4.60 KCAL/MOL
REMARK 923 INTER-LIGAND FREE ENERGY PREDICTED BY IDOCK:   -4.05 KCAL/MOL
REMARK 924 INTRA-LIGAND FREE ENERGY PREDICTED BY IDOCK:   -0.55 KCAL/MOL
REMARK 927      BINDING AFFINITY PREDICTED BY RF-SCORE:    0.00 PKD
ROOT
HETATM    1  C   UNL     1     -12.251  14.016  63.584  1.00  0.00    -0.098 C  
HETATM    2  O   UNL     1     -11.950  14.932  64.351  1.00  0.00    -0.451 OA 
HETATM    3  C   UNL     1     -12.157  12.543  63.934  1.00  0.00    -0.498 C  
HETATM    4  O   UNL     1     -13.442  12.084  64.367  1.00  0.00    -0.591 OA 
HETATM    5  H   UNL     1     -13.384  11.162  64.586  1.00  0.00     0.000 HD 
ENDROOT
BRANCH   3   6
HETATM    6  C   UNL     1     -11.115  12.275  65.028  1.00  0.00    -0.316 C  
HETATM    7  O   UNL     1     -11.825  11.992  66.251  1.00  0.00    -0.563 OA 
HETATM    8  H   UNL     1     -11.179  11.826  66.929  1.00  0.00     0.000 HD 
BRANCH   6   9
HETATM    9  C   UNL     1     -10.102  11.136  64.718  1.00  0.00    -0.295 C  
HETATM   10  O   UNL     1      -8.864  11.702  64.256  1.00  0.00    -0.297 OA 
HETATM   11  H   UNL     1      -8.245  11.006  64.066  1.00  0.00     0.000 HD 
BRANCH   9  12
HETATM   12  C   UNL     1      -9.796  10.149  65.863  1.00  0.00    -0.245 C  
HETATM   13  H   UNL     1      -8.800  10.191  67.568  1.00  0.00     0.000 HD 
HETATM   14  O   UNL     1      -8.989  10.799  66.863  1.00  0.00    -0.138 OA 
BRANCH  12  15
HETATM   15  C   UNL     1      -9.149   8.829  65.407  1.00  0.00    -0.134 C  
HETATM   16  O   UNL     1      -9.022   8.775  63.980  1.00  0.00    -0.422 OA 
HETATM   17  H   UNL     1      -8.623   7.959  63.698  1.00  0.00     0.000 HD 
ENDBRANCH  12  15
ENDBRANCH   9  12
ENDBRANCH   6   9
ENDBRANCH   3   6
TORSDOF 4
ENDMDL
MODEL      146
REMARK 921   NORMALIZED FREE ENERGY PREDICTED BY IDOCK:   -3.02 KCAL/MOL
REMARK 922        TOTAL FREE ENERGY PREDICTED BY IDOCK:   -4.59 KCAL/MOL
REMARK 923 INTER-LIGAND FREE ENERGY PREDICTED BY IDOCK:   -4.13 KCAL/MOL
REMARK 924 INTRA-LIGAND FREE ENERGY PREDICTED BY IDOCK:   -0.46 KCAL/MOL
REMARK 927      BINDING AFFINITY PREDICTED BY RF-SCORE:    0.00 PKD
ROOT
HETATM    1  C   UNL     1      -8.470  11.098  67.994  1.00  0.00    -0.135 C  
HETATM    2  O   UNL     1      -8.673   9.886  67.910  1.00  0.00    -0.128 OA 
HETATM    3  C   UNL     1      -9.483  12.161  67.614  1.00  0.00    -0.187 C  
HETATM    4  O   UNL     1     -10.175  12.587  68.792  1.00  0.00    -0.363 OA 
HETATM    5  H   UNL     1     -10.809  13.254  68.554  1.00  0.00     0.000 HD 
ENDROOT
BRANCH   3   6
HETATM    6  C   UNL     1     -10.490  11.654  66.574  1.00  0.00    -0.239 C  
HETATM    7  O   UNL     1     -11.811  12.011  67.031  1.00  0.00    -0.573 OA 
HETATM    8  H   UNL     1     -12.435  11.696  66.387  1.00  0.00     0.000 HD 
BRANCH   6   9
HETATM    9  C   UNL     1     -10.266  12.169  65.123  1.00  0.00    -0.278 C  
HETATM   10  O   UNL     1     -11.013  11.357  64.201  1.00  0.00    -0.357 OA 
HETATM   11  H   UNL     1     -10.876  11.672  63.315  1.00  0.00     0.000 HD 
BRANCH   9  12
HETATM   12  C   UNL     1     -10.597  13.652  64.855  1.00  0.00    -0.408 C  
HETATM   13  H   UNL     1     -10.762  15.303  65.925  1.00  0.00     0.000 HD 
HETATM   14  O   UNL     1     -10.558  14.390  66.090  1.00  0.00    -0.286 OA 
BRANCH  12  15
HETATM   15  C   UNL     1     -11.927  13.882  64.117  1.00  0.00    -0.428 C  
HETATM   16  O   UNL     1     -13.044  13.791  65.012  1.00  0.00    -0.751 OA 
HETATM   17  H   UNL     1     -13.866  13.932  64.557  1.00  0.00     0.000 HD 
ENDBRANCH  12  15
ENDBRANCH   9  12
ENDBRANCH   6   9
ENDBRANCH   3   6
TORSDOF 4
ENDMDL
MODEL      147
REMARK 921   NORMALIZED FREE ENERGY PREDICTED BY IDOCK:   -3.00 KCAL/MOL
REMARK 922        TOTAL FREE ENERGY PREDICTED BY IDOCK:   -4.57 KCAL/MOL
REMARK 923 INTER-LIGAND FREE ENERGY PREDICTED BY IDOCK:   -4.22 KCAL/MOL
REMARK 924 INTRA-LIGAND FREE ENERGY PREDICTED BY IDOCK:   -0.35 KCAL/MOL
REMARK 927      BINDING AFFINITY PREDICTED BY RF-SCORE:    0.00 PKD
ROOT
HETATM    1  C   UNL     1     -12.642  12.474  64.351  1.00  0.00    -0.410 C  
HETATM    2  O   UNL     1     -13.029  11.947  63.307  1.00  0.00    -0.707 OA 
HETATM    3  C   UNL     1     -11.207  12.442  64.842  1.00  0.00    -0.311 C  
HETATM    4  O   UNL     1     -10.551  13.649  64.444  1.00  0.00    -0.484 OA 
HETATM    5  H   UNL     1      -9.652  13.629  64.752  1.00  0.00     0.000 HD 
ENDROOT
BRANCH   3   6
HETATM    6  C   UNL     1     -10.439  11.229  64.300  1.00  0.00    -0.357 C  
HETATM    7  O   UNL     1      -9.256  11.720  63.635  1.00  0.00    -0.489 OA 
HETATM    8  H   UNL     1      -8.780  10.969  63.299  1.00  0.00     0.000 HD 
BRANCH   6   9
HETATM    9  C   UNL     1     -10.053  10.157  65.359  1.00  0.00    -0.272 C  
HETATM   10  O   UNL     1      -9.520   8.996  64.701  1.00  0.00    -0.385 OA 
HETATM   11  H   UNL     1      -9.284   8.341  65.348  1.00  0.00     0.000 HD 
BRANCH   9  12
HETATM   12  C   UNL     1      -9.067  10.595  66.463  1.00  0.00    -0.162 C  
HETATM   13  H   UNL     1      -8.418  12.302  67.215  1.00  0.00     0.000 HD 
HETATM   14  O   UNL     1      -9.026  12.032  66.536  1.00  0.00    -0.206 OA 
BRANCH  12  15
HETATM   15  C   UNL     1      -7.651  10.010  66.316  1.00  0.00    -0.106 C  
HETATM   16  O   UNL     1      -6.839  10.818  65.453  1.00  0.00    -0.326 OA 
HETATM   17  H   UNL     1      -5.964  10.456  65.362  1.00  0.00     0.000 HD 
ENDBRANCH  12  15
ENDBRANCH   9  12
ENDBRANCH   6   9
ENDBRANCH   3   6
TORSDOF 4
ENDMDL
MODEL      148
REMARK 921   NORMALIZED FREE ENERGY PREDICTED BY IDOCK:   -2.99 KCAL/MOL
REMARK 922        TOTAL FREE ENERGY PREDICTED BY IDOCK:   -4.56 KCAL/MOL
REMARK 923 INTER-LIGAND FREE ENERGY PREDICTED BY IDOCK:   -3.81 KCAL/MOL
REMARK 924 INTRA-LIGAND FREE ENERGY PREDICTED BY IDOCK:   -0.75 KCAL/MOL
REMARK 927      BINDING AFFINITY PREDICTED BY RF-SCORE:    0.00 PKD
ROOT
HETATM    1  C   UNL     1     -13.381   9.295  72.181  1.00  0.00    -0.468 C  
HETATM    2  O   UNL     1     -13.000  10.351  71.672  1.00  0.00    -0.406 OA 
HETATM    3  C   UNL     1     -12.639   7.977  72.068  1.00  0.00    -0.312 C  
HETATM    4  O   UNL     1     -11.829   7.796  73.233  1.00  0.00    -0.651 OA 
HETATM    5  H   UNL     1     -11.365   6.970  73.162  1.00  0.00     0.000 HD 
ENDROOT
BRANCH   3   6
HETATM    6  C   UNL     1     -11.762   7.914  70.810  1.00  0.00    -0.218 C  
HETATM    7  O   UNL     1     -10.553   8.653  71.081  1.00  0.00    -0.205 OA 
HETATM    8  H   UNL     1     -10.009   8.614  70.302  1.00  0.00     0.000 HD 
BRANCH   6   9
HETATM    9  C   UNL     1     -11.416   6.482  70.310  1.00  0.00    -0.411 C  
HETATM   10  O   UNL     1     -11.740   6.366  68.914  1.00  0.00    -0.519 OA 
HETATM   11  H   UNL     1     -11.529   5.491  68.609  1.00  0.00     0.000 HD 
BRANCH   9  12
HETATM   12  C   UNL     1      -9.964   6.005  70.521  1.00  0.00    -0.185 C  
HETATM   13  H   UNL     1      -8.616   5.006  69.480  1.00  0.00     0.000 HD 
HETATM   14  O   UNL     1      -9.509   5.300  69.351  1.00  0.00    -0.122 OA 
BRANCH  12  15
HETATM   15  C   UNL     1      -9.751   5.161  71.790  1.00  0.00    -0.161 C  
HETATM   16  O   UNL     1      -9.576   5.991  72.946  1.00  0.00    -0.155 OA 
HETATM   17  H   UNL     1      -9.444   5.469  73.730  1.00  0.00     0.000 HD 
ENDBRANCH  12  15
ENDBRANCH   9  12
ENDBRANCH   6   9
ENDBRANCH   3   6
TORSDOF 4
ENDMDL
MODEL      149
REMARK 921   NORMALIZED FREE ENERGY PREDICTED BY IDOCK:   -2.99 KCAL/MOL
REMARK 922        TOTAL FREE ENERGY PREDICTED BY IDOCK:   -4.55 KCAL/MOL
REMARK 923 INTER-LIGAND FREE ENERGY PREDICTED BY IDOCK:   -3.82 KCAL/MOL
REMARK 924 INTRA-LIGAND FREE ENERGY PREDICTED BY IDOCK:   -0.73 KCAL/MOL
REMARK 927      BINDING AFFINITY PREDICTED BY RF-SCORE:    0.00 PKD
ROOT
HETATM    1  C   UNL     1     -10.292   5.641  69.138  1.00  0.00    -0.258 C  
HETATM    2  O   UNL     1     -10.083   5.499  67.932  1.00  0.00    -0.153 OA 
HETATM    3  C   UNL     1     -10.765   6.933  69.776  1.00  0.00    -0.244 C  
HETATM    4  O   UNL     1     -12.187   6.884  69.929  1.00  0.00    -0.626 OA 
HETATM    5  H   UNL     1     -12.483   7.694  70.329  1.00  0.00     0.000 HD 
ENDROOT
BRANCH   3   6
HETATM    6  C   UNL     1     -10.374   8.163  68.946  1.00  0.00    -0.211 C  
HETATM    7  O   UNL     1     -11.032   8.057  67.666  1.00  0.00    -0.504 OA 
HETATM    8  H   UNL     1     -10.790   8.819  67.152  1.00  0.00     0.000 HD 
BRANCH   6   9
HETATM    9  C   UNL     1     -10.693   9.537  69.601  1.00  0.00    -0.238 C  
HETATM   10  O   UNL     1      -9.496  10.090  70.174  1.00  0.00    -0.365 OA 
HETATM   11  H   UNL     1      -9.691  10.930  70.574  1.00  0.00     0.000 HD 
BRANCH   9  12
HETATM   12  C   UNL     1     -11.345  10.604  68.696  1.00  0.00    -0.281 C  
HETATM   13  H   UNL     1     -10.911  11.500  66.992  1.00  0.00     0.000 HD 
HETATM   14  O   UNL     1     -10.510  10.844  67.549  1.00  0.00    -0.192 OA 
BRANCH  12  15
HETATM   15  C   UNL     1     -11.687  11.921  69.414  1.00  0.00    -0.339 C  
HETATM   16  O   UNL     1     -10.545  12.786  69.492  1.00  0.00    -0.408 OA 
HETATM   17  H   UNL     1     -10.756  13.600  69.936  1.00  0.00     0.000 HD 
ENDBRANCH  12  15
ENDBRANCH   9  12
ENDBRANCH   6   9
ENDBRANCH   3   6
TORSDOF 4
ENDMDL
MODEL      150
REMARK 921   NORMALIZED FREE ENERGY PREDICTED BY IDOCK:   -2.98 KCAL/MOL
REMARK 922        TOTAL FREE ENERGY PREDICTED BY IDOCK:   -4.55 KCAL/MOL
REMARK 923 INTER-LIGAND FREE ENERGY PREDICTED BY IDOCK:   -4.11 KCAL/MOL
REMARK 924 INTRA-LIGAND FREE ENERGY PREDICTED BY IDOCK:   -0.44 KCAL/MOL
REMARK 927      BINDING AFFINITY PREDICTED BY RF-SCORE:    0.00 PKD
ROOT
HETATM    1  C   UNL     1     -12.493  15.472  71.005  1.00  0.00    -0.436 C  
HETATM    2  O   UNL     1     -11.561  16.232  71.270  1.00  0.00    -0.437 OA 
HETATM    3  C   UNL     1     -12.408  14.333  70.007  1.00  0.00    -0.346 C  
HETATM    4  O   UNL     1     -12.127  13.118  70.709  1.00  0.00    -0.466 OA 
HETATM    5  H   UNL     1     -12.074  12.405  70.084  1.00  0.00     0.000 HD 
ENDROOT
BRANCH   3   6
HETATM    6  C   UNL     1     -11.332  14.578  68.941  1.00  0.00    -0.274 C  
HETATM    7  O   UNL     1     -10.055  14.635  69.611  1.00  0.00    -0.422 OA 
HETATM    8  H   UNL     1      -9.389  14.787  68.951  1.00  0.00     0.000 HD 
BRANCH   6   9
HETATM    9  C   UNL     1     -11.287  13.536  67.788  1.00  0.00    -0.296 C  
HETATM   10  O   UNL     1     -12.104  13.988  66.695  1.00  0.00    -0.428 OA 
HETATM   11  H   UNL     1     -12.077  13.351  65.990  1.00  0.00     0.000 HD 
BRANCH   9  12
HETATM   12  C   UNL     1      -9.893  13.165  67.240  1.00  0.00    -0.232 C  
HETATM   13  H   UNL     1      -9.028  13.058  65.469  1.00  0.00     0.000 HD 
HETATM   14  O   UNL     1      -9.886  13.286  65.806  1.00  0.00    -0.265 OA 
BRANCH  12  15
HETATM   15  C   UNL     1      -9.387  11.779  67.678  1.00  0.00    -0.180 C  
HETATM   16  O   UNL     1      -8.424  11.883  68.735  1.00  0.00    -0.323 OA 
HETATM   17  H   UNL     1      -8.112  11.027  69.005  1.00  0.00     0.000 HD 
ENDBRANCH  12  15
ENDBRANCH   9  12
ENDBRANCH   6   9
ENDBRANCH   3   6
TORSDOF 4
ENDMDL
MODEL      151
REMARK 921   NORMALIZED FREE ENERGY PREDICTED BY IDOCK:   -2.98 KCAL/MOL
REMARK 922        TOTAL FREE ENERGY PREDICTED BY IDOCK:   -4.55 KCAL/MOL
REMARK 923 INTER-LIGAND FREE ENERGY PREDICTED BY IDOCK:   -4.04 KCAL/MOL
REMARK 924 INTRA-LIGAND FREE ENERGY PREDICTED BY IDOCK:   -0.51 KCAL/MOL
REMARK 927      BINDING AFFINITY PREDICTED BY RF-SCORE:    0.00 PKD
ROOT
HETATM    1  C   UNL     1      -8.223  10.579  67.666  1.00  0.00    -0.111 C  
HETATM    2  O   UNL     1      -7.317  10.984  68.397  1.00  0.00    -0.086 OA 
HETATM    3  C   UNL     1      -9.008  11.458  66.713  1.00  0.00    -0.176 C  
HETATM    4  O   UNL     1      -8.433  11.358  65.406  1.00  0.00    -0.387 OA 
HETATM    5  H   UNL     1      -8.926  11.909  64.808  1.00  0.00     0.000 HD 
ENDROOT
BRANCH   3   6
HETATM    6  C   UNL     1      -9.024  12.926  67.161  1.00  0.00    -0.219 C  
HETATM    7  O   UNL     1      -7.677  13.431  67.061  1.00  0.00    -0.370 OA 
HETATM    8  H   UNL     1      -7.687  14.340  67.339  1.00  0.00     0.000 HD 
BRANCH   6   9
HETATM    9  C   UNL     1     -10.004  13.850  66.382  1.00  0.00    -0.297 C  
HETATM   10  O   UNL     1      -9.678  13.829  64.982  1.00  0.00    -0.586 OA 
HETATM   11  H   UNL     1     -10.277  14.393  64.506  1.00  0.00     0.000 HD 
BRANCH   9  12
HETATM   12  C   UNL     1     -11.510  13.556  66.543  1.00  0.00    -0.339 C  
HETATM   13  H   UNL     1     -12.711  12.962  67.993  1.00  0.00     0.000 HD 
HETATM   14  O   UNL     1     -11.784  13.143  67.894  1.00  0.00    -0.319 OA 
BRANCH  12  15
HETATM   15  C   UNL     1     -12.070  12.540  65.532  1.00  0.00    -0.419 C  
HETATM   16  O   UNL     1     -13.119  13.112  64.741  1.00  0.00    -0.728 OA 
HETATM   17  H   UNL     1     -13.465  12.484  64.117  1.00  0.00     0.000 HD 
ENDBRANCH  12  15
ENDBRANCH   9  12
ENDBRANCH   6   9
ENDBRANCH   3   6
TORSDOF 4
ENDMDL
MODEL      152
REMARK 921   NORMALIZED FREE ENERGY PREDICTED BY IDOCK:   -2.98 KCAL/MOL
REMARK 922        TOTAL FREE ENERGY PREDICTED BY IDOCK:   -4.54 KCAL/MOL
REMARK 923 INTER-LIGAND FREE ENERGY PREDICTED BY IDOCK:   -3.75 KCAL/MOL
REMARK 924 INTRA-LIGAND FREE ENERGY PREDICTED BY IDOCK:   -0.79 KCAL/MOL
REMARK 927      BINDING AFFINITY PREDICTED BY RF-SCORE:    0.00 PKD
ROOT
HETATM    1  C   UNL     1     -11.927  14.821  70.989  1.00  0.00    -0.331 C  
HETATM    2  O   UNL     1     -11.363  15.186  72.023  1.00  0.00    -0.418 OA 
HETATM    3  C   UNL     1     -11.250  14.726  69.636  1.00  0.00    -0.275 C  
HETATM    4  O   UNL     1     -10.826  13.376  69.421  1.00  0.00    -0.435 OA 
HETATM    5  H   UNL     1     -10.402  13.316  68.573  1.00  0.00     0.000 HD 
ENDROOT
BRANCH   3   6
HETATM    6  C   UNL     1     -10.047  15.672  69.524  1.00  0.00    -0.277 C  
HETATM    7  O   UNL     1      -8.914  15.016  70.131  1.00  0.00    -0.358 OA 
HETATM    8  H   UNL     1      -8.169  15.603  70.062  1.00  0.00     0.000 HD 
BRANCH   6   9
HETATM    9  C   UNL     1      -9.692  16.130  68.080  1.00  0.00    -0.222 C  
HETATM   10  O   UNL     1     -10.900  16.345  67.331  1.00  0.00    -0.302 OA 
HETATM   11  H   UNL     1     -10.683  16.625  66.449  1.00  0.00     0.000 HD 
BRANCH   9  12
HETATM   12  C   UNL     1      -8.800  17.383  67.949  1.00  0.00    -0.237 C  
HETATM   13  H   UNL     1      -6.913  17.845  68.301  1.00  0.00     0.000 HD 
HETATM   14  O   UNL     1      -7.462  17.075  68.381  1.00  0.00    -0.194 OA 
BRANCH  12  15
HETATM   15  C   UNL     1      -9.342  18.626  68.677  1.00  0.00    -0.341 C  
HETATM   16  O   UNL     1     -10.654  18.973  68.215  1.00  0.00    -0.363 OA 
HETATM   17  H   UNL     1     -10.988  19.741  68.664  1.00  0.00     0.000 HD 
ENDBRANCH  12  15
ENDBRANCH   9  12
ENDBRANCH   6   9
ENDBRANCH   3   6
TORSDOF 4
ENDMDL
MODEL      153
REMARK 921   NORMALIZED FREE ENERGY PREDICTED BY IDOCK:   -2.97 KCAL/MOL
REMARK 922        TOTAL FREE ENERGY PREDICTED BY IDOCK:   -4.54 KCAL/MOL
REMARK 923 INTER-LIGAND FREE ENERGY PREDICTED BY IDOCK:   -3.94 KCAL/MOL
REMARK 924 INTRA-LIGAND FREE ENERGY PREDICTED BY IDOCK:   -0.60 KCAL/MOL
REMARK 927      BINDING AFFINITY PREDICTED BY RF-SCORE:    0.00 PKD
ROOT
HETATM    1  C   UNL     1      -9.554   8.269  68.815  1.00  0.00    -0.150 C  
HETATM    2  O   UNL     1      -9.511   8.794  67.701  1.00  0.00    -0.138 OA 
HETATM    3  C   UNL     1     -10.349   8.813  69.986  1.00  0.00    -0.203 C  
HETATM    4  O   UNL     1     -11.611   8.139  70.046  1.00  0.00    -0.469 OA 
HETATM    5  H   UNL     1     -12.109   8.480  70.780  1.00  0.00     0.000 HD 
ENDROOT
BRANCH   3   6
HETATM    6  C   UNL     1     -10.575  10.327  69.876  1.00  0.00    -0.276 C  
HETATM    7  O   UNL     1      -9.350  10.920  69.399  1.00  0.00    -0.404 OA 
HETATM    8  H   UNL     1      -9.490  11.858  69.331  1.00  0.00     0.000 HD 
BRANCH   6   9
HETATM    9  C   UNL     1     -11.768  10.759  68.976  1.00  0.00    -0.286 C  
HETATM   10  O   UNL     1     -13.008  10.417  69.618  1.00  0.00    -0.616 OA 
HETATM   11  H   UNL     1     -13.736  10.681  69.068  1.00  0.00     0.000 HD 
BRANCH   9  12
HETATM   12  C   UNL     1     -11.821  12.244  68.560  1.00  0.00    -0.307 C  
HETATM   13  H   UNL     1     -10.732  13.466  67.454  1.00  0.00     0.000 HD 
HETATM   14  O   UNL     1     -10.700  12.552  67.711  1.00  0.00    -0.211 OA 
BRANCH  12  15
HETATM   15  C   UNL     1     -11.906  13.230  69.738  1.00  0.00    -0.325 C  
HETATM   16  O   UNL     1     -12.659  14.400  69.388  1.00  0.00    -0.553 OA 
HETATM   17  H   UNL     1     -12.711  15.009  70.116  1.00  0.00     0.000 HD 
ENDBRANCH  12  15
ENDBRANCH   9  12
ENDBRANCH   6   9
ENDBRANCH   3   6
TORSDOF 4
ENDMDL
MODEL      154
REMARK 921   NORMALIZED FREE ENERGY PREDICTED BY IDOCK:   -2.97 KCAL/MOL
REMARK 922        TOTAL FREE ENERGY PREDICTED BY IDOCK:   -4.53 KCAL/MOL
REMARK 923 INTER-LIGAND FREE ENERGY PREDICTED BY IDOCK:   -3.88 KCAL/MOL
REMARK 924 INTRA-LIGAND FREE ENERGY PREDICTED BY IDOCK:   -0.66 KCAL/MOL
REMARK 927      BINDING AFFINITY PREDICTED BY RF-SCORE:    0.00 PKD
ROOT
HETATM    1  C   UNL     1     -10.834   6.175  67.433  1.00  0.00    -0.343 C  
HETATM    2  O   UNL     1     -10.054   5.508  68.114  1.00  0.00    -0.151 OA 
HETATM    3  C   UNL     1     -10.871   7.690  67.414  1.00  0.00    -0.170 C  
HETATM    4  O   UNL     1     -10.104   8.162  66.301  1.00  0.00    -0.466 OA 
HETATM    5  H   UNL     1     -10.128   9.111  66.289  1.00  0.00     0.000 HD 
ENDROOT
BRANCH   3   6
HETATM    6  C   UNL     1     -10.326   8.297  68.714  1.00  0.00    -0.205 C  
HETATM    7  O   UNL     1      -8.896   8.107  68.722  1.00  0.00    -0.137 OA 
HETATM    8  H   UNL     1      -8.559   8.483  69.527  1.00  0.00     0.000 HD 
BRANCH   6   9
HETATM    9  C   UNL     1     -10.671   9.796  68.944  1.00  0.00    -0.217 C  
HETATM   10  O   UNL     1     -11.725  10.194  68.051  1.00  0.00    -0.685 OA 
HETATM   11  H   UNL     1     -11.935  11.110  68.192  1.00  0.00     0.000 HD 
BRANCH   9  12
HETATM   12  C   UNL     1     -11.060  10.206  70.380  1.00  0.00    -0.324 C  
HETATM   13  H   UNL     1     -11.756   9.303  71.993  1.00  0.00     0.000 HD 
HETATM   14  O   UNL     1     -11.516   9.051  71.109  1.00  0.00    -0.270 OA 
BRANCH  12  15
HETATM   15  C   UNL     1     -12.090  11.347  70.457  1.00  0.00    -0.394 C  
HETATM   16  O   UNL     1     -11.472  12.625  70.258  1.00  0.00    -0.518 OA 
HETATM   17  H   UNL     1     -12.108  13.329  70.305  1.00  0.00     0.000 HD 
ENDBRANCH  12  15
ENDBRANCH   9  12
ENDBRANCH   6   9
ENDBRANCH   3   6
TORSDOF 4
ENDMDL
MODEL      155
REMARK 921   NORMALIZED FREE ENERGY PREDICTED BY IDOCK:   -2.95 KCAL/MOL
REMARK 922        TOTAL FREE ENERGY PREDICTED BY IDOCK:   -4.51 KCAL/MOL
REMARK 923 INTER-LIGAND FREE ENERGY PREDICTED BY IDOCK:   -3.82 KCAL/MOL
REMARK 924 INTRA-LIGAND FREE ENERGY PREDICTED BY IDOCK:   -0.69 KCAL/MOL
REMARK 927      BINDING AFFINITY PREDICTED BY RF-SCORE:    0.00 PKD
ROOT
HETATM    1  C   UNL     1      -9.539  18.382  67.173  1.00  0.00    -0.295 C  
HETATM    2  O   UNL     1      -9.317  18.362  65.961  1.00  0.00    -0.502 OA 
HETATM    3  C   UNL     1      -9.296  17.211  68.105  1.00  0.00    -0.264 C  
HETATM    4  O   UNL     1      -8.017  17.369  68.729  1.00  0.00    -0.270 OA 
HETATM    5  H   UNL     1      -7.865  16.635  69.313  1.00  0.00     0.000 HD 
ENDROOT
BRANCH   3   6
HETATM    6  C   UNL     1      -9.352  15.866  67.368  1.00  0.00    -0.210 C  
HETATM    7  O   UNL     1      -8.193  15.784  66.514  1.00  0.00    -0.273 OA 
HETATM    8  H   UNL     1      -8.227  14.951  66.058  1.00  0.00     0.000 HD 
BRANCH   6   9
HETATM    9  C   UNL     1      -9.436  14.610  68.282  1.00  0.00    -0.211 C  
HETATM   10  O   UNL     1      -9.801  15.005  69.615  1.00  0.00    -0.389 OA 
HETATM   11  H   UNL     1      -9.852  14.237  70.173  1.00  0.00     0.000 HD 
BRANCH   9  12
HETATM   12  C   UNL     1     -10.383  13.481  67.825  1.00  0.00    -0.241 C  
HETATM   13  H   UNL     1     -10.786  12.540  66.136  1.00  0.00     0.000 HD 
HETATM   14  O   UNL     1     -10.202  13.234  66.418  1.00  0.00    -0.278 OA 
BRANCH  12  15
HETATM   15  C   UNL     1     -11.866  13.725  68.155  1.00  0.00    -0.376 C  
HETATM   16  O   UNL     1     -12.617  14.054  66.978  1.00  0.00    -0.507 OA 
HETATM   17  H   UNL     1     -13.533  14.205  67.182  1.00  0.00     0.000 HD 
ENDBRANCH  12  15
ENDBRANCH   9  12
ENDBRANCH   6   9
ENDBRANCH   3   6
TORSDOF 4
ENDMDL
MODEL      156
REMARK 921   NORMALIZED FREE ENERGY PREDICTED BY IDOCK:   -2.95 KCAL/MOL
REMARK 922        TOTAL FREE ENERGY PREDICTED BY IDOCK:   -4.50 KCAL/MOL
REMARK 923 INTER-LIGAND FREE ENERGY PREDICTED BY IDOCK:   -4.05 KCAL/MOL
REMARK 924 INTRA-LIGAND FREE ENERGY PREDICTED BY IDOCK:   -0.45 KCAL/MOL
REMARK 927      BINDING AFFINITY PREDICTED BY RF-SCORE:    0.00 PKD
ROOT
HETATM    1  C   UNL     1     -12.416  15.367  70.508  1.00  0.00    -0.422 C  
HETATM    2  O   UNL     1     -11.413  16.067  70.659  1.00  0.00    -0.362 OA 
HETATM    3  C   UNL     1     -12.395  13.951  69.966  1.00  0.00    -0.316 C  
HETATM    4  O   UNL     1     -12.391  13.031  71.062  1.00  0.00    -0.355 OA 
HETATM    5  H   UNL     1     -12.378  12.144  70.722  1.00  0.00     0.000 HD 
ENDROOT
BRANCH   3   6
HETATM    6  C   UNL     1     -11.176  13.695  69.069  1.00  0.00    -0.273 C  
HETATM    7  O   UNL     1     -10.627  12.411  69.431  1.00  0.00    -0.438 OA 
HETATM    8  H   UNL     1      -9.872  12.252  68.875  1.00  0.00     0.000 HD 
BRANCH   6   9
HETATM    9  C   UNL     1     -11.451  13.749  67.539  1.00  0.00    -0.330 C  
HETATM   10  O   UNL     1     -12.705  14.411  67.297  1.00  0.00    -0.437 OA 
HETATM   11  H   UNL     1     -12.873  14.444  66.362  1.00  0.00     0.000 HD 
BRANCH   9  12
HETATM   12  C   UNL     1     -10.367  14.410  66.662  1.00  0.00    -0.275 C  
HETATM   13  H   UNL     1      -8.395  14.415  66.577  1.00  0.00     0.000 HD 
HETATM   14  O   UNL     1      -9.062  14.008  67.117  1.00  0.00    -0.212 OA 
BRANCH  12  15
HETATM   15  C   UNL     1     -10.471  15.942  66.571  1.00  0.00    -0.304 C  
HETATM   16  O   UNL     1     -11.010  16.502  67.777  1.00  0.00    -0.327 OA 
HETATM   17  H   UNL     1     -11.075  17.449  67.721  1.00  0.00     0.000 HD 
ENDBRANCH  12  15
ENDBRANCH   9  12
ENDBRANCH   6   9
ENDBRANCH   3   6
TORSDOF 4
ENDMDL
MODEL      157
REMARK 921   NORMALIZED FREE ENERGY PREDICTED BY IDOCK:   -2.94 KCAL/MOL
REMARK 922        TOTAL FREE ENERGY PREDICTED BY IDOCK:   -4.50 KCAL/MOL
REMARK 923 INTER-LIGAND FREE ENERGY PREDICTED BY IDOCK:   -4.29 KCAL/MOL
REMARK 924 INTRA-LIGAND FREE ENERGY PREDICTED BY IDOCK:   -0.22 KCAL/MOL
REMARK 927      BINDING AFFINITY PREDICTED BY RF-SCORE:    0.00 PKD
ROOT
HETATM    1  C   UNL     1     -10.369   9.615  67.310  1.00  0.00    -0.249 C  
HETATM    2  O   UNL     1     -10.491   9.074  66.209  1.00  0.00    -0.179 OA 
HETATM    3  C   UNL     1     -10.751  11.054  67.600  1.00  0.00    -0.238 C  
HETATM    4  O   UNL     1     -12.067  11.082  68.163  1.00  0.00    -0.743 OA 
HETATM    5  H   UNL     1     -12.305  11.983  68.346  1.00  0.00     0.000 HD 
ENDROOT
BRANCH   3   6
HETATM    6  C   UNL     1     -10.706  11.928  66.340  1.00  0.00    -0.266 C  
HETATM    7  O   UNL     1     -12.067  12.188  65.937  1.00  0.00    -0.594 OA 
HETATM    8  H   UNL     1     -12.039  12.729  65.156  1.00  0.00     0.000 HD 
BRANCH   6   9
HETATM    9  C   UNL     1      -9.925  13.266  66.486  1.00  0.00    -0.280 C  
HETATM   10  O   UNL     1      -9.763  13.874  65.193  1.00  0.00    -0.575 OA 
HETATM   11  H   UNL     1      -9.285  14.691  65.282  1.00  0.00     0.000 HD 
BRANCH   9  12
HETATM   12  C   UNL     1     -10.516  14.313  67.453  1.00  0.00    -0.264 C  
HETATM   13  H   UNL     1     -12.225  14.588  68.403  1.00  0.00     0.000 HD 
HETATM   14  O   UNL     1     -11.861  13.943  67.808  1.00  0.00    -0.344 OA 
BRANCH  12  15
HETATM   15  C   UNL     1     -10.462  15.760  66.931  1.00  0.00    -0.315 C  
HETATM   16  O   UNL     1      -9.907  16.649  67.910  1.00  0.00    -0.240 OA 
HETATM   17  H   UNL     1      -9.874  17.542  67.588  1.00  0.00     0.000 HD 
ENDBRANCH  12  15
ENDBRANCH   9  12
ENDBRANCH   6   9
ENDBRANCH   3   6
TORSDOF 4
ENDMDL
MODEL      158
REMARK 921   NORMALIZED FREE ENERGY PREDICTED BY IDOCK:   -2.92 KCAL/MOL
REMARK 922        TOTAL FREE ENERGY PREDICTED BY IDOCK:   -4.47 KCAL/MOL
REMARK 923 INTER-LIGAND FREE ENERGY PREDICTED BY IDOCK:   -4.02 KCAL/MOL
REMARK 924 INTRA-LIGAND FREE ENERGY PREDICTED BY IDOCK:   -0.44 KCAL/MOL
REMARK 927      BINDING AFFINITY PREDICTED BY RF-SCORE:    0.00 PKD
ROOT
HETATM    1  C   UNL     1      -6.871  15.552  68.280  1.00  0.00    -0.116 C  
HETATM    2  O   UNL     1      -6.504  15.014  67.235  1.00  0.00    -0.305 OA 
HETATM    3  C   UNL     1      -8.322  15.771  68.664  1.00  0.00    -0.183 C  
HETATM    4  O   UNL     1      -8.744  14.704  69.520  1.00  0.00    -0.401 OA 
HETATM    5  H   UNL     1      -9.653  14.842  69.761  1.00  0.00     0.000 HD 
ENDROOT
BRANCH   3   6
HETATM    6  C   UNL     1      -9.239  15.846  67.436  1.00  0.00    -0.201 C  
HETATM    7  O   UNL     1     -10.595  15.649  67.888  1.00  0.00    -0.264 OA 
HETATM    8  H   UNL     1     -11.163  15.695  67.127  1.00  0.00     0.000 HD 
BRANCH   6   9
HETATM    9  C   UNL     1      -9.135  17.157  66.606  1.00  0.00    -0.258 C  
HETATM   10  O   UNL     1     -10.011  17.081  65.469  1.00  0.00    -0.567 OA 
HETATM   11  H   UNL     1      -9.947  17.882  64.961  1.00  0.00     0.000 HD 
BRANCH   9  12
HETATM   12  C   UNL     1      -9.413  18.477  67.355  1.00  0.00    -0.283 C  
HETATM   13  H   UNL     1     -11.002  19.451  68.007  1.00  0.00     0.000 HD 
HETATM   14  O   UNL     1     -10.830  18.639  67.546  1.00  0.00    -0.435 OA 
BRANCH  12  15
HETATM   15  C   UNL     1      -8.801  19.723  66.692  1.00  0.00    -0.359 C  
HETATM   16  O   UNL     1      -9.753  20.390  65.852  1.00  0.00    -0.652 OA 
HETATM   17  H   UNL     1      -9.375  21.160  65.442  1.00  0.00     0.000 HD 
ENDBRANCH  12  15
ENDBRANCH   9  12
ENDBRANCH   6   9
ENDBRANCH   3   6
TORSDOF 4
ENDMDL
MODEL      159
REMARK 921   NORMALIZED FREE ENERGY PREDICTED BY IDOCK:   -2.90 KCAL/MOL
REMARK 922        TOTAL FREE ENERGY PREDICTED BY IDOCK:   -4.44 KCAL/MOL
REMARK 923 INTER-LIGAND FREE ENERGY PREDICTED BY IDOCK:   -3.99 KCAL/MOL
REMARK 924 INTRA-LIGAND FREE ENERGY PREDICTED BY IDOCK:   -0.45 KCAL/MOL
REMARK 927      BINDING AFFINITY PREDICTED BY RF-SCORE:    0.00 PKD
ROOT
HETATM    1  C   UNL     1     -10.738  16.602  65.786  1.00  0.00    -0.204 C  
HETATM    2  O   UNL     1     -11.278  16.711  64.684  1.00  0.00    -0.727 OA 
HETATM    3  C   UNL     1     -10.006  15.361  66.258  1.00  0.00    -0.288 C  
HETATM    4  O   UNL     1      -8.604  15.526  66.018  1.00  0.00    -0.392 OA 
HETATM    5  H   UNL     1      -8.146  14.749  66.315  1.00  0.00     0.000 HD 
ENDROOT
BRANCH   3   6
HETATM    6  C   UNL     1     -10.506  14.092  65.554  1.00  0.00    -0.339 C  
HETATM    7  O   UNL     1     -10.336  14.281  64.134  1.00  0.00    -0.461 OA 
HETATM    8  H   UNL     1     -10.646  13.495  63.699  1.00  0.00     0.000 HD 
BRANCH   6   9
HETATM    9  C   UNL     1      -9.827  12.768  66.006  1.00  0.00    -0.255 C  
HETATM   10  O   UNL     1      -9.856  12.673  67.440  1.00  0.00    -0.201 OA 
HETATM   11  H   UNL     1      -9.441  11.864  67.716  1.00  0.00     0.000 HD 
BRANCH   9  12
HETATM   12  C   UNL     1     -10.393  11.460  65.414  1.00  0.00    -0.279 C  
HETATM   13  H   UNL     1     -11.288   9.841  66.104  1.00  0.00     0.000 HD 
HETATM   14  O   UNL     1     -10.939  10.646  66.468  1.00  0.00    -0.157 OA 
BRANCH  12  15
HETATM   15  C   UNL     1      -9.388  10.661  64.566  1.00  0.00    -0.243 C  
HETATM   16  O   UNL     1      -8.931  11.422  63.440  1.00  0.00    -0.449 OA 
HETATM   17  H   UNL     1      -8.311  10.928  62.916  1.00  0.00     0.000 HD 
ENDBRANCH  12  15
ENDBRANCH   9  12
ENDBRANCH   6   9
ENDBRANCH   3   6
TORSDOF 4
ENDMDL
MODEL      160
REMARK 921   NORMALIZED FREE ENERGY PREDICTED BY IDOCK:   -2.89 KCAL/MOL
REMARK 922        TOTAL FREE ENERGY PREDICTED BY IDOCK:   -4.44 KCAL/MOL
REMARK 923 INTER-LIGAND FREE ENERGY PREDICTED BY IDOCK:   -3.89 KCAL/MOL
REMARK 924 INTRA-LIGAND FREE ENERGY PREDICTED BY IDOCK:   -0.55 KCAL/MOL
REMARK 927      BINDING AFFINITY PREDICTED BY RF-SCORE:    0.00 PKD
ROOT
HETATM    1  C   UNL     1     -11.025  10.544  67.720  1.00  0.00    -0.313 C  
HETATM    2  O   UNL     1     -11.927  11.304  68.076  1.00  0.00    -0.621 OA 
HETATM    3  C   UNL     1     -10.490   9.401  68.559  1.00  0.00    -0.208 C  
HETATM    4  O   UNL     1     -11.141   8.188  68.165  1.00  0.00    -0.439 OA 
HETATM    5  H   UNL     1     -10.805   7.472  68.691  1.00  0.00     0.000 HD 
ENDROOT
BRANCH   3   6
HETATM    6  C   UNL     1     -10.701   9.639  70.061  1.00  0.00    -0.259 C  
HETATM    7  O   UNL     1     -12.118   9.791  70.286  1.00  0.00    -0.447 OA 
HETATM    8  H   UNL     1     -12.249   9.939  71.216  1.00  0.00     0.000 HD 
BRANCH   6   9
HETATM    9  C   UNL     1     -10.124   8.539  70.997  1.00  0.00    -0.205 C  
HETATM   10  O   UNL     1      -9.259   9.142  71.975  1.00  0.00    -0.339 OA 
HETATM   11  H   UNL     1      -8.906   8.470  72.547  1.00  0.00     0.000 HD 
BRANCH   9  12
HETATM   12  C   UNL     1     -11.145   7.642  71.727  1.00  0.00    -0.242 C  
HETATM   13  H   UNL     1     -11.241   6.685  73.452  1.00  0.00     0.000 HD 
HETATM   14  O   UNL     1     -10.613   7.238  73.002  1.00  0.00    -0.260 OA 
BRANCH  12  15
HETATM   15  C   UNL     1     -11.613   6.423  70.914  1.00  0.00    -0.331 C  
HETATM   16  O   UNL     1     -10.661   6.071  69.902  1.00  0.00    -0.223 OA 
HETATM   17  H   UNL     1     -10.950   5.318  69.399  1.00  0.00     0.000 HD 
ENDBRANCH  12  15
ENDBRANCH   9  12
ENDBRANCH   6   9
ENDBRANCH   3   6
TORSDOF 4
ENDMDL
MODEL      161
REMARK 921   NORMALIZED FREE ENERGY PREDICTED BY IDOCK:   -2.89 KCAL/MOL
REMARK 922        TOTAL FREE ENERGY PREDICTED BY IDOCK:   -4.43 KCAL/MOL
REMARK 923 INTER-LIGAND FREE ENERGY PREDICTED BY IDOCK:   -3.96 KCAL/MOL
REMARK 924 INTRA-LIGAND FREE ENERGY PREDICTED BY IDOCK:   -0.48 KCAL/MOL
REMARK 927      BINDING AFFINITY PREDICTED BY RF-SCORE:    0.00 PKD
ROOT
HETATM    1  C   UNL     1      -7.750  16.085  67.536  1.00  0.00    -0.153 C  
HETATM    2  O   UNL     1      -7.752  16.459  66.362  1.00  0.00    -0.277 OA 
HETATM    3  C   UNL     1      -8.684  15.032  68.098  1.00  0.00    -0.165 C  
HETATM    4  O   UNL     1      -8.015  13.767  68.098  1.00  0.00    -0.128 OA 
HETATM    5  H   UNL     1      -8.601  13.107  68.450  1.00  0.00     0.000 HD 
ENDROOT
BRANCH   3   6
HETATM    6  C   UNL     1      -9.988  14.929  67.295  1.00  0.00    -0.230 C  
HETATM    7  O   UNL     1      -9.648  14.518  65.955  1.00  0.00    -0.407 OA 
HETATM    8  H   UNL     1     -10.455  14.454  65.458  1.00  0.00     0.000 HD 
BRANCH   6   9
HETATM    9  C   UNL     1     -11.065  13.978  67.892  1.00  0.00    -0.255 C  
HETATM   10  O   UNL     1     -12.361  14.591  67.791  1.00  0.00    -0.619 OA 
HETATM   11  H   UNL     1     -13.019  14.010  68.156  1.00  0.00     0.000 HD 
BRANCH   9  12
HETATM   12  C   UNL     1     -11.143  12.557  67.295  1.00  0.00    -0.274 C  
HETATM   13  H   UNL     1     -12.160  11.656  65.863  1.00  0.00     0.000 HD 
HETATM   14  O   UNL     1     -12.112  12.530  66.230  1.00  0.00    -0.574 OA 
BRANCH  12  15
HETATM   15  C   UNL     1     -11.428  11.452  68.326  1.00  0.00    -0.299 C  
HETATM   16  O   UNL     1     -11.566  10.171  67.696  1.00  0.00    -0.574 OA 
HETATM   17  H   UNL     1     -11.743   9.488  68.333  1.00  0.00     0.000 HD 
ENDBRANCH  12  15
ENDBRANCH   9  12
ENDBRANCH   6   9
ENDBRANCH   3   6
TORSDOF 4
ENDMDL
MODEL      162
REMARK 921   NORMALIZED FREE ENERGY PREDICTED BY IDOCK:   -2.87 KCAL/MOL
REMARK 922        TOTAL FREE ENERGY PREDICTED BY IDOCK:   -4.41 KCAL/MOL
REMARK 923 INTER-LIGAND FREE ENERGY PREDICTED BY IDOCK:   -3.72 KCAL/MOL
REMARK 924 INTRA-LIGAND FREE ENERGY PREDICTED BY IDOCK:   -0.69 KCAL/MOL
REMARK 927      BINDING AFFINITY PREDICTED BY RF-SCORE:    0.00 PKD
ROOT
HETATM    1  C   UNL     1     -10.310   7.202  67.523  1.00  0.00    -0.236 C  
HETATM    2  O   UNL     1     -10.366   8.313  66.993  1.00  0.00    -0.280 OA 
HETATM    3  C   UNL     1     -10.519   6.951  69.004  1.00  0.00    -0.208 C  
HETATM    4  O   UNL     1     -11.878   6.559  69.223  1.00  0.00    -0.608 OA 
HETATM    5  H   UNL     1     -12.009   6.401  70.151  1.00  0.00     0.000 HD 
ENDROOT
BRANCH   3   6
HETATM    6  C   UNL     1     -10.192   8.188  69.851  1.00  0.00    -0.204 C  
HETATM    7  O   UNL     1     -11.324   9.079  69.782  1.00  0.00    -0.428 OA 
HETATM    8  H   UNL     1     -11.122   9.845  70.307  1.00  0.00     0.000 HD 
BRANCH   6   9
HETATM    9  C   UNL     1      -9.825   7.900  71.335  1.00  0.00    -0.168 C  
HETATM   10  O   UNL     1      -9.228   9.070  71.921  1.00  0.00    -0.353 OA 
HETATM   11  H   UNL     1      -9.003   8.894  72.827  1.00  0.00     0.000 HD 
BRANCH   9  12
HETATM   12  C   UNL     1     -10.968   7.417  72.252  1.00  0.00    -0.254 C  
HETATM   13  H   UNL     1     -12.578   8.208  73.078  1.00  0.00     0.000 HD 
HETATM   14  O   UNL     1     -11.875   8.505  72.513  1.00  0.00    -0.384 OA 
BRANCH  12  15
HETATM   15  C   UNL     1     -10.496   6.768  73.565  1.00  0.00    -0.330 C  
HETATM   16  O   UNL     1      -9.821   7.714  74.404  1.00  0.00    -0.264 OA 
HETATM   17  H   UNL     1      -9.529   7.313  75.215  1.00  0.00     0.000 HD 
ENDBRANCH  12  15
ENDBRANCH   9  12
ENDBRANCH   6   9
ENDBRANCH   3   6
TORSDOF 4
ENDMDL
MODEL      163
REMARK 921   NORMALIZED FREE ENERGY PREDICTED BY IDOCK:   -2.87 KCAL/MOL
REMARK 922        TOTAL FREE ENERGY PREDICTED BY IDOCK:   -4.41 KCAL/MOL
REMARK 923 INTER-LIGAND FREE ENERGY PREDICTED BY IDOCK:   -3.82 KCAL/MOL
REMARK 924 INTRA-LIGAND FREE ENERGY PREDICTED BY IDOCK:   -0.59 KCAL/MOL
REMARK 927      BINDING AFFINITY PREDICTED BY RF-SCORE:    0.00 PKD
ROOT
HETATM    1  C   UNL     1     -12.023  13.612  68.114  1.00  0.00    -0.355 C  
HETATM    2  O   UNL     1     -12.324  14.074  67.012  1.00  0.00    -0.397 OA 
HETATM    3  C   UNL     1     -11.880  14.440  69.376  1.00  0.00    -0.325 C  
HETATM    4  O   UNL     1     -13.104  14.378  70.116  1.00  0.00    -0.484 OA 
HETATM    5  H   UNL     1     -13.013  14.897  70.907  1.00  0.00     0.000 HD 
ENDROOT
BRANCH   3   6
HETATM    6  C   UNL     1     -11.530  15.902  69.071  1.00  0.00    -0.380 C  
HETATM    7  O   UNL     1     -11.507  16.619  70.322  1.00  0.00    -0.426 OA 
HETATM    8  H   UNL     1     -11.291  17.525  70.133  1.00  0.00     0.000 HD 
BRANCH   6   9
HETATM    9  C   UNL     1     -10.196  16.121  68.302  1.00  0.00    -0.248 C  
HETATM   10  O   UNL     1     -10.475  16.594  66.973  1.00  0.00    -0.305 OA 
HETATM   11  H   UNL     1      -9.660  16.727  66.503  1.00  0.00     0.000 HD 
BRANCH   9  12
HETATM   12  C   UNL     1      -9.165  17.066  68.955  1.00  0.00    -0.215 C  
HETATM   13  H   UNL     1      -8.870  19.016  69.060  1.00  0.00     0.000 HD 
HETATM   14  O   UNL     1      -9.504  18.434  68.659  1.00  0.00    -0.328 OA 
BRANCH  12  15
HETATM   15  C   UNL     1      -7.704  16.767  68.579  1.00  0.00    -0.223 C  
HETATM   16  O   UNL     1      -7.614  15.673  67.657  1.00  0.00    -0.133 OA 
HETATM   17  H   UNL     1      -6.711  15.488  67.425  1.00  0.00     0.000 HD 
ENDBRANCH  12  15
ENDBRANCH   9  12
ENDBRANCH   6   9
ENDBRANCH   3   6
TORSDOF 4
ENDMDL
MODEL      164
REMARK 921   NORMALIZED FREE ENERGY PREDICTED BY IDOCK:   -2.86 KCAL/MOL
REMARK 922        TOTAL FREE ENERGY PREDICTED BY IDOCK:   -4.40 KCAL/MOL
REMARK 923 INTER-LIGAND FREE ENERGY PREDICTED BY IDOCK:   -3.57 KCAL/MOL
REMARK 924 INTRA-LIGAND FREE ENERGY PREDICTED BY IDOCK:   -0.83 KCAL/MOL
REMARK 927      BINDING AFFINITY PREDICTED BY RF-SCORE:    0.00 PKD
ROOT
HETATM    1  C   UNL     1      -6.069  17.392  67.145  1.00  0.00    -0.146 C  
HETATM    2  O   UNL     1      -6.216  16.178  66.996  1.00  0.00    -0.292 OA 
HETATM    3  C   UNL     1      -7.185  18.346  67.526  1.00  0.00    -0.209 C  
HETATM    4  O   UNL     1      -7.153  18.560  68.941  1.00  0.00    -0.279 OA 
HETATM    5  H   UNL     1      -7.851  19.158  69.179  1.00  0.00     0.000 HD 
ENDROOT
BRANCH   3   6
HETATM    6  C   UNL     1      -8.564  17.816  67.112  1.00  0.00    -0.233 C  
HETATM    7  O   UNL     1      -8.423  17.183  65.824  1.00  0.00    -0.522 OA 
HETATM    8  H   UNL     1      -9.278  16.855  65.568  1.00  0.00     0.000 HD 
BRANCH   6   9
HETATM    9  C   UNL     1      -9.232  16.839  68.121  1.00  0.00    -0.224 C  
HETATM   10  O   UNL     1     -10.046  17.580  69.046  1.00  0.00    -0.326 OA 
HETATM   11  H   UNL     1     -10.454  16.982  69.662  1.00  0.00     0.000 HD 
BRANCH   9  12
HETATM   12  C   UNL     1     -10.079  15.696  67.524  1.00  0.00    -0.253 C  
HETATM   13  H   UNL     1     -11.381  15.491  66.052  1.00  0.00     0.000 HD 
HETATM   14  O   UNL     1     -10.859  16.194  66.420  1.00  0.00    -0.255 OA 
BRANCH  12  15
HETATM   15  C   UNL     1     -10.972  14.968  68.544  1.00  0.00    -0.256 C  
HETATM   16  O   UNL     1     -12.221  15.649  68.726  1.00  0.00    -0.578 OA 
HETATM   17  H   UNL     1     -12.772  15.199  69.357  1.00  0.00     0.000 HD 
ENDBRANCH  12  15
ENDBRANCH   9  12
ENDBRANCH   6   9
ENDBRANCH   3   6
TORSDOF 4
ENDMDL
MODEL      165
REMARK 921   NORMALIZED FREE ENERGY PREDICTED BY IDOCK:   -2.86 KCAL/MOL
REMARK 922        TOTAL FREE ENERGY PREDICTED BY IDOCK:   -4.39 KCAL/MOL
REMARK 923 INTER-LIGAND FREE ENERGY PREDICTED BY IDOCK:   -3.76 KCAL/MOL
REMARK 924 INTRA-LIGAND FREE ENERGY PREDICTED BY IDOCK:   -0.64 KCAL/MOL
REMARK 927      BINDING AFFINITY PREDICTED BY RF-SCORE:    0.00 PKD
ROOT
HETATM    1  C   UNL     1      -9.856   6.865  67.830  1.00  0.00    -0.135 C  
HETATM    2  O   UNL     1     -10.924   6.686  67.243  1.00  0.00    -0.340 OA 
HETATM    3  C   UNL     1      -9.738   7.195  69.306  1.00  0.00    -0.159 C  
HETATM    4  O   UNL     1      -9.494   5.989  70.036  1.00  0.00    -0.153 OA 
HETATM    5  H   UNL     1      -9.420   6.196  70.960  1.00  0.00     0.000 HD 
ENDROOT
BRANCH   3   6
HETATM    6  C   UNL     1     -11.000   7.882  69.846  1.00  0.00    -0.178 C  
HETATM    7  O   UNL     1     -12.075   6.921  69.807  1.00  0.00    -0.623 OA 
HETATM    8  H   UNL     1     -12.856   7.346  70.141  1.00  0.00     0.000 HD 
BRANCH   6   9
HETATM    9  C   UNL     1     -10.870   8.485  71.274  1.00  0.00    -0.251 C  
HETATM   10  O   UNL     1     -11.277   9.864  71.256  1.00  0.00    -0.361 OA 
HETATM   11  H   UNL     1     -11.198  10.232  72.128  1.00  0.00     0.000 HD 
BRANCH   9  12
HETATM   12  C   UNL     1     -11.630   7.761  72.405  1.00  0.00    -0.356 C  
HETATM   13  H   UNL     1     -11.733   5.923  73.118  1.00  0.00     0.000 HD 
HETATM   14  O   UNL     1     -11.266   6.369  72.422  1.00  0.00    -0.253 OA 
BRANCH  12  15
HETATM   15  C   UNL     1     -13.159   7.930  72.350  1.00  0.00     0.032 C  
HETATM   16  O   UNL     1     -13.585   9.084  73.087  1.00  0.00    -0.979 OA 
HETATM   17  H   UNL     1     -14.529   9.187  73.054  1.00  0.00     0.000 HD 
ENDBRANCH  12  15
ENDBRANCH   9  12
ENDBRANCH   6   9
ENDBRANCH   3   6
TORSDOF 4
ENDMDL
MODEL      166
REMARK 921   NORMALIZED FREE ENERGY PREDICTED BY IDOCK:   -2.86 KCAL/MOL
REMARK 922        TOTAL FREE ENERGY PREDICTED BY IDOCK:   -4.39 KCAL/MOL
REMARK 923 INTER-LIGAND FREE ENERGY PREDICTED BY IDOCK:   -3.82 KCAL/MOL
REMARK 924 INTRA-LIGAND FREE ENERGY PREDICTED BY IDOCK:   -0.58 KCAL/MOL
REMARK 927      BINDING AFFINITY PREDICTED BY RF-SCORE:    0.00 PKD
ROOT
HETATM    1  C   UNL     1      -8.625   8.953  66.875  1.00  0.00    -0.115 C  
HETATM    2  O   UNL     1      -7.671   9.544  67.385  1.00  0.00    -0.095 OA 
HETATM    3  C   UNL     1      -9.248   9.327  65.544  1.00  0.00    -0.231 C  
HETATM    4  O   UNL     1      -8.687   8.502  64.518  1.00  0.00    -0.385 OA 
HETATM    5  H   UNL     1      -9.078   8.736  63.685  1.00  0.00     0.000 HD 
ENDROOT
BRANCH   3   6
HETATM    6  C   UNL     1      -9.030  10.806  65.200  1.00  0.00    -0.198 C  
HETATM    7  O   UNL     1      -7.673  10.952  64.733  1.00  0.00    -0.350 OA 
HETATM    8  H   UNL     1      -7.537  11.869  64.519  1.00  0.00     0.000 HD 
BRANCH   6   9
HETATM    9  C   UNL     1     -10.022  11.401  64.160  1.00  0.00    -0.290 C  
HETATM   10  O   UNL     1     -10.155  10.502  63.047  1.00  0.00    -0.547 OA 
HETATM   11  H   UNL     1     -10.761  10.865  62.412  1.00  0.00     0.000 HD 
BRANCH   9  12
HETATM   12  C   UNL     1     -11.433  11.760  64.674  1.00  0.00    -0.234 C  
HETATM   13  H   UNL     1     -13.098  12.491  63.905  1.00  0.00     0.000 HD 
HETATM   14  O   UNL     1     -12.230  12.270  63.589  1.00  0.00    -0.485 OA 
BRANCH  12  15
HETATM   15  C   UNL     1     -11.444  12.730  65.869  1.00  0.00    -0.356 C  
HETATM   16  O   UNL     1     -12.267  12.238  66.935  1.00  0.00    -0.530 OA 
HETATM   17  H   UNL     1     -12.275  12.837  67.672  1.00  0.00     0.000 HD 
ENDBRANCH  12  15
ENDBRANCH   9  12
ENDBRANCH   6   9
ENDBRANCH   3   6
TORSDOF 4
ENDMDL
MODEL      167
REMARK 921   NORMALIZED FREE ENERGY PREDICTED BY IDOCK:   -2.83 KCAL/MOL
REMARK 922        TOTAL FREE ENERGY PREDICTED BY IDOCK:   -4.36 KCAL/MOL
REMARK 923 INTER-LIGAND FREE ENERGY PREDICTED BY IDOCK:   -4.04 KCAL/MOL
REMARK 924 INTRA-LIGAND FREE ENERGY PREDICTED BY IDOCK:   -0.32 KCAL/MOL
REMARK 927      BINDING AFFINITY PREDICTED BY RF-SCORE:    0.00 PKD
ROOT
HETATM    1  C   UNL     1      -9.792   5.169  70.472  1.00  0.00    -0.215 C  
HETATM    2  O   UNL     1     -10.179   5.212  69.303  1.00  0.00    -0.218 OA 
HETATM    3  C   UNL     1     -10.459   5.901  71.620  1.00  0.00    -0.233 C  
HETATM    4  O   UNL     1     -11.352   5.003  72.289  1.00  0.00    -0.072 OA 
HETATM    5  H   UNL     1     -11.770   5.462  73.009  1.00  0.00     0.000 HD 
ENDROOT
BRANCH   3   6
HETATM    6  C   UNL     1     -11.229   7.140  71.145  1.00  0.00    -0.262 C  
HETATM    7  O   UNL     1     -12.029   6.752  70.009  1.00  0.00    -0.636 OA 
HETATM    8  H   UNL     1     -12.506   7.520  69.715  1.00  0.00     0.000 HD 
BRANCH   6   9
HETATM    9  C   UNL     1     -12.120   7.824  72.222  1.00  0.00    -0.287 C  
HETATM   10  O   UNL     1     -11.528   7.652  73.520  1.00  0.00    -0.597 OA 
HETATM   11  H   UNL     1     -12.072   8.070  74.178  1.00  0.00     0.000 HD 
BRANCH   9  12
HETATM   12  C   UNL     1     -12.433   9.321  72.016  1.00  0.00    -0.378 C  
HETATM   13  H   UNL     1     -13.960  10.393  71.370  1.00  0.00     0.000 HD 
HETATM   14  O   UNL     1     -13.767   9.472  71.497  1.00  0.00    -0.353 OA 
BRANCH  12  15
HETATM   15  C   UNL     1     -11.413  10.066  71.137  1.00  0.00    -0.354 C  
HETATM   16  O   UNL     1     -11.818  10.080  69.762  1.00  0.00    -0.435 OA 
HETATM   17  H   UNL     1     -11.188  10.541  69.219  1.00  0.00     0.000 HD 
ENDBRANCH  12  15
ENDBRANCH   9  12
ENDBRANCH   6   9
ENDBRANCH   3   6
TORSDOF 4
ENDMDL
MODEL      168
REMARK 921   NORMALIZED FREE ENERGY PREDICTED BY IDOCK:   -2.83 KCAL/MOL
REMARK 922        TOTAL FREE ENERGY PREDICTED BY IDOCK:   -4.36 KCAL/MOL
REMARK 923 INTER-LIGAND FREE ENERGY PREDICTED BY IDOCK:   -3.95 KCAL/MOL
REMARK 924 INTRA-LIGAND FREE ENERGY PREDICTED BY IDOCK:   -0.40 KCAL/MOL
REMARK 927      BINDING AFFINITY PREDICTED BY RF-SCORE:    0.00 PKD
ROOT
HETATM    1  C   UNL     1      -9.306  10.100  63.376  1.00  0.00    -0.294 C  
HETATM    2  O   UNL     1      -8.174  10.587  63.361  1.00  0.00    -0.157 OA 
HETATM    3  C   UNL     1     -10.515  10.770  64.000  1.00  0.00    -0.217 C  
HETATM    4  O   UNL     1     -11.245  11.459  62.979  1.00  0.00    -0.821 OA 
HETATM    5  H   UNL     1     -12.002  11.878  63.370  1.00  0.00     0.000 HD 
ENDROOT
BRANCH   3   6
HETATM    6  C   UNL     1     -10.122  11.753  65.110  1.00  0.00    -0.259 C  
HETATM    7  O   UNL     1     -11.335  12.318  65.648  1.00  0.00    -0.323 OA 
HETATM    8  H   UNL     1     -11.091  12.926  66.336  1.00  0.00     0.000 HD 
BRANCH   6   9
HETATM    9  C   UNL     1      -9.255  11.153  66.255  1.00  0.00    -0.195 C  
HETATM   10  O   UNL     1      -7.901  11.620  66.132  1.00  0.00    -0.375 OA 
HETATM   11  H   UNL     1      -7.372  11.253  66.831  1.00  0.00     0.000 HD 
BRANCH   9  12
HETATM   12  C   UNL     1      -9.736  11.411  67.698  1.00  0.00    -0.172 C  
HETATM   13  H   UNL     1      -8.899  11.806  69.442  1.00  0.00     0.000 HD 
HETATM   14  O   UNL     1      -8.603  11.648  68.554  1.00  0.00    -0.159 OA 
BRANCH  12  15
HETATM   15  C   UNL     1     -10.639  10.305  68.273  1.00  0.00    -0.221 C  
HETATM   16  O   UNL     1     -12.021  10.553  67.981  1.00  0.00    -0.758 OA 
HETATM   17  H   UNL     1     -12.578   9.870  68.336  1.00  0.00     0.000 HD 
ENDBRANCH  12  15
ENDBRANCH   9  12
ENDBRANCH   6   9
ENDBRANCH   3   6
TORSDOF 4
ENDMDL
MODEL      169
REMARK 921   NORMALIZED FREE ENERGY PREDICTED BY IDOCK:   -2.83 KCAL/MOL
REMARK 922        TOTAL FREE ENERGY PREDICTED BY IDOCK:   -4.36 KCAL/MOL
REMARK 923 INTER-LIGAND FREE ENERGY PREDICTED BY IDOCK:   -3.53 KCAL/MOL
REMARK 924 INTRA-LIGAND FREE ENERGY PREDICTED BY IDOCK:   -0.83 KCAL/MOL
REMARK 927      BINDING AFFINITY PREDICTED BY RF-SCORE:    0.00 PKD
ROOT
HETATM    1  C   UNL     1     -10.036  11.553  67.699  1.00  0.00    -0.184 C  
HETATM    2  O   UNL     1      -9.151  11.720  68.540  1.00  0.00    -0.190 OA 
HETATM    3  C   UNL     1     -11.022  10.402  67.714  1.00  0.00    -0.309 C  
HETATM    4  O   UNL     1     -12.235  10.835  68.339  1.00  0.00    -0.832 OA 
HETATM    5  H   UNL     1     -12.853  10.113  68.348  1.00  0.00     0.000 HD 
ENDROOT
BRANCH   3   6
HETATM    6  C   UNL     1     -10.467   9.176  68.452  1.00  0.00    -0.199 C  
HETATM    7  O   UNL     1      -9.076   9.039  68.093  1.00  0.00    -0.133 OA 
HETATM    8  H   UNL     1      -8.733   8.280  68.550  1.00  0.00     0.000 HD 
BRANCH   6   9
HETATM    9  C   UNL     1     -10.622   9.204  70.000  1.00  0.00    -0.227 C  
HETATM   10  O   UNL     1     -11.931   8.734  70.363  1.00  0.00    -0.478 OA 
HETATM   11  H   UNL     1     -12.026   8.751  71.309  1.00  0.00     0.000 HD 
BRANCH   9  12
HETATM   12  C   UNL     1      -9.572   8.421  70.817  1.00  0.00    -0.173 C  
HETATM   13  H   UNL     1      -8.936   6.555  70.923  1.00  0.00     0.000 HD 
HETATM   14  O   UNL     1      -9.581   7.037  70.421  1.00  0.00    -0.169 OA 
BRANCH  12  15
HETATM   15  C   UNL     1      -9.725   8.558  72.341  1.00  0.00    -0.287 C  
HETATM   16  O   UNL     1     -10.918   7.915  72.808  1.00  0.00    -0.344 OA 
HETATM   17  H   UNL     1     -11.013   8.001  73.750  1.00  0.00     0.000 HD 
ENDBRANCH  12  15
ENDBRANCH   9  12
ENDBRANCH   6   9
ENDBRANCH   3   6
TORSDOF 4
ENDMDL
MODEL      170
REMARK 921   NORMALIZED FREE ENERGY PREDICTED BY IDOCK:   -2.82 KCAL/MOL
REMARK 922        TOTAL FREE ENERGY PREDICTED BY IDOCK:   -4.35 KCAL/MOL
REMARK 923 INTER-LIGAND FREE ENERGY PREDICTED BY IDOCK:   -3.61 KCAL/MOL
REMARK 924 INTRA-LIGAND FREE ENERGY PREDICTED BY IDOCK:   -0.74 KCAL/MOL
REMARK 927      BINDING AFFINITY PREDICTED BY RF-SCORE:    0.00 PKD
ROOT
HETATM    1  C   UNL     1      -9.860  15.178  67.678  1.00  0.00    -0.219 C  
HETATM    2  O   UNL     1      -9.459  15.494  66.557  1.00  0.00    -0.235 OA 
HETATM    3  C   UNL     1      -9.651  13.814  68.307  1.00  0.00    -0.219 C  
HETATM    4  O   UNL     1      -8.500  13.864  69.156  1.00  0.00    -0.353 OA 
HETATM    5  H   UNL     1      -8.369  13.009  69.551  1.00  0.00     0.000 HD 
ENDROOT
BRANCH   3   6
HETATM    6  C   UNL     1      -9.470  12.714  67.252  1.00  0.00    -0.199 C  
HETATM    7  O   UNL     1      -8.212  12.945  66.586  1.00  0.00    -0.410 OA 
HETATM    8  H   UNL     1      -8.100  12.264  65.933  1.00  0.00     0.000 HD 
BRANCH   6   9
HETATM    9  C   UNL     1      -9.531  11.256  67.794  1.00  0.00    -0.170 C  
HETATM   10  O   UNL     1      -9.328  11.260  69.217  1.00  0.00    -0.405 OA 
HETATM   11  H   UNL     1      -9.366  10.369  69.547  1.00  0.00     0.000 HD 
BRANCH   9  12
HETATM   12  C   UNL     1     -10.811  10.453  67.480  1.00  0.00    -0.301 C  
HETATM   13  H   UNL     1     -12.759  10.759  67.577  1.00  0.00     0.000 HD 
HETATM   14  O   UNL     1     -11.972  11.254  67.770  1.00  0.00    -0.637 OA 
BRANCH  12  15
HETATM   15  C   UNL     1     -10.893   9.089  68.188  1.00  0.00    -0.027 C  
HETATM   16  O   UNL     1     -11.439   9.217  69.508  1.00  0.00    -0.438 OA 
HETATM   17  H   UNL     1     -11.489   8.374  69.946  1.00  0.00     0.000 HD 
ENDBRANCH  12  15
ENDBRANCH   9  12
ENDBRANCH   6   9
ENDBRANCH   3   6
TORSDOF 4
ENDMDL
MODEL      171
REMARK 921   NORMALIZED FREE ENERGY PREDICTED BY IDOCK:   -2.82 KCAL/MOL
REMARK 922        TOTAL FREE ENERGY PREDICTED BY IDOCK:   -4.35 KCAL/MOL
REMARK 923 INTER-LIGAND FREE ENERGY PREDICTED BY IDOCK:   -3.61 KCAL/MOL
REMARK 924 INTRA-LIGAND FREE ENERGY PREDICTED BY IDOCK:   -0.74 KCAL/MOL
REMARK 927      BINDING AFFINITY PREDICTED BY RF-SCORE:    0.00 PKD
ROOT
HETATM    1  C   UNL     1      -9.255   6.050  67.458  1.00  0.00    -0.111 C  
HETATM    2  O   UNL     1      -8.470   6.056  66.509  1.00  0.00    -0.110 OA 
HETATM    3  C   UNL     1     -10.263   7.147  67.741  1.00  0.00    -0.184 C  
HETATM    4  O   UNL     1     -11.529   6.770  67.191  1.00  0.00    -0.756 OA 
HETATM    5  H   UNL     1     -12.161   7.457  67.368  1.00  0.00     0.000 HD 
ENDROOT
BRANCH   3   6
HETATM    6  C   UNL     1      -9.825   8.497  67.157  1.00  0.00    -0.206 C  
HETATM    7  O   UNL     1      -9.890   8.396  65.719  1.00  0.00    -0.455 OA 
HETATM    8  H   UNL     1      -9.619   9.232  65.358  1.00  0.00     0.000 HD 
BRANCH   6   9
HETATM    9  C   UNL     1     -10.638   9.729  67.647  1.00  0.00    -0.276 C  
HETATM   10  O   UNL     1     -11.372   9.384  68.834  1.00  0.00    -0.448 OA 
HETATM   11  H   UNL     1     -11.869  10.137  69.133  1.00  0.00     0.000 HD 
BRANCH   9  12
HETATM   12  C   UNL     1      -9.842  11.023  67.918  1.00  0.00    -0.171 C  
HETATM   13  H   UNL     1      -8.334  11.566  69.071  1.00  0.00     0.000 HD 
HETATM   14  O   UNL     1      -8.824  10.770  68.904  1.00  0.00    -0.154 OA 
BRANCH  12  15
HETATM   15  C   UNL     1     -10.709  12.229  68.320  1.00  0.00    -0.221 C  
HETATM   16  O   UNL     1     -12.094  11.997  68.030  1.00  0.00    -0.514 OA 
HETATM   17  H   UNL     1     -12.630  12.742  68.278  1.00  0.00     0.000 HD 
ENDBRANCH  12  15
ENDBRANCH   9  12
ENDBRANCH   6   9
ENDBRANCH   3   6
TORSDOF 4
ENDMDL
MODEL      172
REMARK 921   NORMALIZED FREE ENERGY PREDICTED BY IDOCK:   -2.82 KCAL/MOL
REMARK 922        TOTAL FREE ENERGY PREDICTED BY IDOCK:   -4.35 KCAL/MOL
REMARK 923 INTER-LIGAND FREE ENERGY PREDICTED BY IDOCK:   -3.72 KCAL/MOL
REMARK 924 INTRA-LIGAND FREE ENERGY PREDICTED BY IDOCK:   -0.62 KCAL/MOL
REMARK 927      BINDING AFFINITY PREDICTED BY RF-SCORE:    0.00 PKD
ROOT
HETATM    1  C   UNL     1      -9.157  11.533  66.045  1.00  0.00    -0.198 C  
HETATM    2  O   UNL     1      -8.081  11.807  66.580  1.00  0.00    -0.161 OA 
HETATM    3  C   UNL     1     -10.258  12.539  65.775  1.00  0.00    -0.270 C  
HETATM    4  O   UNL     1     -10.146  13.001  64.425  1.00  0.00    -0.565 OA 
HETATM    5  H   UNL     1     -10.836  13.632  64.255  1.00  0.00     0.000 HD 
ENDROOT
BRANCH   3   6
HETATM    6  C   UNL     1     -10.198  13.732  66.738  1.00  0.00    -0.268 C  
HETATM    7  O   UNL     1      -8.935  14.399  66.536  1.00  0.00    -0.394 OA 
HETATM    8  H   UNL     1      -8.899  15.137  67.132  1.00  0.00     0.000 HD 
BRANCH   6   9
HETATM    9  C   UNL     1     -11.369  14.749  66.611  1.00  0.00    -0.347 C  
HETATM   10  O   UNL     1     -12.540  14.079  66.116  1.00  0.00    -0.468 OA 
HETATM   11  H   UNL     1     -13.255  14.701  66.038  1.00  0.00     0.000 HD 
BRANCH   9  12
HETATM   12  C   UNL     1     -11.750  15.531  67.886  1.00  0.00    -0.138 C  
HETATM   13  H   UNL     1     -11.071  17.109  68.860  1.00  0.00     0.000 HD 
HETATM   14  O   UNL     1     -10.836  16.628  68.075  1.00  0.00    -0.343 OA 
BRANCH  12  15
HETATM   15  C   UNL     1     -11.844  14.668  69.156  1.00  0.00    -0.312 C  
HETATM   16  O   UNL     1     -11.101  15.245  70.238  1.00  0.00    -0.259 OA 
HETATM   17  H   UNL     1     -11.158  14.711  71.022  1.00  0.00     0.000 HD 
ENDBRANCH  12  15
ENDBRANCH   9  12
ENDBRANCH   6   9
ENDBRANCH   3   6
TORSDOF 4
ENDMDL
MODEL      173
REMARK 921   NORMALIZED FREE ENERGY PREDICTED BY IDOCK:   -2.81 KCAL/MOL
REMARK 922        TOTAL FREE ENERGY PREDICTED BY IDOCK:   -4.33 KCAL/MOL
REMARK 923 INTER-LIGAND FREE ENERGY PREDICTED BY IDOCK:   -3.55 KCAL/MOL
REMARK 924 INTRA-LIGAND FREE ENERGY PREDICTED BY IDOCK:   -0.78 KCAL/MOL
REMARK 927      BINDING AFFINITY PREDICTED BY RF-SCORE:    0.00 PKD
ROOT
HETATM    1  C   UNL     1      -8.435   8.132  66.897  1.00  0.00    -0.119 C  
HETATM    2  O   UNL     1      -9.150   7.416  66.193  1.00  0.00    -0.168 OA 
HETATM    3  C   UNL     1      -8.921   8.882  68.122  1.00  0.00    -0.137 C  
HETATM    4  O   UNL     1      -8.630   8.107  69.289  1.00  0.00    -0.133 OA 
HETATM    5  H   UNL     1      -8.934   8.578  70.056  1.00  0.00     0.000 HD 
ENDROOT
BRANCH   3   6
HETATM    6  C   UNL     1     -10.426   9.179  68.057  1.00  0.00    -0.224 C  
HETATM    7  O   UNL     1     -11.128   7.931  68.233  1.00  0.00    -0.424 OA 
HETATM    8  H   UNL     1     -12.059   8.115  68.194  1.00  0.00     0.000 HD 
BRANCH   6   9
HETATM    9  C   UNL     1     -10.940  10.233  69.078  1.00  0.00    -0.232 C  
HETATM   10  O   UNL     1      -9.823  10.877  69.714  1.00  0.00    -0.414 OA 
HETATM   11  H   UNL     1     -10.138  11.521  70.338  1.00  0.00     0.000 HD 
BRANCH   9  12
HETATM   12  C   UNL     1     -11.891  11.320  68.534  1.00  0.00    -0.285 C  
HETATM   13  H   UNL     1     -12.394  12.032  66.762  1.00  0.00     0.000 HD 
HETATM   14  O   UNL     1     -11.809  11.363  67.098  1.00  0.00    -0.566 OA 
BRANCH  12  15
HETATM   15  C   UNL     1     -11.671  12.717  69.140  1.00  0.00    -0.322 C  
HETATM   16  O   UNL     1     -11.850  12.705  70.563  1.00  0.00    -0.525 OA 
HETATM   17  H   UNL     1     -11.714  13.568  70.937  1.00  0.00     0.000 HD 
ENDBRANCH  12  15
ENDBRANCH   9  12
ENDBRANCH   6   9
ENDBRANCH   3   6
TORSDOF 4
ENDMDL
MODEL      174
REMARK 921   NORMALIZED FREE ENERGY PREDICTED BY IDOCK:   -2.80 KCAL/MOL
REMARK 922        TOTAL FREE ENERGY PREDICTED BY IDOCK:   -4.32 KCAL/MOL
REMARK 923 INTER-LIGAND FREE ENERGY PREDICTED BY IDOCK:   -3.74 KCAL/MOL
REMARK 924 INTRA-LIGAND FREE ENERGY PREDICTED BY IDOCK:   -0.59 KCAL/MOL
REMARK 927      BINDING AFFINITY PREDICTED BY RF-SCORE:    0.00 PKD
ROOT
HETATM    1  C   UNL     1     -10.046  10.710  67.466  1.00  0.00    -0.184 C  
HETATM    2  O   UNL     1      -9.565  11.250  66.468  1.00  0.00    -0.184 OA 
HETATM    3  C   UNL     1     -10.901  11.424  68.494  1.00  0.00    -0.211 C  
HETATM    4  O   UNL     1     -12.281  11.204  68.187  1.00  0.00    -0.708 OA 
HETATM    5  H   UNL     1     -12.817  11.651  68.832  1.00  0.00     0.000 HD 
ENDROOT
BRANCH   3   6
HETATM    6  C   UNL     1     -10.612  12.931  68.540  1.00  0.00    -0.253 C  
HETATM    7  O   UNL     1      -9.184  13.108  68.448  1.00  0.00    -0.249 OA 
HETATM    8  H   UNL     1      -9.005  14.041  68.476  1.00  0.00     0.000 HD 
BRANCH   6   9
HETATM    9  C   UNL     1     -11.329  13.779  67.450  1.00  0.00    -0.324 C  
HETATM   10  O   UNL     1     -12.602  14.227  67.946  1.00  0.00    -0.485 OA 
HETATM   11  H   UNL     1     -13.040  14.745  67.281  1.00  0.00     0.000 HD 
BRANCH   9  12
HETATM   12  C   UNL     1     -10.558  14.997  66.899  1.00  0.00    -0.297 C  
HETATM   13  H   UNL     1      -9.076  15.304  65.631  1.00  0.00     0.000 HD 
HETATM   14  O   UNL     1      -9.551  14.555  65.970  1.00  0.00    -0.303 OA 
BRANCH  12  15
HETATM   15  C   UNL     1      -9.948  15.904  67.982  1.00  0.00    -0.220 C  
HETATM   16  O   UNL     1     -10.966  16.536  68.769  1.00  0.00    -0.319 OA 
HETATM   17  H   UNL     1     -10.589  17.097  69.438  1.00  0.00     0.000 HD 
ENDBRANCH  12  15
ENDBRANCH   9  12
ENDBRANCH   6   9
ENDBRANCH   3   6
TORSDOF 4
ENDMDL
MODEL      175
REMARK 921   NORMALIZED FREE ENERGY PREDICTED BY IDOCK:   -2.80 KCAL/MOL
REMARK 922        TOTAL FREE ENERGY PREDICTED BY IDOCK:   -4.32 KCAL/MOL
REMARK 923 INTER-LIGAND FREE ENERGY PREDICTED BY IDOCK:   -3.94 KCAL/MOL
REMARK 924 INTRA-LIGAND FREE ENERGY PREDICTED BY IDOCK:   -0.38 KCAL/MOL
REMARK 927      BINDING AFFINITY PREDICTED BY RF-SCORE:    0.00 PKD
ROOT
HETATM    1  C   UNL     1      -9.709  18.179  67.584  1.00  0.00    -0.292 C  
HETATM    2  O   UNL     1     -10.308  17.851  68.609  1.00  0.00    -0.367 OA 
HETATM    3  C   UNL     1      -9.457  17.255  66.409  1.00  0.00    -0.263 C  
HETATM    4  O   UNL     1     -10.470  17.469  65.421  1.00  0.00    -0.647 OA 
HETATM    5  H   UNL     1     -10.312  16.890  64.685  1.00  0.00     0.000 HD 
ENDROOT
BRANCH   3   6
HETATM    6  C   UNL     1      -9.444  15.779  66.828  1.00  0.00    -0.240 C  
HETATM    7  O   UNL     1      -8.673  15.673  68.042  1.00  0.00    -0.165 OA 
HETATM    8  H   UNL     1      -8.665  14.759  68.302  1.00  0.00     0.000 HD 
BRANCH   6   9
HETATM    9  C   UNL     1     -10.845  15.130  67.023  1.00  0.00    -0.314 C  
HETATM   10  O   UNL     1     -11.492  14.983  65.747  1.00  0.00    -0.327 OA 
HETATM   11  H   UNL     1     -12.347  14.587  65.867  1.00  0.00     0.000 HD 
BRANCH   9  12
HETATM   12  C   UNL     1     -10.885  13.772  67.756  1.00  0.00    -0.250 C  
HETATM   13  H   UNL     1     -11.748  12.018  67.481  1.00  0.00     0.000 HD 
HETATM   14  O   UNL     1     -11.722  12.853  67.030  1.00  0.00    -0.350 OA 
BRANCH  12  15
HETATM   15  C   UNL     1     -11.313  13.861  69.231  1.00  0.00    -0.272 C  
HETATM   16  O   UNL     1     -12.721  14.101  69.354  1.00  0.00    -0.450 OA 
HETATM   17  H   UNL     1     -12.986  14.156  70.265  1.00  0.00     0.000 HD 
ENDBRANCH  12  15
ENDBRANCH   9  12
ENDBRANCH   6   9
ENDBRANCH   3   6
TORSDOF 4
ENDMDL
MODEL      176
REMARK 921   NORMALIZED FREE ENERGY PREDICTED BY IDOCK:   -2.79 KCAL/MOL
REMARK 922        TOTAL FREE ENERGY PREDICTED BY IDOCK:   -4.30 KCAL/MOL
REMARK 923 INTER-LIGAND FREE ENERGY PREDICTED BY IDOCK:   -3.63 KCAL/MOL
REMARK 924 INTRA-LIGAND FREE ENERGY PREDICTED BY IDOCK:   -0.67 KCAL/MOL
REMARK 927      BINDING AFFINITY PREDICTED BY RF-SCORE:    0.00 PKD
ROOT
HETATM    1  C   UNL     1     -10.450   7.449  73.416  1.00  0.00    -0.368 C  
HETATM    2  O   UNL     1      -9.266   7.231  73.150  1.00  0.00    -0.138 OA 
HETATM    3  C   UNL     1     -11.569   7.441  72.393  1.00  0.00    -0.284 C  
HETATM    4  O   UNL     1     -12.203   6.158  72.405  1.00  0.00    -0.516 OA 
HETATM    5  H   UNL     1     -12.905   6.153  71.765  1.00  0.00     0.000 HD 
ENDROOT
BRANCH   3   6
HETATM    6  C   UNL     1     -11.062   7.756  70.979  1.00  0.00    -0.257 C  
HETATM    7  O   UNL     1     -11.986   7.168  70.040  1.00  0.00    -0.565 OA 
HETATM    8  H   UNL     1     -11.671   7.363  69.164  1.00  0.00     0.000 HD 
BRANCH   6   9
HETATM    9  C   UNL     1     -10.863   9.266  70.664  1.00  0.00    -0.278 C  
HETATM   10  O   UNL     1      -9.526   9.662  71.016  1.00  0.00    -0.268 OA 
HETATM   11  H   UNL     1      -9.405  10.585  70.823  1.00  0.00     0.000 HD 
BRANCH   9  12
HETATM   12  C   UNL     1     -11.146   9.716  69.215  1.00  0.00    -0.118 C  
HETATM   13  H   UNL     1     -10.409   9.335  67.424  1.00  0.00     0.000 HD 
HETATM   14  O   UNL     1     -10.235   9.058  68.315  1.00  0.00    -0.189 OA 
BRANCH  12  15
HETATM   15  C   UNL     1     -11.119  11.240  69.008  1.00  0.00    -0.244 C  
HETATM   16  O   UNL     1      -9.783  11.756  69.088  1.00  0.00    -0.409 OA 
HETATM   17  H   UNL     1      -9.766  12.698  68.960  1.00  0.00     0.000 HD 
ENDBRANCH  12  15
ENDBRANCH   9  12
ENDBRANCH   6   9
ENDBRANCH   3   6
TORSDOF 4
ENDMDL
MODEL      177
REMARK 921   NORMALIZED FREE ENERGY PREDICTED BY IDOCK:   -2.77 KCAL/MOL
REMARK 922        TOTAL FREE ENERGY PREDICTED BY IDOCK:   -4.29 KCAL/MOL
REMARK 923 INTER-LIGAND FREE ENERGY PREDICTED BY IDOCK:   -4.03 KCAL/MOL
REMARK 924 INTRA-LIGAND FREE ENERGY PREDICTED BY IDOCK:   -0.26 KCAL/MOL
REMARK 927      BINDING AFFINITY PREDICTED BY RF-SCORE:    0.00 PKD
ROOT
HETATM    1  C   UNL     1     -11.000  17.204  67.661  1.00  0.00    -0.148 C  
HETATM    2  O   UNL     1     -10.809  16.381  68.557  1.00  0.00    -0.304 OA 
HETATM    3  C   UNL     1      -9.985  17.551  66.589  1.00  0.00    -0.314 C  
HETATM    4  O   UNL     1     -10.266  16.783  65.414  1.00  0.00    -0.599 OA 
HETATM    5  H   UNL     1      -9.630  17.001  64.743  1.00  0.00     0.000 HD 
ENDROOT
BRANCH   3   6
HETATM    6  C   UNL     1      -8.546  17.286  67.050  1.00  0.00    -0.227 C  
HETATM    7  O   UNL     1      -7.668  17.587  65.946  1.00  0.00    -0.506 OA 
HETATM    8  H   UNL     1      -6.776  17.424  66.232  1.00  0.00     0.000 HD 
BRANCH   6   9
HETATM    9  C   UNL     1      -8.099  18.067  68.320  1.00  0.00    -0.291 C  
HETATM   10  O   UNL     1      -7.327  17.204  69.172  1.00  0.00    -0.240 OA 
HETATM   11  H   UNL     1      -7.054  17.682  69.947  1.00  0.00     0.000 HD 
BRANCH   9  12
HETATM   12  C   UNL     1      -7.307  19.371  68.090  1.00  0.00    -0.295 C  
HETATM   13  H   UNL     1      -6.183  20.579  69.175  1.00  0.00     0.000 HD 
HETATM   14  O   UNL     1      -6.671  19.776  69.316  1.00  0.00    -0.330 OA 
BRANCH  12  15
HETATM   15  C   UNL     1      -8.138  20.521  67.495  1.00  0.00    -0.256 C  
HETATM   16  O   UNL     1      -8.028  20.562  66.066  1.00  0.00    -0.520 OA 
HETATM   17  H   UNL     1      -8.541  21.273  65.698  1.00  0.00     0.000 HD 
ENDBRANCH  12  15
ENDBRANCH   9  12
ENDBRANCH   6   9
ENDBRANCH   3   6
TORSDOF 4
ENDMDL
MODEL      178
REMARK 921   NORMALIZED FREE ENERGY PREDICTED BY IDOCK:   -2.77 KCAL/MOL
REMARK 922        TOTAL FREE ENERGY PREDICTED BY IDOCK:   -4.29 KCAL/MOL
REMARK 923 INTER-LIGAND FREE ENERGY PREDICTED BY IDOCK:   -3.77 KCAL/MOL
REMARK 924 INTRA-LIGAND FREE ENERGY PREDICTED BY IDOCK:   -0.51 KCAL/MOL
REMARK 927      BINDING AFFINITY PREDICTED BY RF-SCORE:    0.00 PKD
ROOT
HETATM    1  C   UNL     1      -9.996   5.106  71.602  1.00  0.00    -0.184 C  
HETATM    2  O   UNL     1     -10.522   4.887  70.510  1.00  0.00    -0.216 OA 
HETATM    3  C   UNL     1     -10.601   5.984  72.680  1.00  0.00    -0.219 C  
HETATM    4  O   UNL     1     -11.299   5.157  73.618  1.00  0.00    -0.447 OA 
HETATM    5  H   UNL     1     -11.678   5.707  74.293  1.00  0.00     0.000 HD 
ENDROOT
BRANCH   3   6
HETATM    6  C   UNL     1     -11.559   7.033  72.100  1.00  0.00    -0.282 C  
HETATM    7  O   UNL     1     -11.991   7.882  73.184  1.00  0.00    -0.662 OA 
HETATM    8  H   UNL     1     -12.584   8.531  72.824  1.00  0.00     0.000 HD 
BRANCH   6   9
HETATM    9  C   UNL     1     -10.981   7.895  70.941  1.00  0.00    -0.243 C  
HETATM   10  O   UNL     1     -11.698   7.617  69.726  1.00  0.00    -0.442 OA 
HETATM   11  H   UNL     1     -11.344   8.143  69.018  1.00  0.00     0.000 HD 
BRANCH   9  12
HETATM   12  C   UNL     1     -10.952   9.422  71.158  1.00  0.00    -0.360 C  
HETATM   13  H   UNL     1     -12.272  10.846  71.520  1.00  0.00     0.000 HD 
HETATM   14  O   UNL     1     -12.289   9.906  71.386  1.00  0.00    -0.346 OA 
BRANCH  12  15
HETATM   15  C   UNL     1     -10.267  10.211  70.029  1.00  0.00    -0.220 C  
HETATM   16  O   UNL     1      -9.413   9.367  69.245  1.00  0.00    -0.154 OA 
HETATM   17  H   UNL     1      -8.990   9.854  68.547  1.00  0.00     0.000 HD 
ENDBRANCH  12  15
ENDBRANCH   9  12
ENDBRANCH   6   9
ENDBRANCH   3   6
TORSDOF 4
ENDMDL
MODEL      179
REMARK 921   NORMALIZED FREE ENERGY PREDICTED BY IDOCK:   -2.77 KCAL/MOL
REMARK 922        TOTAL FREE ENERGY PREDICTED BY IDOCK:   -4.28 KCAL/MOL
REMARK 923 INTER-LIGAND FREE ENERGY PREDICTED BY IDOCK:   -3.81 KCAL/MOL
REMARK 924 INTRA-LIGAND FREE ENERGY PREDICTED BY IDOCK:   -0.47 KCAL/MOL
REMARK 927      BINDING AFFINITY PREDICTED BY RF-SCORE:    0.00 PKD
ROOT
HETATM    1  C   UNL     1      -9.199   5.379  73.321  1.00  0.00    -0.132 C  
HETATM    2  O   UNL     1      -9.554   4.202  73.234  1.00  0.00    -0.114 OA 
HETATM    3  C   UNL     1     -10.128   6.566  73.153  1.00  0.00    -0.193 C  
HETATM    4  O   UNL     1     -10.561   7.005  74.445  1.00  0.00    -0.519 OA 
HETATM    5  H   UNL     1     -11.143   7.748  74.340  1.00  0.00     0.000 HD 
ENDROOT
BRANCH   3   6
HETATM    6  C   UNL     1     -11.347   6.226  72.284  1.00  0.00    -0.294 C  
HETATM    7  O   UNL     1     -12.194   5.338  73.043  1.00  0.00    -0.513 OA 
HETATM    8  H   UNL     1     -12.948   5.129  72.505  1.00  0.00     0.000 HD 
BRANCH   6   9
HETATM    9  C   UNL     1     -12.165   7.449  71.780  1.00  0.00    -0.326 C  
HETATM   10  O   UNL     1     -12.476   8.313  72.885  1.00  0.00    -0.627 OA 
HETATM   11  H   UNL     1     -12.977   9.060  72.577  1.00  0.00     0.000 HD 
BRANCH   9  12
HETATM   12  C   UNL     1     -11.529   8.295  70.656  1.00  0.00    -0.225 C  
HETATM   13  H   UNL     1      -9.990   8.129  69.430  1.00  0.00     0.000 HD 
HETATM   14  O   UNL     1     -10.382   7.608  70.121  1.00  0.00    -0.208 OA 
BRANCH  12  15
HETATM   15  C   UNL     1     -11.166   9.731  71.073  1.00  0.00    -0.381 C  
HETATM   16  O   UNL     1     -11.270  10.638  69.967  1.00  0.00    -0.277 OA 
HETATM   17  H   UNL     1     -11.045  11.525  70.224  1.00  0.00     0.000 HD 
ENDBRANCH  12  15
ENDBRANCH   9  12
ENDBRANCH   6   9
ENDBRANCH   3   6
TORSDOF 4
ENDMDL
MODEL      180
REMARK 921   NORMALIZED FREE ENERGY PREDICTED BY IDOCK:   -2.76 KCAL/MOL
REMARK 922        TOTAL FREE ENERGY PREDICTED BY IDOCK:   -4.27 KCAL/MOL
REMARK 923 INTER-LIGAND FREE ENERGY PREDICTED BY IDOCK:   -3.74 KCAL/MOL
REMARK 924 INTRA-LIGAND FREE ENERGY PREDICTED BY IDOCK:   -0.53 KCAL/MOL
REMARK 927      BINDING AFFINITY PREDICTED BY RF-SCORE:    0.00 PKD
ROOT
HETATM    1  C   UNL     1     -10.517   9.154  67.147  1.00  0.00    -0.255 C  
HETATM    2  O   UNL     1     -10.021   8.377  67.964  1.00  0.00    -0.167 OA 
HETATM    3  C   UNL     1     -10.726  10.636  67.395  1.00  0.00    -0.276 C  
HETATM    4  O   UNL     1      -9.625  11.362  66.838  1.00  0.00    -0.181 OA 
HETATM    5  H   UNL     1      -9.757  12.290  66.994  1.00  0.00     0.000 HD 
ENDROOT
BRANCH   3   6
HETATM    6  C   UNL     1     -10.857  10.957  68.890  1.00  0.00    -0.219 C  
HETATM    7  O   UNL     1      -9.526  11.120  69.423  1.00  0.00    -0.414 OA 
HETATM    8  H   UNL     1      -9.608  11.319  70.349  1.00  0.00     0.000 HD 
BRANCH   6   9
HETATM    9  C   UNL     1     -11.728  12.201  69.230  1.00  0.00    -0.328 C  
HETATM   10  O   UNL     1     -11.892  12.302  70.654  1.00  0.00    -0.502 OA 
HETATM   11  H   UNL     1     -12.424  13.062  70.862  1.00  0.00     0.000 HD 
BRANCH   9  12
HETATM   12  C   UNL     1     -11.235  13.561  68.692  1.00  0.00    -0.278 C  
HETATM   13  H   UNL     1      -9.509  14.349  68.144  1.00  0.00     0.000 HD 
HETATM   14  O   UNL     1      -9.813  13.512  68.475  1.00  0.00    -0.232 OA 
BRANCH  12  15
HETATM   15  C   UNL     1     -11.617  14.765  69.570  1.00  0.00    -0.304 C  
HETATM   16  O   UNL     1     -13.021  14.776  69.862  1.00  0.00    -0.585 OA 
HETATM   17  H   UNL     1     -13.257  15.520  70.404  1.00  0.00     0.000 HD 
ENDBRANCH  12  15
ENDBRANCH   9  12
ENDBRANCH   6   9
ENDBRANCH   3   6
TORSDOF 4
ENDMDL
MODEL      181
REMARK 921   NORMALIZED FREE ENERGY PREDICTED BY IDOCK:   -2.76 KCAL/MOL
REMARK 922        TOTAL FREE ENERGY PREDICTED BY IDOCK:   -4.27 KCAL/MOL
REMARK 923 INTER-LIGAND FREE ENERGY PREDICTED BY IDOCK:   -3.88 KCAL/MOL
REMARK 924 INTRA-LIGAND FREE ENERGY PREDICTED BY IDOCK:   -0.39 KCAL/MOL
REMARK 927      BINDING AFFINITY PREDICTED BY RF-SCORE:    0.00 PKD
ROOT
HETATM    1  C   UNL     1      -5.942  16.706  67.174  1.00  0.00    -0.163 C  
HETATM    2  O   UNL     1      -6.885  15.963  66.896  1.00  0.00    -0.238 OA 
HETATM    3  C   UNL     1      -6.057  18.211  67.327  1.00  0.00    -0.152 C  
HETATM    4  O   UNL     1      -6.212  18.528  68.715  1.00  0.00    -0.205 OA 
HETATM    5  H   UNL     1      -6.283  19.470  68.810  1.00  0.00     0.000 HD 
ENDROOT
BRANCH   3   6
HETATM    6  C   UNL     1      -7.236  18.784  66.529  1.00  0.00    -0.230 C  
HETATM    7  O   UNL     1      -7.157  18.256  65.189  1.00  0.00    -0.433 OA 
HETATM    8  H   UNL     1      -7.887  18.612  64.695  1.00  0.00     0.000 HD 
BRANCH   6   9
HETATM    9  C   UNL     1      -8.643  18.511  67.132  1.00  0.00    -0.269 C  
HETATM   10  O   UNL     1      -8.853  19.358  68.275  1.00  0.00    -0.317 OA 
HETATM   11  H   UNL     1      -9.713  19.192  68.643  1.00  0.00     0.000 HD 
BRANCH   9  12
HETATM   12  C   UNL     1      -9.848  18.661  66.179  1.00  0.00    -0.287 C  
HETATM   13  H   UNL     1     -11.386  19.885  65.991  1.00  0.00     0.000 HD 
HETATM   14  O   UNL     1     -10.645  19.792  66.577  1.00  0.00    -0.460 OA 
BRANCH  12  15
HETATM   15  C   UNL     1     -10.714  17.397  66.048  1.00  0.00    -0.122 C  
HETATM   16  O   UNL     1     -11.018  17.110  64.676  1.00  0.00    -1.005 OA 
HETATM   17  H   UNL     1     -11.553  16.329  64.596  1.00  0.00     0.000 HD 
ENDBRANCH  12  15
ENDBRANCH   9  12
ENDBRANCH   6   9
ENDBRANCH   3   6
TORSDOF 4
ENDMDL
MODEL      182
REMARK 921   NORMALIZED FREE ENERGY PREDICTED BY IDOCK:   -2.75 KCAL/MOL
REMARK 922        TOTAL FREE ENERGY PREDICTED BY IDOCK:   -4.26 KCAL/MOL
REMARK 923 INTER-LIGAND FREE ENERGY PREDICTED BY IDOCK:   -3.51 KCAL/MOL
REMARK 924 INTRA-LIGAND FREE ENERGY PREDICTED BY IDOCK:   -0.75 KCAL/MOL
REMARK 927      BINDING AFFINITY PREDICTED BY RF-SCORE:    0.00 PKD
ROOT
HETATM    1  C   UNL     1     -11.233   4.851  73.185  1.00  0.00    -0.326 C  
HETATM    2  O   UNL     1     -10.597   4.956  74.235  1.00  0.00    -0.276 OA 
HETATM    3  C   UNL     1     -11.096   5.793  72.005  1.00  0.00    -0.260 C  
HETATM    4  O   UNL     1     -10.186   5.225  71.058  1.00  0.00    -0.208 OA 
HETATM    5  H   UNL     1     -10.100   5.815  70.318  1.00  0.00     0.000 HD 
ENDROOT
BRANCH   3   6
HETATM    6  C   UNL     1     -10.602   7.182  72.430  1.00  0.00    -0.226 C  
HETATM    7  O   UNL     1      -9.167   7.118  72.560  1.00  0.00    -0.137 OA 
HETATM    8  H   UNL     1      -8.861   7.978  72.824  1.00  0.00     0.000 HD 
BRANCH   6   9
HETATM    9  C   UNL     1     -11.003   8.350  71.484  1.00  0.00    -0.262 C  
HETATM   10  O   UNL     1     -11.308   7.832  70.178  1.00  0.00    -0.412 OA 
HETATM   11  H   UNL     1     -11.554   8.546  69.601  1.00  0.00     0.000 HD 
BRANCH   9  12
HETATM   12  C   UNL     1     -12.173   9.246  71.945  1.00  0.00    -0.378 C  
HETATM   13  H   UNL     1     -14.074   8.996  72.414  1.00  0.00     0.000 HD 
HETATM   14  O   UNL     1     -13.355   8.445  72.131  1.00  0.00    -0.336 OA 
BRANCH  12  15
HETATM   15  C   UNL     1     -12.458  10.442  71.020  1.00  0.00    -0.388 C  
HETATM   16  O   UNL     1     -13.107  10.025  69.811  1.00  0.00    -0.300 OA 
HETATM   17  H   UNL     1     -13.283  10.764  69.239  1.00  0.00     0.000 HD 
ENDBRANCH  12  15
ENDBRANCH   9  12
ENDBRANCH   6   9
ENDBRANCH   3   6
TORSDOF 4
ENDMDL
MODEL      183
REMARK 921   NORMALIZED FREE ENERGY PREDICTED BY IDOCK:   -2.75 KCAL/MOL
REMARK 922        TOTAL FREE ENERGY PREDICTED BY IDOCK:   -4.25 KCAL/MOL
REMARK 923 INTER-LIGAND FREE ENERGY PREDICTED BY IDOCK:   -3.71 KCAL/MOL
REMARK 924 INTRA-LIGAND FREE ENERGY PREDICTED BY IDOCK:   -0.54 KCAL/MOL
REMARK 927      BINDING AFFINITY PREDICTED BY RF-SCORE:    0.00 PKD
ROOT
HETATM    1  C   UNL     1      -8.116  14.706  68.008  1.00  0.00    -0.135 C  
HETATM    2  O   UNL     1      -8.269  15.803  68.547  1.00  0.00    -0.152 OA 
HETATM    3  C   UNL     1      -9.237  13.897  67.385  1.00  0.00    -0.224 C  
HETATM    4  O   UNL     1      -9.269  14.152  65.977  1.00  0.00    -0.500 OA 
HETATM    5  H   UNL     1      -9.971  13.645  65.587  1.00  0.00     0.000 HD 
ENDROOT
BRANCH   3   6
HETATM    6  C   UNL     1     -10.601  14.230  68.004  1.00  0.00    -0.238 C  
HETATM    7  O   UNL     1     -11.067  15.457  67.406  1.00  0.00    -0.321 OA 
HETATM    8  H   UNL     1     -11.912  15.663  67.790  1.00  0.00     0.000 HD 
BRANCH   6   9
HETATM    9  C   UNL     1     -11.683  13.120  67.866  1.00  0.00    -0.357 C  
HETATM   10  O   UNL     1     -11.776  12.703  66.494  1.00  0.00    -0.365 OA 
HETATM   11  H   UNL     1     -12.437  12.025  66.410  1.00  0.00     0.000 HD 
BRANCH   9  12
HETATM   12  C   UNL     1     -11.510  11.868  68.752  1.00  0.00    -0.290 C  
HETATM   13  H   UNL     1     -12.033   9.966  68.668  1.00  0.00     0.000 HD 
HETATM   14  O   UNL     1     -12.139  10.737  68.123  1.00  0.00    -0.493 OA 
BRANCH  12  15
HETATM   15  C   UNL     1     -12.007  12.041  70.198  1.00  0.00    -0.321 C  
HETATM   16  O   UNL     1     -12.864  10.960  70.589  1.00  0.00    -0.317 OA 
HETATM   17  H   UNL     1     -13.172  11.067  71.482  1.00  0.00     0.000 HD 
ENDBRANCH  12  15
ENDBRANCH   9  12
ENDBRANCH   6   9
ENDBRANCH   3   6
TORSDOF 4
ENDMDL
MODEL      184
REMARK 921   NORMALIZED FREE ENERGY PREDICTED BY IDOCK:   -2.74 KCAL/MOL
REMARK 922        TOTAL FREE ENERGY PREDICTED BY IDOCK:   -4.25 KCAL/MOL
REMARK 923 INTER-LIGAND FREE ENERGY PREDICTED BY IDOCK:   -3.56 KCAL/MOL
REMARK 924 INTRA-LIGAND FREE ENERGY PREDICTED BY IDOCK:   -0.69 KCAL/MOL
REMARK 927      BINDING AFFINITY PREDICTED BY RF-SCORE:    0.00 PKD
ROOT
HETATM    1  C   UNL     1      -9.943   5.009  67.764  1.00  0.00    -0.147 C  
HETATM    2  O   UNL     1      -8.723   5.164  67.845  1.00  0.00    -0.104 OA 
HETATM    3  C   UNL     1     -10.960   6.113  67.976  1.00  0.00    -0.305 C  
HETATM    4  O   UNL     1     -11.334   6.653  66.705  1.00  0.00    -0.745 OA 
HETATM    5  H   UNL     1     -11.972   7.345  66.838  1.00  0.00     0.000 HD 
ENDROOT
BRANCH   3   6
HETATM    6  C   UNL     1     -10.418   7.232  68.877  1.00  0.00    -0.206 C  
HETATM    7  O   UNL     1     -11.152   8.436  68.571  1.00  0.00    -0.421 OA 
HETATM    8  H   UNL     1     -10.816   9.128  69.129  1.00  0.00     0.000 HD 
BRANCH   6   9
HETATM    9  C   UNL     1     -10.473   6.942  70.404  1.00  0.00    -0.206 C  
HETATM   10  O   UNL     1      -9.247   6.319  70.823  1.00  0.00    -0.153 OA 
HETATM   11  H   UNL     1      -9.281   6.142  71.756  1.00  0.00     0.000 HD 
BRANCH   9  12
HETATM   12  C   UNL     1     -10.756   8.145  71.329  1.00  0.00    -0.227 C  
HETATM   13  H   UNL     1     -10.005   9.950  71.607  1.00  0.00     0.000 HD 
HETATM   14  O   UNL     1      -9.832   9.210  71.038  1.00  0.00    -0.253 OA 
BRANCH  12  15
HETATM   15  C   UNL     1     -10.750   7.806  72.830  1.00  0.00    -0.356 C  
HETATM   16  O   UNL     1     -11.294   6.502  73.074  1.00  0.00    -0.438 OA 
HETATM   17  H   UNL     1     -11.291   6.292  74.001  1.00  0.00     0.000 HD 
ENDBRANCH  12  15
ENDBRANCH   9  12
ENDBRANCH   6   9
ENDBRANCH   3   6
TORSDOF 4
ENDMDL
MODEL      185
REMARK 921   NORMALIZED FREE ENERGY PREDICTED BY IDOCK:   -2.70 KCAL/MOL
REMARK 922        TOTAL FREE ENERGY PREDICTED BY IDOCK:   -4.20 KCAL/MOL
REMARK 923 INTER-LIGAND FREE ENERGY PREDICTED BY IDOCK:   -3.70 KCAL/MOL
REMARK 924 INTRA-LIGAND FREE ENERGY PREDICTED BY IDOCK:   -0.50 KCAL/MOL
REMARK 927      BINDING AFFINITY PREDICTED BY RF-SCORE:    0.00 PKD
ROOT
HETATM    1  C   UNL     1      -9.229   6.200  67.862  1.00  0.00    -0.115 C  
HETATM    2  O   UNL     1      -8.130   6.609  68.241  1.00  0.00    -0.109 OA 
HETATM    3  C   UNL     1     -10.542   6.525  68.545  1.00  0.00    -0.244 C  
HETATM    4  O   UNL     1     -11.156   7.631  67.874  1.00  0.00    -0.475 OA 
HETATM    5  H   UNL     1     -11.979   7.835  68.302  1.00  0.00     0.000 HD 
ENDROOT
BRANCH   3   6
HETATM    6  C   UNL     1     -10.353   6.860  70.031  1.00  0.00    -0.200 C  
HETATM    7  O   UNL     1      -9.992   8.254  70.125  1.00  0.00    -0.184 OA 
HETATM    8  H   UNL     1      -9.874   8.461  71.045  1.00  0.00     0.000 HD 
BRANCH   6   9
HETATM    9  C   UNL     1     -11.578   6.561  70.942  1.00  0.00    -0.359 C  
HETATM   10  O   UNL     1     -11.187   5.670  72.001  1.00  0.00    -0.257 OA 
HETATM   11  H   UNL     1     -11.935   5.487  72.557  1.00  0.00     0.000 HD 
BRANCH   9  12
HETATM   12  C   UNL     1     -12.296   7.778  71.562  1.00  0.00    -0.320 C  
HETATM   13  H   UNL     1     -12.079   8.911  73.165  1.00  0.00     0.000 HD 
HETATM   14  O   UNL     1     -11.637   8.162  72.783  1.00  0.00    -0.411 OA 
BRANCH  12  15
HETATM   15  C   UNL     1     -13.804   7.575  71.792  1.00  0.00    -0.338 C  
HETATM   16  O   UNL     1     -14.383   8.690  72.482  1.00  0.00    -0.685 OA 
HETATM   17  H   UNL     1     -15.315   8.564  72.624  1.00  0.00     0.000 HD 
ENDBRANCH  12  15
ENDBRANCH   9  12
ENDBRANCH   6   9
ENDBRANCH   3   6
TORSDOF 4
ENDMDL
MODEL      186
REMARK 921   NORMALIZED FREE ENERGY PREDICTED BY IDOCK:   -2.70 KCAL/MOL
REMARK 922        TOTAL FREE ENERGY PREDICTED BY IDOCK:   -4.19 KCAL/MOL
REMARK 923 INTER-LIGAND FREE ENERGY PREDICTED BY IDOCK:   -3.40 KCAL/MOL
REMARK 924 INTRA-LIGAND FREE ENERGY PREDICTED BY IDOCK:   -0.79 KCAL/MOL
REMARK 927      BINDING AFFINITY PREDICTED BY RF-SCORE:    0.00 PKD
ROOT
HETATM    1  C   UNL     1     -10.994  19.261  66.725  1.00  0.00    -0.228 C  
HETATM    2  O   UNL     1     -10.702  19.262  65.528  1.00  0.00    -0.489 OA 
HETATM    3  C   UNL     1     -10.236  18.491  67.788  1.00  0.00    -0.382 C  
HETATM    4  O   UNL     1      -9.294  19.367  68.417  1.00  0.00    -0.336 OA 
HETATM    5  H   UNL     1      -8.820  18.885  69.083  1.00  0.00     0.000 HD 
ENDROOT
BRANCH   3   6
HETATM    6  C   UNL     1      -9.505  17.273  67.208  1.00  0.00    -0.250 C  
HETATM    7  O   UNL     1     -10.333  16.718  66.166  1.00  0.00    -0.328 OA 
HETATM    8  H   UNL     1      -9.880  15.964  65.807  1.00  0.00     0.000 HD 
BRANCH   6   9
HETATM    9  C   UNL     1      -8.074  17.552  66.666  1.00  0.00    -0.255 C  
HETATM   10  O   UNL     1      -8.004  18.892  66.150  1.00  0.00    -0.332 OA 
HETATM   11  H   UNL     1      -7.130  19.062  65.818  1.00  0.00     0.000 HD 
BRANCH   9  12
HETATM   12  C   UNL     1      -6.904  17.342  67.651  1.00  0.00    -0.146 C  
HETATM   13  H   UNL     1      -6.701  16.902  69.565  1.00  0.00     0.000 HD 
HETATM   14  O   UNL     1      -7.421  17.031  68.959  1.00  0.00    -0.239 OA 
BRANCH  12  15
HETATM   15  C   UNL     1      -5.911  18.515  67.716  1.00  0.00    -0.184 C  
HETATM   16  O   UNL     1      -6.270  19.449  68.742  1.00  0.00    -0.232 OA 
HETATM   17  H   UNL     1      -5.657  20.174  68.781  1.00  0.00     0.000 HD 
ENDBRANCH  12  15
ENDBRANCH   9  12
ENDBRANCH   6   9
ENDBRANCH   3   6
TORSDOF 4
ENDMDL
MODEL      187
REMARK 921   NORMALIZED FREE ENERGY PREDICTED BY IDOCK:   -2.69 KCAL/MOL
REMARK 922        TOTAL FREE ENERGY PREDICTED BY IDOCK:   -4.18 KCAL/MOL
REMARK 923 INTER-LIGAND FREE ENERGY PREDICTED BY IDOCK:   -3.97 KCAL/MOL
REMARK 924 INTRA-LIGAND FREE ENERGY PREDICTED BY IDOCK:   -0.21 KCAL/MOL
REMARK 927      BINDING AFFINITY PREDICTED BY RF-SCORE:    0.00 PKD
ROOT
HETATM    1  C   UNL     1      -7.309  10.969  66.358  1.00  0.00    -0.128 C  
HETATM    2  O   UNL     1      -7.260   9.814  65.933  1.00  0.00    -0.096 OA 
HETATM    3  C   UNL     1      -8.562  11.823  66.371  1.00  0.00    -0.113 C  
HETATM    4  O   UNL     1      -9.175  11.734  67.661  1.00  0.00    -0.172 OA 
HETATM    5  H   UNL     1      -9.959  12.269  67.669  1.00  0.00     0.000 HD 
ENDROOT
BRANCH   3   6
HETATM    6  C   UNL     1      -9.563  11.395  65.290  1.00  0.00    -0.228 C  
HETATM    7  O   UNL     1     -10.590  10.608  65.928  1.00  0.00    -0.199 OA 
HETATM    8  H   UNL     1     -11.210  10.343  65.258  1.00  0.00     0.000 HD 
BRANCH   6   9
HETATM    9  C   UNL     1     -10.203  12.556  64.477  1.00  0.00    -0.307 C  
HETATM   10  O   UNL     1      -9.703  12.537  63.129  1.00  0.00    -0.512 OA 
HETATM   11  H   UNL     1     -10.094  13.247  62.633  1.00  0.00     0.000 HD 
BRANCH   9  12
HETATM   12  C   UNL     1     -11.745  12.604  64.430  1.00  0.00    -0.369 C  
HETATM   13  H   UNL     1     -13.157  12.145  63.128  1.00  0.00     0.000 HD 
HETATM   14  O   UNL     1     -12.208  12.116  63.157  1.00  0.00    -0.447 OA 
BRANCH  12  15
HETATM   15  C   UNL     1     -12.346  13.985  64.742  1.00  0.00    -0.413 C  
HETATM   16  O   UNL     1     -12.617  14.721  63.542  1.00  0.00    -0.990 OA 
HETATM   17  H   UNL     1     -12.988  15.575  63.735  1.00  0.00     0.000 HD 
ENDBRANCH  12  15
ENDBRANCH   9  12
ENDBRANCH   6   9
ENDBRANCH   3   6
TORSDOF 4
ENDMDL
MODEL      188
REMARK 921   NORMALIZED FREE ENERGY PREDICTED BY IDOCK:   -2.68 KCAL/MOL
REMARK 922        TOTAL FREE ENERGY PREDICTED BY IDOCK:   -4.17 KCAL/MOL
REMARK 923 INTER-LIGAND FREE ENERGY PREDICTED BY IDOCK:   -3.49 KCAL/MOL
REMARK 924 INTRA-LIGAND FREE ENERGY PREDICTED BY IDOCK:   -0.68 KCAL/MOL
REMARK 927      BINDING AFFINITY PREDICTED BY RF-SCORE:    0.00 PKD
ROOT
HETATM    1  C   UNL     1     -10.946   9.496  70.730  1.00  0.00    -0.321 C  
HETATM    2  O   UNL     1     -11.887  10.213  71.077  1.00  0.00    -0.328 OA 
HETATM    3  C   UNL     1      -9.975   9.842  69.618  1.00  0.00    -0.231 C  
HETATM    4  O   UNL     1      -8.805  10.438  70.189  1.00  0.00    -0.323 OA 
HETATM    5  H   UNL     1      -8.197  10.654  69.492  1.00  0.00     0.000 HD 
ENDROOT
BRANCH   3   6
HETATM    6  C   UNL     1     -10.593  10.796  68.587  1.00  0.00    -0.199 C  
HETATM    7  O   UNL     1     -10.508  12.134  69.120  1.00  0.00    -0.415 OA 
HETATM    8  H   UNL     1     -10.891  12.725  68.482  1.00  0.00     0.000 HD 
BRANCH   6   9
HETATM    9  C   UNL     1      -9.961  10.743  67.167  1.00  0.00    -0.194 C  
HETATM   10  O   UNL     1     -10.361   9.532  66.504  1.00  0.00    -0.242 OA 
HETATM   11  H   UNL     1      -9.975   9.499  65.637  1.00  0.00     0.000 HD 
BRANCH   9  12
HETATM   12  C   UNL     1     -10.252  11.936  66.232  1.00  0.00    -0.216 C  
HETATM   13  H   UNL     1      -9.717  13.833  66.117  1.00  0.00     0.000 HD 
HETATM   14  O   UNL     1      -9.538  13.099  66.692  1.00  0.00    -0.248 OA 
BRANCH  12  15
HETATM   15  C   UNL     1     -11.747  12.246  66.046  1.00  0.00    -0.388 C  
HETATM   16  O   UNL     1     -12.138  13.407  66.792  1.00  0.00    -0.391 OA 
HETATM   17  H   UNL     1     -13.062  13.598  66.677  1.00  0.00     0.000 HD 
ENDBRANCH  12  15
ENDBRANCH   9  12
ENDBRANCH   6   9
ENDBRANCH   3   6
TORSDOF 4
ENDMDL
MODEL      189
REMARK 921   NORMALIZED FREE ENERGY PREDICTED BY IDOCK:   -2.67 KCAL/MOL
REMARK 922        TOTAL FREE ENERGY PREDICTED BY IDOCK:   -4.17 KCAL/MOL
REMARK 923 INTER-LIGAND FREE ENERGY PREDICTED BY IDOCK:   -3.62 KCAL/MOL
REMARK 924 INTRA-LIGAND FREE ENERGY PREDICTED BY IDOCK:   -0.55 KCAL/MOL
REMARK 927      BINDING AFFINITY PREDICTED BY RF-SCORE:    0.00 PKD
ROOT
HETATM    1  C   UNL     1     -11.994  12.646  64.021  1.00  0.00    -0.451 C  
HETATM    2  O   UNL     1     -12.855  11.858  63.627  1.00  0.00    -0.646 OA 
HETATM    3  C   UNL     1     -10.708  12.230  64.709  1.00  0.00    -0.300 C  
HETATM    4  O   UNL     1      -9.658  12.170  63.739  1.00  0.00    -0.560 OA 
HETATM    5  H   UNL     1      -8.852  11.910  64.170  1.00  0.00     0.000 HD 
ENDROOT
BRANCH   3   6
HETATM    6  C   UNL     1     -10.843  10.874  65.414  1.00  0.00    -0.042 C  
HETATM    7  O   UNL     1     -10.108   9.902  64.641  1.00  0.00    -0.381 OA 
HETATM    8  H   UNL     1     -10.191   9.062  65.077  1.00  0.00     0.000 HD 
BRANCH   6   9
HETATM    9  C   UNL     1     -10.375  10.845  66.897  1.00  0.00    -0.238 C  
HETATM   10  O   UNL     1     -11.196   9.932  67.645  1.00  0.00    -0.453 OA 
HETATM   11  H   UNL     1     -10.911   9.915  68.552  1.00  0.00     0.000 HD 
BRANCH   9  12
HETATM   12  C   UNL     1      -8.893  10.497  67.151  1.00  0.00    -0.136 C  
HETATM   13  H   UNL     1      -7.171  10.792  66.232  1.00  0.00     0.000 HD 
HETATM   14  O   UNL     1      -8.083  11.007  66.076  1.00  0.00    -0.159 OA 
BRANCH  12  15
HETATM   15  C   UNL     1      -8.624   8.999  67.381  1.00  0.00    -0.115 C  
HETATM   16  O   UNL     1      -8.742   8.653  68.767  1.00  0.00    -0.133 OA 
HETATM   17  H   UNL     1      -8.575   7.728  68.909  1.00  0.00     0.000 HD 
ENDBRANCH  12  15
ENDBRANCH   9  12
ENDBRANCH   6   9
ENDBRANCH   3   6
TORSDOF 4
ENDMDL
MODEL      190
REMARK 921   NORMALIZED FREE ENERGY PREDICTED BY IDOCK:   -2.67 KCAL/MOL
REMARK 922        TOTAL FREE ENERGY PREDICTED BY IDOCK:   -4.16 KCAL/MOL
REMARK 923 INTER-LIGAND FREE ENERGY PREDICTED BY IDOCK:   -3.88 KCAL/MOL
REMARK 924 INTRA-LIGAND FREE ENERGY PREDICTED BY IDOCK:   -0.28 KCAL/MOL
REMARK 927      BINDING AFFINITY PREDICTED BY RF-SCORE:    0.00 PKD
ROOT
HETATM    1  C   UNL     1     -10.748  11.549  64.615  1.00  0.00    -0.319 C  
HETATM    2  O   UNL     1      -9.809  10.769  64.447  1.00  0.00    -0.259 OA 
HETATM    3  C   UNL     1     -10.738  12.693  65.610  1.00  0.00    -0.269 C  
HETATM    4  O   UNL     1     -10.365  13.897  64.933  1.00  0.00    -0.397 OA 
HETATM    5  H   UNL     1     -10.359  14.614  65.557  1.00  0.00     0.000 HD 
ENDROOT
BRANCH   3   6
HETATM    6  C   UNL     1      -9.777  12.434  66.778  1.00  0.00    -0.223 C  
HETATM    7  O   UNL     1      -8.665  13.344  66.642  1.00  0.00    -0.418 OA 
HETATM    8  H   UNL     1      -8.070  13.183  67.365  1.00  0.00     0.000 HD 
BRANCH   6   9
HETATM    9  C   UNL     1     -10.403  12.560  68.196  1.00  0.00    -0.232 C  
HETATM   10  O   UNL     1     -11.632  13.303  68.119  1.00  0.00    -0.295 OA 
HETATM   11  H   UNL     1     -12.014  13.380  68.986  1.00  0.00     0.000 HD 
BRANCH   9  12
HETATM   12  C   UNL     1     -10.670  11.244  68.957  1.00  0.00    -0.217 C  
HETATM   13  H   UNL     1     -11.085   9.372  68.485  1.00  0.00     0.000 HD 
HETATM   14  O   UNL     1     -10.921  10.182  68.017  1.00  0.00    -0.265 OA 
BRANCH  12  15
HETATM   15  C   UNL     1     -11.797  11.332  70.001  1.00  0.00    -0.367 C  
HETATM   16  O   UNL     1     -12.896  10.477  69.658  1.00  0.00    -0.614 OA 
HETATM   17  H   UNL     1     -13.592  10.532  70.303  1.00  0.00     0.000 HD 
ENDBRANCH  12  15
ENDBRANCH   9  12
ENDBRANCH   6   9
ENDBRANCH   3   6
TORSDOF 4
ENDMDL
MODEL      191
REMARK 921   NORMALIZED FREE ENERGY PREDICTED BY IDOCK:   -2.64 KCAL/MOL
REMARK 922        TOTAL FREE ENERGY PREDICTED BY IDOCK:   -4.12 KCAL/MOL
REMARK 923 INTER-LIGAND FREE ENERGY PREDICTED BY IDOCK:   -3.52 KCAL/MOL
REMARK 924 INTRA-LIGAND FREE ENERGY PREDICTED BY IDOCK:   -0.60 KCAL/MOL
REMARK 927      BINDING AFFINITY PREDICTED BY RF-SCORE:    0.00 PKD
ROOT
HETATM    1  C   UNL     1      -7.049  14.284  67.593  1.00  0.00    -0.183 C  
HETATM    2  O   UNL     1      -6.643  13.766  68.635  1.00  0.00    -0.083 OA 
HETATM    3  C   UNL     1      -8.408  14.940  67.439  1.00  0.00    -0.194 C  
HETATM    4  O   UNL     1      -8.268  16.351  67.630  1.00  0.00    -0.151 OA 
HETATM    5  H   UNL     1      -9.119  16.762  67.533  1.00  0.00     0.000 HD 
ENDROOT
BRANCH   3   6
HETATM    6  C   UNL     1      -9.435  14.380  68.433  1.00  0.00    -0.207 C  
HETATM    7  O   UNL     1      -9.127  14.922  69.734  1.00  0.00    -0.441 OA 
HETATM    8  H   UNL     1      -9.764  14.575  70.349  1.00  0.00     0.000 HD 
BRANCH   6   9
HETATM    9  C   UNL     1     -10.924  14.653  68.075  1.00  0.00    -0.267 C  
HETATM   10  O   UNL     1     -11.704  13.470  68.314  1.00  0.00    -0.318 OA 
HETATM   11  H   UNL     1     -12.614  13.636  68.095  1.00  0.00     0.000 HD 
BRANCH   9  12
HETATM   12  C   UNL     1     -11.602  15.843  68.788  1.00  0.00    -0.386 C  
HETATM   13  H   UNL     1     -11.223  17.762  69.056  1.00  0.00     0.000 HD 
HETATM   14  O   UNL     1     -10.806  17.030  68.618  1.00  0.00    -0.338 OA 
BRANCH  12  15
HETATM   15  C   UNL     1     -11.914  15.597  70.274  1.00  0.00    -0.374 C  
HETATM   16  O   UNL     1     -13.126  14.849  70.438  1.00  0.00    -0.583 OA 
HETATM   17  H   UNL     1     -13.319  14.698  71.357  1.00  0.00     0.000 HD 
ENDBRANCH  12  15
ENDBRANCH   9  12
ENDBRANCH   6   9
ENDBRANCH   3   6
TORSDOF 4
ENDMDL
MODEL      192
REMARK 921   NORMALIZED FREE ENERGY PREDICTED BY IDOCK:   -2.64 KCAL/MOL
REMARK 922        TOTAL FREE ENERGY PREDICTED BY IDOCK:   -4.12 KCAL/MOL
REMARK 923 INTER-LIGAND FREE ENERGY PREDICTED BY IDOCK:   -3.51 KCAL/MOL
REMARK 924 INTRA-LIGAND FREE ENERGY PREDICTED BY IDOCK:   -0.61 KCAL/MOL
REMARK 927      BINDING AFFINITY PREDICTED BY RF-SCORE:    0.00 PKD
ROOT
HETATM    1  C   UNL     1      -9.389   8.445  67.246  1.00  0.00    -0.146 C  
HETATM    2  O   UNL     1      -9.290   9.340  68.087  1.00  0.00    -0.134 OA 
HETATM    3  C   UNL     1      -9.959   7.069  67.527  1.00  0.00    -0.156 C  
HETATM    4  O   UNL     1     -11.338   7.048  67.145  1.00  0.00    -0.603 OA 
HETATM    5  H   UNL     1     -11.695   6.186  67.321  1.00  0.00     0.000 HD 
ENDROOT
BRANCH   3   6
HETATM    6  C   UNL     1      -9.823   6.678  69.004  1.00  0.00    -0.144 C  
HETATM    7  O   UNL     1      -8.463   6.943  69.406  1.00  0.00    -0.131 OA 
HETATM    8  H   UNL     1      -8.380   6.701  70.321  1.00  0.00     0.000 HD 
BRANCH   6   9
HETATM    9  C   UNL     1     -10.816   7.382  69.973  1.00  0.00    -0.252 C  
HETATM   10  O   UNL     1     -12.143   6.870  69.763  1.00  0.00    -0.623 OA 
HETATM   11  H   UNL     1     -12.750   7.300  70.354  1.00  0.00     0.000 HD 
BRANCH   9  12
HETATM   12  C   UNL     1     -10.490   7.304  71.479  1.00  0.00    -0.202 C  
HETATM   13  H   UNL     1     -10.246   5.878  72.823  1.00  0.00     0.000 HD 
HETATM   14  O   UNL     1     -10.447   5.927  71.896  1.00  0.00    -0.207 OA 
BRANCH  12  15
HETATM   15  C   UNL     1     -11.437   8.121  72.376  1.00  0.00    -0.397 C  
HETATM   16  O   UNL     1     -12.771   7.596  72.345  1.00  0.00    -0.513 OA 
HETATM   17  H   UNL     1     -13.356   8.101  72.899  1.00  0.00     0.000 HD 
ENDBRANCH  12  15
ENDBRANCH   9  12
ENDBRANCH   6   9
ENDBRANCH   3   6
TORSDOF 4
ENDMDL
MODEL      193
REMARK 921   NORMALIZED FREE ENERGY PREDICTED BY IDOCK:   -2.63 KCAL/MOL
REMARK 922        TOTAL FREE ENERGY PREDICTED BY IDOCK:   -4.11 KCAL/MOL
REMARK 923 INTER-LIGAND FREE ENERGY PREDICTED BY IDOCK:   -3.61 KCAL/MOL
REMARK 924 INTRA-LIGAND FREE ENERGY PREDICTED BY IDOCK:   -0.50 KCAL/MOL
REMARK 927      BINDING AFFINITY PREDICTED BY RF-SCORE:    0.00 PKD
ROOT
HETATM    1  C   UNL     1     -12.330   9.463  72.228  1.00  0.00    -0.228 C  
HETATM    2  O   UNL     1     -11.648   8.438  72.200  1.00  0.00    -0.322 OA 
HETATM    3  C   UNL     1     -12.435  10.450  71.081  1.00  0.00    -0.404 C  
HETATM    4  O   UNL     1     -13.608  10.153  70.316  1.00  0.00    -0.417 OA 
HETATM    5  H   UNL     1     -13.673  10.772  69.598  1.00  0.00     0.000 HD 
ENDROOT
BRANCH   3   6
HETATM    6  C   UNL     1     -11.199  10.412  70.172  1.00  0.00    -0.321 C  
HETATM    7  O   UNL     1     -11.175   9.128  69.516  1.00  0.00    -0.425 OA 
HETATM    8  H   UNL     1     -10.410   9.105  68.953  1.00  0.00     0.000 HD 
BRANCH   6   9
HETATM    9  C   UNL     1     -11.110  11.555  69.121  1.00  0.00    -0.259 C  
HETATM   10  O   UNL     1     -12.279  11.534  68.283  1.00  0.00    -0.561 OA 
HETATM   11  H   UNL     1     -12.224  12.232  67.641  1.00  0.00     0.000 HD 
BRANCH   9  12
HETATM   12  C   UNL     1     -10.920  12.986  69.666  1.00  0.00     0.201 C  
HETATM   13  H   UNL     1     -12.085  14.442  70.316  1.00  0.00     0.000 HD 
HETATM   14  O   UNL     1     -12.202  13.561  69.980  1.00  0.00    -0.328 OA 
BRANCH  12  15
HETATM   15  C   UNL     1     -10.113  13.915  68.742  1.00  0.00    -0.157 C  
HETATM   16  O   UNL     1      -9.026  14.535  69.443  1.00  0.00    -0.390 OA 
HETATM   17  H   UNL     1      -8.528  15.109  68.872  1.00  0.00     0.000 HD 
ENDBRANCH  12  15
ENDBRANCH   9  12
ENDBRANCH   6   9
ENDBRANCH   3   6
TORSDOF 4
ENDMDL
MODEL      194
REMARK 921   NORMALIZED FREE ENERGY PREDICTED BY IDOCK:   -2.62 KCAL/MOL
REMARK 922        TOTAL FREE ENERGY PREDICTED BY IDOCK:   -4.10 KCAL/MOL
REMARK 923 INTER-LIGAND FREE ENERGY PREDICTED BY IDOCK:   -3.90 KCAL/MOL
REMARK 924 INTRA-LIGAND FREE ENERGY PREDICTED BY IDOCK:   -0.19 KCAL/MOL
REMARK 927      BINDING AFFINITY PREDICTED BY RF-SCORE:    0.00 PKD
ROOT
HETATM    1  C   UNL     1      -8.424  10.524  67.602  1.00  0.00    -0.115 C  
HETATM    2  O   UNL     1      -7.485  11.246  67.262  1.00  0.00    -0.112 OA 
HETATM    3  C   UNL     1      -9.749  10.445  66.869  1.00  0.00    -0.181 C  
HETATM    4  O   UNL     1      -9.721   9.329  65.973  1.00  0.00    -0.254 OA 
HETATM    5  H   UNL     1     -10.551   9.279  65.515  1.00  0.00     0.000 HD 
ENDROOT
BRANCH   3   6
HETATM    6  C   UNL     1     -10.054  11.730  66.086  1.00  0.00    -0.224 C  
HETATM    7  O   UNL     1     -10.410  11.351  64.741  1.00  0.00    -0.259 OA 
HETATM    8  H   UNL     1     -10.599  12.147  64.257  1.00  0.00     0.000 HD 
BRANCH   6   9
HETATM    9  C   UNL     1     -11.159  12.636  66.700  1.00  0.00    -0.274 C  
HETATM   10  O   UNL     1     -12.393  12.444  65.988  1.00  0.00    -0.627 OA 
HETATM   11  H   UNL     1     -13.069  12.998  66.362  1.00  0.00     0.000 HD 
BRANCH   9  12
HETATM   12  C   UNL     1     -11.431  12.474  68.210  1.00  0.00    -0.308 C  
HETATM   13  H   UNL     1     -12.452  11.235  69.360  1.00  0.00     0.000 HD 
HETATM   14  O   UNL     1     -12.285  11.335  68.431  1.00  0.00    -0.604 OA 
BRANCH  12  15
HETATM   15  C   UNL     1     -12.003  13.730  68.890  1.00  0.00    -0.359 C  
HETATM   16  O   UNL     1     -12.535  14.650  67.928  1.00  0.00    -0.586 OA 
HETATM   17  H   UNL     1     -12.888  15.427  68.348  1.00  0.00     0.000 HD 
ENDBRANCH  12  15
ENDBRANCH   9  12
ENDBRANCH   6   9
ENDBRANCH   3   6
TORSDOF 4
ENDMDL
MODEL      195
REMARK 921   NORMALIZED FREE ENERGY PREDICTED BY IDOCK:   -2.60 KCAL/MOL
REMARK 922        TOTAL FREE ENERGY PREDICTED BY IDOCK:   -4.08 KCAL/MOL
REMARK 923 INTER-LIGAND FREE ENERGY PREDICTED BY IDOCK:   -3.69 KCAL/MOL
REMARK 924 INTRA-LIGAND FREE ENERGY PREDICTED BY IDOCK:   -0.39 KCAL/MOL
REMARK 927      BINDING AFFINITY PREDICTED BY RF-SCORE:    0.00 PKD
ROOT
HETATM    1  C   UNL     1      -9.922   5.218  70.352  1.00  0.00    -0.233 C  
HETATM    2  O   UNL     1     -10.736   5.379  69.440  1.00  0.00    -0.274 OA 
HETATM    3  C   UNL     1     -10.252   5.356  71.825  1.00  0.00    -0.206 C  
HETATM    4  O   UNL     1     -10.530   4.060  72.365  1.00  0.00    -0.164 OA 
HETATM    5  H   UNL     1     -10.736   4.147  73.288  1.00  0.00     0.000 HD 
ENDROOT
BRANCH   3   6
HETATM    6  C   UNL     1     -11.450   6.285  72.063  1.00  0.00    -0.310 C  
HETATM    7  O   UNL     1     -12.443   5.543  72.801  1.00  0.00    -0.470 OA 
HETATM    8  H   UNL     1     -13.184   6.118  72.949  1.00  0.00     0.000 HD 
BRANCH   6   9
HETATM    9  C   UNL     1     -11.123   7.619  72.795  1.00  0.00    -0.383 C  
HETATM   10  O   UNL     1     -10.222   7.364  73.886  1.00  0.00    -0.371 OA 
HETATM   11  H   UNL     1     -10.023   8.179  74.333  1.00  0.00     0.000 HD 
BRANCH   9  12
HETATM   12  C   UNL     1     -10.543   8.760  71.933  1.00  0.00    -0.354 C  
HETATM   13  H   UNL     1     -10.980   9.622  70.211  1.00  0.00     0.000 HD 
HETATM   14  O   UNL     1     -11.336   8.920  70.742  1.00  0.00    -0.267 OA 
BRANCH  12  15
HETATM   15  C   UNL     1      -9.054   8.597  71.584  1.00  0.00    -0.247 C  
HETATM   16  O   UNL     1      -8.224   8.770  72.740  1.00  0.00    -0.407 OA 
HETATM   17  H   UNL     1      -7.303   8.670  72.525  1.00  0.00     0.000 HD 
ENDBRANCH  12  15
ENDBRANCH   9  12
ENDBRANCH   6   9
ENDBRANCH   3   6
TORSDOF 4
ENDMDL
MODEL      196
REMARK 921   NORMALIZED FREE ENERGY PREDICTED BY IDOCK:   -2.60 KCAL/MOL
REMARK 922        TOTAL FREE ENERGY PREDICTED BY IDOCK:   -4.08 KCAL/MOL
REMARK 923 INTER-LIGAND FREE ENERGY PREDICTED BY IDOCK:   -3.33 KCAL/MOL
REMARK 924 INTRA-LIGAND FREE ENERGY PREDICTED BY IDOCK:   -0.75 KCAL/MOL
REMARK 927      BINDING AFFINITY PREDICTED BY RF-SCORE:    0.00 PKD
ROOT
HETATM    1  C   UNL     1      -7.994   7.432  67.272  1.00  0.00    -0.115 C  
HETATM    2  O   UNL     1      -8.301   6.493  66.536  1.00  0.00    -0.110 OA 
HETATM    3  C   UNL     1      -8.949   8.531  67.698  1.00  0.00    -0.135 C  
HETATM    4  O   UNL     1      -9.490   8.206  68.982  1.00  0.00    -0.154 OA 
HETATM    5  H   UNL     1     -10.088   8.895  69.249  1.00  0.00     0.000 HD 
ENDROOT
BRANCH   3   6
HETATM    6  C   UNL     1     -10.089   8.727  66.689  1.00  0.00    -0.288 C  
HETATM    7  O   UNL     1     -10.964   7.584  66.786  1.00  0.00    -0.495 OA 
HETATM    8  H   UNL     1     -11.669   7.706  66.161  1.00  0.00     0.000 HD 
BRANCH   6   9
HETATM    9  C   UNL     1     -10.903  10.042  66.853  1.00  0.00    -0.082 C  
HETATM   10  O   UNL     1     -11.661   9.994  68.074  1.00  0.00    -0.644 OA 
HETATM   11  H   UNL     1     -12.158  10.797  68.174  1.00  0.00     0.000 HD 
BRANCH   9  12
HETATM   12  C   UNL     1     -10.104  11.362  66.820  1.00  0.00    -0.216 C  
HETATM   13  H   UNL     1      -9.284  12.577  68.143  1.00  0.00     0.000 HD 
HETATM   14  O   UNL     1      -9.775  11.765  68.163  1.00  0.00    -0.180 OA 
BRANCH  12  15
HETATM   15  C   UNL     1     -10.798  12.504  66.057  1.00  0.00    -0.276 C  
HETATM   16  O   UNL     1     -12.224  12.353  66.071  1.00  0.00    -0.636 OA 
HETATM   17  H   UNL     1     -12.652  13.059  65.600  1.00  0.00     0.000 HD 
ENDBRANCH  12  15
ENDBRANCH   9  12
ENDBRANCH   6   9
ENDBRANCH   3   6
TORSDOF 4
ENDMDL
MODEL      197
REMARK 921   NORMALIZED FREE ENERGY PREDICTED BY IDOCK:   -2.58 KCAL/MOL
REMARK 922        TOTAL FREE ENERGY PREDICTED BY IDOCK:   -4.05 KCAL/MOL
REMARK 923 INTER-LIGAND FREE ENERGY PREDICTED BY IDOCK:   -3.57 KCAL/MOL
REMARK 924 INTRA-LIGAND FREE ENERGY PREDICTED BY IDOCK:   -0.48 KCAL/MOL
REMARK 927      BINDING AFFINITY PREDICTED BY RF-SCORE:    0.00 PKD
ROOT
HETATM    1  C   UNL     1      -8.982  14.283  67.342  1.00  0.00    -0.201 C  
HETATM    2  O   UNL     1      -9.928  14.010  68.083  1.00  0.00    -0.228 OA 
HETATM    3  C   UNL     1      -8.019  15.431  67.575  1.00  0.00    -0.170 C  
HETATM    4  O   UNL     1      -6.853  14.934  68.241  1.00  0.00    -0.103 OA 
HETATM    5  H   UNL     1      -6.250  15.654  68.387  1.00  0.00     0.000 HD 
ENDROOT
BRANCH   3   6
HETATM    6  C   UNL     1      -8.652  16.555  68.406  1.00  0.00    -0.213 C  
HETATM    7  O   UNL     1      -7.591  17.427  68.847  1.00  0.00    -0.258 OA 
HETATM    8  H   UNL     1      -7.983  18.123  69.361  1.00  0.00     0.000 HD 
BRANCH   6   9
HETATM    9  C   UNL     1      -9.757  17.377  67.682  1.00  0.00    -0.270 C  
HETATM   10  O   UNL     1     -11.053  16.935  68.118  1.00  0.00    -0.347 OA 
HETATM   11  H   UNL     1     -11.728  17.437  67.675  1.00  0.00     0.000 HD 
BRANCH   9  12
HETATM   12  C   UNL     1      -9.686  18.912  67.824  1.00  0.00    -0.323 C  
HETATM   13  H   UNL     1     -10.008  20.238  69.251  1.00  0.00     0.000 HD 
HETATM   14  O   UNL     1     -10.051  19.294  69.163  1.00  0.00    -0.401 OA 
BRANCH  12  15
HETATM   15  C   UNL     1     -10.517  19.684  66.785  1.00  0.00    -0.490 C  
HETATM   16  O   UNL     1      -9.796  20.813  66.272  1.00  0.00    -0.566 OA 
HETATM   17  H   UNL     1     -10.310  21.290  65.630  1.00  0.00     0.000 HD 
ENDBRANCH  12  15
ENDBRANCH   9  12
ENDBRANCH   6   9
ENDBRANCH   3   6
TORSDOF 4
ENDMDL
MODEL      198
REMARK 921   NORMALIZED FREE ENERGY PREDICTED BY IDOCK:   -2.56 KCAL/MOL
REMARK 922        TOTAL FREE ENERGY PREDICTED BY IDOCK:   -4.03 KCAL/MOL
REMARK 923 INTER-LIGAND FREE ENERGY PREDICTED BY IDOCK:   -3.36 KCAL/MOL
REMARK 924 INTRA-LIGAND FREE ENERGY PREDICTED BY IDOCK:   -0.67 KCAL/MOL
REMARK 927      BINDING AFFINITY PREDICTED BY RF-SCORE:    0.00 PKD
ROOT
HETATM    1  C   UNL     1     -10.782  10.813  67.526  1.00  0.00    -0.264 C  
HETATM    2  O   UNL     1     -10.886   9.625  67.219  1.00  0.00    -0.254 OA 
HETATM    3  C   UNL     1     -10.405  11.308  68.909  1.00  0.00    -0.195 C  
HETATM    4  O   UNL     1      -8.999  11.576  68.941  1.00  0.00    -0.356 OA 
HETATM    5  H   UNL     1      -8.763  11.886  69.807  1.00  0.00     0.000 HD 
ENDROOT
BRANCH   3   6
HETATM    6  C   UNL     1     -10.764  10.293  70.003  1.00  0.00    -0.292 C  
HETATM    7  O   UNL     1     -12.153   9.940  69.835  1.00  0.00    -0.467 OA 
HETATM    8  H   UNL     1     -12.375   9.311  70.513  1.00  0.00     0.000 HD 
BRANCH   6   9
HETATM    9  C   UNL     1      -9.884   9.011  70.037  1.00  0.00    -0.184 C  
HETATM   10  O   UNL     1      -8.526   9.364  70.347  1.00  0.00    -0.184 OA 
HETATM   11  H   UNL     1      -7.988   8.581  70.368  1.00  0.00     0.000 HD 
BRANCH   9  12
HETATM   12  C   UNL     1     -10.332   7.886  70.994  1.00  0.00    -0.201 C  
HETATM   13  H   UNL     1     -11.900   6.701  71.183  1.00  0.00     0.000 HD 
HETATM   14  O   UNL     1     -11.624   7.393  70.594  1.00  0.00    -0.291 OA 
BRANCH  12  15
HETATM   15  C   UNL     1     -10.331   8.282  72.481  1.00  0.00    -0.331 C  
HETATM   16  O   UNL     1      -9.012   8.618  72.932  1.00  0.00    -0.343 OA 
HETATM   17  H   UNL     1      -9.011   8.862  73.851  1.00  0.00     0.000 HD 
ENDBRANCH  12  15
ENDBRANCH   9  12
ENDBRANCH   6   9
ENDBRANCH   3   6
TORSDOF 4
ENDMDL
MODEL      199
REMARK 921   NORMALIZED FREE ENERGY PREDICTED BY IDOCK:   -2.55 KCAL/MOL
REMARK 922        TOTAL FREE ENERGY PREDICTED BY IDOCK:   -4.01 KCAL/MOL
REMARK 923 INTER-LIGAND FREE ENERGY PREDICTED BY IDOCK:   -3.47 KCAL/MOL
REMARK 924 INTRA-LIGAND FREE ENERGY PREDICTED BY IDOCK:   -0.54 KCAL/MOL
REMARK 927      BINDING AFFINITY PREDICTED BY RF-SCORE:    0.00 PKD
ROOT
HETATM    1  C   UNL     1      -8.761  10.644  68.394  1.00  0.00    -0.141 C  
HETATM    2  O   UNL     1      -9.465  10.465  69.388  1.00  0.00    -0.216 OA 
HETATM    3  C   UNL     1      -8.235  11.996  67.952  1.00  0.00    -0.153 C  
HETATM    4  O   UNL     1      -6.903  12.164  68.448  1.00  0.00    -0.063 OA 
HETATM    5  H   UNL     1      -6.574  13.011  68.171  1.00  0.00     0.000 HD 
ENDROOT
BRANCH   3   6
HETATM    6  C   UNL     1      -9.121  13.149  68.444  1.00  0.00    -0.134 C  
HETATM    7  O   UNL     1      -8.261  14.139  69.044  1.00  0.00    -0.307 OA 
HETATM    8  H   UNL     1      -8.810  14.853  69.348  1.00  0.00     0.000 HD 
BRANCH   6   9
HETATM    9  C   UNL     1     -10.022  13.806  67.359  1.00  0.00    -0.237 C  
HETATM   10  O   UNL     1      -9.307  13.878  66.114  1.00  0.00    -0.459 OA 
HETATM   11  H   UNL     1      -9.857  14.280  65.452  1.00  0.00     0.000 HD 
BRANCH   9  12
HETATM   12  C   UNL     1     -11.393  13.145  67.102  1.00  0.00    -0.316 C  
HETATM   13  H   UNL     1     -13.130  13.692  66.339  1.00  0.00     0.000 HD 
HETATM   14  O   UNL     1     -12.287  14.098  66.497  1.00  0.00    -0.460 OA 
BRANCH  12  15
HETATM   15  C   UNL     1     -12.032  12.504  68.347  1.00  0.00    -0.221 C  
HETATM   16  O   UNL     1     -12.209  11.092  68.176  1.00  0.00    -0.765 OA 
HETATM   17  H   UNL     1     -12.604  10.696  68.945  1.00  0.00     0.000 HD 
ENDBRANCH  12  15
ENDBRANCH   9  12
ENDBRANCH   6   9
ENDBRANCH   3   6
TORSDOF 4
ENDMDL
MODEL      200
REMARK 921   NORMALIZED FREE ENERGY PREDICTED BY IDOCK:   -2.54 KCAL/MOL
REMARK 922        TOTAL FREE ENERGY PREDICTED BY IDOCK:   -4.01 KCAL/MOL
REMARK 923 INTER-LIGAND FREE ENERGY PREDICTED BY IDOCK:   -3.20 KCAL/MOL
REMARK 924 INTRA-LIGAND FREE ENERGY PREDICTED BY IDOCK:   -0.81 KCAL/MOL
REMARK 927      BINDING AFFINITY PREDICTED BY RF-SCORE:    0.00 PKD
ROOT
HETATM    1  C   UNL     1     -10.628   6.296  68.420  1.00  0.00    -0.260 C  
HETATM    2  O   UNL     1      -9.718   6.754  69.112  1.00  0.00    -0.146 OA 
HETATM    3  C   UNL     1     -10.959   6.774  67.019  1.00  0.00    -0.368 C  
HETATM    4  O   UNL     1     -10.324   5.911  66.070  1.00  0.00    -0.424 OA 
HETATM    5  H   UNL     1     -10.532   6.210  65.192  1.00  0.00     0.000 HD 
ENDROOT
BRANCH   3   6
HETATM    6  C   UNL     1     -10.512   8.223  66.783  1.00  0.00    -0.243 C  
HETATM    7  O   UNL     1     -10.815   8.976  67.975  1.00  0.00    -0.441 OA 
HETATM    8  H   UNL     1     -10.538   9.873  67.828  1.00  0.00     0.000 HD 
BRANCH   6   9
HETATM    9  C   UNL     1      -9.015   8.404  66.399  1.00  0.00    -0.171 C  
HETATM   10  O   UNL     1      -8.806   7.962  65.047  1.00  0.00    -0.384 OA 
HETATM   11  H   UNL     1      -7.891   8.073  64.812  1.00  0.00     0.000 HD 
BRANCH   9  12
HETATM   12  C   UNL     1      -8.426   9.822  66.551  1.00  0.00    -0.124 C  
HETATM   13  H   UNL     1      -8.008  11.051  68.040  1.00  0.00     0.000 HD 
HETATM   14  O   UNL     1      -8.370  10.178  67.945  1.00  0.00    -0.116 OA 
BRANCH  12  15
HETATM   15  C   UNL     1      -9.157  10.903  65.736  1.00  0.00    -0.196 C  
HETATM   16  O   UNL     1      -8.679  10.952  64.385  1.00  0.00    -0.326 OA 
HETATM   17  H   UNL     1      -9.129  11.621  63.882  1.00  0.00     0.000 HD 
ENDBRANCH  12  15
ENDBRANCH   9  12
ENDBRANCH   6   9
ENDBRANCH   3   6
TORSDOF 4
ENDMDL
MODEL      201
REMARK 921   NORMALIZED FREE ENERGY PREDICTED BY IDOCK:   -2.54 KCAL/MOL
REMARK 922        TOTAL FREE ENERGY PREDICTED BY IDOCK:   -4.00 KCAL/MOL
REMARK 923 INTER-LIGAND FREE ENERGY PREDICTED BY IDOCK:   -3.61 KCAL/MOL
REMARK 924 INTRA-LIGAND FREE ENERGY PREDICTED BY IDOCK:   -0.39 KCAL/MOL
REMARK 927      BINDING AFFINITY PREDICTED BY RF-SCORE:    0.00 PKD
ROOT
HETATM    1  C   UNL     1     -11.033  12.013  66.922  1.00  0.00    -0.281 C  
HETATM    2  O   UNL     1     -10.859  11.812  68.125  1.00  0.00    -0.197 OA 
HETATM    3  C   UNL     1     -10.098  12.827  66.049  1.00  0.00    -0.268 C  
HETATM    4  O   UNL     1      -9.199  11.940  65.375  1.00  0.00    -0.413 OA 
HETATM    5  H   UNL     1      -8.613  12.450  64.828  1.00  0.00     0.000 HD 
ENDROOT
BRANCH   3   6
HETATM    6  C   UNL     1      -9.300  13.857  66.860  1.00  0.00    -0.258 C  
HETATM    7  O   UNL     1      -7.903  13.516  66.751  1.00  0.00    -0.351 OA 
HETATM    8  H   UNL     1      -7.409  14.154  67.254  1.00  0.00     0.000 HD 
BRANCH   6   9
HETATM    9  C   UNL     1      -9.524  15.342  66.453  1.00  0.00    -0.296 C  
HETATM   10  O   UNL     1     -10.503  15.414  65.404  1.00  0.00    -0.342 OA 
HETATM   11  H   UNL     1     -10.640  16.321  65.155  1.00  0.00     0.000 HD 
BRANCH   9  12
HETATM   12  C   UNL     1      -9.933  16.316  67.578  1.00  0.00    -0.248 C  
HETATM   13  H   UNL     1     -11.590  16.769  68.552  1.00  0.00     0.000 HD 
HETATM   14  O   UNL     1     -11.337  16.170  67.860  1.00  0.00    -0.294 OA 
BRANCH  12  15
HETATM   15  C   UNL     1      -9.577  17.787  67.304  1.00  0.00    -0.272 C  
HETATM   16  O   UNL     1     -10.488  18.381  66.369  1.00  0.00    -0.391 OA 
HETATM   17  H   UNL     1     -10.267  19.290  66.199  1.00  0.00     0.000 HD 
ENDBRANCH  12  15
ENDBRANCH   9  12
ENDBRANCH   6   9
ENDBRANCH   3   6
TORSDOF 4
ENDMDL
MODEL      202
REMARK 921   NORMALIZED FREE ENERGY PREDICTED BY IDOCK:   -2.53 KCAL/MOL
REMARK 922        TOTAL FREE ENERGY PREDICTED BY IDOCK:   -3.99 KCAL/MOL
REMARK 923 INTER-LIGAND FREE ENERGY PREDICTED BY IDOCK:   -3.78 KCAL/MOL
REMARK 924 INTRA-LIGAND FREE ENERGY PREDICTED BY IDOCK:   -0.21 KCAL/MOL
REMARK 927      BINDING AFFINITY PREDICTED BY RF-SCORE:    0.00 PKD
ROOT
HETATM    1  C   UNL     1      -7.566   9.620  68.429  1.00  0.00    -0.081 C  
HETATM    2  O   UNL     1      -7.689   8.687  69.224  1.00  0.00    -0.091 OA 
HETATM    3  C   UNL     1      -8.605  10.704  68.217  1.00  0.00    -0.128 C  
HETATM    4  O   UNL     1      -8.258  11.844  69.011  1.00  0.00    -0.355 OA 
HETATM    5  H   UNL     1      -8.909  12.523  68.878  1.00  0.00     0.000 HD 
ENDROOT
BRANCH   3   6
HETATM    6  C   UNL     1     -10.018  10.229  68.582  1.00  0.00    -0.173 C  
HETATM    7  O   UNL     1     -10.293  10.661  69.930  1.00  0.00    -0.420 OA 
HETATM    8  H   UNL     1     -11.168  10.366  70.156  1.00  0.00     0.000 HD 
BRANCH   6   9
HETATM    9  C   UNL     1     -11.148  10.704  67.624  1.00  0.00    -0.319 C  
HETATM   10  O   UNL     1     -12.362  10.900  68.368  1.00  0.00    -0.803 OA 
HETATM   11  H   UNL     1     -13.053  11.191  67.783  1.00  0.00     0.000 HD 
BRANCH   9  12
HETATM   12  C   UNL     1     -10.867  11.976  66.795  1.00  0.00    -0.266 C  
HETATM   13  H   UNL     1     -11.755  13.711  66.482  1.00  0.00     0.000 HD 
HETATM   14  O   UNL     1     -11.928  12.929  66.992  1.00  0.00    -0.381 OA 
BRANCH  12  15
HETATM   15  C   UNL     1     -10.630  11.716  65.297  1.00  0.00    -0.281 C  
HETATM   16  O   UNL     1     -10.094  12.875  64.644  1.00  0.00    -0.486 OA 
HETATM   17  H   UNL     1      -9.948  12.715  63.719  1.00  0.00     0.000 HD 
ENDBRANCH  12  15
ENDBRANCH   9  12
ENDBRANCH   6   9
ENDBRANCH   3   6
TORSDOF 4
ENDMDL
MODEL      203
REMARK 921   NORMALIZED FREE ENERGY PREDICTED BY IDOCK:   -2.53 KCAL/MOL
REMARK 922        TOTAL FREE ENERGY PREDICTED BY IDOCK:   -3.99 KCAL/MOL
REMARK 923 INTER-LIGAND FREE ENERGY PREDICTED BY IDOCK:   -3.89 KCAL/MOL
REMARK 924 INTRA-LIGAND FREE ENERGY PREDICTED BY IDOCK:   -0.10 KCAL/MOL
REMARK 927      BINDING AFFINITY PREDICTED BY RF-SCORE:    0.00 PKD
ROOT
HETATM    1  C   UNL     1     -12.092  13.736  64.509  1.00  0.00    -0.428 C  
HETATM    2  O   UNL     1     -11.396  12.797  64.898  1.00  0.00    -0.292 OA 
HETATM    3  C   UNL     1     -11.985  15.154  65.036  1.00  0.00    -0.111 C  
HETATM    4  O   UNL     1     -11.150  15.916  64.159  1.00  0.00    -0.905 OA 
HETATM    5  H   UNL     1     -11.083  16.804  64.490  1.00  0.00     0.000 HD 
ENDROOT
BRANCH   3   6
HETATM    6  C   UNL     1     -11.419  15.198  66.462  1.00  0.00    -0.171 C  
HETATM    7  O   UNL     1     -12.037  14.134  67.214  1.00  0.00    -0.453 OA 
HETATM    8  H   UNL     1     -11.686  14.162  68.097  1.00  0.00     0.000 HD 
BRANCH   6   9
HETATM    9  C   UNL     1      -9.870  15.101  66.566  1.00  0.00    -0.262 C  
HETATM   10  O   UNL     1      -9.350  14.414  65.416  1.00  0.00    -0.469 OA 
HETATM   11  H   UNL     1      -8.403  14.354  65.479  1.00  0.00     0.000 HD 
BRANCH   9  12
HETATM   12  C   UNL     1      -9.101  16.428  66.737  1.00  0.00    -0.234 C  
HETATM   13  H   UNL     1      -7.387  17.185  66.114  1.00  0.00     0.000 HD 
HETATM   14  O   UNL     1      -7.861  16.369  66.008  1.00  0.00    -0.158 OA 
BRANCH  12  15
HETATM   15  C   UNL     1      -8.860  16.837  68.201  1.00  0.00    -0.223 C  
HETATM   16  O   UNL     1      -8.087  15.851  68.899  1.00  0.00    -0.183 OA 
HETATM   17  H   UNL     1      -7.938  16.104  69.804  1.00  0.00     0.000 HD 
ENDBRANCH  12  15
ENDBRANCH   9  12
ENDBRANCH   6   9
ENDBRANCH   3   6
TORSDOF 4
ENDMDL
MODEL      204
REMARK 921   NORMALIZED FREE ENERGY PREDICTED BY IDOCK:   -2.52 KCAL/MOL
REMARK 922        TOTAL FREE ENERGY PREDICTED BY IDOCK:   -3.98 KCAL/MOL
REMARK 923 INTER-LIGAND FREE ENERGY PREDICTED BY IDOCK:   -3.72 KCAL/MOL
REMARK 924 INTRA-LIGAND FREE ENERGY PREDICTED BY IDOCK:   -0.26 KCAL/MOL
REMARK 927      BINDING AFFINITY PREDICTED BY RF-SCORE:    0.00 PKD
ROOT
HETATM    1  C   UNL     1      -8.651   9.643  66.853  1.00  0.00    -0.128 C  
HETATM    2  O   UNL     1      -8.266   9.858  68.004  1.00  0.00    -0.111 OA 
HETATM    3  C   UNL     1      -8.995  10.728  65.851  1.00  0.00    -0.184 C  
HETATM    4  O   UNL     1      -7.860  10.966  65.014  1.00  0.00    -0.356 OA 
HETATM    5  H   UNL     1      -8.075  11.646  64.386  1.00  0.00     0.000 HD 
ENDROOT
BRANCH   3   6
HETATM    6  C   UNL     1      -9.418  12.034  66.537  1.00  0.00    -0.228 C  
HETATM    7  O   UNL     1      -9.524  13.050  65.519  1.00  0.00    -0.473 OA 
HETATM    8  H   UNL     1      -9.786  13.859  65.944  1.00  0.00     0.000 HD 
BRANCH   6   9
HETATM    9  C   UNL     1     -10.737  11.957  67.359  1.00  0.00    -0.232 C  
HETATM   10  O   UNL     1     -10.457  12.211  68.747  1.00  0.00    -0.269 OA 
HETATM   11  H   UNL     1     -11.263  12.165  69.249  1.00  0.00     0.000 HD 
BRANCH   9  12
HETATM   12  C   UNL     1     -11.889  12.881  66.911  1.00  0.00    -0.379 C  
HETATM   13  H   UNL     1     -12.774  13.350  65.210  1.00  0.00     0.000 HD 
HETATM   14  O   UNL     1     -12.065  12.782  65.486  1.00  0.00    -0.423 OA 
BRANCH  12  15
HETATM   15  C   UNL     1     -11.730  14.349  67.345  1.00  0.00    -0.397 C  
HETATM   16  O   UNL     1     -12.206  14.554  68.682  1.00  0.00    -0.545 OA 
HETATM   17  H   UNL     1     -12.108  15.460  68.950  1.00  0.00     0.000 HD 
ENDBRANCH  12  15
ENDBRANCH   9  12
ENDBRANCH   6   9
ENDBRANCH   3   6
TORSDOF 4
ENDMDL
MODEL      205
REMARK 921   NORMALIZED FREE ENERGY PREDICTED BY IDOCK:   -2.48 KCAL/MOL
REMARK 922        TOTAL FREE ENERGY PREDICTED BY IDOCK:   -3.93 KCAL/MOL
REMARK 923 INTER-LIGAND FREE ENERGY PREDICTED BY IDOCK:   -3.37 KCAL/MOL
REMARK 924 INTRA-LIGAND FREE ENERGY PREDICTED BY IDOCK:   -0.56 KCAL/MOL
REMARK 927      BINDING AFFINITY PREDICTED BY RF-SCORE:    0.00 PKD
ROOT
HETATM    1  C   UNL     1     -11.113  10.365  67.698  1.00  0.00    -0.293 C  
HETATM    2  O   UNL     1     -12.037  11.042  68.151  1.00  0.00    -0.610 OA 
HETATM    3  C   UNL     1     -10.526   9.149  68.389  1.00  0.00    -0.199 C  
HETATM    4  O   UNL     1     -11.138   7.970  67.858  1.00  0.00    -0.470 OA 
HETATM    5  H   UNL     1     -10.770   7.208  68.291  1.00  0.00     0.000 HD 
ENDROOT
BRANCH   3   6
HETATM    6  C   UNL     1     -10.726   9.198  69.910  1.00  0.00    -0.231 C  
HETATM    7  O   UNL     1     -12.145   9.249  70.165  1.00  0.00    -0.459 OA 
HETATM    8  H   UNL     1     -12.269   9.279  71.107  1.00  0.00     0.000 HD 
BRANCH   6   9
HETATM    9  C   UNL     1     -10.079   8.027  70.704  1.00  0.00    -0.194 C  
HETATM   10  O   UNL     1     -10.939   6.876  70.656  1.00  0.00    -0.242 OA 
HETATM   11  H   UNL     1     -10.544   6.161  71.141  1.00  0.00     0.000 HD 
BRANCH   9  12
HETATM   12  C   UNL     1      -8.659   7.600  70.277  1.00  0.00    -0.143 C  
HETATM   13  H   UNL     1      -7.551   5.970  70.403  1.00  0.00     0.000 HD 
HETATM   14  O   UNL     1      -8.425   6.234  70.666  1.00  0.00    -0.131 OA 
BRANCH  12  15
HETATM   15  C   UNL     1      -7.538   8.519  70.793  1.00  0.00    -0.074 C  
HETATM   16  O   UNL     1      -7.930   9.200  71.992  1.00  0.00    -0.323 OA 
HETATM   17  H   UNL     1      -7.238   9.768  72.311  1.00  0.00     0.000 HD 
ENDBRANCH  12  15
ENDBRANCH   9  12
ENDBRANCH   6   9
ENDBRANCH   3   6
TORSDOF 4
ENDMDL
MODEL      206
REMARK 921   NORMALIZED FREE ENERGY PREDICTED BY IDOCK:   -2.48 KCAL/MOL
REMARK 922        TOTAL FREE ENERGY PREDICTED BY IDOCK:   -3.93 KCAL/MOL
REMARK 923 INTER-LIGAND FREE ENERGY PREDICTED BY IDOCK:   -3.20 KCAL/MOL
REMARK 924 INTRA-LIGAND FREE ENERGY PREDICTED BY IDOCK:   -0.73 KCAL/MOL
REMARK 927      BINDING AFFINITY PREDICTED BY RF-SCORE:    0.00 PKD
ROOT
HETATM    1  C   UNL     1     -12.586   8.305  72.015  1.00  0.00    -0.349 C  
HETATM    2  O   UNL     1     -12.485   7.083  71.894  1.00  0.00    -0.329 OA 
HETATM    3  C   UNL     1     -11.683   9.308  71.324  1.00  0.00    -0.346 C  
HETATM    4  O   UNL     1     -12.321   9.763  70.126  1.00  0.00    -0.481 OA 
HETATM    5  H   UNL     1     -11.755  10.392  69.694  1.00  0.00     0.000 HD 
ENDROOT
BRANCH   3   6
HETATM    6  C   UNL     1     -10.309   8.712  70.986  1.00  0.00    -0.217 C  
HETATM    7  O   UNL     1     -10.519   7.612  70.078  1.00  0.00    -0.218 OA 
HETATM    8  H   UNL     1      -9.669   7.243  69.869  1.00  0.00     0.000 HD 
BRANCH   6   9
HETATM    9  C   UNL     1      -9.278   9.713  70.389  1.00  0.00    -0.202 C  
HETATM   10  O   UNL     1      -8.066   9.677  71.161  1.00  0.00    -0.320 OA 
HETATM   11  H   UNL     1      -7.436  10.288  70.797  1.00  0.00     0.000 HD 
BRANCH   9  12
HETATM   12  C   UNL     1      -8.919   9.533  68.899  1.00  0.00    -0.141 C  
HETATM   13  H   UNL     1      -7.719   8.377  67.841  1.00  0.00     0.000 HD 
HETATM   14  O   UNL     1      -7.940   8.487  68.758  1.00  0.00    -0.114 OA 
BRANCH  12  15
HETATM   15  C   UNL     1      -8.454  10.822  68.199  1.00  0.00    -0.125 C  
HETATM   16  O   UNL     1      -8.484  11.943  69.093  1.00  0.00    -0.353 OA 
HETATM   17  H   UNL     1      -8.197  12.739  68.660  1.00  0.00     0.000 HD 
ENDBRANCH  12  15
ENDBRANCH   9  12
ENDBRANCH   6   9
ENDBRANCH   3   6
TORSDOF 4
ENDMDL
MODEL      207
REMARK 921   NORMALIZED FREE ENERGY PREDICTED BY IDOCK:   -2.48 KCAL/MOL
REMARK 922        TOTAL FREE ENERGY PREDICTED BY IDOCK:   -3.92 KCAL/MOL
REMARK 923 INTER-LIGAND FREE ENERGY PREDICTED BY IDOCK:   -3.37 KCAL/MOL
REMARK 924 INTRA-LIGAND FREE ENERGY PREDICTED BY IDOCK:   -0.56 KCAL/MOL
REMARK 927      BINDING AFFINITY PREDICTED BY RF-SCORE:    0.00 PKD
ROOT
HETATM    1  C   UNL     1      -9.006   5.270  67.311  1.00  0.00    -0.111 C  
HETATM    2  O   UNL     1      -9.782   4.329  67.486  1.00  0.00    -0.178 OA 
HETATM    3  C   UNL     1      -9.199   6.656  67.893  1.00  0.00    -0.111 C  
HETATM    4  O   UNL     1      -8.443   6.763  69.104  1.00  0.00    -0.126 OA 
HETATM    5  H   UNL     1      -8.564   7.632  69.469  1.00  0.00     0.000 HD 
ENDROOT
BRANCH   3   6
HETATM    6  C   UNL     1     -10.676   6.963  68.175  1.00  0.00    -0.205 C  
HETATM    7  O   UNL     1     -11.455   6.395  67.102  1.00  0.00    -0.720 OA 
HETATM    8  H   UNL     1     -12.370   6.585  67.276  1.00  0.00     0.000 HD 
BRANCH   6   9
HETATM    9  C   UNL     1     -11.210   6.464  69.548  1.00  0.00    -0.412 C  
HETATM   10  O   UNL     1     -10.437   5.334  69.987  1.00  0.00    -0.293 OA 
HETATM   11  H   UNL     1     -10.763   5.030  70.826  1.00  0.00     0.000 HD 
BRANCH   9  12
HETATM   12  C   UNL     1     -11.261   7.500  70.691  1.00  0.00    -0.268 C  
HETATM   13  H   UNL     1     -10.364   9.205  71.124  1.00  0.00     0.000 HD 
HETATM   14  O   UNL     1     -10.333   8.568  70.421  1.00  0.00    -0.194 OA 
BRANCH  12  15
HETATM   15  C   UNL     1     -11.028   6.910  72.093  1.00  0.00    -0.236 C  
HETATM   16  O   UNL     1     -12.119   6.071  72.495  1.00  0.00    -0.511 OA 
HETATM   17  H   UNL     1     -11.976   5.707  73.361  1.00  0.00     0.000 HD 
ENDBRANCH  12  15
ENDBRANCH   9  12
ENDBRANCH   6   9
ENDBRANCH   3   6
TORSDOF 4
ENDMDL
MODEL      208
REMARK 921   NORMALIZED FREE ENERGY PREDICTED BY IDOCK:   -2.47 KCAL/MOL
REMARK 922        TOTAL FREE ENERGY PREDICTED BY IDOCK:   -3.91 KCAL/MOL
REMARK 923 INTER-LIGAND FREE ENERGY PREDICTED BY IDOCK:   -3.47 KCAL/MOL
REMARK 924 INTRA-LIGAND FREE ENERGY PREDICTED BY IDOCK:   -0.44 KCAL/MOL
REMARK 927      BINDING AFFINITY PREDICTED BY RF-SCORE:    0.00 PKD
ROOT
HETATM    1  C   UNL     1     -10.172  11.509  67.554  1.00  0.00    -0.184 C  
HETATM    2  O   UNL     1      -9.185  11.732  68.256  1.00  0.00    -0.180 OA 
HETATM    3  C   UNL     1     -11.028  10.262  67.656  1.00  0.00    -0.294 C  
HETATM    4  O   UNL     1     -12.161  10.540  68.484  1.00  0.00    -0.806 OA 
HETATM    5  H   UNL     1     -12.698   9.758  68.548  1.00  0.00     0.000 HD 
ENDROOT
BRANCH   3   6
HETATM    6  C   UNL     1     -10.247   9.071  68.227  1.00  0.00    -0.204 C  
HETATM    7  O   UNL     1     -11.186   8.219  68.915  1.00  0.00    -0.381 OA 
HETATM    8  H   UNL     1     -10.702   7.481  69.269  1.00  0.00     0.000 HD 
BRANCH   6   9
HETATM    9  C   UNL     1      -9.435   8.246  67.187  1.00  0.00    -0.160 C  
HETATM   10  O   UNL     1      -8.179   8.895  66.930  1.00  0.00    -0.110 OA 
HETATM   11  H   UNL     1      -7.683   8.391  66.295  1.00  0.00     0.000 HD 
BRANCH   9  12
HETATM   12  C   UNL     1      -9.165   6.767  67.533  1.00  0.00    -0.122 C  
HETATM   13  H   UNL     1      -7.608   5.552  67.527  1.00  0.00     0.000 HD 
HETATM   14  O   UNL     1      -7.775   6.463  67.315  1.00  0.00    -0.097 OA 
BRANCH  12  15
HETATM   15  C   UNL     1     -10.070   5.767  66.793  1.00  0.00    -0.196 C  
HETATM   16  O   UNL     1     -11.384   6.303  66.587  1.00  0.00    -0.741 OA 
HETATM   17  H   UNL     1     -11.943   5.685  66.130  1.00  0.00     0.000 HD 
ENDBRANCH  12  15
ENDBRANCH   9  12
ENDBRANCH   6   9
ENDBRANCH   3   6
TORSDOF 4
ENDMDL
MODEL      209
REMARK 921   NORMALIZED FREE ENERGY PREDICTED BY IDOCK:   -2.46 KCAL/MOL
REMARK 922        TOTAL FREE ENERGY PREDICTED BY IDOCK:   -3.90 KCAL/MOL
REMARK 923 INTER-LIGAND FREE ENERGY PREDICTED BY IDOCK:   -3.36 KCAL/MOL
REMARK 924 INTRA-LIGAND FREE ENERGY PREDICTED BY IDOCK:   -0.54 KCAL/MOL
REMARK 927      BINDING AFFINITY PREDICTED BY RF-SCORE:    0.00 PKD
ROOT
HETATM    1  C   UNL     1     -10.460   6.505  66.930  1.00  0.00    -0.277 C  
HETATM    2  O   UNL     1     -10.129   5.380  67.308  1.00  0.00    -0.158 OA 
HETATM    3  C   UNL     1     -10.532   7.722  67.832  1.00  0.00    -0.201 C  
HETATM    4  O   UNL     1      -9.314   8.463  67.714  1.00  0.00    -0.134 OA 
HETATM    5  H   UNL     1      -9.359   9.226  68.279  1.00  0.00     0.000 HD 
ENDROOT
BRANCH   3   6
HETATM    6  C   UNL     1     -10.767   7.339  69.300  1.00  0.00    -0.198 C  
HETATM    7  O   UNL     1      -9.623   6.581  69.744  1.00  0.00    -0.152 OA 
HETATM    8  H   UNL     1      -9.769   6.345  70.653  1.00  0.00     0.000 HD 
BRANCH   6   9
HETATM    9  C   UNL     1     -11.030   8.531  70.264  1.00  0.00    -0.235 C  
HETATM   10  O   UNL     1     -11.551   9.648  69.524  1.00  0.00    -0.444 OA 
HETATM   11  H   UNL     1     -11.712  10.376  70.113  1.00  0.00     0.000 HD 
BRANCH   9  12
HETATM   12  C   UNL     1     -11.960   8.259  71.466  1.00  0.00    -0.296 C  
HETATM   13  H   UNL     1     -11.799   8.257  73.434  1.00  0.00     0.000 HD 
HETATM   14  O   UNL     1     -11.227   8.424  72.694  1.00  0.00    -0.369 OA 
BRANCH  12  15
HETATM   15  C   UNL     1     -12.666   6.893  71.425  1.00  0.00    -0.334 C  
HETATM   16  O   UNL     1     -13.938   6.941  72.085  1.00  0.00    -0.566 OA 
HETATM   17  H   UNL     1     -14.374   6.097  72.060  1.00  0.00     0.000 HD 
ENDBRANCH  12  15
ENDBRANCH   9  12
ENDBRANCH   6   9
ENDBRANCH   3   6
TORSDOF 4
ENDMDL
MODEL      210
REMARK 921   NORMALIZED FREE ENERGY PREDICTED BY IDOCK:   -2.46 KCAL/MOL
REMARK 922        TOTAL FREE ENERGY PREDICTED BY IDOCK:   -3.90 KCAL/MOL
REMARK 923 INTER-LIGAND FREE ENERGY PREDICTED BY IDOCK:   -3.64 KCAL/MOL
REMARK 924 INTRA-LIGAND FREE ENERGY PREDICTED BY IDOCK:   -0.26 KCAL/MOL
REMARK 927      BINDING AFFINITY PREDICTED BY RF-SCORE:    0.00 PKD
ROOT
HETATM    1  C   UNL     1      -9.118  18.357  68.739  1.00  0.00    -0.245 C  
HETATM    2  O   UNL     1     -10.299  18.396  68.390  1.00  0.00    -0.367 OA 
HETATM    3  C   UNL     1      -7.955  18.134  67.792  1.00  0.00    -0.237 C  
HETATM    4  O   UNL     1      -7.402  19.403  67.426  1.00  0.00    -0.223 OA 
HETATM    5  H   UNL     1      -6.673  19.263  66.834  1.00  0.00     0.000 HD 
ENDROOT
BRANCH   3   6
HETATM    6  C   UNL     1      -8.375  17.368  66.531  1.00  0.00    -0.273 C  
HETATM    7  O   UNL     1      -7.486  17.756  65.464  1.00  0.00    -0.491 OA 
HETATM    8  H   UNL     1      -7.746  17.281  64.683  1.00  0.00     0.000 HD 
BRANCH   6   9
HETATM    9  C   UNL     1      -8.403  15.819  66.671  1.00  0.00    -0.284 C  
HETATM   10  O   UNL     1      -7.546  15.416  67.753  1.00  0.00    -0.126 OA 
HETATM   11  H   UNL     1      -7.563  14.469  67.839  1.00  0.00     0.000 HD 
BRANCH   9  12
HETATM   12  C   UNL     1      -9.786  15.164  66.867  1.00  0.00    -0.237 C  
HETATM   13  H   UNL     1     -10.473  13.397  67.422  1.00  0.00     0.000 HD 
HETATM   14  O   UNL     1      -9.622  13.801  67.302  1.00  0.00    -0.224 OA 
BRANCH  12  15
HETATM   15  C   UNL     1     -10.704  15.241  65.635  1.00  0.00    -0.365 C  
HETATM   16  O   UNL     1     -10.115  14.592  64.501  1.00  0.00    -0.571 OA 
HETATM   17  H   UNL     1     -10.682  14.640  63.739  1.00  0.00     0.000 HD 
ENDBRANCH  12  15
ENDBRANCH   9  12
ENDBRANCH   6   9
ENDBRANCH   3   6
TORSDOF 4
ENDMDL
MODEL      211
REMARK 921   NORMALIZED FREE ENERGY PREDICTED BY IDOCK:   -2.46 KCAL/MOL
REMARK 922        TOTAL FREE ENERGY PREDICTED BY IDOCK:   -3.90 KCAL/MOL
REMARK 923 INTER-LIGAND FREE ENERGY PREDICTED BY IDOCK:   -3.41 KCAL/MOL
REMARK 924 INTRA-LIGAND FREE ENERGY PREDICTED BY IDOCK:   -0.48 KCAL/MOL
REMARK 927      BINDING AFFINITY PREDICTED BY RF-SCORE:    0.00 PKD
ROOT
HETATM    1  C   UNL     1      -8.299  19.560  67.634  1.00  0.00    -0.305 C  
HETATM    2  O   UNL     1      -8.232  18.985  68.721  1.00  0.00    -0.354 OA 
HETATM    3  C   UNL     1      -8.283  18.854  66.292  1.00  0.00    -0.268 C  
HETATM    4  O   UNL     1      -9.630  18.673  65.844  1.00  0.00    -0.479 OA 
HETATM    5  H   UNL     1      -9.619  18.231  65.003  1.00  0.00     0.000 HD 
ENDROOT
BRANCH   3   6
HETATM    6  C   UNL     1      -7.573  17.495  66.364  1.00  0.00    -0.294 C  
HETATM    7  O   UNL     1      -6.415  17.649  67.211  1.00  0.00    -0.148 OA 
HETATM    8  H   UNL     1      -5.975  16.807  67.255  1.00  0.00     0.000 HD 
BRANCH   6   9
HETATM    9  C   UNL     1      -8.450  16.311  66.862  1.00  0.00    -0.224 C  
HETATM   10  O   UNL     1      -8.909  15.542  65.737  1.00  0.00    -0.364 OA 
HETATM   11  H   UNL     1      -9.444  14.819  66.042  1.00  0.00     0.000 HD 
BRANCH   9  12
HETATM   12  C   UNL     1      -7.805  15.352  67.885  1.00  0.00    -0.133 C  
HETATM   13  H   UNL     1      -7.484  13.409  68.027  1.00  0.00     0.000 HD 
HETATM   14  O   UNL     1      -7.880  13.999  67.397  1.00  0.00    -0.177 OA 
BRANCH  12  15
HETATM   15  C   UNL     1      -8.385  15.458  69.306  1.00  0.00    -0.254 C  
HETATM   16  O   UNL     1      -9.546  14.631  69.461  1.00  0.00    -0.415 OA 
HETATM   17  H   UNL     1      -9.904  14.697  70.339  1.00  0.00     0.000 HD 
ENDBRANCH  12  15
ENDBRANCH   9  12
ENDBRANCH   6   9
ENDBRANCH   3   6
TORSDOF 4
ENDMDL
MODEL      212
REMARK 921   NORMALIZED FREE ENERGY PREDICTED BY IDOCK:   -2.46 KCAL/MOL
REMARK 922        TOTAL FREE ENERGY PREDICTED BY IDOCK:   -3.90 KCAL/MOL
REMARK 923 INTER-LIGAND FREE ENERGY PREDICTED BY IDOCK:   -3.06 KCAL/MOL
REMARK 924 INTRA-LIGAND FREE ENERGY PREDICTED BY IDOCK:   -0.84 KCAL/MOL
REMARK 927      BINDING AFFINITY PREDICTED BY RF-SCORE:    0.00 PKD
ROOT
HETATM    1  C   UNL     1      -6.643  15.057  67.690  1.00  0.00    -0.169 C  
HETATM    2  O   UNL     1      -6.371  15.482  68.815  1.00  0.00    -0.100 OA 
HETATM    3  C   UNL     1      -7.933  14.345  67.336  1.00  0.00    -0.201 C  
HETATM    4  O   UNL     1      -8.850  15.291  66.777  1.00  0.00    -0.232 OA 
HETATM    5  H   UNL     1      -9.659  14.845  66.554  1.00  0.00     0.000 HD 
ENDROOT
BRANCH   3   6
HETATM    6  C   UNL     1      -8.570  13.663  68.554  1.00  0.00    -0.103 C  
HETATM    7  O   UNL     1      -9.311  14.665  69.281  1.00  0.00    -0.381 OA 
HETATM    8  H   UNL     1      -9.705  14.242  70.036  1.00  0.00     0.000 HD 
BRANCH   6   9
HETATM    9  C   UNL     1      -9.485  12.446  68.234  1.00  0.00    -0.203 C  
HETATM   10  O   UNL     1      -9.132  11.339  69.081  1.00  0.00    -0.394 OA 
HETATM   11  H   UNL     1      -9.691  10.596  68.885  1.00  0.00     0.000 HD 
BRANCH   9  12
HETATM   12  C   UNL     1     -11.007  12.677  68.332  1.00  0.00    -0.257 C  
HETATM   13  H   UNL     1     -12.601  11.588  68.749  1.00  0.00     0.000 HD 
HETATM   14  O   UNL     1     -11.664  11.446  68.688  1.00  0.00    -0.295 OA 
BRANCH  12  15
HETATM   15  C   UNL     1     -11.638  13.292  67.071  1.00  0.00    -0.359 C  
HETATM   16  O   UNL     1     -11.653  14.724  67.138  1.00  0.00    -0.370 OA 
HETATM   17  H   UNL     1     -12.043  15.104  66.359  1.00  0.00     0.000 HD 
ENDBRANCH  12  15
ENDBRANCH   9  12
ENDBRANCH   6   9
ENDBRANCH   3   6
TORSDOF 4
ENDMDL
MODEL      213
REMARK 921   NORMALIZED FREE ENERGY PREDICTED BY IDOCK:   -2.44 KCAL/MOL
REMARK 922        TOTAL FREE ENERGY PREDICTED BY IDOCK:   -3.87 KCAL/MOL
REMARK 923 INTER-LIGAND FREE ENERGY PREDICTED BY IDOCK:   -3.12 KCAL/MOL
REMARK 924 INTRA-LIGAND FREE ENERGY PREDICTED BY IDOCK:   -0.75 KCAL/MOL
REMARK 927      BINDING AFFINITY PREDICTED BY RF-SCORE:    0.00 PKD
ROOT
HETATM    1  C   UNL     1      -8.347  10.740  67.403  1.00  0.00    -0.119 C  
HETATM    2  O   UNL     1      -8.281   9.712  66.728  1.00  0.00    -0.112 OA 
HETATM    3  C   UNL     1      -9.139  10.868  68.690  1.00  0.00    -0.175 C  
HETATM    4  O   UNL     1      -8.262  10.657  69.801  1.00  0.00    -0.375 OA 
HETATM    5  H   UNL     1      -8.758  10.737  70.607  1.00  0.00     0.000 HD 
ENDROOT
BRANCH   3   6
HETATM    6  C   UNL     1     -10.304   9.870  68.752  1.00  0.00    -0.203 C  
HETATM    7  O   UNL     1      -9.743   8.546  68.857  1.00  0.00    -0.164 OA 
HETATM    8  H   UNL     1     -10.465   7.928  68.896  1.00  0.00     0.000 HD 
BRANCH   6   9
HETATM    9  C   UNL     1     -11.328  10.113  69.897  1.00  0.00    -0.275 C  
HETATM   10  O   UNL     1     -12.611  10.442  69.338  1.00  0.00    -0.687 OA 
HETATM   11  H   UNL     1     -13.236  10.590  70.038  1.00  0.00     0.000 HD 
BRANCH   9  12
HETATM   12  C   UNL     1     -11.513   8.970  70.917  1.00  0.00    -0.291 C  
HETATM   13  H   UNL     1     -12.977   8.275  72.046  1.00  0.00     0.000 HD 
HETATM   14  O   UNL     1     -12.863   8.978  71.418  1.00  0.00    -0.320 OA 
BRANCH  12  15
HETATM   15  C   UNL     1     -10.497   8.980  72.072  1.00  0.00    -0.239 C  
HETATM   16  O   UNL     1      -9.303   8.266  71.725  1.00  0.00    -0.163 OA 
HETATM   17  H   UNL     1      -8.675   8.271  72.439  1.00  0.00     0.000 HD 
ENDBRANCH  12  15
ENDBRANCH   9  12
ENDBRANCH   6   9
ENDBRANCH   3   6
TORSDOF 4
ENDMDL
MODEL      214
REMARK 921   NORMALIZED FREE ENERGY PREDICTED BY IDOCK:   -2.43 KCAL/MOL
REMARK 922        TOTAL FREE ENERGY PREDICTED BY IDOCK:   -3.86 KCAL/MOL
REMARK 923 INTER-LIGAND FREE ENERGY PREDICTED BY IDOCK:   -3.20 KCAL/MOL
REMARK 924 INTRA-LIGAND FREE ENERGY PREDICTED BY IDOCK:   -0.66 KCAL/MOL
REMARK 927      BINDING AFFINITY PREDICTED BY RF-SCORE:    0.00 PKD
ROOT
HETATM    1  C   UNL     1     -11.019  15.176  67.472  1.00  0.00    -0.310 C  
HETATM    2  O   UNL     1     -10.544  15.601  66.418  1.00  0.00    -0.301 OA 
HETATM    3  C   UNL     1     -10.441  14.019  68.264  1.00  0.00    -0.244 C  
HETATM    4  O   UNL     1      -9.603  14.537  69.302  1.00  0.00    -0.393 OA 
HETATM    5  H   UNL     1      -9.241  13.812  69.798  1.00  0.00     0.000 HD 
ENDROOT
BRANCH   3   6
HETATM    6  C   UNL     1      -9.637  13.058  67.378  1.00  0.00    -0.211 C  
HETATM    7  O   UNL     1      -8.567  13.811  66.772  1.00  0.00    -0.406 OA 
HETATM    8  H   UNL     1      -8.069  13.215  66.223  1.00  0.00     0.000 HD 
BRANCH   6   9
HETATM    9  C   UNL     1      -9.069  11.803  68.101  1.00  0.00    -0.185 C  
HETATM   10  O   UNL     1      -9.984  11.380  69.127  1.00  0.00    -0.393 OA 
HETATM   11  H   UNL     1      -9.637  10.614  69.568  1.00  0.00     0.000 HD 
BRANCH   9  12
HETATM   12  C   UNL     1      -8.726  10.587  67.215  1.00  0.00    -0.126 C  
HETATM   13  H   UNL     1      -7.280  10.082  65.969  1.00  0.00     0.000 HD 
HETATM   14  O   UNL     1      -7.492  10.830  66.514  1.00  0.00    -0.126 OA 
BRANCH  12  15
HETATM   15  C   UNL     1      -9.842  10.179  66.238  1.00  0.00    -0.229 C  
HETATM   16  O   UNL     1     -10.384   8.893  66.571  1.00  0.00    -0.276 OA 
HETATM   17  H   UNL     1     -11.073   8.640  65.967  1.00  0.00     0.000 HD 
ENDBRANCH  12  15
ENDBRANCH   9  12
ENDBRANCH   6   9
ENDBRANCH   3   6
TORSDOF 4
ENDMDL
MODEL      215
REMARK 921   NORMALIZED FREE ENERGY PREDICTED BY IDOCK:   -2.42 KCAL/MOL
REMARK 922        TOTAL FREE ENERGY PREDICTED BY IDOCK:   -3.86 KCAL/MOL
REMARK 923 INTER-LIGAND FREE ENERGY PREDICTED BY IDOCK:   -3.19 KCAL/MOL
REMARK 924 INTRA-LIGAND FREE ENERGY PREDICTED BY IDOCK:   -0.67 KCAL/MOL
REMARK 927      BINDING AFFINITY PREDICTED BY RF-SCORE:    0.00 PKD
ROOT
HETATM    1  C   UNL     1     -14.378   8.206  71.828  1.00  0.00    -0.484 C  
HETATM    2  O   UNL     1     -14.376   7.001  71.568  1.00  0.00    -0.362 OA 
HETATM    3  C   UNL     1     -13.152   9.096  71.760  1.00  0.00    -0.392 C  
HETATM    4  O   UNL     1     -13.130   9.763  70.494  1.00  0.00    -0.570 OA 
HETATM    5  H   UNL     1     -12.362  10.321  70.452  1.00  0.00     0.000 HD 
ENDROOT
BRANCH   3   6
HETATM    6  C   UNL     1     -11.852   8.304  71.953  1.00  0.00    -0.324 C  
HETATM    7  O   UNL     1     -11.749   7.358  70.869  1.00  0.00    -0.291 OA 
HETATM    8  H   UNL     1     -10.944   6.868  70.989  1.00  0.00     0.000 HD 
BRANCH   6   9
HETATM    9  C   UNL     1     -10.557   9.162  72.043  1.00  0.00    -0.129 C  
HETATM   10  O   UNL     1      -9.868   8.870  73.270  1.00  0.00     0.545 OA 
HETATM   11  H   UNL     1      -9.077   9.394  73.325  1.00  0.00     0.000 HD 
BRANCH   9  12
HETATM   12  C   UNL     1      -9.558   9.035  70.874  1.00  0.00    -0.262 C  
HETATM   13  H   UNL     1      -7.599   8.891  70.668  1.00  0.00     0.000 HD 
HETATM   14  O   UNL     1      -8.215   8.969  71.388  1.00  0.00    -0.268 OA 
BRANCH  12  15
HETATM   15  C   UNL     1      -9.686  10.137  69.808  1.00  0.00    -0.196 C  
HETATM   16  O   UNL     1     -10.714  11.077  70.148  1.00  0.00    -0.454 OA 
HETATM   17  H   UNL     1     -10.794  11.757  69.489  1.00  0.00     0.000 HD 
ENDBRANCH  12  15
ENDBRANCH   9  12
ENDBRANCH   6   9
ENDBRANCH   3   6
TORSDOF 4
ENDMDL
MODEL      216
REMARK 921   NORMALIZED FREE ENERGY PREDICTED BY IDOCK:   -2.41 KCAL/MOL
REMARK 922        TOTAL FREE ENERGY PREDICTED BY IDOCK:   -3.85 KCAL/MOL
REMARK 923 INTER-LIGAND FREE ENERGY PREDICTED BY IDOCK:   -3.47 KCAL/MOL
REMARK 924 INTRA-LIGAND FREE ENERGY PREDICTED BY IDOCK:   -0.38 KCAL/MOL
REMARK 927      BINDING AFFINITY PREDICTED BY RF-SCORE:    0.00 PKD
ROOT
HETATM    1  C   UNL     1      -7.545  15.284  68.396  1.00  0.00    -0.116 C  
HETATM    2  O   UNL     1      -8.049  15.159  69.514  1.00  0.00    -0.220 OA 
HETATM    3  C   UNL     1      -8.325  15.222  67.097  1.00  0.00    -0.216 C  
HETATM    4  O   UNL     1      -8.640  16.554  66.679  1.00  0.00    -0.203 OA 
HETATM    5  H   UNL     1      -9.128  16.516  65.865  1.00  0.00     0.000 HD 
ENDROOT
BRANCH   3   6
HETATM    6  C   UNL     1      -9.615  14.403  67.236  1.00  0.00    -0.227 C  
HETATM    7  O   UNL     1     -10.691  15.179  66.670  1.00  0.00    -0.300 OA 
HETATM    8  H   UNL     1     -11.490  14.671  66.757  1.00  0.00     0.000 HD 
BRANCH   6   9
HETATM    9  C   UNL     1      -9.576  12.987  66.592  1.00  0.00    -0.259 C  
HETATM   10  O   UNL     1      -8.436  12.263  67.083  1.00  0.00    -0.172 OA 
HETATM   11  H   UNL     1      -8.413  11.398  66.690  1.00  0.00     0.000 HD 
BRANCH   9  12
HETATM   12  C   UNL     1     -10.833  12.109  66.771  1.00  0.00    -0.248 C  
HETATM   13  H   UNL     1     -12.619  11.973  65.942  1.00  0.00     0.000 HD 
HETATM   14  O   UNL     1     -11.846  12.513  65.831  1.00  0.00    -0.410 OA 
BRANCH  12  15
HETATM   15  C   UNL     1     -11.390  12.085  68.205  1.00  0.00    -0.286 C  
HETATM   16  O   UNL     1     -12.240  10.950  68.417  1.00  0.00    -0.813 OA 
HETATM   17  H   UNL     1     -12.585  10.935  69.303  1.00  0.00     0.000 HD 
ENDBRANCH  12  15
ENDBRANCH   9  12
ENDBRANCH   6   9
ENDBRANCH   3   6
TORSDOF 4
ENDMDL
MODEL      217
REMARK 921   NORMALIZED FREE ENERGY PREDICTED BY IDOCK:   -2.41 KCAL/MOL
REMARK 922        TOTAL FREE ENERGY PREDICTED BY IDOCK:   -3.85 KCAL/MOL
REMARK 923 INTER-LIGAND FREE ENERGY PREDICTED BY IDOCK:   -3.08 KCAL/MOL
REMARK 924 INTRA-LIGAND FREE ENERGY PREDICTED BY IDOCK:   -0.76 KCAL/MOL
REMARK 927      BINDING AFFINITY PREDICTED BY RF-SCORE:    0.00 PKD
ROOT
HETATM    1  C   UNL     1     -10.225   4.904  66.435  1.00  0.00    -0.278 C  
HETATM    2  O   UNL     1      -9.179   4.342  66.761  1.00  0.00    -0.126 OA 
HETATM    3  C   UNL     1     -10.795   6.121  67.139  1.00  0.00    -0.360 C  
HETATM    4  O   UNL     1     -10.396   7.299  66.432  1.00  0.00    -0.482 OA 
HETATM    5  H   UNL     1     -10.753   8.061  66.872  1.00  0.00     0.000 HD 
ENDROOT
BRANCH   3   6
HETATM    6  C   UNL     1     -10.334   6.211  68.600  1.00  0.00    -0.206 C  
HETATM    7  O   UNL     1      -8.937   6.572  68.599  1.00  0.00    -0.127 OA 
HETATM    8  H   UNL     1      -8.652   6.628  69.503  1.00  0.00     0.000 HD 
BRANCH   6   9
HETATM    9  C   UNL     1     -11.142   7.195  69.494  1.00  0.00    -0.141 C  
HETATM   10  O   UNL     1     -11.779   6.469  70.559  1.00  0.00    -0.380 OA 
HETATM   11  H   UNL     1     -12.273   7.070  71.105  1.00  0.00     0.000 HD 
BRANCH   9  12
HETATM   12  C   UNL     1     -10.363   8.380  70.101  1.00  0.00    -0.211 C  
HETATM   13  H   UNL     1      -9.095   8.653  71.590  1.00  0.00     0.000 HD 
HETATM   14  O   UNL     1      -9.575   7.924  71.216  1.00  0.00    -0.155 OA 
BRANCH  12  15
HETATM   15  C   UNL     1     -11.243   9.577  70.503  1.00  0.00    -0.287 C  
HETATM   16  O   UNL     1     -11.992   9.300  71.694  1.00  0.00    -0.330 OA 
HETATM   17  H   UNL     1     -12.536  10.040  71.942  1.00  0.00     0.000 HD 
ENDBRANCH  12  15
ENDBRANCH   9  12
ENDBRANCH   6   9
ENDBRANCH   3   6
TORSDOF 4
ENDMDL
MODEL      218
REMARK 921   NORMALIZED FREE ENERGY PREDICTED BY IDOCK:   -2.41 KCAL/MOL
REMARK 922        TOTAL FREE ENERGY PREDICTED BY IDOCK:   -3.84 KCAL/MOL
REMARK 923 INTER-LIGAND FREE ENERGY PREDICTED BY IDOCK:   -2.94 KCAL/MOL
REMARK 924 INTRA-LIGAND FREE ENERGY PREDICTED BY IDOCK:   -0.90 KCAL/MOL
REMARK 927      BINDING AFFINITY PREDICTED BY RF-SCORE:    0.00 PKD
ROOT
HETATM    1  C   UNL     1      -8.628   7.275  67.353  1.00  0.00    -0.121 C  
HETATM    2  O   UNL     1      -9.079   6.482  68.181  1.00  0.00    -0.117 OA 
HETATM    3  C   UNL     1      -8.925   8.762  67.346  1.00  0.00    -0.133 C  
HETATM    4  O   UNL     1      -7.864   9.453  68.012  1.00  0.00    -0.091 OA 
HETATM    5  H   UNL     1      -8.050  10.385  68.007  1.00  0.00     0.000 HD 
ENDROOT
BRANCH   3   6
HETATM    6  C   UNL     1     -10.263   9.087  68.025  1.00  0.00    -0.212 C  
HETATM    7  O   UNL     1     -11.197   8.045  67.675  1.00  0.00    -0.402 OA 
HETATM    8  H   UNL     1     -12.025   8.247  68.096  1.00  0.00     0.000 HD 
BRANCH   6   9
HETATM    9  C   UNL     1     -10.201   9.257  69.570  1.00  0.00    -0.207 C  
HETATM   10  O   UNL     1     -10.030  10.646  69.898  1.00  0.00    -0.430 OA 
HETATM   11  H   UNL     1      -9.992  10.750  70.842  1.00  0.00     0.000 HD 
BRANCH   9  12
HETATM   12  C   UNL     1     -11.393   8.703  70.378  1.00  0.00    -0.187 C  
HETATM   13  H   UNL     1     -12.490   9.296  71.909  1.00  0.00     0.000 HD 
HETATM   14  O   UNL     1     -11.756   9.637  71.412  1.00  0.00    -0.352 OA 
BRANCH  12  15
HETATM   15  C   UNL     1     -11.166   7.297  70.961  1.00  0.00    -0.266 C  
HETATM   16  O   UNL     1     -11.561   6.276  70.034  1.00  0.00    -0.425 OA 
HETATM   17  H   UNL     1     -11.421   5.408  70.395  1.00  0.00     0.000 HD 
ENDBRANCH  12  15
ENDBRANCH   9  12
ENDBRANCH   6   9
ENDBRANCH   3   6
TORSDOF 4
ENDMDL
MODEL      219
REMARK 921   NORMALIZED FREE ENERGY PREDICTED BY IDOCK:   -2.40 KCAL/MOL
REMARK 922        TOTAL FREE ENERGY PREDICTED BY IDOCK:   -3.83 KCAL/MOL
REMARK 923 INTER-LIGAND FREE ENERGY PREDICTED BY IDOCK:   -3.40 KCAL/MOL
REMARK 924 INTRA-LIGAND FREE ENERGY PREDICTED BY IDOCK:   -0.43 KCAL/MOL
REMARK 927      BINDING AFFINITY PREDICTED BY RF-SCORE:    0.00 PKD
ROOT
HETATM    1  C   UNL     1      -9.339   9.344  67.442  1.00  0.00    -0.126 C  
HETATM    2  O   UNL     1     -10.508   9.496  67.086  1.00  0.00    -0.254 OA 
HETATM    3  C   UNL     1      -8.883   9.318  68.888  1.00  0.00    -0.135 C  
HETATM    4  O   UNL     1      -8.786   7.958  69.323  1.00  0.00    -0.136 OA 
HETATM    5  H   UNL     1      -8.500   7.942  70.228  1.00  0.00     0.000 HD 
ENDROOT
BRANCH   3   6
HETATM    6  C   UNL     1      -9.838  10.090  69.808  1.00  0.00    -0.235 C  
HETATM    7  O   UNL     1     -10.157  11.339  69.161  1.00  0.00    -0.363 OA 
HETATM    8  H   UNL     1     -10.748  11.818  69.732  1.00  0.00     0.000 HD 
BRANCH   6   9
HETATM    9  C   UNL     1     -11.143   9.337  70.196  1.00  0.00    -0.230 C  
HETATM   10  O   UNL     1     -11.302   8.181  69.357  1.00  0.00    -0.426 OA 
HETATM   11  H   UNL     1     -12.099   7.721  69.594  1.00  0.00     0.000 HD 
BRANCH   9  12
HETATM   12  C   UNL     1     -11.280   8.900  71.670  1.00  0.00    -0.345 C  
HETATM   13  H   UNL     1     -10.513   7.498  72.829  1.00  0.00     0.000 HD 
HETATM   14  O   UNL     1     -10.429   7.767  71.922  1.00  0.00    -0.209 OA 
BRANCH  12  15
HETATM   15  C   UNL     1     -12.725   8.613  72.114  1.00  0.00    -0.392 C  
HETATM   16  O   UNL     1     -13.537   8.188  71.011  1.00  0.00    -0.546 OA 
HETATM   17  H   UNL     1     -14.429   8.011  71.285  1.00  0.00     0.000 HD 
ENDBRANCH  12  15
ENDBRANCH   9  12
ENDBRANCH   6   9
ENDBRANCH   3   6
TORSDOF 4
ENDMDL
MODEL      220
REMARK 921   NORMALIZED FREE ENERGY PREDICTED BY IDOCK:   -2.39 KCAL/MOL
REMARK 922        TOTAL FREE ENERGY PREDICTED BY IDOCK:   -3.82 KCAL/MOL
REMARK 923 INTER-LIGAND FREE ENERGY PREDICTED BY IDOCK:   -3.61 KCAL/MOL
REMARK 924 INTRA-LIGAND FREE ENERGY PREDICTED BY IDOCK:   -0.21 KCAL/MOL
REMARK 927      BINDING AFFINITY PREDICTED BY RF-SCORE:    0.00 PKD
ROOT
HETATM    1  C   UNL     1      -9.940  12.789  67.312  1.00  0.00    -0.219 C  
HETATM    2  O   UNL     1      -9.759  13.590  68.230  1.00  0.00    -0.218 OA 
HETATM    3  C   UNL     1     -10.913  11.627  67.371  1.00  0.00    -0.261 C  
HETATM    4  O   UNL     1     -12.145  12.018  66.756  1.00  0.00    -0.613 OA 
HETATM    5  H   UNL     1     -12.754  11.290  66.793  1.00  0.00     0.000 HD 
ENDROOT
BRANCH   3   6
HETATM    6  C   UNL     1     -11.175  11.167  68.812  1.00  0.00    -0.253 C  
HETATM    7  O   UNL     1     -12.509  10.620  68.863  1.00  0.00    -0.791 OA 
HETATM    8  H   UNL     1     -12.671  10.335  69.755  1.00  0.00     0.000 HD 
BRANCH   6   9
HETATM    9  C   UNL     1     -10.152  10.142  69.380  1.00  0.00    -0.231 C  
HETATM   10  O   UNL     1     -10.237  10.118  70.815  1.00  0.00    -0.349 OA 
HETATM   11  H   UNL     1      -9.612   9.492  71.162  1.00  0.00     0.000 HD 
BRANCH   9  12
HETATM   12  C   UNL     1     -10.255   8.695  68.855  1.00  0.00    -0.207 C  
HETATM   13  H   UNL     1     -10.483   6.896  69.639  1.00  0.00     0.000 HD 
HETATM   14  O   UNL     1     -10.419   7.787  69.961  1.00  0.00    -0.220 OA 
BRANCH  12  15
HETATM   15  C   UNL     1      -9.084   8.261  67.957  1.00  0.00    -0.137 C  
HETATM   16  O   UNL     1      -7.853   8.208  68.690  1.00  0.00    -0.109 OA 
HETATM   17  H   UNL     1      -7.129   7.940  68.135  1.00  0.00     0.000 HD 
ENDBRANCH  12  15
ENDBRANCH   9  12
ENDBRANCH   6   9
ENDBRANCH   3   6
TORSDOF 4
ENDMDL
MODEL      221
REMARK 921   NORMALIZED FREE ENERGY PREDICTED BY IDOCK:   -2.37 KCAL/MOL
REMARK 922        TOTAL FREE ENERGY PREDICTED BY IDOCK:   -3.79 KCAL/MOL
REMARK 923 INTER-LIGAND FREE ENERGY PREDICTED BY IDOCK:   -3.41 KCAL/MOL
REMARK 924 INTRA-LIGAND FREE ENERGY PREDICTED BY IDOCK:   -0.38 KCAL/MOL
REMARK 927      BINDING AFFINITY PREDICTED BY RF-SCORE:    0.00 PKD
ROOT
HETATM    1  C   UNL     1     -11.334   9.088  71.481  1.00  0.00    -0.346 C  
HETATM    2  O   UNL     1     -12.163   9.978  71.677  1.00  0.00    -0.385 OA 
HETATM    3  C   UNL     1     -10.333   9.089  70.343  1.00  0.00    -0.212 C  
HETATM    4  O   UNL     1      -9.087   9.611  70.817  1.00  0.00    -0.278 OA 
HETATM    5  H   UNL     1      -8.460   9.611  70.103  1.00  0.00     0.000 HD 
ENDROOT
BRANCH   3   6
HETATM    6  C   UNL     1     -10.821   9.918  69.146  1.00  0.00    -0.221 C  
HETATM    7  O   UNL     1     -10.301  11.255  69.297  1.00  0.00    -0.367 OA 
HETATM    8  H   UNL     1     -10.603  11.768  68.556  1.00  0.00     0.000 HD 
BRANCH   6   9
HETATM    9  C   UNL     1     -10.447   9.350  67.747  1.00  0.00    -0.254 C  
HETATM   10  O   UNL     1      -9.541  10.250  67.086  1.00  0.00    -0.162 OA 
HETATM   11  H   UNL     1      -9.313   9.903  66.231  1.00  0.00     0.000 HD 
BRANCH   9  12
HETATM   12  C   UNL     1      -9.845   7.930  67.712  1.00  0.00    -0.163 C  
HETATM   13  H   UNL     1      -8.254   7.063  66.926  1.00  0.00     0.000 HD 
HETATM   14  O   UNL     1      -8.625   7.937  66.948  1.00  0.00    -0.124 OA 
BRANCH  12  15
HETATM   15  C   UNL     1     -10.808   6.845  67.200  1.00  0.00    -0.377 C  
HETATM   16  O   UNL     1     -11.650   6.354  68.251  1.00  0.00    -0.524 OA 
HETATM   17  H   UNL     1     -12.245   5.684  67.935  1.00  0.00     0.000 HD 
ENDBRANCH  12  15
ENDBRANCH   9  12
ENDBRANCH   6   9
ENDBRANCH   3   6
TORSDOF 4
ENDMDL
MODEL      222
REMARK 921   NORMALIZED FREE ENERGY PREDICTED BY IDOCK:   -2.37 KCAL/MOL
REMARK 922        TOTAL FREE ENERGY PREDICTED BY IDOCK:   -3.79 KCAL/MOL
REMARK 923 INTER-LIGAND FREE ENERGY PREDICTED BY IDOCK:   -3.40 KCAL/MOL
REMARK 924 INTRA-LIGAND FREE ENERGY PREDICTED BY IDOCK:   -0.39 KCAL/MOL
REMARK 927      BINDING AFFINITY PREDICTED BY RF-SCORE:    0.00 PKD
ROOT
HETATM    1  C   UNL     1     -10.707  15.330  64.746  1.00  0.00    -0.317 C  
HETATM    2  O   UNL     1     -11.605  15.951  65.318  1.00  0.00     0.010 OA 
HETATM    3  C   UNL     1      -9.350  15.036  65.355  1.00  0.00     0.284 C  
HETATM    4  O   UNL     1      -9.368  13.722  65.923  1.00  0.00    -0.498 OA 
HETATM    5  H   UNL     1      -8.518  13.538  66.304  1.00  0.00     0.000 HD 
ENDROOT
BRANCH   3   6
HETATM    6  C   UNL     1      -8.967  16.061  66.432  1.00  0.00    -0.319 C  
HETATM    7  O   UNL     1      -9.427  17.355  65.990  1.00  0.00    -0.473 OA 
HETATM    8  H   UNL     1      -9.189  17.989  66.657  1.00  0.00     0.000 HD 
BRANCH   6   9
HETATM    9  C   UNL     1      -9.503  15.758  67.860  1.00  0.00    -0.212 C  
HETATM   10  O   UNL     1      -8.483  16.047  68.831  1.00  0.00    -0.204 OA 
HETATM   11  H   UNL     1      -8.811  15.862  69.704  1.00  0.00     0.000 HD 
BRANCH   9  12
HETATM   12  C   UNL     1     -10.802  16.477  68.281  1.00  0.00    -0.352 C  
HETATM   13  H   UNL     1     -11.279  18.132  69.247  1.00  0.00     0.000 HD 
HETATM   14  O   UNL     1     -10.480  17.689  68.988  1.00  0.00    -0.342 OA 
BRANCH  12  15
HETATM   15  C   UNL     1     -11.773  15.606  69.096  1.00  0.00    -0.390 C  
HETATM   16  O   UNL     1     -12.513  14.715  68.251  1.00  0.00    -0.589 OA 
HETATM   17  H   UNL     1     -13.114  14.177  68.755  1.00  0.00     0.000 HD 
ENDBRANCH  12  15
ENDBRANCH   9  12
ENDBRANCH   6   9
ENDBRANCH   3   6
TORSDOF 4
ENDMDL
MODEL      223
REMARK 921   NORMALIZED FREE ENERGY PREDICTED BY IDOCK:   -2.34 KCAL/MOL
REMARK 922        TOTAL FREE ENERGY PREDICTED BY IDOCK:   -3.76 KCAL/MOL
REMARK 923 INTER-LIGAND FREE ENERGY PREDICTED BY IDOCK:   -3.92 KCAL/MOL
REMARK 924 INTRA-LIGAND FREE ENERGY PREDICTED BY IDOCK:    0.16 KCAL/MOL
REMARK 927      BINDING AFFINITY PREDICTED BY RF-SCORE:    0.00 PKD
ROOT
HETATM    1  C   UNL     1      -9.103   8.892  68.017  1.00  0.00    -0.139 C  
HETATM    2  O   UNL     1      -8.035   9.468  67.804  1.00  0.00    -0.098 OA 
HETATM    3  C   UNL     1     -10.347   9.059  67.166  1.00  0.00    -0.272 C  
HETATM    4  O   UNL     1     -10.407   7.993  66.212  1.00  0.00    -0.461 OA 
HETATM    5  H   UNL     1     -11.186   8.098  65.680  1.00  0.00     0.000 HD 
ENDROOT
BRANCH   3   6
HETATM    6  C   UNL     1     -10.371  10.409  66.438  1.00  0.00    -0.213 C  
HETATM    7  O   UNL     1      -9.875  11.410  67.350  1.00  0.00    -0.180 OA 
HETATM    8  H   UNL     1      -9.891  12.246  66.899  1.00  0.00     0.000 HD 
BRANCH   6   9
HETATM    9  C   UNL     1      -9.576  10.459  65.101  1.00  0.00    -0.271 C  
HETATM   10  O   UNL     1      -9.056   9.154  64.799  1.00  0.00    -0.377 OA 
HETATM   11  H   UNL     1      -8.570   9.185  63.982  1.00  0.00     0.000 HD 
BRANCH   9  12
HETATM   12  C   UNL     1     -10.331  10.989  63.864  1.00  0.00    -0.372 C  
HETATM   13  H   UNL     1     -10.069  10.974  61.907  1.00  0.00     0.000 HD 
HETATM   14  O   UNL     1      -9.604  10.648  62.669  1.00  0.00    -0.292 OA 
BRANCH  12  15
HETATM   15  C   UNL     1     -10.643  12.495  63.908  1.00  0.00    -0.440 C  
HETATM   16  O   UNL     1     -11.742  12.827  63.049  1.00  0.00    -0.799 OA 
HETATM   17  H   UNL     1     -11.935  13.757  63.076  1.00  0.00     0.000 HD 
ENDBRANCH  12  15
ENDBRANCH   9  12
ENDBRANCH   6   9
ENDBRANCH   3   6
TORSDOF 4
ENDMDL
MODEL      224
REMARK 921   NORMALIZED FREE ENERGY PREDICTED BY IDOCK:   -2.34 KCAL/MOL
REMARK 922        TOTAL FREE ENERGY PREDICTED BY IDOCK:   -3.75 KCAL/MOL
REMARK 923 INTER-LIGAND FREE ENERGY PREDICTED BY IDOCK:   -3.46 KCAL/MOL
REMARK 924 INTRA-LIGAND FREE ENERGY PREDICTED BY IDOCK:   -0.30 KCAL/MOL
REMARK 927      BINDING AFFINITY PREDICTED BY RF-SCORE:    0.00 PKD
ROOT
HETATM    1  C   UNL     1     -11.190   9.200  71.622  1.00  0.00    -0.377 C  
HETATM    2  O   UNL     1     -12.158   9.958  71.702  1.00  0.00    -0.389 OA 
HETATM    3  C   UNL     1     -10.238   9.151  70.444  1.00  0.00    -0.222 C  
HETATM    4  O   UNL     1      -9.092   9.957  70.736  1.00  0.00    -0.340 OA 
HETATM    5  H   UNL     1      -8.495   9.926  69.997  1.00  0.00     0.000 HD 
ENDROOT
BRANCH   3   6
HETATM    6  C   UNL     1     -10.899   9.639  69.147  1.00  0.00    -0.190 C  
HETATM    7  O   UNL     1     -11.042  11.072  69.239  1.00  0.00    -0.218 OA 
HETATM    8  H   UNL     1     -11.451  11.374  68.436  1.00  0.00     0.000 HD 
BRANCH   6   9
HETATM    9  C   UNL     1     -10.155   9.257  67.836  1.00  0.00    -0.200 C  
HETATM   10  O   UNL     1     -10.846   8.179  67.183  1.00  0.00    -0.464 OA 
HETATM   11  H   UNL     1     -10.392   7.946  66.382  1.00  0.00     0.000 HD 
BRANCH   9  12
HETATM   12  C   UNL     1      -9.927  10.389  66.812  1.00  0.00    -0.206 C  
HETATM   13  H   UNL     1      -9.861  10.554  64.845  1.00  0.00     0.000 HD 
HETATM   14  O   UNL     1     -10.001   9.858  65.476  1.00  0.00    -0.304 OA 
BRANCH  12  15
HETATM   15  C   UNL     1      -8.623  11.178  67.018  1.00  0.00    -0.147 C  
HETATM   16  O   UNL     1      -8.545  12.302  66.131  1.00  0.00    -0.399 OA 
HETATM   17  H   UNL     1      -7.739  12.789  66.258  1.00  0.00     0.000 HD 
ENDBRANCH  12  15
ENDBRANCH   9  12
ENDBRANCH   6   9
ENDBRANCH   3   6
TORSDOF 4
ENDMDL
MODEL      225
REMARK 921   NORMALIZED FREE ENERGY PREDICTED BY IDOCK:   -2.33 KCAL/MOL
REMARK 922        TOTAL FREE ENERGY PREDICTED BY IDOCK:   -3.75 KCAL/MOL
REMARK 923 INTER-LIGAND FREE ENERGY PREDICTED BY IDOCK:   -4.06 KCAL/MOL
REMARK 924 INTRA-LIGAND FREE ENERGY PREDICTED BY IDOCK:    0.32 KCAL/MOL
REMARK 927      BINDING AFFINITY PREDICTED BY RF-SCORE:    0.00 PKD
ROOT
HETATM    1  C   UNL     1      -8.330  15.211  69.593  1.00  0.00    -0.065 C  
HETATM    2  O   UNL     1      -7.988  14.345  68.786  1.00  0.00    -0.138 OA 
HETATM    3  C   UNL     1      -9.526  16.125  69.409  1.00  0.00    -0.198 C  
HETATM    4  O   UNL     1     -10.645  15.575  70.113  1.00  0.00    -0.299 OA 
HETATM    5  H   UNL     1     -11.394  16.148  69.998  1.00  0.00     0.000 HD 
ENDROOT
BRANCH   3   6
HETATM    6  C   UNL     1      -9.885  16.314  67.930  1.00  0.00    -0.237 C  
HETATM    7  O   UNL     1      -8.796  17.018  67.299  1.00  0.00    -0.206 OA 
HETATM    8  H   UNL     1      -9.019  17.135  66.383  1.00  0.00     0.000 HD 
BRANCH   6   9
HETATM    9  C   UNL     1     -10.203  15.006  67.149  1.00  0.00    -0.249 C  
HETATM   10  O   UNL     1     -10.744  14.025  68.049  1.00  0.00    -0.239 OA 
HETATM   11  H   UNL     1     -10.938  13.226  67.572  1.00  0.00     0.000 HD 
BRANCH   9  12
HETATM   12  C   UNL     1     -11.147  15.135  65.934  1.00  0.00    -0.319 C  
HETATM   13  H   UNL     1     -11.875  13.931  64.549  1.00  0.00     0.000 HD 
HETATM   14  O   UNL     1     -11.295  13.853  65.296  1.00  0.00    -0.302 OA 
BRANCH  12  15
HETATM   15  C   UNL     1     -10.729  16.211  64.918  1.00  0.00    -0.274 C  
HETATM   16  O   UNL     1     -11.638  16.266  63.810  1.00  0.00    -1.539 OA 
HETATM   17  H   UNL     1     -11.379  16.931  63.182  1.00  0.00     0.000 HD 
ENDBRANCH  12  15
ENDBRANCH   9  12
ENDBRANCH   6   9
ENDBRANCH   3   6
TORSDOF 4
ENDMDL
MODEL      226
REMARK 921   NORMALIZED FREE ENERGY PREDICTED BY IDOCK:   -2.33 KCAL/MOL
REMARK 922        TOTAL FREE ENERGY PREDICTED BY IDOCK:   -3.74 KCAL/MOL
REMARK 923 INTER-LIGAND FREE ENERGY PREDICTED BY IDOCK:   -2.94 KCAL/MOL
REMARK 924 INTRA-LIGAND FREE ENERGY PREDICTED BY IDOCK:   -0.80 KCAL/MOL
REMARK 927      BINDING AFFINITY PREDICTED BY RF-SCORE:    0.00 PKD
ROOT
HETATM    1  C   UNL     1      -9.465   4.481  72.124  1.00  0.00    -0.140 C  
HETATM    2  O   UNL     1      -8.465   5.000  72.621  1.00  0.00    -0.115 OA 
HETATM    3  C   UNL     1     -10.270   5.089  70.992  1.00  0.00    -0.213 C  
HETATM    4  O   UNL     1      -9.834   4.522  69.753  1.00  0.00    -0.204 OA 
HETATM    5  H   UNL     1     -10.339   4.903  69.043  1.00  0.00     0.000 HD 
ENDROOT
BRANCH   3   6
HETATM    6  C   UNL     1     -10.131   6.617  70.941  1.00  0.00    -0.187 C  
HETATM    7  O   UNL     1      -8.737   6.924  70.731  1.00  0.00    -0.143 OA 
HETATM    8  H   UNL     1      -8.651   7.870  70.699  1.00  0.00     0.000 HD 
BRANCH   6   9
HETATM    9  C   UNL     1     -11.005   7.330  69.870  1.00  0.00    -0.243 C  
HETATM   10  O   UNL     1     -12.384   6.962  70.048  1.00  0.00    -0.619 OA 
HETATM   11  H   UNL     1     -12.918   7.397  69.393  1.00  0.00     0.000 HD 
BRANCH   9  12
HETATM   12  C   UNL     1     -10.910   8.869  69.807  1.00  0.00    -0.200 C  
HETATM   13  H   UNL     1      -9.632  10.200  69.105  1.00  0.00     0.000 HD 
HETATM   14  O   UNL     1      -9.692   9.253  69.143  1.00  0.00    -0.158 OA 
BRANCH  12  15
HETATM   15  C   UNL     1     -11.037   9.568  71.172  1.00  0.00    -0.379 C  
HETATM   16  O   UNL     1     -12.364   9.445  71.701  1.00  0.00    -0.337 OA 
HETATM   17  H   UNL     1     -12.443   9.877  72.544  1.00  0.00     0.000 HD 
ENDBRANCH  12  15
ENDBRANCH   9  12
ENDBRANCH   6   9
ENDBRANCH   3   6
TORSDOF 4
ENDMDL
MODEL      227
REMARK 921   NORMALIZED FREE ENERGY PREDICTED BY IDOCK:   -2.32 KCAL/MOL
REMARK 922        TOTAL FREE ENERGY PREDICTED BY IDOCK:   -3.74 KCAL/MOL
REMARK 923 INTER-LIGAND FREE ENERGY PREDICTED BY IDOCK:   -3.17 KCAL/MOL
REMARK 924 INTRA-LIGAND FREE ENERGY PREDICTED BY IDOCK:   -0.56 KCAL/MOL
REMARK 927      BINDING AFFINITY PREDICTED BY RF-SCORE:    0.00 PKD
ROOT
HETATM    1  C   UNL     1     -10.588   6.875  68.701  1.00  0.00    -0.223 C  
HETATM    2  O   UNL     1      -9.563   7.027  69.368  1.00  0.00    -0.155 OA 
HETATM    3  C   UNL     1     -10.786   7.424  67.302  1.00  0.00    -0.308 C  
HETATM    4  O   UNL     1     -10.479   6.399  66.351  1.00  0.00    -0.441 OA 
HETATM    5  H   UNL     1     -10.603   6.744  65.474  1.00  0.00     0.000 HD 
ENDROOT
BRANCH   3   6
HETATM    6  C   UNL     1      -9.912   8.657  67.037  1.00  0.00    -0.249 C  
HETATM    7  O   UNL     1      -9.426   8.568  65.681  1.00  0.00    -0.421 OA 
HETATM    8  H   UNL     1      -8.885   9.332  65.517  1.00  0.00     0.000 HD 
BRANCH   6   9
HETATM    9  C   UNL     1     -10.608  10.029  67.269  1.00  0.00    -0.257 C  
HETATM   10  O   UNL     1     -10.860  10.212  68.673  1.00  0.00    -0.217 OA 
HETATM   11  H   UNL     1     -11.285  11.050  68.815  1.00  0.00     0.000 HD 
BRANCH   9  12
HETATM   12  C   UNL     1      -9.877  11.278  66.733  1.00  0.00    -0.199 C  
HETATM   13  H   UNL     1      -9.370  11.997  64.965  1.00  0.00     0.000 HD 
HETATM   14  O   UNL     1      -9.820  11.229  65.295  1.00  0.00    -0.224 OA 
BRANCH  12  15
HETATM   15  C   UNL     1      -8.477  11.499  67.332  1.00  0.00    -0.147 C  
HETATM   16  O   UNL     1      -8.550  11.843  68.722  1.00  0.00    -0.333 OA 
HETATM   17  H   UNL     1      -7.685  11.980  69.091  1.00  0.00     0.000 HD 
ENDBRANCH  12  15
ENDBRANCH   9  12
ENDBRANCH   6   9
ENDBRANCH   3   6
TORSDOF 4
ENDMDL
MODEL      228
REMARK 921   NORMALIZED FREE ENERGY PREDICTED BY IDOCK:   -2.30 KCAL/MOL
REMARK 922        TOTAL FREE ENERGY PREDICTED BY IDOCK:   -3.71 KCAL/MOL
REMARK 923 INTER-LIGAND FREE ENERGY PREDICTED BY IDOCK:   -3.30 KCAL/MOL
REMARK 924 INTRA-LIGAND FREE ENERGY PREDICTED BY IDOCK:   -0.41 KCAL/MOL
REMARK 927      BINDING AFFINITY PREDICTED BY RF-SCORE:    0.00 PKD
ROOT
HETATM    1  C   UNL     1     -10.492  11.421  64.848  1.00  0.00    -0.305 C  
HETATM    2  O   UNL     1      -9.617  11.203  65.688  1.00  0.00    -0.206 OA 
HETATM    3  C   UNL     1     -11.291  12.707  64.761  1.00  0.00    -0.312 C  
HETATM    4  O   UNL     1     -10.687  13.567  63.789  1.00  0.00    -0.469 OA 
HETATM    5  H   UNL     1     -11.188  14.372  63.735  1.00  0.00     0.000 HD 
ENDROOT
BRANCH   3   6
HETATM    6  C   UNL     1     -11.372  13.428  66.113  1.00  0.00    -0.303 C  
HETATM    7  O   UNL     1     -11.484  12.423  67.142  1.00  0.00    -0.313 OA 
HETATM    8  H   UNL     1     -11.534  12.870  67.979  1.00  0.00     0.000 HD 
BRANCH   6   9
HETATM    9  C   UNL     1     -10.190  14.390  66.427  1.00  0.00    -0.289 C  
HETATM   10  O   UNL     1     -10.607  15.751  66.225  1.00  0.00    -0.306 OA 
HETATM   11  H   UNL     1      -9.885  16.338  66.417  1.00  0.00     0.000 HD 
BRANCH   9  12
HETATM   12  C   UNL     1      -9.553  14.272  67.828  1.00  0.00    -0.221 C  
HETATM   13  H   UNL     1      -9.039  15.506  69.280  1.00  0.00     0.000 HD 
HETATM   14  O   UNL     1      -9.432  15.579  68.419  1.00  0.00    -0.190 OA 
BRANCH  12  15
HETATM   15  C   UNL     1      -8.205  13.530  67.850  1.00  0.00    -0.168 C  
HETATM   16  O   UNL     1      -7.485  13.790  69.062  1.00  0.00    -0.218 OA 
HETATM   17  H   UNL     1      -6.651  13.333  69.076  1.00  0.00     0.000 HD 
ENDBRANCH  12  15
ENDBRANCH   9  12
ENDBRANCH   6   9
ENDBRANCH   3   6
TORSDOF 4
ENDMDL
MODEL      229
REMARK 921   NORMALIZED FREE ENERGY PREDICTED BY IDOCK:   -2.30 KCAL/MOL
REMARK 922        TOTAL FREE ENERGY PREDICTED BY IDOCK:   -3.71 KCAL/MOL
REMARK 923 INTER-LIGAND FREE ENERGY PREDICTED BY IDOCK:   -3.17 KCAL/MOL
REMARK 924 INTRA-LIGAND FREE ENERGY PREDICTED BY IDOCK:   -0.54 KCAL/MOL
REMARK 927      BINDING AFFINITY PREDICTED BY RF-SCORE:    0.00 PKD
ROOT
HETATM    1  C   UNL     1     -11.603   8.205  72.553  1.00  0.00    -0.404 C  
HETATM    2  O   UNL     1     -10.415   7.917  72.711  1.00  0.00    -0.292 OA 
HETATM    3  C   UNL     1     -12.229   8.538  71.213  1.00  0.00    -0.277 C  
HETATM    4  O   UNL     1     -12.843   7.361  70.678  1.00  0.00    -0.579 OA 
HETATM    5  H   UNL     1     -13.235   7.570  69.839  1.00  0.00     0.000 HD 
ENDROOT
BRANCH   3   6
HETATM    6  C   UNL     1     -11.200   9.086  70.215  1.00  0.00    -0.205 C  
HETATM    7  O   UNL     1     -10.156   9.734  70.971  1.00  0.00    -0.310 OA 
HETATM    8  H   UNL     1      -9.519  10.073  70.353  1.00  0.00     0.000 HD 
BRANCH   6   9
HETATM    9  C   UNL     1     -10.587   8.034  69.246  1.00  0.00    -0.184 C  
HETATM   10  O   UNL     1     -10.407   8.621  67.946  1.00  0.00    -0.215 OA 
HETATM   11  H   UNL     1     -10.033   7.979  67.354  1.00  0.00     0.000 HD 
BRANCH   9  12
HETATM   12  C   UNL     1      -9.259   7.381  69.681  1.00  0.00    -0.146 C  
HETATM   13  H   UNL     1      -7.403   7.316  69.010  1.00  0.00     0.000 HD 
HETATM   14  O   UNL     1      -8.221   7.719  68.742  1.00  0.00    -0.125 OA 
BRANCH  12  15
HETATM   15  C   UNL     1      -9.339   5.858  69.887  1.00  0.00    -0.150 C  
HETATM   16  O   UNL     1     -10.633   5.462  70.362  1.00  0.00    -0.280 OA 
HETATM   17  H   UNL     1     -10.683   4.521  70.490  1.00  0.00     0.000 HD 
ENDBRANCH  12  15
ENDBRANCH   9  12
ENDBRANCH   6   9
ENDBRANCH   3   6
TORSDOF 4
ENDMDL
MODEL      230
REMARK 921   NORMALIZED FREE ENERGY PREDICTED BY IDOCK:   -2.29 KCAL/MOL
REMARK 922        TOTAL FREE ENERGY PREDICTED BY IDOCK:   -3.69 KCAL/MOL
REMARK 923 INTER-LIGAND FREE ENERGY PREDICTED BY IDOCK:   -3.35 KCAL/MOL
REMARK 924 INTRA-LIGAND FREE ENERGY PREDICTED BY IDOCK:   -0.35 KCAL/MOL
REMARK 927      BINDING AFFINITY PREDICTED BY RF-SCORE:    0.00 PKD
ROOT
HETATM    1  C   UNL     1     -10.595   5.307  70.694  1.00  0.00    -0.193 C  
HETATM    2  O   UNL     1     -11.132   5.874  69.741  1.00  0.00    -0.377 OA 
HETATM    3  C   UNL     1     -10.615   5.828  72.118  1.00  0.00    -0.219 C  
HETATM    4  O   UNL     1     -11.676   5.188  72.834  1.00  0.00    -0.347 OA 
HETATM    5  H   UNL     1     -11.688   5.514  73.726  1.00  0.00     0.000 HD 
ENDROOT
BRANCH   3   6
HETATM    6  C   UNL     1     -10.796   7.351  72.173  1.00  0.00    -0.235 C  
HETATM    7  O   UNL     1     -11.980   7.625  72.950  1.00  0.00    -0.589 OA 
HETATM    8  H   UNL     1     -12.093   8.568  72.984  1.00  0.00     0.000 HD 
BRANCH   6   9
HETATM    9  C   UNL     1      -9.585   8.146  72.741  1.00  0.00    -0.283 C  
HETATM   10  O   UNL     1      -9.390   7.807  74.124  1.00  0.00    -0.406 OA 
HETATM   11  H   UNL     1      -8.651   8.293  74.471  1.00  0.00     0.000 HD 
BRANCH   9  12
HETATM   12  C   UNL     1      -8.241   7.986  72.000  1.00  0.00    -0.137 C  
HETATM   13  H   UNL     1      -6.416   8.722  72.162  1.00  0.00     0.000 HD 
HETATM   14  O   UNL     1      -7.243   8.819  72.618  1.00  0.00    -0.323 OA 
BRANCH  12  15
HETATM   15  C   UNL     1      -8.317   8.249  70.486  1.00  0.00    -0.124 C  
HETATM   16  O   UNL     1      -7.833   7.127  69.735  1.00  0.00    -0.112 OA 
HETATM   17  H   UNL     1      -7.880   7.290  68.799  1.00  0.00     0.000 HD 
ENDBRANCH  12  15
ENDBRANCH   9  12
ENDBRANCH   6   9
ENDBRANCH   3   6
TORSDOF 4
ENDMDL
MODEL      231
REMARK 921   NORMALIZED FREE ENERGY PREDICTED BY IDOCK:   -2.29 KCAL/MOL
REMARK 922        TOTAL FREE ENERGY PREDICTED BY IDOCK:   -3.69 KCAL/MOL
REMARK 923 INTER-LIGAND FREE ENERGY PREDICTED BY IDOCK:   -3.24 KCAL/MOL
REMARK 924 INTRA-LIGAND FREE ENERGY PREDICTED BY IDOCK:   -0.45 KCAL/MOL
REMARK 927      BINDING AFFINITY PREDICTED BY RF-SCORE:    0.00 PKD
ROOT
HETATM    1  C   UNL     1     -10.889  17.800  67.712  1.00  0.00    -0.228 C  
HETATM    2  O   UNL     1     -10.757  17.107  68.722  1.00  0.00    -0.337 OA 
HETATM    3  C   UNL     1      -9.849  17.915  66.614  1.00  0.00    -0.342 C  
HETATM    4  O   UNL     1     -10.181  17.004  65.561  1.00  0.00    -0.589 OA 
HETATM    5  H   UNL     1      -9.530  17.076  64.873  1.00  0.00     0.000 HD 
ENDROOT
BRANCH   3   6
HETATM    6  C   UNL     1      -8.433  17.622  67.127  1.00  0.00    -0.226 C  
HETATM    7  O   UNL     1      -8.426  17.850  68.552  1.00  0.00    -0.296 OA 
HETATM    8  H   UNL     1      -7.549  17.668  68.869  1.00  0.00     0.000 HD 
BRANCH   6   9
HETATM    9  C   UNL     1      -7.889  16.200  66.807  1.00  0.00    -0.261 C  
HETATM   10  O   UNL     1      -6.466  16.259  66.612  1.00  0.00    -0.273 OA 
HETATM   11  H   UNL     1      -6.134  15.390  66.416  1.00  0.00     0.000 HD 
BRANCH   9  12
HETATM   12  C   UNL     1      -8.201  15.091  67.833  1.00  0.00    -0.141 C  
HETATM   13  H   UNL     1      -7.183  13.701  68.799  1.00  0.00     0.000 HD 
HETATM   14  O   UNL     1      -6.992  14.384  68.168  1.00  0.00    -0.098 OA 
BRANCH  12  15
HETATM   15  C   UNL     1      -9.306  14.114  67.395  1.00  0.00    -0.215 C  
HETATM   16  O   UNL     1     -10.517  14.328  68.133  1.00  0.00    -0.237 OA 
HETATM   17  H   UNL     1     -11.199  13.724  67.863  1.00  0.00     0.000 HD 
ENDBRANCH  12  15
ENDBRANCH   9  12
ENDBRANCH   6   9
ENDBRANCH   3   6
TORSDOF 4
ENDMDL
MODEL      232
REMARK 921   NORMALIZED FREE ENERGY PREDICTED BY IDOCK:   -2.27 KCAL/MOL
REMARK 922        TOTAL FREE ENERGY PREDICTED BY IDOCK:   -3.67 KCAL/MOL
REMARK 923 INTER-LIGAND FREE ENERGY PREDICTED BY IDOCK:   -3.26 KCAL/MOL
REMARK 924 INTRA-LIGAND FREE ENERGY PREDICTED BY IDOCK:   -0.41 KCAL/MOL
REMARK 927      BINDING AFFINITY PREDICTED BY RF-SCORE:    0.00 PKD
ROOT
HETATM    1  C   UNL     1     -11.121   9.805  70.046  1.00  0.00    -0.267 C  
HETATM    2  O   UNL     1      -9.953  10.173  70.180  1.00  0.00    -0.229 OA 
HETATM    3  C   UNL     1     -11.908   9.060  71.107  1.00  0.00    -0.301 C  
HETATM    4  O   UNL     1     -12.695   9.998  71.848  1.00  0.00    -0.395 OA 
HETATM    5  H   UNL     1     -13.189   9.531  72.512  1.00  0.00     0.000 HD 
ENDROOT
BRANCH   3   6
HETATM    6  C   UNL     1     -10.995   8.280  72.062  1.00  0.00    -0.306 C  
HETATM    7  O   UNL     1     -11.765   7.952  73.237  1.00  0.00    -0.632 OA 
HETATM    8  H   UNL     1     -11.199   7.469  73.828  1.00  0.00     0.000 HD 
BRANCH   6   9
HETATM    9  C   UNL     1     -10.350   6.996  71.467  1.00  0.00    -0.203 C  
HETATM   10  O   UNL     1      -9.220   7.354  70.653  1.00  0.00    -0.156 OA 
HETATM   11  H   UNL     1      -8.826   6.569  70.289  1.00  0.00     0.000 HD 
BRANCH   9  12
HETATM   12  C   UNL     1      -9.910   5.910  72.471  1.00  0.00    -0.161 C  
HETATM   13  H   UNL     1      -8.300   4.810  72.784  1.00  0.00     0.000 HD 
HETATM   14  O   UNL     1      -8.571   5.479  72.166  1.00  0.00    -0.125 OA 
BRANCH  12  15
HETATM   15  C   UNL     1     -10.867   4.709  72.565  1.00  0.00    -0.107 C  
HETATM   16  O   UNL     1     -11.852   4.903  73.589  1.00  0.00    -0.372 OA 
HETATM   17  H   UNL     1     -12.443   4.161  73.647  1.00  0.00     0.000 HD 
ENDBRANCH  12  15
ENDBRANCH   9  12
ENDBRANCH   6   9
ENDBRANCH   3   6
TORSDOF 4
ENDMDL
MODEL      233
REMARK 921   NORMALIZED FREE ENERGY PREDICTED BY IDOCK:   -2.26 KCAL/MOL
REMARK 922        TOTAL FREE ENERGY PREDICTED BY IDOCK:   -3.65 KCAL/MOL
REMARK 923 INTER-LIGAND FREE ENERGY PREDICTED BY IDOCK:   -2.97 KCAL/MOL
REMARK 924 INTRA-LIGAND FREE ENERGY PREDICTED BY IDOCK:   -0.69 KCAL/MOL
REMARK 927      BINDING AFFINITY PREDICTED BY RF-SCORE:    0.00 PKD
ROOT
HETATM    1  C   UNL     1      -9.584   4.626  73.416  1.00  0.00    -0.121 C  
HETATM    2  O   UNL     1      -8.719   5.430  73.766  1.00  0.00    -0.116 OA 
HETATM    3  C   UNL     1     -10.268   4.643  72.063  1.00  0.00    -0.190 C  
HETATM    4  O   UNL     1      -9.607   3.718  71.194  1.00  0.00    -0.154 OA 
HETATM    5  H   UNL     1     -10.036   3.728  70.347  1.00  0.00     0.000 HD 
ENDROOT
BRANCH   3   6
HETATM    6  C   UNL     1     -10.265   6.042  71.432  1.00  0.00    -0.206 C  
HETATM    7  O   UNL     1      -8.951   6.272  70.883  1.00  0.00    -0.145 OA 
HETATM    8  H   UNL     1      -8.949   7.139  70.492  1.00  0.00     0.000 HD 
BRANCH   6   9
HETATM    9  C   UNL     1     -11.351   6.285  70.345  1.00  0.00    -0.372 C  
HETATM   10  O   UNL     1     -11.943   7.581  70.534  1.00  0.00    -0.488 OA 
HETATM   11  H   UNL     1     -12.607   7.730  69.870  1.00  0.00     0.000 HD 
BRANCH   9  12
HETATM   12  C   UNL     1     -10.903   6.157  68.874  1.00  0.00    -0.340 C  
HETATM   13  H   UNL     1      -9.832   4.889  67.804  1.00  0.00     0.000 HD 
HETATM   14  O   UNL     1     -10.108   4.968  68.710  1.00  0.00    -0.170 OA 
BRANCH  12  15
HETATM   15  C   UNL     1     -10.166   7.392  68.326  1.00  0.00    -0.183 C  
HETATM   16  O   UNL     1     -11.072   8.301  67.687  1.00  0.00    -0.483 OA 
HETATM   17  H   UNL     1     -10.616   9.063  67.348  1.00  0.00     0.000 HD 
ENDBRANCH  12  15
ENDBRANCH   9  12
ENDBRANCH   6   9
ENDBRANCH   3   6
TORSDOF 4
ENDMDL
MODEL      234
REMARK 921   NORMALIZED FREE ENERGY PREDICTED BY IDOCK:   -2.26 KCAL/MOL
REMARK 922        TOTAL FREE ENERGY PREDICTED BY IDOCK:   -3.65 KCAL/MOL
REMARK 923 INTER-LIGAND FREE ENERGY PREDICTED BY IDOCK:   -3.18 KCAL/MOL
REMARK 924 INTRA-LIGAND FREE ENERGY PREDICTED BY IDOCK:   -0.47 KCAL/MOL
REMARK 927      BINDING AFFINITY PREDICTED BY RF-SCORE:    0.00 PKD
ROOT
HETATM    1  C   UNL     1      -9.286  15.427  67.209  1.00  0.00    -0.207 C  
HETATM    2  O   UNL     1     -10.439  15.166  66.863  1.00  0.00    -0.271 OA 
HETATM    3  C   UNL     1      -8.808  16.808  67.615  1.00  0.00    -0.205 C  
HETATM    4  O   UNL     1      -8.849  16.914  69.042  1.00  0.00    -0.247 OA 
HETATM    5  H   UNL     1      -8.549  17.779  69.296  1.00  0.00     0.000 HD 
ENDROOT
BRANCH   3   6
HETATM    6  C   UNL     1      -9.659  17.920  66.987  1.00  0.00    -0.286 C  
HETATM    7  O   UNL     1     -10.926  17.946  67.675  1.00  0.00    -0.310 OA 
HETATM    8  H   UNL     1     -11.453  18.635  67.286  1.00  0.00     0.000 HD 
BRANCH   6   9
HETATM    9  C   UNL     1      -9.014  19.336  66.995  1.00  0.00    -0.292 C  
HETATM   10  O   UNL     1      -9.490  20.078  68.131  1.00  0.00    -0.332 OA 
HETATM   11  H   UNL     1      -9.096  20.943  68.136  1.00  0.00     0.000 HD 
BRANCH   9  12
HETATM   12  C   UNL     1      -7.472  19.397  66.978  1.00  0.00    -0.222 C  
HETATM   13  H   UNL     1      -6.051  20.134  68.133  1.00  0.00     0.000 HD 
HETATM   14  O   UNL     1      -6.999  20.096  68.144  1.00  0.00    -0.284 OA 
BRANCH  12  15
HETATM   15  C   UNL     1      -6.876  20.001  65.694  1.00  0.00    -0.288 C  
HETATM   16  O   UNL     1      -5.994  21.092  65.990  1.00  0.00    -0.235 OA 
HETATM   17  H   UNL     1      -5.626  21.465  65.197  1.00  0.00     0.000 HD 
ENDBRANCH  12  15
ENDBRANCH   9  12
ENDBRANCH   6   9
ENDBRANCH   3   6
TORSDOF 4
ENDMDL
MODEL      235
REMARK 921   NORMALIZED FREE ENERGY PREDICTED BY IDOCK:   -2.26 KCAL/MOL
REMARK 922        TOTAL FREE ENERGY PREDICTED BY IDOCK:   -3.65 KCAL/MOL
REMARK 923 INTER-LIGAND FREE ENERGY PREDICTED BY IDOCK:   -3.23 KCAL/MOL
REMARK 924 INTRA-LIGAND FREE ENERGY PREDICTED BY IDOCK:   -0.43 KCAL/MOL
REMARK 927      BINDING AFFINITY PREDICTED BY RF-SCORE:    0.00 PKD
ROOT
HETATM    1  C   UNL     1      -9.289   7.861  72.169  1.00  0.00    -0.169 C  
HETATM    2  O   UNL     1      -9.017   6.992  71.340  1.00  0.00    -0.139 OA 
HETATM    3  C   UNL     1     -10.671   8.455  72.362  1.00  0.00    -0.335 C  
HETATM    4  O   UNL     1     -11.327   7.772  73.435  1.00  0.00    -0.586 OA 
HETATM    5  H   UNL     1     -12.193   8.144  73.556  1.00  0.00     0.000 HD 
ENDROOT
BRANCH   3   6
HETATM    6  C   UNL     1     -11.523   8.361  71.089  1.00  0.00    -0.274 C  
HETATM    7  O   UNL     1     -12.743   7.670  71.426  1.00  0.00    -0.333 OA 
HETATM    8  H   UNL     1     -13.270   7.611  70.638  1.00  0.00     0.000 HD 
BRANCH   6   9
HETATM    9  C   UNL     1     -11.846   9.719  70.402  1.00  0.00    -0.193 C  
HETATM   10  O   UNL     1     -12.368  10.640  71.375  1.00  0.00    -0.362 OA 
HETATM   11  H   UNL     1     -12.566  11.470  70.955  1.00  0.00     0.000 HD 
BRANCH   9  12
HETATM   12  C   UNL     1     -10.692  10.405  69.642  1.00  0.00    -0.265 C  
HETATM   13  H   UNL     1     -10.346  12.184  68.858  1.00  0.00     0.000 HD 
HETATM   14  O   UNL     1     -11.057  11.761  69.326  1.00  0.00    -0.242 OA 
BRANCH  12  15
HETATM   15  C   UNL     1     -10.226   9.652  68.384  1.00  0.00    -0.188 C  
HETATM   16  O   UNL     1      -9.194   8.705  68.692  1.00  0.00    -0.139 OA 
HETATM   17  H   UNL     1      -8.906   8.241  67.914  1.00  0.00     0.000 HD 
ENDBRANCH  12  15
ENDBRANCH   9  12
ENDBRANCH   6   9
ENDBRANCH   3   6
TORSDOF 4
ENDMDL
MODEL      236
REMARK 921   NORMALIZED FREE ENERGY PREDICTED BY IDOCK:   -2.25 KCAL/MOL
REMARK 922        TOTAL FREE ENERGY PREDICTED BY IDOCK:   -3.65 KCAL/MOL
REMARK 923 INTER-LIGAND FREE ENERGY PREDICTED BY IDOCK:   -2.96 KCAL/MOL
REMARK 924 INTRA-LIGAND FREE ENERGY PREDICTED BY IDOCK:   -0.69 KCAL/MOL
REMARK 927      BINDING AFFINITY PREDICTED BY RF-SCORE:    0.00 PKD
ROOT
HETATM    1  C   UNL     1      -8.165  10.293  69.517  1.00  0.00    -0.155 C  
HETATM    2  O   UNL     1      -8.933  10.856  68.736  1.00  0.00    -0.162 OA 
HETATM    3  C   UNL     1      -8.057   8.788  69.673  1.00  0.00    -0.101 C  
HETATM    4  O   UNL     1      -6.970   8.313  68.871  1.00  0.00    -0.063 OA 
HETATM    5  H   UNL     1      -6.903   7.371  68.969  1.00  0.00     0.000 HD 
ENDROOT
BRANCH   3   6
HETATM    6  C   UNL     1      -9.352   8.072  69.269  1.00  0.00    -0.151 C  
HETATM    7  O   UNL     1      -9.059   6.664  69.156  1.00  0.00    -0.137 OA 
HETATM    8  H   UNL     1      -9.861   6.220  68.906  1.00  0.00     0.000 HD 
BRANCH   6   9
HETATM    9  C   UNL     1     -10.561   8.294  70.223  1.00  0.00    -0.227 C  
HETATM   10  O   UNL     1     -11.474   9.235  69.634  1.00  0.00    -0.438 OA 
HETATM   11  H   UNL     1     -12.213   9.371  70.217  1.00  0.00     0.000 HD 
BRANCH   9  12
HETATM   12  C   UNL     1     -11.352   7.038  70.646  1.00  0.00    -0.307 C  
HETATM   13  H   UNL     1     -12.250   5.533  69.737  1.00  0.00     0.000 HD 
HETATM   14  O   UNL     1     -11.764   6.306  69.476  1.00  0.00    -0.360 OA 
BRANCH  12  15
HETATM   15  C   UNL     1     -12.551   7.324  71.567  1.00  0.00    -0.379 C  
HETATM   16  O   UNL     1     -13.686   7.784  70.821  1.00  0.00    -0.474 OA 
HETATM   17  H   UNL     1     -14.426   7.961  71.390  1.00  0.00     0.000 HD 
ENDBRANCH  12  15
ENDBRANCH   9  12
ENDBRANCH   6   9
ENDBRANCH   3   6
TORSDOF 4
ENDMDL
MODEL      237
REMARK 921   NORMALIZED FREE ENERGY PREDICTED BY IDOCK:   -2.25 KCAL/MOL
REMARK 922        TOTAL FREE ENERGY PREDICTED BY IDOCK:   -3.64 KCAL/MOL
REMARK 923 INTER-LIGAND FREE ENERGY PREDICTED BY IDOCK:   -3.17 KCAL/MOL
REMARK 924 INTRA-LIGAND FREE ENERGY PREDICTED BY IDOCK:   -0.47 KCAL/MOL
REMARK 927      BINDING AFFINITY PREDICTED BY RF-SCORE:    0.00 PKD
ROOT
HETATM    1  C   UNL     1      -8.760  10.766  66.411  1.00  0.00    -0.158 C  
HETATM    2  O   UNL     1      -8.459  11.455  67.388  1.00  0.00    -0.136 OA 
HETATM    3  C   UNL     1      -9.874  11.102  65.440  1.00  0.00    -0.242 C  
HETATM    4  O   UNL     1      -9.318  11.777  64.307  1.00  0.00    -0.431 OA 
HETATM    5  H   UNL     1     -10.017  11.987  63.698  1.00  0.00     0.000 HD 
ENDROOT
BRANCH   3   6
HETATM    6  C   UNL     1     -10.958  11.977  66.085  1.00  0.00    -0.302 C  
HETATM    7  O   UNL     1     -11.067  11.592  67.471  1.00  0.00    -0.237 OA 
HETATM    8  H   UNL     1     -11.738  12.134  67.870  1.00  0.00     0.000 HD 
BRANCH   6   9
HETATM    9  C   UNL     1     -10.729  13.512  65.971  1.00  0.00    -0.279 C  
HETATM   10  O   UNL     1     -11.647  14.068  65.014  1.00  0.00    -0.324 OA 
HETATM   11  H   UNL     1     -11.508  15.005  64.944  1.00  0.00     0.000 HD 
BRANCH   9  12
HETATM   12  C   UNL     1     -10.826  14.327  67.277  1.00  0.00    -0.284 C  
HETATM   13  H   UNL     1     -12.256  14.891  68.516  1.00  0.00     0.000 HD 
HETATM   14  O   UNL     1     -12.197  14.389  67.712  1.00  0.00    -0.314 OA 
BRANCH  12  15
HETATM   15  C   UNL     1     -10.210  15.735  67.193  1.00  0.00    -0.279 C  
HETATM   16  O   UNL     1      -9.085  15.868  68.071  1.00  0.00    -0.182 OA 
HETATM   17  H   UNL     1      -8.705  16.738  68.019  1.00  0.00     0.000 HD 
ENDBRANCH  12  15
ENDBRANCH   9  12
ENDBRANCH   6   9
ENDBRANCH   3   6
TORSDOF 4
ENDMDL
MODEL      238
REMARK 921   NORMALIZED FREE ENERGY PREDICTED BY IDOCK:   -2.23 KCAL/MOL
REMARK 922        TOTAL FREE ENERGY PREDICTED BY IDOCK:   -3.62 KCAL/MOL
REMARK 923 INTER-LIGAND FREE ENERGY PREDICTED BY IDOCK:   -3.15 KCAL/MOL
REMARK 924 INTRA-LIGAND FREE ENERGY PREDICTED BY IDOCK:   -0.46 KCAL/MOL
REMARK 927      BINDING AFFINITY PREDICTED BY RF-SCORE:    0.00 PKD
ROOT
HETATM    1  C   UNL     1      -7.216  14.474  68.358  1.00  0.00    -0.116 C  
HETATM    2  O   UNL     1      -6.667  14.438  67.255  1.00  0.00    -0.269 OA 
HETATM    3  C   UNL     1      -7.912  15.696  68.925  1.00  0.00    -0.193 C  
HETATM    4  O   UNL     1      -9.315  15.599  68.661  1.00  0.00    -0.186 OA 
HETATM    5  H   UNL     1      -9.751  16.365  69.017  1.00  0.00     0.000 HD 
ENDROOT
BRANCH   3   6
HETATM    6  C   UNL     1      -7.361  17.001  68.334  1.00  0.00    -0.213 C  
HETATM    7  O   UNL     1      -5.934  16.847  68.185  1.00  0.00    -0.118 OA 
HETATM    8  H   UNL     1      -5.593  17.656  67.819  1.00  0.00     0.000 HD 
BRANCH   6   9
HETATM    9  C   UNL     1      -7.998  17.442  66.985  1.00  0.00    -0.215 C  
HETATM   10  O   UNL     1      -8.422  16.282  66.249  1.00  0.00    -0.305 OA 
HETATM   11  H   UNL     1      -8.811  16.552  65.424  1.00  0.00     0.000 HD 
BRANCH   9  12
HETATM   12  C   UNL     1      -9.177  18.433  67.066  1.00  0.00    -0.274 C  
HETATM   13  H   UNL     1      -9.751  20.063  66.110  1.00  0.00     0.000 HD 
HETATM   14  O   UNL     1      -9.025  19.452  66.060  1.00  0.00    -0.413 OA 
BRANCH  12  15
HETATM   15  C   UNL     1      -9.386  19.059  68.456  1.00  0.00    -0.375 C  
HETATM   16  O   UNL     1     -10.406  18.371  69.192  1.00  0.00    -0.477 OA 
HETATM   17  H   UNL     1     -10.536  18.758  70.050  1.00  0.00     0.000 HD 
ENDBRANCH  12  15
ENDBRANCH   9  12
ENDBRANCH   6   9
ENDBRANCH   3   6
TORSDOF 4
ENDMDL
MODEL      239
REMARK 921   NORMALIZED FREE ENERGY PREDICTED BY IDOCK:   -2.22 KCAL/MOL
REMARK 922        TOTAL FREE ENERGY PREDICTED BY IDOCK:   -3.61 KCAL/MOL
REMARK 923 INTER-LIGAND FREE ENERGY PREDICTED BY IDOCK:   -2.74 KCAL/MOL
REMARK 924 INTRA-LIGAND FREE ENERGY PREDICTED BY IDOCK:   -0.87 KCAL/MOL
REMARK 927      BINDING AFFINITY PREDICTED BY RF-SCORE:    0.00 PKD
ROOT
HETATM    1  C   UNL     1      -9.786   4.502  68.956  1.00  0.00    -0.165 C  
HETATM    2  O   UNL     1      -9.654   3.810  69.967  1.00  0.00    -0.186 OA 
HETATM    3  C   UNL     1      -9.489   5.988  68.894  1.00  0.00    -0.126 C  
HETATM    4  O   UNL     1      -8.166   6.178  68.383  1.00  0.00    -0.113 OA 
HETATM    5  H   UNL     1      -7.981   7.109  68.344  1.00  0.00     0.000 HD 
ENDROOT
BRANCH   3   6
HETATM    6  C   UNL     1      -9.617   6.660  70.268  1.00  0.00    -0.161 C  
HETATM    7  O   UNL     1      -8.659   6.040  71.151  1.00  0.00    -0.127 OA 
HETATM    8  H   UNL     1      -8.739   6.456  72.002  1.00  0.00     0.000 HD 
BRANCH   6   9
HETATM    9  C   UNL     1      -9.432   8.204  70.274  1.00  0.00    -0.170 C  
HETATM   10  O   UNL     1     -10.037   8.768  69.098  1.00  0.00    -0.187 OA 
HETATM   11  H   UNL     1      -9.924   9.712  69.101  1.00  0.00     0.000 HD 
BRANCH   9  12
HETATM   12  C   UNL     1      -9.957   8.962  71.511  1.00  0.00    -0.320 C  
HETATM   13  H   UNL     1      -9.387   9.224  73.383  1.00  0.00     0.000 HD 
HETATM   14  O   UNL     1      -9.064   8.758  72.622  1.00  0.00    -0.354 OA 
BRANCH  12  15
HETATM   15  C   UNL     1     -11.405   8.617  71.898  1.00  0.00    -0.347 C  
HETATM   16  O   UNL     1     -12.315   8.900  70.827  1.00  0.00    -0.485 OA 
HETATM   17  H   UNL     1     -13.210   8.687  71.066  1.00  0.00     0.000 HD 
ENDBRANCH  12  15
ENDBRANCH   9  12
ENDBRANCH   6   9
ENDBRANCH   3   6
TORSDOF 4
ENDMDL
MODEL      240
REMARK 921   NORMALIZED FREE ENERGY PREDICTED BY IDOCK:   -2.21 KCAL/MOL
REMARK 922        TOTAL FREE ENERGY PREDICTED BY IDOCK:   -3.60 KCAL/MOL
REMARK 923 INTER-LIGAND FREE ENERGY PREDICTED BY IDOCK:   -3.14 KCAL/MOL
REMARK 924 INTRA-LIGAND FREE ENERGY PREDICTED BY IDOCK:   -0.46 KCAL/MOL
REMARK 927      BINDING AFFINITY PREDICTED BY RF-SCORE:    0.00 PKD
ROOT
HETATM    1  C   UNL     1      -7.846  12.964  67.990  1.00  0.00    -0.149 C  
HETATM    2  O   UNL     1      -7.404  12.611  69.084  1.00  0.00    -0.009 OA 
HETATM    3  C   UNL     1      -8.187  14.397  67.629  1.00  0.00    -0.176 C  
HETATM    4  O   UNL     1      -7.079  14.980  66.936  1.00  0.00    -0.312 OA 
HETATM    5  H   UNL     1      -7.293  15.878  66.710  1.00  0.00     0.000 HD 
ENDROOT
BRANCH   3   6
HETATM    6  C   UNL     1      -8.526  15.239  68.867  1.00  0.00    -0.202 C  
HETATM    7  O   UNL     1      -7.505  14.995  69.857  1.00  0.00    -0.302 OA 
HETATM    8  H   UNL     1      -7.715  15.516  70.623  1.00  0.00     0.000 HD 
BRANCH   6   9
HETATM    9  C   UNL     1      -8.674  16.766  68.613  1.00  0.00    -0.255 C  
HETATM   10  O   UNL     1      -7.387  17.336  68.321  1.00  0.00    -0.197 OA 
HETATM   11  H   UNL     1      -7.478  18.269  68.166  1.00  0.00     0.000 HD 
BRANCH   9  12
HETATM   12  C   UNL     1      -9.665  17.193  67.509  1.00  0.00    -0.256 C  
HETATM   13  H   UNL     1      -9.568  17.647  65.590  1.00  0.00     0.000 HD 
HETATM   14  O   UNL     1      -8.958  17.384  66.270  1.00  0.00    -0.365 OA 
BRANCH  12  15
HETATM   15  C   UNL     1     -10.508  18.432  67.859  1.00  0.00    -0.391 C  
HETATM   16  O   UNL     1     -10.251  18.880  69.197  1.00  0.00    -0.526 OA 
HETATM   17  H   UNL     1     -10.772  19.645  69.413  1.00  0.00     0.000 HD 
ENDBRANCH  12  15
ENDBRANCH   9  12
ENDBRANCH   6   9
ENDBRANCH   3   6
TORSDOF 4
ENDMDL
MODEL      241
REMARK 921   NORMALIZED FREE ENERGY PREDICTED BY IDOCK:   -2.21 KCAL/MOL
REMARK 922        TOTAL FREE ENERGY PREDICTED BY IDOCK:   -3.60 KCAL/MOL
REMARK 923 INTER-LIGAND FREE ENERGY PREDICTED BY IDOCK:   -3.19 KCAL/MOL
REMARK 924 INTRA-LIGAND FREE ENERGY PREDICTED BY IDOCK:   -0.41 KCAL/MOL
REMARK 927      BINDING AFFINITY PREDICTED BY RF-SCORE:    0.00 PKD
ROOT
HETATM    1  C   UNL     1     -11.037   9.602  69.864  1.00  0.00    -0.235 C  
HETATM    2  O   UNL     1     -11.504   9.034  70.853  1.00  0.00    -0.272 OA 
HETATM    3  C   UNL     1     -10.226   8.909  68.786  1.00  0.00    -0.206 C  
HETATM    4  O   UNL     1     -11.092   8.564  67.700  1.00  0.00    -0.475 OA 
HETATM    5  H   UNL     1     -10.583   8.131  67.025  1.00  0.00     0.000 HD 
ENDROOT
BRANCH   3   6
HETATM    6  C   UNL     1      -9.524   7.650  69.311  1.00  0.00    -0.158 C  
HETATM    7  O   UNL     1      -9.042   7.937  70.640  1.00  0.00    -0.150 OA 
HETATM    8  H   UNL     1      -8.607   7.157  70.965  1.00  0.00     0.000 HD 
BRANCH   6   9
HETATM    9  C   UNL     1     -10.394   6.359  69.323  1.00  0.00    -0.207 C  
HETATM   10  O   UNL     1     -11.785   6.712  69.244  1.00  0.00    -0.645 OA 
HETATM   11  H   UNL     1     -12.316   5.924  69.251  1.00  0.00     0.000 HD 
BRANCH   9  12
HETATM   12  C   UNL     1     -10.089   5.307  68.235  1.00  0.00    -0.155 C  
HETATM   13  H   UNL     1      -9.365   3.471  68.176  1.00  0.00     0.000 HD 
HETATM   14  O   UNL     1      -9.553   4.119  68.845  1.00  0.00    -0.167 OA 
BRANCH  12  15
HETATM   15  C   UNL     1      -9.171   5.809  67.107  1.00  0.00    -0.115 C  
HETATM   16  O   UNL     1      -9.924   6.427  66.055  1.00  0.00    -0.403 OA 
HETATM   17  H   UNL     1      -9.357   6.737  65.358  1.00  0.00     0.000 HD 
ENDBRANCH  12  15
ENDBRANCH   9  12
ENDBRANCH   6   9
ENDBRANCH   3   6
TORSDOF 4
ENDMDL
MODEL      242
REMARK 921   NORMALIZED FREE ENERGY PREDICTED BY IDOCK:   -2.19 KCAL/MOL
REMARK 922        TOTAL FREE ENERGY PREDICTED BY IDOCK:   -3.57 KCAL/MOL
REMARK 923 INTER-LIGAND FREE ENERGY PREDICTED BY IDOCK:   -3.85 KCAL/MOL
REMARK 924 INTRA-LIGAND FREE ENERGY PREDICTED BY IDOCK:    0.27 KCAL/MOL
REMARK 927      BINDING AFFINITY PREDICTED BY RF-SCORE:    0.00 PKD
ROOT
HETATM    1  C   UNL     1     -11.387   8.330  72.566  1.00  0.00    -0.385 C  
HETATM    2  O   UNL     1     -10.189   8.083  72.710  1.00  0.00    -0.279 OA 
HETATM    3  C   UNL     1     -12.056   8.564  71.225  1.00  0.00    -0.286 C  
HETATM    4  O   UNL     1     -12.650   7.340  70.781  1.00  0.00    -0.569 OA 
HETATM    5  H   UNL     1     -13.069   7.487  69.941  1.00  0.00     0.000 HD 
ENDROOT
BRANCH   3   6
HETATM    6  C   UNL     1     -11.067   9.075  70.169  1.00  0.00    -0.207 C  
HETATM    7  O   UNL     1     -10.175  10.006  70.816  1.00  0.00    -0.364 OA 
HETATM    8  H   UNL     1      -9.563  10.322  70.161  1.00  0.00     0.000 HD 
BRANCH   6   9
HETATM    9  C   UNL     1     -10.252   7.974  69.432  1.00  0.00    -0.210 C  
HETATM   10  O   UNL     1      -9.135   7.573  70.244  1.00  0.00    -0.152 OA 
HETATM   11  H   UNL     1      -8.637   6.900  69.794  1.00  0.00     0.000 HD 
BRANCH   9  12
HETATM   12  C   UNL     1     -11.025   6.710  68.999  1.00  0.00    -0.279 C  
HETATM   13  H   UNL     1     -11.073   4.807  69.522  1.00  0.00     0.000 HD 
HETATM   14  O   UNL     1     -10.597   5.584  69.788  1.00  0.00    -0.297 OA 
BRANCH  12  15
HETATM   15  C   UNL     1     -10.935   6.395  67.496  1.00  0.00    -0.364 C  
HETATM   16  O   UNL     1     -10.880   7.595  66.712  1.00  0.00    -0.453 OA 
HETATM   17  H   UNL     1     -10.824   7.401  65.784  1.00  0.00     0.000 HD 
ENDBRANCH  12  15
ENDBRANCH   9  12
ENDBRANCH   6   9
ENDBRANCH   3   6
TORSDOF 4
ENDMDL
MODEL      243
REMARK 921   NORMALIZED FREE ENERGY PREDICTED BY IDOCK:   -2.19 KCAL/MOL
REMARK 922        TOTAL FREE ENERGY PREDICTED BY IDOCK:   -3.57 KCAL/MOL
REMARK 923 INTER-LIGAND FREE ENERGY PREDICTED BY IDOCK:   -2.81 KCAL/MOL
REMARK 924 INTRA-LIGAND FREE ENERGY PREDICTED BY IDOCK:   -0.76 KCAL/MOL
REMARK 927      BINDING AFFINITY PREDICTED BY RF-SCORE:    0.00 PKD
ROOT
HETATM    1  C   UNL     1     -11.038   6.438  67.239  1.00  0.00    -0.330 C  
HETATM    2  O   UNL     1     -10.703   5.295  66.920  1.00  0.00    -0.253 OA 
HETATM    3  C   UNL     1     -10.802   7.046  68.607  1.00  0.00    -0.147 C  
HETATM    4  O   UNL     1      -9.602   7.824  68.571  1.00  0.00    -0.147 OA 
HETATM    5  H   UNL     1      -9.454   8.206  69.428  1.00  0.00     0.000 HD 
ENDROOT
BRANCH   3   6
HETATM    6  C   UNL     1     -10.695   5.978  69.703  1.00  0.00    -0.335 C  
HETATM    7  O   UNL     1      -9.393   5.367  69.597  1.00  0.00    -0.127 OA 
HETATM    8  H   UNL     1      -9.327   4.705  70.276  1.00  0.00     0.000 HD 
BRANCH   6   9
HETATM    9  C   UNL     1     -10.933   6.486  71.154  1.00  0.00    -0.266 C  
HETATM   10  O   UNL     1     -11.641   5.487  71.907  1.00  0.00    -0.111 OA 
HETATM   11  H   UNL     1     -11.786   5.798  72.794  1.00  0.00     0.000 HD 
BRANCH   9  12
HETATM   12  C   UNL     1      -9.683   6.912  71.954  1.00  0.00    -0.161 C  
HETATM   13  H   UNL     1      -8.171   6.008  72.844  1.00  0.00     0.000 HD 
HETATM   14  O   UNL     1      -8.940   5.746  72.352  1.00  0.00    -0.140 OA 
BRANCH  12  15
HETATM   15  C   UNL     1      -9.982   7.814  73.164  1.00  0.00    -0.311 C  
HETATM   16  O   UNL     1     -10.925   7.201  74.054  1.00  0.00    -0.481 OA 
HETATM   17  H   UNL     1     -11.110   7.758  74.801  1.00  0.00     0.000 HD 
ENDBRANCH  12  15
ENDBRANCH   9  12
ENDBRANCH   6   9
ENDBRANCH   3   6
TORSDOF 4
ENDMDL
MODEL      244
REMARK 921   NORMALIZED FREE ENERGY PREDICTED BY IDOCK:   -2.17 KCAL/MOL
REMARK 922        TOTAL FREE ENERGY PREDICTED BY IDOCK:   -3.55 KCAL/MOL
REMARK 923 INTER-LIGAND FREE ENERGY PREDICTED BY IDOCK:   -3.68 KCAL/MOL
REMARK 924 INTRA-LIGAND FREE ENERGY PREDICTED BY IDOCK:    0.13 KCAL/MOL
REMARK 927      BINDING AFFINITY PREDICTED BY RF-SCORE:    0.00 PKD
ROOT
HETATM    1  C   UNL     1     -10.611  12.759  67.355  1.00  0.00    -0.229 C  
HETATM    2  O   UNL     1     -10.523  13.773  68.050  1.00  0.00    -0.234 OA 
HETATM    3  C   UNL     1     -10.872  11.369  67.901  1.00  0.00    -0.225 C  
HETATM    4  O   UNL     1     -12.272  11.086  67.806  1.00  0.00    -0.495 OA 
HETATM    5  H   UNL     1     -12.435  10.215  68.148  1.00  0.00     0.000 HD 
ENDROOT
BRANCH   3   6
HETATM    6  C   UNL     1     -10.411  11.225  69.358  1.00  0.00    -0.050 C  
HETATM    7  O   UNL     1     -11.190  12.139  70.157  1.00  0.00    -0.474 OA 
HETATM    8  H   UNL     1     -10.904  12.049  71.059  1.00  0.00     0.000 HD 
BRANCH   6   9
HETATM    9  C   UNL     1     -10.500   9.787  69.945  1.00  0.00    -0.261 C  
HETATM   10  O   UNL     1      -9.202   9.169  69.908  1.00  0.00    -0.160 OA 
HETATM   11  H   UNL     1      -9.257   8.290  70.267  1.00  0.00     0.000 HD 
BRANCH   9  12
HETATM   12  C   UNL     1     -11.069   9.655  71.373  1.00  0.00    -0.326 C  
HETATM   13  H   UNL     1     -11.195   8.238  72.743  1.00  0.00     0.000 HD 
HETATM   14  O   UNL     1     -10.845   8.320  71.864  1.00  0.00    -0.245 OA 
BRANCH  12  15
HETATM   15  C   UNL     1     -12.550  10.049  71.505  1.00  0.00    -0.425 C  
HETATM   16  O   UNL     1     -13.413   9.006  71.032  1.00  0.00    -0.551 OA 
HETATM   17  H   UNL     1     -14.328   9.249  71.113  1.00  0.00     0.000 HD 
ENDBRANCH  12  15
ENDBRANCH   9  12
ENDBRANCH   6   9
ENDBRANCH   3   6
TORSDOF 4
ENDMDL
MODEL      245
REMARK 921   NORMALIZED FREE ENERGY PREDICTED BY IDOCK:   -2.17 KCAL/MOL
REMARK 922        TOTAL FREE ENERGY PREDICTED BY IDOCK:   -3.55 KCAL/MOL
REMARK 923 INTER-LIGAND FREE ENERGY PREDICTED BY IDOCK:   -3.31 KCAL/MOL
REMARK 924 INTRA-LIGAND FREE ENERGY PREDICTED BY IDOCK:   -0.24 KCAL/MOL
REMARK 927      BINDING AFFINITY PREDICTED BY RF-SCORE:    0.00 PKD
ROOT
HETATM    1  C   UNL     1      -8.996  13.671  67.467  1.00  0.00    -0.209 C  
HETATM    2  O   UNL     1      -9.693  13.431  68.454  1.00  0.00    -0.221 OA 
HETATM    3  C   UNL     1      -8.000  14.811  67.382  1.00  0.00    -0.197 C  
HETATM    4  O   UNL     1      -6.696  14.317  67.702  1.00  0.00    -0.169 OA 
HETATM    5  H   UNL     1      -6.072  15.031  67.649  1.00  0.00     0.000 HD 
ENDROOT
BRANCH   3   6
HETATM    6  C   UNL     1      -8.363  15.966  68.326  1.00  0.00    -0.165 C  
HETATM    7  O   UNL     1      -7.144  16.662  68.659  1.00  0.00    -0.163 OA 
HETATM    8  H   UNL     1      -7.370  17.377  69.243  1.00  0.00     0.000 HD 
BRANCH   6   9
HETATM    9  C   UNL     1      -9.421  16.967  67.777  1.00  0.00    -0.237 C  
HETATM   10  O   UNL     1      -9.224  18.257  68.380  1.00  0.00    -0.301 OA 
HETATM   11  H   UNL     1      -9.870  18.868  68.045  1.00  0.00     0.000 HD 
BRANCH   9  12
HETATM   12  C   UNL     1      -9.481  17.142  66.245  1.00  0.00    -0.243 C  
HETATM   13  H   UNL     1      -9.113  18.586  64.949  1.00  0.00     0.000 HD 
HETATM   14  O   UNL     1      -9.075  18.478  65.892  1.00  0.00    -0.477 OA 
BRANCH  12  15
HETATM   15  C   UNL     1     -10.844  16.798  65.621  1.00  0.00    -0.107 C  
HETATM   16  O   UNL     1     -10.690  16.073  64.393  1.00  0.00    -0.819 OA 
HETATM   17  H   UNL     1     -11.532  15.861  64.007  1.00  0.00     0.000 HD 
ENDBRANCH  12  15
ENDBRANCH   9  12
ENDBRANCH   6   9
ENDBRANCH   3   6
TORSDOF 4
ENDMDL
MODEL      246
REMARK 921   NORMALIZED FREE ENERGY PREDICTED BY IDOCK:   -2.16 KCAL/MOL
REMARK 922        TOTAL FREE ENERGY PREDICTED BY IDOCK:   -3.54 KCAL/MOL
REMARK 923 INTER-LIGAND FREE ENERGY PREDICTED BY IDOCK:   -2.91 KCAL/MOL
REMARK 924 INTRA-LIGAND FREE ENERGY PREDICTED BY IDOCK:   -0.62 KCAL/MOL
REMARK 927      BINDING AFFINITY PREDICTED BY RF-SCORE:    0.00 PKD
ROOT
HETATM    1  C   UNL     1      -9.488   2.660  72.207  1.00  0.00    -0.107 C  
HETATM    2  O   UNL     1      -9.516   3.043  71.037  1.00  0.00    -0.138 OA 
HETATM    3  C   UNL     1     -10.000   3.468  73.383  1.00  0.00    -0.116 C  
HETATM    4  O   UNL     1     -11.337   3.056  73.686  1.00  0.00    -0.230 OA 
HETATM    5  H   UNL     1     -11.658   3.562  74.423  1.00  0.00     0.000 HD 
ENDROOT
BRANCH   3   6
HETATM    6  C   UNL     1      -9.973   4.976  73.103  1.00  0.00    -0.159 C  
HETATM    7  O   UNL     1      -8.704   5.287  72.492  1.00  0.00    -0.120 OA 
HETATM    8  H   UNL     1      -8.687   6.221  72.318  1.00  0.00     0.000 HD 
BRANCH   6   9
HETATM    9  C   UNL     1     -11.138   5.511  72.221  1.00  0.00    -0.237 C  
HETATM   10  O   UNL     1     -12.394   5.251  72.871  1.00  0.00    -0.449 OA 
HETATM   11  H   UNL     1     -13.106   5.577  72.332  1.00  0.00     0.000 HD 
BRANCH   9  12
HETATM   12  C   UNL     1     -11.085   7.002  71.829  1.00  0.00    -0.239 C  
HETATM   13  H   UNL     1     -10.183   8.629  72.491  1.00  0.00     0.000 HD 
HETATM   14  O   UNL     1     -10.216   7.711  72.732  1.00  0.00    -0.227 OA 
BRANCH  12  15
HETATM   15  C   UNL     1     -12.461   7.684  71.741  1.00  0.00    -0.329 C  
HETATM   16  O   UNL     1     -13.237   7.158  70.656  1.00  0.00    -0.561 OA 
HETATM   17  H   UNL     1     -14.087   7.579  70.601  1.00  0.00     0.000 HD 
ENDBRANCH  12  15
ENDBRANCH   9  12
ENDBRANCH   6   9
ENDBRANCH   3   6
TORSDOF 4
ENDMDL
MODEL      247
REMARK 921   NORMALIZED FREE ENERGY PREDICTED BY IDOCK:   -2.16 KCAL/MOL
REMARK 922        TOTAL FREE ENERGY PREDICTED BY IDOCK:   -3.53 KCAL/MOL
REMARK 923 INTER-LIGAND FREE ENERGY PREDICTED BY IDOCK:   -2.77 KCAL/MOL
REMARK 924 INTRA-LIGAND FREE ENERGY PREDICTED BY IDOCK:   -0.76 KCAL/MOL
REMARK 927      BINDING AFFINITY PREDICTED BY RF-SCORE:    0.00 PKD
ROOT
HETATM    1  C   UNL     1     -10.858   4.687  72.962  1.00  0.00    -0.247 C  
HETATM    2  O   UNL     1     -10.899   5.045  74.141  1.00  0.00    -0.291 OA 
HETATM    3  C   UNL     1     -10.452   5.587  71.811  1.00  0.00    -0.228 C  
HETATM    4  O   UNL     1      -9.066   5.375  71.520  1.00  0.00    -0.140 OA 
HETATM    5  H   UNL     1      -8.812   5.938  70.799  1.00  0.00     0.000 HD 
ENDROOT
BRANCH   3   6
HETATM    6  C   UNL     1     -10.696   7.069  72.123  1.00  0.00    -0.218 C  
HETATM    7  O   UNL     1      -9.580   7.544  72.904  1.00  0.00    -0.161 OA 
HETATM    8  H   UNL     1      -9.732   8.462  73.097  1.00  0.00     0.000 HD 
BRANCH   6   9
HETATM    9  C   UNL     1     -10.912   7.983  70.883  1.00  0.00    -0.243 C  
HETATM   10  O   UNL     1     -11.852   9.022  71.205  1.00  0.00    -0.282 OA 
HETATM   11  H   UNL     1     -11.984   9.581  70.447  1.00  0.00     0.000 HD 
BRANCH   9  12
HETATM   12  C   UNL     1      -9.652   8.631  70.270  1.00  0.00    -0.170 C  
HETATM   13  H   UNL     1      -8.433  10.115  70.729  1.00  0.00     0.000 HD 
HETATM   14  O   UNL     1      -9.208   9.716  71.106  1.00  0.00    -0.171 OA 
BRANCH  12  15
HETATM   15  C   UNL     1      -9.822   9.093  68.813  1.00  0.00    -0.167 C  
HETATM   16  O   UNL     1     -11.128   8.778  68.312  1.00  0.00    -0.456 OA 
HETATM   17  H   UNL     1     -11.232   9.062  67.411  1.00  0.00     0.000 HD 
ENDBRANCH  12  15
ENDBRANCH   9  12
ENDBRANCH   6   9
ENDBRANCH   3   6
TORSDOF 4
ENDMDL
MODEL      248
REMARK 921   NORMALIZED FREE ENERGY PREDICTED BY IDOCK:   -2.15 KCAL/MOL
REMARK 922        TOTAL FREE ENERGY PREDICTED BY IDOCK:   -3.52 KCAL/MOL
REMARK 923 INTER-LIGAND FREE ENERGY PREDICTED BY IDOCK:   -3.22 KCAL/MOL
REMARK 924 INTRA-LIGAND FREE ENERGY PREDICTED BY IDOCK:   -0.30 KCAL/MOL
REMARK 927      BINDING AFFINITY PREDICTED BY RF-SCORE:    0.00 PKD
ROOT
HETATM    1  C   UNL     1     -10.544  11.415  65.037  1.00  0.00    -0.299 C  
HETATM    2  O   UNL     1      -9.849  10.506  64.580  1.00  0.00    -0.288 OA 
HETATM    3  C   UNL     1     -10.063  12.427  66.058  1.00  0.00    -0.251 C  
HETATM    4  O   UNL     1      -9.644  13.614  65.376  1.00  0.00    -0.520 OA 
HETATM    5  H   UNL     1      -9.343  14.248  66.016  1.00  0.00     0.000 HD 
ENDROOT
BRANCH   3   6
HETATM    6  C   UNL     1      -8.909  11.883  66.911  1.00  0.00    -0.197 C  
HETATM    7  O   UNL     1      -7.800  12.798  66.785  1.00  0.00    -0.399 OA 
HETATM    8  H   UNL     1      -7.086  12.461  67.313  1.00  0.00     0.000 HD 
BRANCH   6   9
HETATM    9  C   UNL     1      -9.243  11.648  68.411  1.00  0.00    -0.182 C  
HETATM   10  O   UNL     1     -10.218  12.611  68.847  1.00  0.00    -0.405 OA 
HETATM   11  H   UNL     1     -10.422  12.467  69.764  1.00  0.00     0.000 HD 
BRANCH   9  12
HETATM   12  C   UNL     1      -9.735  10.238  68.800  1.00  0.00    -0.177 C  
HETATM   13  H   UNL     1      -9.594   9.051  70.372  1.00  0.00     0.000 HD 
HETATM   14  O   UNL     1      -9.291   9.918  70.132  1.00  0.00    -0.234 OA 
BRANCH  12  15
HETATM   15  C   UNL     1      -9.337   9.132  67.808  1.00  0.00    -0.136 C  
HETATM   16  O   UNL     1      -8.717   8.026  68.477  1.00  0.00    -0.131 OA 
HETATM   17  H   UNL     1      -8.471   7.343  67.864  1.00  0.00     0.000 HD 
ENDBRANCH  12  15
ENDBRANCH   9  12
ENDBRANCH   6   9
ENDBRANCH   3   6
TORSDOF 4
ENDMDL
MODEL      249
REMARK 921   NORMALIZED FREE ENERGY PREDICTED BY IDOCK:   -2.15 KCAL/MOL
REMARK 922        TOTAL FREE ENERGY PREDICTED BY IDOCK:   -3.52 KCAL/MOL
REMARK 923 INTER-LIGAND FREE ENERGY PREDICTED BY IDOCK:   -2.92 KCAL/MOL
REMARK 924 INTRA-LIGAND FREE ENERGY PREDICTED BY IDOCK:   -0.60 KCAL/MOL
REMARK 927      BINDING AFFINITY PREDICTED BY RF-SCORE:    0.00 PKD
ROOT
HETATM    1  C   UNL     1     -11.368  12.707  67.807  1.00  0.00    -0.297 C  
HETATM    2  O   UNL     1     -10.528  13.352  68.436  1.00  0.00    -0.239 OA 
HETATM    3  C   UNL     1     -11.105  11.357  67.168  1.00  0.00    -0.305 C  
HETATM    4  O   UNL     1     -11.546  10.326  68.058  1.00  0.00    -0.673 OA 
HETATM    5  H   UNL     1     -11.381   9.480  67.658  1.00  0.00     0.000 HD 
ENDROOT
BRANCH   3   6
HETATM    6  C   UNL     1      -9.621  11.155  66.835  1.00  0.00    -0.186 C  
HETATM    7  O   UNL     1      -9.100  12.417  66.367  1.00  0.00    -0.299 OA 
HETATM    8  H   UNL     1      -8.181  12.292  66.160  1.00  0.00     0.000 HD 
BRANCH   6   9
HETATM    9  C   UNL     1      -8.745  10.612  67.999  1.00  0.00    -0.126 C  
HETATM   10  O   UNL     1      -9.293  11.038  69.258  1.00  0.00    -0.393 OA 
HETATM   11  H   UNL     1      -8.758  10.706  69.969  1.00  0.00     0.000 HD 
BRANCH   9  12
HETATM   12  C   UNL     1      -8.526   9.085  68.049  1.00  0.00    -0.125 C  
HETATM   13  H   UNL     1      -9.500   7.516  68.748  1.00  0.00     0.000 HD 
HETATM   14  O   UNL     1      -9.635   8.456  68.718  1.00  0.00    -0.147 OA 
BRANCH  12  15
HETATM   15  C   UNL     1      -7.189   8.656  68.679  1.00  0.00    -0.076 C  
HETATM   16  O   UNL     1      -6.906   9.406  69.868  1.00  0.00    -0.050 OA 
HETATM   17  H   UNL     1      -6.080   9.142  70.256  1.00  0.00     0.000 HD 
ENDBRANCH  12  15
ENDBRANCH   9  12
ENDBRANCH   6   9
ENDBRANCH   3   6
TORSDOF 4
ENDMDL
MODEL      250
REMARK 921   NORMALIZED FREE ENERGY PREDICTED BY IDOCK:   -2.14 KCAL/MOL
REMARK 922        TOTAL FREE ENERGY PREDICTED BY IDOCK:   -3.51 KCAL/MOL
REMARK 923 INTER-LIGAND FREE ENERGY PREDICTED BY IDOCK:   -3.73 KCAL/MOL
REMARK 924 INTRA-LIGAND FREE ENERGY PREDICTED BY IDOCK:    0.22 KCAL/MOL
REMARK 927      BINDING AFFINITY PREDICTED BY RF-SCORE:    0.00 PKD
ROOT
HETATM    1  C   UNL     1      -9.054  12.564  67.361  1.00  0.00    -0.185 C  
HETATM    2  O   UNL     1     -10.009  12.590  68.139  1.00  0.00    -0.212 OA 
HETATM    3  C   UNL     1      -8.451  13.792  66.707  1.00  0.00     0.032 C  
HETATM    4  O   UNL     1      -7.318  14.218  67.471  1.00  0.00    -0.170 OA 
HETATM    5  H   UNL     1      -6.941  14.987  67.062  1.00  0.00     0.000 HD 
ENDROOT
BRANCH   3   6
HETATM    6  C   UNL     1      -9.463  14.940  66.594  1.00  0.00    -0.265 C  
HETATM    7  O   UNL     1      -9.128  15.706  65.418  1.00  0.00    -0.243 OA 
HETATM    8  H   UNL     1      -9.755  16.417  65.348  1.00  0.00     0.000 HD 
BRANCH   6   9
HETATM    9  C   UNL     1     -10.957  14.510  66.548  1.00  0.00    -0.321 C  
HETATM   10  O   UNL     1     -11.771  15.519  67.168  1.00  0.00    -0.085 OA 
HETATM   11  H   UNL     1     -12.684  15.256  67.140  1.00  0.00     0.000 HD 
BRANCH   9  12
HETATM   12  C   UNL     1     -11.544  14.188  65.157  1.00  0.00    -0.344 C  
HETATM   13  H   UNL     1     -10.849  13.594  63.408  1.00  0.00     0.000 HD 
HETATM   14  O   UNL     1     -10.488  13.791  64.263  1.00  0.00    -0.359 OA 
BRANCH  12  15
HETATM   15  C   UNL     1     -12.385  15.323  64.547  1.00  0.00    -0.133 C  
HETATM   16  O   UNL     1     -11.553  16.352  63.994  1.00  0.00    -1.447 OA 
HETATM   17  H   UNL     1     -12.073  17.053  63.617  1.00  0.00     0.000 HD 
ENDBRANCH  12  15
ENDBRANCH   9  12
ENDBRANCH   6   9
ENDBRANCH   3   6
TORSDOF 4
ENDMDL
MODEL      251
REMARK 921   NORMALIZED FREE ENERGY PREDICTED BY IDOCK:   -2.14 KCAL/MOL
REMARK 922        TOTAL FREE ENERGY PREDICTED BY IDOCK:   -3.51 KCAL/MOL
REMARK 923 INTER-LIGAND FREE ENERGY PREDICTED BY IDOCK:   -3.06 KCAL/MOL
REMARK 924 INTRA-LIGAND FREE ENERGY PREDICTED BY IDOCK:   -0.45 KCAL/MOL
REMARK 927      BINDING AFFINITY PREDICTED BY RF-SCORE:    0.00 PKD
ROOT
HETATM    1  C   UNL     1     -13.144  14.910  70.301  1.00  0.00    -0.073 C  
HETATM    2  O   UNL     1     -12.817  15.995  70.785  1.00  0.00    -0.388 OA 
HETATM    3  C   UNL     1     -12.167  13.902  69.726  1.00  0.00    -0.332 C  
HETATM    4  O   UNL     1     -11.860  12.926  70.727  1.00  0.00    -0.494 OA 
HETATM    5  H   UNL     1     -11.249  12.295  70.366  1.00  0.00     0.000 HD 
ENDROOT
BRANCH   3   6
HETATM    6  C   UNL     1     -10.874  14.567  69.235  1.00  0.00    -0.252 C  
HETATM    7  O   UNL     1     -10.302  15.288  70.346  1.00  0.00    -0.475 OA 
HETATM    8  H   UNL     1      -9.501  15.700  70.042  1.00  0.00     0.000 HD 
BRANCH   6   9
HETATM    9  C   UNL     1      -9.821  13.602  68.621  1.00  0.00    -0.138 C  
HETATM   10  O   UNL     1     -10.464  12.386  68.202  1.00  0.00    -0.206 OA 
HETATM   11  H   UNL     1      -9.821  11.796  67.827  1.00  0.00     0.000 HD 
BRANCH   9  12
HETATM   12  C   UNL     1      -8.983  14.146  67.445  1.00  0.00    -0.202 C  
HETATM   13  H   UNL     1      -7.935  13.385  65.954  1.00  0.00     0.000 HD 
HETATM   14  O   UNL     1      -8.451  13.050  66.678  1.00  0.00    -0.062 OA 
BRANCH  12  15
HETATM   15  C   UNL     1      -7.866  15.120  67.859  1.00  0.00    -0.135 C  
HETATM   16  O   UNL     1      -6.727  15.009  66.996  1.00  0.00    -0.303 OA 
HETATM   17  H   UNL     1      -6.037  15.611  67.252  1.00  0.00     0.000 HD 
ENDBRANCH  12  15
ENDBRANCH   9  12
ENDBRANCH   6   9
ENDBRANCH   3   6
TORSDOF 4
ENDMDL
MODEL      252
REMARK 921   NORMALIZED FREE ENERGY PREDICTED BY IDOCK:   -2.13 KCAL/MOL
REMARK 922        TOTAL FREE ENERGY PREDICTED BY IDOCK:   -3.50 KCAL/MOL
REMARK 923 INTER-LIGAND FREE ENERGY PREDICTED BY IDOCK:   -3.85 KCAL/MOL
REMARK 924 INTRA-LIGAND FREE ENERGY PREDICTED BY IDOCK:    0.35 KCAL/MOL
REMARK 927      BINDING AFFINITY PREDICTED BY RF-SCORE:    0.00 PKD
ROOT
HETATM    1  C   UNL     1      -9.957  18.136  67.562  1.00  0.00    -0.332 C  
HETATM    2  O   UNL     1     -10.224  17.654  68.663  1.00  0.00    -0.346 OA 
HETATM    3  C   UNL     1      -9.461  17.333  66.375  1.00  0.00    -0.263 C  
HETATM    4  O   UNL     1     -10.572  17.009  65.533  1.00  0.00    -0.542 OA 
HETATM    5  H   UNL     1     -10.261  16.506  64.790  1.00  0.00     0.000 HD 
ENDROOT
BRANCH   3   6
HETATM    6  C   UNL     1      -8.746  16.046  66.808  1.00  0.00    -0.253 C  
HETATM    7  O   UNL     1      -7.948  16.356  67.970  1.00  0.00    -0.151 OA 
HETATM    8  H   UNL     1      -7.505  15.558  68.238  1.00  0.00     0.000 HD 
BRANCH   6   9
HETATM    9  C   UNL     1      -9.676  14.834  67.104  1.00  0.00    -0.233 C  
HETATM   10  O   UNL     1     -10.120  14.886  68.470  1.00  0.00    -0.220 OA 
HETATM   11  H   UNL     1     -10.688  14.146  68.650  1.00  0.00     0.000 HD 
BRANCH   9  12
HETATM   12  C   UNL     1     -10.909  14.667  66.191  1.00  0.00    -0.321 C  
HETATM   13  H   UNL     1     -12.866  14.557  66.427  1.00  0.00     0.000 HD 
HETATM   14  O   UNL     1     -12.107  14.660  66.989  1.00  0.00    -0.357 OA 
BRANCH  12  15
HETATM   15  C   UNL     1     -10.854  13.436  65.269  1.00  0.00    -0.309 C  
HETATM   16  O   UNL     1     -11.034  13.803  63.895  1.00  0.00    -0.524 OA 
HETATM   17  H   UNL     1     -11.000  13.042  63.326  1.00  0.00     0.000 HD 
ENDBRANCH  12  15
ENDBRANCH   9  12
ENDBRANCH   6   9
ENDBRANCH   3   6
TORSDOF 4
ENDMDL
MODEL      253
REMARK 921   NORMALIZED FREE ENERGY PREDICTED BY IDOCK:   -2.12 KCAL/MOL
REMARK 922        TOTAL FREE ENERGY PREDICTED BY IDOCK:   -3.49 KCAL/MOL
REMARK 923 INTER-LIGAND FREE ENERGY PREDICTED BY IDOCK:   -3.08 KCAL/MOL
REMARK 924 INTRA-LIGAND FREE ENERGY PREDICTED BY IDOCK:   -0.41 KCAL/MOL
REMARK 927      BINDING AFFINITY PREDICTED BY RF-SCORE:    0.00 PKD
ROOT
HETATM    1  C   UNL     1      -8.533   9.471  67.626  1.00  0.00    -0.122 C  
HETATM    2  O   UNL     1      -9.188  10.354  67.069  1.00  0.00    -0.146 OA 
HETATM    3  C   UNL     1      -9.074   8.568  68.718  1.00  0.00    -0.143 C  
HETATM    4  O   UNL     1      -9.510   7.338  68.132  1.00  0.00    -0.134 OA 
HETATM    5  H   UNL     1      -9.849   6.772  68.816  1.00  0.00     0.000 HD 
ENDROOT
BRANCH   3   6
HETATM    6  C   UNL     1     -10.234   9.219  69.483  1.00  0.00    -0.207 C  
HETATM    7  O   UNL     1     -11.382   9.236  68.610  1.00  0.00    -0.442 OA 
HETATM    8  H   UNL     1     -12.101   9.639  69.084  1.00  0.00     0.000 HD 
BRANCH   6   9
HETATM    9  C   UNL     1     -10.599   8.546  70.837  1.00  0.00    -0.208 C  
HETATM   10  O   UNL     1     -11.309   9.481  71.667  1.00  0.00    -0.383 OA 
HETATM   11  H   UNL     1     -11.532   9.070  72.494  1.00  0.00     0.000 HD 
BRANCH   9  12
HETATM   12  C   UNL     1     -11.412   7.236  70.764  1.00  0.00    -0.299 C  
HETATM   13  H   UNL     1     -13.307   6.710  70.940  1.00  0.00     0.000 HD 
HETATM   14  O   UNL     1     -12.807   7.516  70.984  1.00  0.00    -0.249 OA 
BRANCH  12  15
HETATM   15  C   UNL     1     -10.917   6.129  71.711  1.00  0.00    -0.264 C  
HETATM   16  O   UNL     1     -11.598   6.176  72.972  1.00  0.00    -0.480 OA 
HETATM   17  H   UNL     1     -11.292   5.492  73.558  1.00  0.00     0.000 HD 
ENDBRANCH  12  15
ENDBRANCH   9  12
ENDBRANCH   6   9
ENDBRANCH   3   6
TORSDOF 4
ENDMDL
MODEL      254
REMARK 921   NORMALIZED FREE ENERGY PREDICTED BY IDOCK:   -2.12 KCAL/MOL
REMARK 922        TOTAL FREE ENERGY PREDICTED BY IDOCK:   -3.48 KCAL/MOL
REMARK 923 INTER-LIGAND FREE ENERGY PREDICTED BY IDOCK:   -2.78 KCAL/MOL
REMARK 924 INTRA-LIGAND FREE ENERGY PREDICTED BY IDOCK:   -0.70 KCAL/MOL
REMARK 927      BINDING AFFINITY PREDICTED BY RF-SCORE:    0.00 PKD
ROOT
HETATM    1  C   UNL     1     -12.122   8.336  72.231  1.00  0.00    -0.379 C  
HETATM    2  O   UNL     1     -11.647   7.845  73.257  1.00  0.00    -0.252 OA 
HETATM    3  C   UNL     1     -11.570   8.101  70.838  1.00  0.00    -0.267 C  
HETATM    4  O   UNL     1     -12.313   7.048  70.215  1.00  0.00    -0.623 OA 
HETATM    5  H   UNL     1     -11.968   6.901  69.342  1.00  0.00     0.000 HD 
ENDROOT
BRANCH   3   6
HETATM    6  C   UNL     1     -10.079   7.741  70.861  1.00  0.00    -0.187 C  
HETATM    7  O   UNL     1      -9.452   8.531  71.893  1.00  0.00    -0.227 OA 
HETATM    8  H   UNL     1      -8.528   8.308  71.907  1.00  0.00     0.000 HD 
BRANCH   6   9
HETATM    9  C   UNL     1      -9.760   6.233  71.070  1.00  0.00    -0.176 C  
HETATM   10  O   UNL     1      -9.080   5.717  69.914  1.00  0.00    -0.140 OA 
HETATM   11  H   UNL     1      -8.885   4.796  70.042  1.00  0.00     0.000 HD 
BRANCH   9  12
HETATM   12  C   UNL     1      -8.946   5.863  72.328  1.00  0.00    -0.142 C  
HETATM   13  H   UNL     1      -7.061   5.984  72.904  1.00  0.00     0.000 HD 
HETATM   14  O   UNL     1      -7.563   6.211  72.131  1.00  0.00    -0.094 OA 
BRANCH  12  15
HETATM   15  C   UNL     1      -9.087   4.395  72.766  1.00  0.00    -0.120 C  
HETATM   16  O   UNL     1      -9.965   3.671  71.894  1.00  0.00    -0.171 OA 
HETATM   17  H   UNL     1     -10.053   2.764  72.165  1.00  0.00     0.000 HD 
ENDBRANCH  12  15
ENDBRANCH   9  12
ENDBRANCH   6   9
ENDBRANCH   3   6
TORSDOF 4
ENDMDL
MODEL      255
REMARK 921   NORMALIZED FREE ENERGY PREDICTED BY IDOCK:   -2.12 KCAL/MOL
REMARK 922        TOTAL FREE ENERGY PREDICTED BY IDOCK:   -3.48 KCAL/MOL
REMARK 923 INTER-LIGAND FREE ENERGY PREDICTED BY IDOCK:   -3.25 KCAL/MOL
REMARK 924 INTRA-LIGAND FREE ENERGY PREDICTED BY IDOCK:   -0.23 KCAL/MOL
REMARK 927      BINDING AFFINITY PREDICTED BY RF-SCORE:    0.00 PKD
ROOT
HETATM    1  C   UNL     1     -11.866   9.074  71.464  1.00  0.00    -0.345 C  
HETATM    2  O   UNL     1     -10.670   9.118  71.755  1.00  0.00    -0.355 OA 
HETATM    3  C   UNL     1     -12.608   7.805  71.093  1.00  0.00    -0.198 C  
HETATM    4  O   UNL     1     -13.270   7.295  72.255  1.00  0.00    -0.505 OA 
HETATM    5  H   UNL     1     -13.735   6.500  72.022  1.00  0.00     0.000 HD 
ENDROOT
BRANCH   3   6
HETATM    6  C   UNL     1     -11.670   6.736  70.517  1.00  0.00    -0.375 C  
HETATM    7  O   UNL     1     -11.245   7.180  69.212  1.00  0.00    -0.446 OA 
HETATM    8  H   UNL     1     -10.664   6.518  68.856  1.00  0.00     0.000 HD 
BRANCH   6   9
HETATM    9  C   UNL     1     -10.434   6.391  71.397  1.00  0.00    -0.218 C  
HETATM   10  O   UNL     1     -10.869   5.994  72.708  1.00  0.00    -0.223 OA 
HETATM   11  H   UNL     1     -10.114   5.784  73.245  1.00  0.00     0.000 HD 
BRANCH   9  12
HETATM   12  C   UNL     1      -9.471   5.316  70.850  1.00  0.00    -0.165 C  
HETATM   13  H   UNL     1      -9.537   3.889  69.486  1.00  0.00     0.000 HD 
HETATM   14  O   UNL     1     -10.129   4.551  69.823  1.00  0.00    -0.229 OA 
BRANCH  12  15
HETATM   15  C   UNL     1      -8.875   4.393  71.927  1.00  0.00    -0.116 C  
HETATM   16  O   UNL     1      -7.473   4.634  72.105  1.00  0.00    -0.077 OA 
HETATM   17  H   UNL     1      -7.104   4.064  72.770  1.00  0.00     0.000 HD 
ENDBRANCH  12  15
ENDBRANCH   9  12
ENDBRANCH   6   9
ENDBRANCH   3   6
TORSDOF 4
ENDMDL
MODEL      256
REMARK 921   NORMALIZED FREE ENERGY PREDICTED BY IDOCK:   -2.12 KCAL/MOL
REMARK 922        TOTAL FREE ENERGY PREDICTED BY IDOCK:   -3.48 KCAL/MOL
REMARK 923 INTER-LIGAND FREE ENERGY PREDICTED BY IDOCK:   -3.04 KCAL/MOL
REMARK 924 INTRA-LIGAND FREE ENERGY PREDICTED BY IDOCK:   -0.44 KCAL/MOL
REMARK 927      BINDING AFFINITY PREDICTED BY RF-SCORE:    0.00 PKD
ROOT
HETATM    1  C   UNL     1      -7.894  10.652  67.200  1.00  0.00    -0.117 C  
HETATM    2  O   UNL     1      -7.017   9.787  67.227  1.00  0.00    -0.082 OA 
HETATM    3  C   UNL     1      -8.764  11.024  68.384  1.00  0.00    -0.150 C  
HETATM    4  O   UNL     1      -8.200  12.165  69.038  1.00  0.00    -0.353 OA 
HETATM    5  H   UNL     1      -8.746  12.398  69.780  1.00  0.00     0.000 HD 
ENDROOT
BRANCH   3   6
HETATM    6  C   UNL     1      -8.903   9.868  69.384  1.00  0.00    -0.187 C  
HETATM    7  O   UNL     1      -8.401  10.326  70.657  1.00  0.00    -0.274 OA 
HETATM    8  H   UNL     1      -8.487   9.610  71.276  1.00  0.00     0.000 HD 
BRANCH   6   9
HETATM    9  C   UNL     1     -10.340   9.297  69.547  1.00  0.00    -0.216 C  
HETATM   10  O   UNL     1     -10.884   8.980  68.255  1.00  0.00    -0.425 OA 
HETATM   11  H   UNL     1     -11.763   8.631  68.354  1.00  0.00     0.000 HD 
BRANCH   9  12
HETATM   12  C   UNL     1     -10.499   8.067  70.464  1.00  0.00    -0.214 C  
HETATM   13  H   UNL     1      -9.299   6.783  71.365  1.00  0.00     0.000 HD 
HETATM   14  O   UNL     1      -9.202   7.540  70.800  1.00  0.00    -0.157 OA 
BRANCH  12  15
HETATM   15  C   UNL     1     -11.409   6.965  69.895  1.00  0.00    -0.271 C  
HETATM   16  O   UNL     1     -12.764   7.124  70.338  1.00  0.00    -0.591 OA 
HETATM   17  H   UNL     1     -13.326   6.443  69.987  1.00  0.00     0.000 HD 
ENDBRANCH  12  15
ENDBRANCH   9  12
ENDBRANCH   6   9
ENDBRANCH   3   6
TORSDOF 4
ENDMDL
MODEL      257
REMARK 921   NORMALIZED FREE ENERGY PREDICTED BY IDOCK:   -2.11 KCAL/MOL
REMARK 922        TOTAL FREE ENERGY PREDICTED BY IDOCK:   -3.47 KCAL/MOL
REMARK 923 INTER-LIGAND FREE ENERGY PREDICTED BY IDOCK:   -3.14 KCAL/MOL
REMARK 924 INTRA-LIGAND FREE ENERGY PREDICTED BY IDOCK:   -0.32 KCAL/MOL
REMARK 927      BINDING AFFINITY PREDICTED BY RF-SCORE:    0.00 PKD
ROOT
HETATM    1  C   UNL     1     -12.397   7.565  71.093  1.00  0.00    -0.291 C  
HETATM    2  O   UNL     1     -12.078   6.519  70.525  1.00  0.00    -0.367 OA 
HETATM    3  C   UNL     1     -11.626   8.181  72.244  1.00  0.00    -0.374 C  
HETATM    4  O   UNL     1     -10.743   9.183  71.731  1.00  0.00    -0.355 OA 
HETATM    5  H   UNL     1     -10.260   9.569  72.453  1.00  0.00     0.000 HD 
ENDROOT
BRANCH   3   6
HETATM    6  C   UNL     1     -10.824   7.133  73.027  1.00  0.00    -0.328 C  
HETATM    7  O   UNL     1     -11.618   5.930  73.093  1.00  0.00    -0.491 OA 
HETATM    8  H   UNL     1     -11.121   5.281  73.578  1.00  0.00     0.000 HD 
BRANCH   6   9
HETATM    9  C   UNL     1      -9.412   6.814  72.458  1.00  0.00    -0.139 C  
HETATM   10  O   UNL     1      -9.450   6.850  71.021  1.00  0.00    -0.163 OA 
HETATM   11  H   UNL     1      -8.587   6.655  70.673  1.00  0.00     0.000 HD 
BRANCH   9  12
HETATM   12  C   UNL     1      -8.250   7.706  72.943  1.00  0.00    -0.120 C  
HETATM   13  H   UNL     1      -8.025   9.216  74.196  1.00  0.00     0.000 HD 
HETATM   14  O   UNL     1      -8.740   8.666  73.897  1.00  0.00    -0.199 OA 
BRANCH  12  15
HETATM   15  C   UNL     1      -7.470   8.401  71.814  1.00  0.00    -0.103 C  
HETATM   16  O   UNL     1      -6.288   9.042  72.311  1.00  0.00    -0.214 OA 
HETATM   17  H   UNL     1      -5.806   9.472  71.614  1.00  0.00     0.000 HD 
ENDBRANCH  12  15
ENDBRANCH   9  12
ENDBRANCH   6   9
ENDBRANCH   3   6
TORSDOF 4
ENDMDL
MODEL      258
REMARK 921   NORMALIZED FREE ENERGY PREDICTED BY IDOCK:   -2.10 KCAL/MOL
REMARK 922        TOTAL FREE ENERGY PREDICTED BY IDOCK:   -3.46 KCAL/MOL
REMARK 923 INTER-LIGAND FREE ENERGY PREDICTED BY IDOCK:   -2.82 KCAL/MOL
REMARK 924 INTRA-LIGAND FREE ENERGY PREDICTED BY IDOCK:   -0.64 KCAL/MOL
REMARK 927      BINDING AFFINITY PREDICTED BY RF-SCORE:    0.00 PKD
ROOT
HETATM    1  C   UNL     1     -10.372   8.873  67.384  1.00  0.00    -0.269 C  
HETATM    2  O   UNL     1      -9.433   9.280  66.699  1.00  0.00    -0.166 OA 
HETATM    3  C   UNL     1     -10.416   7.511  68.050  1.00  0.00    -0.197 C  
HETATM    4  O   UNL     1      -9.987   7.643  69.410  1.00  0.00    -0.173 OA 
HETATM    5  H   UNL     1     -10.014   6.790  69.827  1.00  0.00     0.000 HD 
ENDROOT
BRANCH   3   6
HETATM    6  C   UNL     1      -9.534   6.485  67.325  1.00  0.00    -0.125 C  
HETATM    7  O   UNL     1      -8.449   6.135  68.209  1.00  0.00    -0.113 OA 
HETATM    8  H   UNL     1      -7.904   5.500  67.759  1.00  0.00     0.000 HD 
BRANCH   6   9
HETATM    9  C   UNL     1     -10.268   5.202  66.840  1.00  0.00    -0.239 C  
HETATM   10  O   UNL     1     -11.386   5.567  66.014  1.00  0.00    -0.753 OA 
HETATM   11  H   UNL     1     -11.834   4.782  65.718  1.00  0.00     0.000 HD 
BRANCH   9  12
HETATM   12  C   UNL     1      -9.417   4.159  66.086  1.00  0.00    -0.183 C  
HETATM   13  H   UNL     1      -8.002   2.859  66.543  1.00  0.00     0.000 HD 
HETATM   14  O   UNL     1      -8.526   3.501  67.007  1.00  0.00    -0.100 OA 
BRANCH  12  15
HETATM   15  C   UNL     1      -8.644   4.722  64.881  1.00  0.00    -0.145 C  
HETATM   16  O   UNL     1      -9.501   4.893  63.744  1.00  0.00    -0.355 OA 
HETATM   17  H   UNL     1      -9.024   5.241  62.999  1.00  0.00     0.000 HD 
ENDBRANCH  12  15
ENDBRANCH   9  12
ENDBRANCH   6   9
ENDBRANCH   3   6
TORSDOF 4
ENDMDL
MODEL      259
REMARK 921   NORMALIZED FREE ENERGY PREDICTED BY IDOCK:   -2.07 KCAL/MOL
REMARK 922        TOTAL FREE ENERGY PREDICTED BY IDOCK:   -3.43 KCAL/MOL
REMARK 923 INTER-LIGAND FREE ENERGY PREDICTED BY IDOCK:   -2.62 KCAL/MOL
REMARK 924 INTRA-LIGAND FREE ENERGY PREDICTED BY IDOCK:   -0.81 KCAL/MOL
REMARK 927      BINDING AFFINITY PREDICTED BY RF-SCORE:    0.00 PKD
ROOT
HETATM    1  C   UNL     1      -9.235   9.658  67.636  1.00  0.00    -0.130 C  
HETATM    2  O   UNL     1      -9.011   8.458  67.474  1.00  0.00    -0.134 OA 
HETATM    3  C   UNL     1      -9.640  10.280  68.959  1.00  0.00    -0.203 C  
HETATM    4  O   UNL     1      -8.476  10.806  69.603  1.00  0.00    -0.383 OA 
HETATM    5  H   UNL     1      -8.730  11.196  70.431  1.00  0.00     0.000 HD 
ENDROOT
BRANCH   3   6
HETATM    6  C   UNL     1     -10.333   9.270  69.883  1.00  0.00    -0.220 C  
HETATM    7  O   UNL     1     -11.190   8.444  69.068  1.00  0.00    -0.412 OA 
HETATM    8  H   UNL     1     -11.619   7.818  69.641  1.00  0.00     0.000 HD 
BRANCH   6   9
HETATM    9  C   UNL     1      -9.379   8.381  70.732  1.00  0.00    -0.163 C  
HETATM   10  O   UNL     1      -9.029   9.068  71.945  1.00  0.00    -0.364 OA 
HETATM   11  H   UNL     1      -8.446   8.525  72.463  1.00  0.00     0.000 HD 
BRANCH   9  12
HETATM   12  C   UNL     1      -9.885   6.968  71.094  1.00  0.00    -0.176 C  
HETATM   13  H   UNL     1     -10.285   5.967  72.748  1.00  0.00     0.000 HD 
HETATM   14  O   UNL     1      -9.974   6.836  72.525  1.00  0.00    -0.168 OA 
BRANCH  12  15
HETATM   15  C   UNL     1      -9.058   5.823  70.485  1.00  0.00    -0.147 C  
HETATM   16  O   UNL     1      -8.493   6.200  69.222  1.00  0.00    -0.117 OA 
HETATM   17  H   UNL     1      -7.983   5.492  68.845  1.00  0.00     0.000 HD 
ENDBRANCH  12  15
ENDBRANCH   9  12
ENDBRANCH   6   9
ENDBRANCH   3   6
TORSDOF 4
ENDMDL
MODEL      260
REMARK 921   NORMALIZED FREE ENERGY PREDICTED BY IDOCK:   -2.06 KCAL/MOL
REMARK 922        TOTAL FREE ENERGY PREDICTED BY IDOCK:   -3.41 KCAL/MOL
REMARK 923 INTER-LIGAND FREE ENERGY PREDICTED BY IDOCK:   -3.01 KCAL/MOL
REMARK 924 INTRA-LIGAND FREE ENERGY PREDICTED BY IDOCK:   -0.40 KCAL/MOL
REMARK 927      BINDING AFFINITY PREDICTED BY RF-SCORE:    0.00 PKD
ROOT
HETATM    1  C   UNL     1      -8.751   7.031  67.191  1.00  0.00    -0.121 C  
HETATM    2  O   UNL     1      -7.795   7.438  67.854  1.00  0.00    -0.113 OA 
HETATM    3  C   UNL     1     -10.126   7.671  67.194  1.00  0.00    -0.253 C  
HETATM    4  O   UNL     1     -10.228   8.561  66.077  1.00  0.00    -0.426 OA 
HETATM    5  H   UNL     1     -11.089   8.962  66.079  1.00  0.00     0.000 HD 
ENDROOT
BRANCH   3   6
HETATM    6  C   UNL     1     -10.404   8.436  68.495  1.00  0.00    -0.200 C  
HETATM    7  O   UNL     1     -11.264   9.549  68.175  1.00  0.00    -0.510 OA 
HETATM    8  H   UNL     1     -11.436  10.023  68.980  1.00  0.00     0.000 HD 
BRANCH   6   9
HETATM    9  C   UNL     1     -11.025   7.591  69.644  1.00  0.00    -0.153 C  
HETATM   10  O   UNL     1     -11.640   6.411  69.099  1.00  0.00    -0.608 OA 
HETATM   11  H   UNL     1     -12.020   5.895  69.801  1.00  0.00     0.000 HD 
BRANCH   9  12
HETATM   12  C   UNL     1     -10.076   7.169  70.786  1.00  0.00    -0.190 C  
HETATM   13  H   UNL     1      -8.463   7.903  71.657  1.00  0.00     0.000 HD 
HETATM   14  O   UNL     1      -9.047   8.162  70.955  1.00  0.00    -0.143 OA 
BRANCH  12  15
HETATM   15  C   UNL     1      -9.466   5.767  70.619  1.00  0.00    -0.164 C  
HETATM   16  O   UNL     1      -8.874   5.305  71.840  1.00  0.00    -0.133 OA 
HETATM   17  H   UNL     1      -8.497   4.438  71.737  1.00  0.00     0.000 HD 
ENDBRANCH  12  15
ENDBRANCH   9  12
ENDBRANCH   6   9
ENDBRANCH   3   6
TORSDOF 4
ENDMDL
MODEL      261
REMARK 921   NORMALIZED FREE ENERGY PREDICTED BY IDOCK:   -2.06 KCAL/MOL
REMARK 922        TOTAL FREE ENERGY PREDICTED BY IDOCK:   -3.41 KCAL/MOL
REMARK 923 INTER-LIGAND FREE ENERGY PREDICTED BY IDOCK:   -3.27 KCAL/MOL
REMARK 924 INTRA-LIGAND FREE ENERGY PREDICTED BY IDOCK:   -0.14 KCAL/MOL
REMARK 927      BINDING AFFINITY PREDICTED BY RF-SCORE:    0.00 PKD
ROOT
HETATM    1  C   UNL     1      -8.135   8.040  68.532  1.00  0.00    -0.125 C  
HETATM    2  O   UNL     1      -7.351   8.987  68.617  1.00  0.00    -0.075 OA 
HETATM    3  C   UNL     1      -9.091   7.824  67.376  1.00  0.00    -0.126 C  
HETATM    4  O   UNL     1      -8.497   6.914  66.443  1.00  0.00    -0.118 OA 
HETATM    5  H   UNL     1      -9.097   6.779  65.719  1.00  0.00     0.000 HD 
ENDROOT
BRANCH   3   6
HETATM    6  C   UNL     1      -9.445   9.137  66.666  1.00  0.00    -0.185 C  
HETATM    7  O   UNL     1      -9.365   8.905  65.245  1.00  0.00    -0.421 OA 
HETATM    8  H   UNL     1      -9.584   9.719  64.806  1.00  0.00     0.000 HD 
BRANCH   6   9
HETATM    9  C   UNL     1     -10.831   9.740  67.034  1.00  0.00    -0.094 C  
HETATM   10  O   UNL     1     -11.254   9.236  68.312  1.00  0.00    -0.486 OA 
HETATM   11  H   UNL     1     -12.101   9.604  68.537  1.00  0.00     0.000 HD 
BRANCH   9  12
HETATM   12  C   UNL     1     -10.936  11.280  67.052  1.00  0.00    -0.294 C  
HETATM   13  H   UNL     1     -12.208  12.624  67.740  1.00  0.00     0.000 HD 
HETATM   14  O   UNL     1     -12.143  11.677  67.729  1.00  0.00    -0.613 OA 
BRANCH  12  15
HETATM   15  C   UNL     1     -10.842  11.937  65.664  1.00  0.00    -0.286 C  
HETATM   16  O   UNL     1      -9.655  12.733  65.541  1.00  0.00    -0.445 OA 
HETATM   17  H   UNL     1      -9.597  13.139  64.684  1.00  0.00     0.000 HD 
ENDBRANCH  12  15
ENDBRANCH   9  12
ENDBRANCH   6   9
ENDBRANCH   3   6
TORSDOF 4
ENDMDL
MODEL      262
REMARK 921   NORMALIZED FREE ENERGY PREDICTED BY IDOCK:   -2.05 KCAL/MOL
REMARK 922        TOTAL FREE ENERGY PREDICTED BY IDOCK:   -3.40 KCAL/MOL
REMARK 923 INTER-LIGAND FREE ENERGY PREDICTED BY IDOCK:   -3.21 KCAL/MOL
REMARK 924 INTRA-LIGAND FREE ENERGY PREDICTED BY IDOCK:   -0.19 KCAL/MOL
REMARK 927      BINDING AFFINITY PREDICTED BY RF-SCORE:    0.00 PKD
ROOT
HETATM    1  C   UNL     1      -8.576   6.616  71.178  1.00  0.00    -0.130 C  
HETATM    2  O   UNL     1      -7.802   5.999  70.443  1.00  0.00    -0.101 OA 
HETATM    3  C   UNL     1     -10.033   6.881  70.853  1.00  0.00    -0.189 C  
HETATM    4  O   UNL     1     -10.841   5.884  71.486  1.00  0.00    -0.250 OA 
HETATM    5  H   UNL     1     -11.754   6.050  71.282  1.00  0.00     0.000 HD 
ENDROOT
BRANCH   3   6
HETATM    6  C   UNL     1     -10.296   6.881  69.341  1.00  0.00    -0.204 C  
HETATM    7  O   UNL     1     -11.669   6.487  69.134  1.00  0.00    -0.623 OA 
HETATM    8  H   UNL     1     -11.831   6.487  68.198  1.00  0.00     0.000 HD 
BRANCH   6   9
HETATM    9  C   UNL     1     -10.007   8.226  68.615  1.00  0.00    -0.190 C  
HETATM   10  O   UNL     1     -11.032   8.478  67.638  1.00  0.00    -0.501 OA 
HETATM   11  H   UNL     1     -10.855   9.300  67.194  1.00  0.00     0.000 HD 
BRANCH   9  12
HETATM   12  C   UNL     1      -9.856   9.477  69.505  1.00  0.00    -0.193 C  
HETATM   13  H   UNL     1     -11.002  10.980  70.077  1.00  0.00     0.000 HD 
HETATM   14  O   UNL     1     -11.095  10.209  69.529  1.00  0.00    -0.230 OA 
BRANCH  12  15
HETATM   15  C   UNL     1      -8.682  10.393  69.116  1.00  0.00    -0.166 C  
HETATM   16  O   UNL     1      -7.783  10.588  70.216  1.00  0.00    -0.433 OA 
HETATM   17  H   UNL     1      -7.059  11.154  69.976  1.00  0.00     0.000 HD 
ENDBRANCH  12  15
ENDBRANCH   9  12
ENDBRANCH   6   9
ENDBRANCH   3   6
TORSDOF 4
ENDMDL
MODEL      263
REMARK 921   NORMALIZED FREE ENERGY PREDICTED BY IDOCK:   -2.05 KCAL/MOL
REMARK 922        TOTAL FREE ENERGY PREDICTED BY IDOCK:   -3.40 KCAL/MOL
REMARK 923 INTER-LIGAND FREE ENERGY PREDICTED BY IDOCK:   -3.40 KCAL/MOL
REMARK 924 INTRA-LIGAND FREE ENERGY PREDICTED BY IDOCK:    0.00 KCAL/MOL
REMARK 927      BINDING AFFINITY PREDICTED BY RF-SCORE:    0.00 PKD
ROOT
HETATM    1  C   UNL     1      -7.807   6.412  73.180  1.00  0.00    -0.101 C  
HETATM    2  O   UNL     1      -8.414   5.701  73.983  1.00  0.00    -0.115 OA 
HETATM    3  C   UNL     1      -8.449   7.516  72.362  1.00  0.00    -0.108 C  
HETATM    4  O   UNL     1      -8.249   8.766  73.028  1.00  0.00    -0.418 OA 
HETATM    5  H   UNL     1      -8.651   9.458  72.515  1.00  0.00     0.000 HD 
ENDROOT
BRANCH   3   6
HETATM    6  C   UNL     1      -9.949   7.276  72.145  1.00  0.00    -0.165 C  
HETATM    7  O   UNL     1     -10.368   6.250  73.068  1.00  0.00    -0.191 OA 
HETATM    8  H   UNL     1     -11.297   6.102  72.933  1.00  0.00     0.000 HD 
BRANCH   6   9
HETATM    9  C   UNL     1     -10.852   8.534  72.294  1.00  0.00    -0.348 C  
HETATM   10  O   UNL     1     -10.501   9.503  71.292  1.00  0.00    -0.320 OA 
HETATM   11  H   UNL     1     -11.053  10.272  71.383  1.00  0.00     0.000 HD 
BRANCH   9  12
HETATM   12  C   UNL     1     -12.377   8.303  72.244  1.00  0.00    -0.356 C  
HETATM   13  H   UNL     1     -13.612   7.055  71.340  1.00  0.00     0.000 HD 
HETATM   14  O   UNL     1     -12.673   7.197  71.371  1.00  0.00    -0.367 OA 
BRANCH  12  15
HETATM   15  C   UNL     1     -13.194   9.547  71.853  1.00  0.00    -0.439 C  
HETATM   16  O   UNL     1     -13.967   9.314  70.668  1.00  0.00    -0.474 OA 
HETATM   17  H   UNL     1     -14.472  10.082  70.426  1.00  0.00     0.000 HD 
ENDBRANCH  12  15
ENDBRANCH   9  12
ENDBRANCH   6   9
ENDBRANCH   3   6
TORSDOF 4
ENDMDL
MODEL      264
REMARK 921   NORMALIZED FREE ENERGY PREDICTED BY IDOCK:   -2.05 KCAL/MOL
REMARK 922        TOTAL FREE ENERGY PREDICTED BY IDOCK:   -3.40 KCAL/MOL
REMARK 923 INTER-LIGAND FREE ENERGY PREDICTED BY IDOCK:   -3.33 KCAL/MOL
REMARK 924 INTRA-LIGAND FREE ENERGY PREDICTED BY IDOCK:   -0.07 KCAL/MOL
REMARK 927      BINDING AFFINITY PREDICTED BY RF-SCORE:    0.00 PKD
ROOT
HETATM    1  C   UNL     1     -13.725   8.631  71.671  1.00  0.00    -0.384 C  
HETATM    2  O   UNL     1     -14.160   7.481  71.593  1.00  0.00    -0.411 OA 
HETATM    3  C   UNL     1     -12.272   9.010  71.462  1.00  0.00    -0.335 C  
HETATM    4  O   UNL     1     -12.093   9.447  70.111  1.00  0.00    -0.464 OA 
HETATM    5  H   UNL     1     -11.183   9.685  69.980  1.00  0.00     0.000 HD 
ENDROOT
BRANCH   3   6
HETATM    6  C   UNL     1     -11.322   7.842  71.759  1.00  0.00    -0.261 C  
HETATM    7  O   UNL     1     -11.992   6.953  72.677  1.00  0.00    -0.491 OA 
HETATM    8  H   UNL     1     -11.404   6.229  72.860  1.00  0.00     0.000 HD 
BRANCH   6   9
HETATM    9  C   UNL     1     -10.826   7.054  70.513  1.00  0.00    -0.251 C  
HETATM   10  O   UNL     1     -10.152   7.948  69.612  1.00  0.00    -0.188 OA 
HETATM   11  H   UNL     1      -9.849   7.466  68.850  1.00  0.00     0.000 HD 
BRANCH   9  12
HETATM   12  C   UNL     1      -9.911   5.839  70.779  1.00  0.00    -0.183 C  
HETATM   13  H   UNL     1      -9.145   4.937  72.359  1.00  0.00     0.000 HD 
HETATM   14  O   UNL     1      -9.708   5.684  72.196  1.00  0.00    -0.153 OA 
BRANCH  12  15
HETATM   15  C   UNL     1      -8.566   5.883  70.032  1.00  0.00    -0.130 C  
HETATM   16  O   UNL     1      -8.478   4.841  69.052  1.00  0.00    -0.081 OA 
HETATM   17  H   UNL     1      -7.647   4.868  68.591  1.00  0.00     0.000 HD 
ENDBRANCH  12  15
ENDBRANCH   9  12
ENDBRANCH   6   9
ENDBRANCH   3   6
TORSDOF 4
ENDMDL
MODEL      265
REMARK 921   NORMALIZED FREE ENERGY PREDICTED BY IDOCK:   -2.03 KCAL/MOL
REMARK 922        TOTAL FREE ENERGY PREDICTED BY IDOCK:   -3.37 KCAL/MOL
REMARK 923 INTER-LIGAND FREE ENERGY PREDICTED BY IDOCK:   -2.92 KCAL/MOL
REMARK 924 INTRA-LIGAND FREE ENERGY PREDICTED BY IDOCK:   -0.45 KCAL/MOL
REMARK 927      BINDING AFFINITY PREDICTED BY RF-SCORE:    0.00 PKD
ROOT
HETATM    1  C   UNL     1      -7.587   5.797  73.868  1.00  0.00    -0.096 C  
HETATM    2  O   UNL     1      -7.833   4.673  74.310  1.00  0.00    -0.094 OA 
HETATM    3  C   UNL     1      -8.644   6.798  73.444  1.00  0.00    -0.122 C  
HETATM    4  O   UNL     1      -8.893   7.700  74.527  1.00  0.00    -0.415 OA 
HETATM    5  H   UNL     1      -9.555   8.327  74.260  1.00  0.00     0.000 HD 
ENDROOT
BRANCH   3   6
HETATM    6  C   UNL     1      -9.953   6.113  73.027  1.00  0.00    -0.176 C  
HETATM    7  O   UNL     1     -10.988   6.560  73.927  1.00  0.00    -0.445 OA 
HETATM    8  H   UNL     1     -11.799   6.136  73.668  1.00  0.00     0.000 HD 
BRANCH   6   9
HETATM    9  C   UNL     1     -10.386   6.347  71.551  1.00  0.00    -0.207 C  
HETATM   10  O   UNL     1      -9.823   7.580  71.072  1.00  0.00    -0.179 OA 
HETATM   11  H   UNL     1     -10.088   7.723  70.170  1.00  0.00     0.000 HD 
BRANCH   9  12
HETATM   12  C   UNL     1     -10.051   5.227  70.544  1.00  0.00    -0.245 C  
HETATM   13  H   UNL     1      -8.428   4.278  69.939  1.00  0.00     0.000 HD 
HETATM   14  O   UNL     1      -8.635   4.967  70.559  1.00  0.00    -0.105 OA 
BRANCH  12  15
HETATM   15  C   UNL     1     -10.545   5.494  69.112  1.00  0.00    -0.230 C  
HETATM   16  O   UNL     1     -11.657   6.399  69.102  1.00  0.00    -0.608 OA 
HETATM   17  H   UNL     1     -11.963   6.564  68.217  1.00  0.00     0.000 HD 
ENDBRANCH  12  15
ENDBRANCH   9  12
ENDBRANCH   6   9
ENDBRANCH   3   6
TORSDOF 4
ENDMDL
MODEL      266
REMARK 921   NORMALIZED FREE ENERGY PREDICTED BY IDOCK:   -1.99 KCAL/MOL
REMARK 922        TOTAL FREE ENERGY PREDICTED BY IDOCK:   -3.33 KCAL/MOL
REMARK 923 INTER-LIGAND FREE ENERGY PREDICTED BY IDOCK:   -2.74 KCAL/MOL
REMARK 924 INTRA-LIGAND FREE ENERGY PREDICTED BY IDOCK:   -0.59 KCAL/MOL
REMARK 927      BINDING AFFINITY PREDICTED BY RF-SCORE:    0.00 PKD
ROOT
HETATM    1  C   UNL     1      -8.240  10.608  68.409  1.00  0.00    -0.125 C  
HETATM    2  O   UNL     1      -7.622  11.439  67.742  1.00  0.00    -0.098 OA 
HETATM    3  C   UNL     1      -9.735  10.373  68.309  1.00  0.00    -0.151 C  
HETATM    4  O   UNL     1      -9.977   9.273  67.426  1.00  0.00    -0.173 OA 
HETATM    5  H   UNL     1     -10.913   9.126  67.364  1.00  0.00     0.000 HD 
ENDROOT
BRANCH   3   6
HETATM    6  C   UNL     1     -10.482  11.616  67.807  1.00  0.00    -0.187 C  
HETATM    7  O   UNL     1     -11.632  11.166  67.062  1.00  0.00    -0.463 OA 
HETATM    8  H   UNL     1     -12.094  11.936  66.751  1.00  0.00     0.000 HD 
BRANCH   6   9
HETATM    9  C   UNL     1     -10.917  12.623  68.911  1.00  0.00    -0.229 C  
HETATM   10  O   UNL     1      -9.759  13.290  69.440  1.00  0.00    -0.064 OA 
HETATM   11  H   UNL     1     -10.025  13.905  70.115  1.00  0.00     0.000 HD 
BRANCH   9  12
HETATM   12  C   UNL     1     -11.959  13.688  68.507  1.00  0.00    -0.361 C  
HETATM   13  H   UNL     1     -12.408  14.713  66.881  1.00  0.00     0.000 HD 
HETATM   14  O   UNL     1     -11.767  14.057  67.129  1.00  0.00    -0.349 OA 
BRANCH  12  15
HETATM   15  C   UNL     1     -11.977  14.931  69.413  1.00  0.00    -0.301 C  
HETATM   16  O   UNL     1     -10.973  15.877  69.025  1.00  0.00    -0.240 OA 
HETATM   17  H   UNL     1     -10.984  16.645  69.585  1.00  0.00     0.000 HD 
ENDBRANCH  12  15
ENDBRANCH   9  12
ENDBRANCH   6   9
ENDBRANCH   3   6
TORSDOF 4
ENDMDL
MODEL      267
REMARK 921   NORMALIZED FREE ENERGY PREDICTED BY IDOCK:   -1.99 KCAL/MOL
REMARK 922        TOTAL FREE ENERGY PREDICTED BY IDOCK:   -3.32 KCAL/MOL
REMARK 923 INTER-LIGAND FREE ENERGY PREDICTED BY IDOCK:   -2.47 KCAL/MOL
REMARK 924 INTRA-LIGAND FREE ENERGY PREDICTED BY IDOCK:   -0.85 KCAL/MOL
REMARK 927      BINDING AFFINITY PREDICTED BY RF-SCORE:    0.00 PKD
ROOT
HETATM    1  C   UNL     1     -11.084  10.492  67.856  1.00  0.00    -0.304 C  
HETATM    2  O   UNL     1     -10.568  10.122  66.800  1.00  0.00    -0.223 OA 
HETATM    3  C   UNL     1     -10.803   9.866  69.208  1.00  0.00    -0.227 C  
HETATM    4  O   UNL     1      -9.799  10.636  69.879  1.00  0.00    -0.423 OA 
HETATM    5  H   UNL     1      -9.623  10.244  70.726  1.00  0.00     0.000 HD 
ENDROOT
BRANCH   3   6
HETATM    6  C   UNL     1     -10.342   8.408  69.085  1.00  0.00    -0.220 C  
HETATM    7  O   UNL     1     -11.121   7.788  68.041  1.00  0.00    -0.457 OA 
HETATM    8  H   UNL     1     -10.836   6.885  67.964  1.00  0.00     0.000 HD 
BRANCH   6   9
HETATM    9  C   UNL     1      -8.824   8.209  68.812  1.00  0.00    -0.138 C  
HETATM   10  O   UNL     1      -8.095   8.289  70.048  1.00  0.00    -0.111 OA 
HETATM   11  H   UNL     1      -7.167   8.168  69.882  1.00  0.00     0.000 HD 
BRANCH   9  12
HETATM   12  C   UNL     1      -8.413   6.914  68.080  1.00  0.00    -0.124 C  
HETATM   13  H   UNL     1      -8.738   4.978  68.296  1.00  0.00     0.000 HD 
HETATM   14  O   UNL     1      -8.991   5.776  68.746  1.00  0.00    -0.116 OA 
BRANCH  12  15
HETATM   15  C   UNL     1      -6.895   6.738  67.907  1.00  0.00    -0.077 C  
HETATM   16  O   UNL     1      -6.255   7.983  67.596  1.00  0.00    -0.049 OA 
HETATM   17  H   UNL     1      -5.317   7.875  67.488  1.00  0.00     0.000 HD 
ENDBRANCH  12  15
ENDBRANCH   9  12
ENDBRANCH   6   9
ENDBRANCH   3   6
TORSDOF 4
ENDMDL
MODEL      268
REMARK 921   NORMALIZED FREE ENERGY PREDICTED BY IDOCK:   -1.99 KCAL/MOL
REMARK 922        TOTAL FREE ENERGY PREDICTED BY IDOCK:   -3.32 KCAL/MOL
REMARK 923 INTER-LIGAND FREE ENERGY PREDICTED BY IDOCK:   -2.71 KCAL/MOL
REMARK 924 INTRA-LIGAND FREE ENERGY PREDICTED BY IDOCK:   -0.61 KCAL/MOL
REMARK 927      BINDING AFFINITY PREDICTED BY RF-SCORE:    0.00 PKD
ROOT
HETATM    1  C   UNL     1      -7.559   6.386  73.525  1.00  0.00    -0.093 C  
HETATM    2  O   UNL     1      -8.460   5.835  74.161  1.00  0.00    -0.113 OA 
HETATM    3  C   UNL     1      -7.783   7.486  72.506  1.00  0.00    -0.094 C  
HETATM    4  O   UNL     1      -7.586   8.755  73.138  1.00  0.00    -0.375 OA 
HETATM    5  H   UNL     1      -7.726   9.444  72.500  1.00  0.00     0.000 HD 
ENDROOT
BRANCH   3   6
HETATM    6  C   UNL     1      -9.188   7.425  71.891  1.00  0.00    -0.133 C  
HETATM    7  O   UNL     1     -10.105   8.022  72.831  1.00  0.00    -0.282 OA 
HETATM    8  H   UNL     1     -10.975   7.984  72.449  1.00  0.00     0.000 HD 
BRANCH   6   9
HETATM    9  C   UNL     1      -9.333   8.100  70.496  1.00  0.00    -0.155 C  
HETATM   10  O   UNL     1      -8.466   7.450  69.552  1.00  0.00    -0.131 OA 
HETATM   11  H   UNL     1      -8.555   7.862  68.700  1.00  0.00     0.000 HD 
BRANCH   9  12
HETATM   12  C   UNL     1     -10.755   8.160  69.900  1.00  0.00    -0.241 C  
HETATM   13  H   UNL     1     -12.391   9.228  70.191  1.00  0.00     0.000 HD 
HETATM   14  O   UNL     1     -11.515   9.190  70.558  1.00  0.00    -0.262 OA 
BRANCH  12  15
HETATM   15  C   UNL     1     -11.510   6.820  69.922  1.00  0.00    -0.300 C  
HETATM   16  O   UNL     1     -12.634   6.866  70.810  1.00  0.00    -0.532 OA 
HETATM   17  H   UNL     1     -13.100   6.038  70.825  1.00  0.00     0.000 HD 
ENDBRANCH  12  15
ENDBRANCH   9  12
ENDBRANCH   6   9
ENDBRANCH   3   6
TORSDOF 4
ENDMDL
MODEL      269
REMARK 921   NORMALIZED FREE ENERGY PREDICTED BY IDOCK:   -1.96 KCAL/MOL
REMARK 922        TOTAL FREE ENERGY PREDICTED BY IDOCK:   -3.29 KCAL/MOL
REMARK 923 INTER-LIGAND FREE ENERGY PREDICTED BY IDOCK:   -2.52 KCAL/MOL
REMARK 924 INTRA-LIGAND FREE ENERGY PREDICTED BY IDOCK:   -0.77 KCAL/MOL
REMARK 927      BINDING AFFINITY PREDICTED BY RF-SCORE:    0.00 PKD
ROOT
HETATM    1  C   UNL     1     -10.242   5.007  70.237  1.00  0.00    -0.258 C  
HETATM    2  O   UNL     1     -10.629   5.605  69.231  1.00  0.00    -0.267 OA 
HETATM    3  C   UNL     1     -10.200   5.612  71.627  1.00  0.00    -0.208 C  
HETATM    4  O   UNL     1     -11.387   5.241  72.334  1.00  0.00    -0.213 OA 
HETATM    5  H   UNL     1     -11.360   5.620  73.205  1.00  0.00     0.000 HD 
ENDROOT
BRANCH   3   6
HETATM    6  C   UNL     1     -10.076   7.141  71.586  1.00  0.00    -0.185 C  
HETATM    7  O   UNL     1     -11.303   7.667  71.039  1.00  0.00    -0.263 OA 
HETATM    8  H   UNL     1     -11.226   8.614  71.015  1.00  0.00     0.000 HD 
BRANCH   6   9
HETATM    9  C   UNL     1      -9.762   7.820  72.950  1.00  0.00    -0.249 C  
HETATM   10  O   UNL     1     -10.317   7.036  74.020  1.00  0.00    -0.364 OA 
HETATM   11  H   UNL     1     -10.125   7.451  74.854  1.00  0.00     0.000 HD 
BRANCH   9  12
HETATM   12  C   UNL     1      -8.276   8.097  73.262  1.00  0.00    -0.199 C  
HETATM   13  H   UNL     1      -6.553   7.923  72.313  1.00  0.00     0.000 HD 
HETATM   14  O   UNL     1      -7.468   7.753  72.121  1.00  0.00    -0.069 OA 
BRANCH  12  15
HETATM   15  C   UNL     1      -7.755   7.406  74.534  1.00  0.00    -0.147 C  
HETATM   16  O   UNL     1      -7.758   5.979  74.393  1.00  0.00    -0.097 OA 
HETATM   17  H   UNL     1      -7.437   5.552  75.179  1.00  0.00     0.000 HD 
ENDBRANCH  12  15
ENDBRANCH   9  12
ENDBRANCH   6   9
ENDBRANCH   3   6
TORSDOF 4
ENDMDL
MODEL      270
REMARK 921   NORMALIZED FREE ENERGY PREDICTED BY IDOCK:   -1.90 KCAL/MOL
REMARK 922        TOTAL FREE ENERGY PREDICTED BY IDOCK:   -3.22 KCAL/MOL
REMARK 923 INTER-LIGAND FREE ENERGY PREDICTED BY IDOCK:   -2.81 KCAL/MOL
REMARK 924 INTRA-LIGAND FREE ENERGY PREDICTED BY IDOCK:   -0.40 KCAL/MOL
REMARK 927      BINDING AFFINITY PREDICTED BY RF-SCORE:    0.00 PKD
ROOT
HETATM    1  C   UNL     1      -8.352   9.966  67.021  1.00  0.00    -0.121 C  
HETATM    2  O   UNL     1      -9.378   9.502  66.523  1.00  0.00    -0.154 OA 
HETATM    3  C   UNL     1      -8.331  11.053  68.078  1.00  0.00    -0.125 C  
HETATM    4  O   UNL     1      -8.220  10.445  69.369  1.00  0.00    -0.157 OA 
HETATM    5  H   UNL     1      -8.208  11.126  70.031  1.00  0.00     0.000 HD 
ENDROOT
BRANCH   3   6
HETATM    6  C   UNL     1      -9.587  11.933  68.025  1.00  0.00    -0.193 C  
HETATM    7  O   UNL     1     -10.101  12.048  69.368  1.00  0.00    -0.353 OA 
HETATM    8  H   UNL     1     -10.878  12.594  69.334  1.00  0.00     0.000 HD 
BRANCH   6   9
HETATM    9  C   UNL     1      -9.384  13.345  67.404  1.00  0.00    -0.221 C  
HETATM   10  O   UNL     1      -8.074  13.433  66.819  1.00  0.00    -0.403 OA 
HETATM   11  H   UNL     1      -7.950  14.296  66.440  1.00  0.00     0.000 HD 
BRANCH   9  12
HETATM   12  C   UNL     1     -10.423  13.800  66.358  1.00  0.00    -0.284 C  
HETATM   13  H   UNL     1     -10.755  13.491  64.436  1.00  0.00     0.000 HD 
HETATM   14  O   UNL     1     -10.116  13.212  65.080  1.00  0.00    -0.281 OA 
BRANCH  12  15
HETATM   15  C   UNL     1     -10.577  15.326  66.238  1.00  0.00    -0.309 C  
HETATM   16  O   UNL     1      -9.386  16.006  66.655  1.00  0.00    -0.213 OA 
HETATM   17  H   UNL     1      -9.481  16.949  66.581  1.00  0.00     0.000 HD 
ENDBRANCH  12  15
ENDBRANCH   9  12
ENDBRANCH   6   9
ENDBRANCH   3   6
TORSDOF 4
ENDMDL
MODEL      271
REMARK 921   NORMALIZED FREE ENERGY PREDICTED BY IDOCK:   -1.90 KCAL/MOL
REMARK 922        TOTAL FREE ENERGY PREDICTED BY IDOCK:   -3.21 KCAL/MOL
REMARK 923 INTER-LIGAND FREE ENERGY PREDICTED BY IDOCK:   -2.99 KCAL/MOL
REMARK 924 INTRA-LIGAND FREE ENERGY PREDICTED BY IDOCK:   -0.22 KCAL/MOL
REMARK 927      BINDING AFFINITY PREDICTED BY RF-SCORE:    0.00 PKD
ROOT
HETATM    1  C   UNL     1      -9.322   5.936  68.942  1.00  0.00    -0.126 C  
HETATM    2  O   UNL     1      -8.494   6.813  69.196  1.00  0.00    -0.126 OA 
HETATM    3  C   UNL     1     -10.707   5.867  69.555  1.00  0.00    -0.343 C  
HETATM    4  O   UNL     1     -11.645   6.471  68.658  1.00  0.00    -0.560 OA 
HETATM    5  H   UNL     1     -12.513   6.427  69.042  1.00  0.00     0.000 HD 
ENDROOT
BRANCH   3   6
HETATM    6  C   UNL     1     -10.771   6.566  70.920  1.00  0.00    -0.242 C  
HETATM    7  O   UNL     1     -12.137   6.971  71.143  1.00  0.00    -0.333 OA 
HETATM    8  H   UNL     1     -12.176   7.404  71.988  1.00  0.00     0.000 HD 
BRANCH   6   9
HETATM    9  C   UNL     1     -10.256   5.725  72.123  1.00  0.00    -0.199 C  
HETATM   10  O   UNL     1      -9.092   4.979  71.729  1.00  0.00    -0.134 OA 
HETATM   11  H   UNL     1      -8.778   4.465  72.464  1.00  0.00     0.000 HD 
BRANCH   9  12
HETATM   12  C   UNL     1      -9.932   6.495  73.420  1.00  0.00    -0.198 C  
HETATM   13  H   UNL     1     -10.696   8.022  74.413  1.00  0.00     0.000 HD 
HETATM   14  O   UNL     1     -10.895   7.548  73.614  1.00  0.00    -0.329 OA 
BRANCH  12  15
HETATM   15  C   UNL     1      -8.496   7.044  73.490  1.00  0.00    -0.130 C  
HETATM   16  O   UNL     1      -8.411   8.362  72.933  1.00  0.00    -0.268 OA 
HETATM   17  H   UNL     1      -7.524   8.701  72.976  1.00  0.00     0.000 HD 
ENDBRANCH  12  15
ENDBRANCH   9  12
ENDBRANCH   6   9
ENDBRANCH   3   6
TORSDOF 4
ENDMDL
MODEL      272
REMARK 921   NORMALIZED FREE ENERGY PREDICTED BY IDOCK:   -1.89 KCAL/MOL
REMARK 922        TOTAL FREE ENERGY PREDICTED BY IDOCK:   -3.19 KCAL/MOL
REMARK 923 INTER-LIGAND FREE ENERGY PREDICTED BY IDOCK:   -2.92 KCAL/MOL
REMARK 924 INTRA-LIGAND FREE ENERGY PREDICTED BY IDOCK:   -0.27 KCAL/MOL
REMARK 927      BINDING AFFINITY PREDICTED BY RF-SCORE:    0.00 PKD
ROOT
HETATM    1  C   UNL     1     -10.489   8.563  71.722  1.00  0.00    -0.300 C  
HETATM    2  O   UNL     1      -9.438   8.910  72.264  1.00  0.00    -0.327 OA 
HETATM    3  C   UNL     1     -10.571   7.590  70.562  1.00  0.00    -0.225 C  
HETATM    4  O   UNL     1     -10.852   6.282  71.068  1.00  0.00    -0.246 OA 
HETATM    5  H   UNL     1     -10.903   5.673  70.341  1.00  0.00     0.000 HD 
ENDROOT
BRANCH   3   6
HETATM    6  C   UNL     1      -9.275   7.562  69.740  1.00  0.00    -0.147 C  
HETATM    7  O   UNL     1      -8.656   6.274  69.941  1.00  0.00    -0.131 OA 
HETATM    8  H   UNL     1      -7.853   6.257  69.432  1.00  0.00     0.000 HD 
BRANCH   6   9
HETATM    9  C   UNL     1      -9.444   7.846  68.220  1.00  0.00    -0.144 C  
HETATM   10  O   UNL     1      -8.605   8.949  67.838  1.00  0.00    -0.125 OA 
HETATM   11  H   UNL     1      -8.708   9.123  66.910  1.00  0.00     0.000 HD 
BRANCH   9  12
HETATM   12  C   UNL     1      -9.177   6.668  67.260  1.00  0.00    -0.125 C  
HETATM   13  H   UNL     1      -8.381   6.427  65.469  1.00  0.00     0.000 HD 
HETATM   14  O   UNL     1      -8.546   7.152  66.060  1.00  0.00    -0.142 OA 
BRANCH  12  15
HETATM   15  C   UNL     1     -10.421   5.827  66.926  1.00  0.00    -0.285 C  
HETATM   16  O   UNL     1     -11.623   6.599  67.052  1.00  0.00    -0.727 OA 
HETATM   17  H   UNL     1     -12.392   6.080  66.847  1.00  0.00     0.000 HD 
ENDBRANCH  12  15
ENDBRANCH   9  12
ENDBRANCH   6   9
ENDBRANCH   3   6
TORSDOF 4
ENDMDL
MODEL      273
REMARK 921   NORMALIZED FREE ENERGY PREDICTED BY IDOCK:   -1.88 KCAL/MOL
REMARK 922        TOTAL FREE ENERGY PREDICTED BY IDOCK:   -3.19 KCAL/MOL
REMARK 923 INTER-LIGAND FREE ENERGY PREDICTED BY IDOCK:   -2.58 KCAL/MOL
REMARK 924 INTRA-LIGAND FREE ENERGY PREDICTED BY IDOCK:   -0.61 KCAL/MOL
REMARK 927      BINDING AFFINITY PREDICTED BY RF-SCORE:    0.00 PKD
ROOT
HETATM    1  C   UNL     1     -10.238   4.049  65.009  1.00  0.00    -0.181 C  
HETATM    2  O   UNL     1      -9.470   3.086  64.993  1.00  0.00    -0.155 OA 
HETATM    3  C   UNL     1     -10.177   5.173  66.026  1.00  0.00    -0.179 C  
HETATM    4  O   UNL     1      -9.438   6.265  65.470  1.00  0.00    -0.371 OA 
HETATM    5  H   UNL     1      -9.400   6.969  66.107  1.00  0.00     0.000 HD 
ENDROOT
BRANCH   3   6
HETATM    6  C   UNL     1      -9.530   4.725  67.343  1.00  0.00    -0.146 C  
HETATM    7  O   UNL     1      -8.145   4.426  67.073  1.00  0.00    -0.101 OA 
HETATM    8  H   UNL     1      -7.744   4.148  67.889  1.00  0.00     0.000 HD 
BRANCH   6   9
HETATM    9  C   UNL     1      -9.641   5.739  68.518  1.00  0.00    -0.126 C  
HETATM   10  O   UNL     1      -8.591   6.715  68.416  1.00  0.00    -0.124 OA 
HETATM   11  H   UNL     1      -8.659   7.334  69.134  1.00  0.00     0.000 HD 
BRANCH   9  12
HETATM   12  C   UNL     1     -10.987   6.477  68.673  1.00  0.00    -0.293 C  
HETATM   13  H   UNL     1     -11.761   8.193  68.076  1.00  0.00     0.000 HD 
HETATM   14  O   UNL     1     -10.933   7.738  67.981  1.00  0.00    -0.034 OA 
BRANCH  12  15
HETATM   15  C   UNL     1     -11.442   6.668  70.130  1.00  0.00    -0.385 C  
HETATM   16  O   UNL     1     -11.996   7.974  70.339  1.00  0.00    -0.481 OA 
HETATM   17  H   UNL     1     -12.276   8.092  71.240  1.00  0.00     0.000 HD 
ENDBRANCH  12  15
ENDBRANCH   9  12
ENDBRANCH   6   9
ENDBRANCH   3   6
TORSDOF 4
ENDMDL
MODEL      274
REMARK 921   NORMALIZED FREE ENERGY PREDICTED BY IDOCK:   -1.88 KCAL/MOL
REMARK 922        TOTAL FREE ENERGY PREDICTED BY IDOCK:   -3.18 KCAL/MOL
REMARK 923 INTER-LIGAND FREE ENERGY PREDICTED BY IDOCK:   -2.59 KCAL/MOL
REMARK 924 INTRA-LIGAND FREE ENERGY PREDICTED BY IDOCK:   -0.59 KCAL/MOL
REMARK 927      BINDING AFFINITY PREDICTED BY RF-SCORE:    0.00 PKD
ROOT
HETATM    1  C   UNL     1      -9.812   4.457  69.212  1.00  0.00    -0.148 C  
HETATM    2  O   UNL     1      -9.976   3.984  70.337  1.00  0.00    -0.182 OA 
HETATM    3  C   UNL     1      -9.669   5.938  68.921  1.00  0.00    -0.135 C  
HETATM    4  O   UNL     1      -8.278   6.266  68.840  1.00  0.00    -0.111 OA 
HETATM    5  H   UNL     1      -8.188   7.194  68.657  1.00  0.00     0.000 HD 
ENDROOT
BRANCH   3   6
HETATM    6  C   UNL     1     -10.344   6.805  69.993  1.00  0.00    -0.199 C  
HETATM    7  O   UNL     1     -11.709   6.357  70.123  1.00  0.00    -0.422 OA 
HETATM    8  H   UNL     1     -12.127   6.894  70.787  1.00  0.00     0.000 HD 
BRANCH   6   9
HETATM    9  C   UNL     1      -9.645   6.810  71.382  1.00  0.00    -0.167 C  
HETATM   10  O   UNL     1      -8.478   7.648  71.334  1.00  0.00    -0.112 OA 
HETATM   11  H   UNL     1      -8.051   7.651  72.183  1.00  0.00     0.000 HD 
BRANCH   9  12
HETATM   12  C   UNL     1     -10.506   7.233  72.591  1.00  0.00    -0.246 C  
HETATM   13  H   UNL     1     -10.308   8.438  74.143  1.00  0.00     0.000 HD 
HETATM   14  O   UNL     1      -9.779   8.177  73.399  1.00  0.00    -0.248 OA 
BRANCH  12  15
HETATM   15  C   UNL     1     -11.022   6.061  73.443  1.00  0.00    -0.173 C  
HETATM   16  O   UNL     1     -12.146   5.420  72.826  1.00  0.00    -0.448 OA 
HETATM   17  H   UNL     1     -12.465   4.696  73.353  1.00  0.00     0.000 HD 
ENDBRANCH  12  15
ENDBRANCH   9  12
ENDBRANCH   6   9
ENDBRANCH   3   6
TORSDOF 4
ENDMDL
MODEL      275
REMARK 921   NORMALIZED FREE ENERGY PREDICTED BY IDOCK:   -1.88 KCAL/MOL
REMARK 922        TOTAL FREE ENERGY PREDICTED BY IDOCK:   -3.18 KCAL/MOL
REMARK 923 INTER-LIGAND FREE ENERGY PREDICTED BY IDOCK:   -2.95 KCAL/MOL
REMARK 924 INTRA-LIGAND FREE ENERGY PREDICTED BY IDOCK:   -0.23 KCAL/MOL
REMARK 927      BINDING AFFINITY PREDICTED BY RF-SCORE:    0.00 PKD
ROOT
HETATM    1  C   UNL     1      -9.487   3.913  69.159  1.00  0.00    -0.176 C  
HETATM    2  O   UNL     1      -9.341   3.430  70.283  1.00  0.00    -0.142 OA 
HETATM    3  C   UNL     1      -9.456   5.399  68.858  1.00  0.00    -0.133 C  
HETATM    4  O   UNL     1      -8.142   5.759  68.419  1.00  0.00    -0.106 OA 
HETATM    5  H   UNL     1      -8.123   6.690  68.231  1.00  0.00     0.000 HD 
ENDROOT
BRANCH   3   6
HETATM    6  C   UNL     1      -9.845   6.244  70.079  1.00  0.00    -0.169 C  
HETATM    7  O   UNL     1      -8.796   7.209  70.298  1.00  0.00    -0.146 OA 
HETATM    8  H   UNL     1      -9.037   7.732  71.054  1.00  0.00     0.000 HD 
BRANCH   6   9
HETATM    9  C   UNL     1     -11.222   6.960  69.981  1.00  0.00    -0.299 C  
HETATM   10  O   UNL     1     -11.868   6.602  68.748  1.00  0.00    -0.379 OA 
HETATM   11  H   UNL     1     -12.710   7.040  68.688  1.00  0.00     0.000 HD 
BRANCH   9  12
HETATM   12  C   UNL     1     -12.211   6.725  71.142  1.00  0.00    -0.360 C  
HETATM   13  H   UNL     1     -13.869   7.566  71.810  1.00  0.00     0.000 HD 
HETATM   14  O   UNL     1     -13.260   7.710  71.095  1.00  0.00    -0.250 OA 
BRANCH  12  15
HETATM   15  C   UNL     1     -11.557   6.684  72.534  1.00  0.00    -0.205 C  
HETATM   16  O   UNL     1     -11.655   7.952  73.196  1.00  0.00    -0.587 OA 
HETATM   17  H   UNL     1     -11.250   7.926  74.056  1.00  0.00     0.000 HD 
ENDBRANCH  12  15
ENDBRANCH   9  12
ENDBRANCH   6   9
ENDBRANCH   3   6
TORSDOF 4
ENDMDL
MODEL      276
REMARK 921   NORMALIZED FREE ENERGY PREDICTED BY IDOCK:   -1.87 KCAL/MOL
REMARK 922        TOTAL FREE ENERGY PREDICTED BY IDOCK:   -3.17 KCAL/MOL
REMARK 923 INTER-LIGAND FREE ENERGY PREDICTED BY IDOCK:   -2.80 KCAL/MOL
REMARK 924 INTRA-LIGAND FREE ENERGY PREDICTED BY IDOCK:   -0.38 KCAL/MOL
REMARK 927      BINDING AFFINITY PREDICTED BY RF-SCORE:    0.00 PKD
ROOT
HETATM    1  C   UNL     1     -11.519  10.485  68.438  1.00  0.00    -0.214 C  
HETATM    2  O   UNL     1     -11.512  10.831  67.255  1.00  0.00    -0.436 OA 
HETATM    3  C   UNL     1     -10.536   9.503  69.046  1.00  0.00    -0.219 C  
HETATM    4  O   UNL     1      -9.472  10.232  69.667  1.00  0.00    -0.301 OA 
HETATM    5  H   UNL     1      -8.857   9.617  70.048  1.00  0.00     0.000 HD 
ENDROOT
BRANCH   3   6
HETATM    6  C   UNL     1      -9.962   8.538  68.000  1.00  0.00    -0.183 C  
HETATM    7  O   UNL     1     -11.021   8.211  67.077  1.00  0.00    -0.422 OA 
HETATM    8  H   UNL     1     -10.666   7.613  66.429  1.00  0.00     0.000 HD 
BRANCH   6   9
HETATM    9  C   UNL     1      -8.717   9.058  67.226  1.00  0.00    -0.118 C  
HETATM   10  O   UNL     1      -7.563   8.281  67.589  1.00  0.00    -0.095 OA 
HETATM   11  H   UNL     1      -6.802   8.599  67.117  1.00  0.00     0.000 HD 
BRANCH   9  12
HETATM   12  C   UNL     1      -8.821   9.097  65.687  1.00  0.00    -0.185 C  
HETATM   13  H   UNL     1      -7.886   8.259  64.163  1.00  0.00     0.000 HD 
HETATM   14  O   UNL     1      -7.822   8.236  65.110  1.00  0.00    -0.105 OA 
BRANCH  12  15
HETATM   15  C   UNL     1      -8.747  10.509  65.082  1.00  0.00    -0.185 C  
HETATM   16  O   UNL     1      -7.394  10.978  65.013  1.00  0.00    -0.334 OA 
HETATM   17  H   UNL     1      -7.348  11.851  64.639  1.00  0.00     0.000 HD 
ENDBRANCH  12  15
ENDBRANCH   9  12
ENDBRANCH   6   9
ENDBRANCH   3   6
TORSDOF 4
ENDMDL
MODEL      277
REMARK 921   NORMALIZED FREE ENERGY PREDICTED BY IDOCK:   -1.86 KCAL/MOL
REMARK 922        TOTAL FREE ENERGY PREDICTED BY IDOCK:   -3.17 KCAL/MOL
REMARK 923 INTER-LIGAND FREE ENERGY PREDICTED BY IDOCK:   -2.85 KCAL/MOL
REMARK 924 INTRA-LIGAND FREE ENERGY PREDICTED BY IDOCK:   -0.31 KCAL/MOL
REMARK 927      BINDING AFFINITY PREDICTED BY RF-SCORE:    0.00 PKD
ROOT
HETATM    1  C   UNL     1      -8.048   9.197  67.185  1.00  0.00    -0.109 C  
HETATM    2  O   UNL     1      -8.286   8.404  66.273  1.00  0.00    -0.112 OA 
HETATM    3  C   UNL     1      -9.111   9.921  67.987  1.00  0.00    -0.121 C  
HETATM    4  O   UNL     1      -9.353   9.199  69.199  1.00  0.00    -0.149 OA 
HETATM    5  H   UNL     1     -10.019   9.652  69.702  1.00  0.00     0.000 HD 
ENDROOT
BRANCH   3   6
HETATM    6  C   UNL     1     -10.422  10.073  67.204  1.00  0.00    -0.244 C  
HETATM    7  O   UNL     1     -11.511   9.808  68.112  1.00  0.00    -0.520 OA 
HETATM    8  H   UNL     1     -12.322   9.902  67.626  1.00  0.00     0.000 HD 
BRANCH   6   9
HETATM    9  C   UNL     1     -10.626  11.449  66.508  1.00  0.00    -0.263 C  
HETATM   10  O   UNL     1      -9.358  12.112  66.366  1.00  0.00    -0.221 OA 
HETATM   11  H   UNL     1      -9.482  12.953  65.941  1.00  0.00     0.000 HD 
BRANCH   9  12
HETATM   12  C   UNL     1     -11.332  11.436  65.136  1.00  0.00    -0.009 C  
HETATM   13  H   UNL     1     -10.797  11.216  63.248  1.00  0.00     0.000 HD 
HETATM   14  O   UNL     1     -10.363  11.224  64.092  1.00  0.00    -0.294 OA 
BRANCH  12  15
HETATM   15  C   UNL     1     -12.185  12.684  64.849  1.00  0.00    -0.471 C  
HETATM   16  O   UNL     1     -11.856  13.758  65.740  1.00  0.00    -0.340 OA 
HETATM   17  H   UNL     1     -12.383  14.529  65.563  1.00  0.00     0.000 HD 
ENDBRANCH  12  15
ENDBRANCH   9  12
ENDBRANCH   6   9
ENDBRANCH   3   6
TORSDOF 4
ENDMDL
MODEL      278
REMARK 921   NORMALIZED FREE ENERGY PREDICTED BY IDOCK:   -1.86 KCAL/MOL
REMARK 922        TOTAL FREE ENERGY PREDICTED BY IDOCK:   -3.16 KCAL/MOL
REMARK 923 INTER-LIGAND FREE ENERGY PREDICTED BY IDOCK:   -3.06 KCAL/MOL
REMARK 924 INTRA-LIGAND FREE ENERGY PREDICTED BY IDOCK:   -0.10 KCAL/MOL
REMARK 927      BINDING AFFINITY PREDICTED BY RF-SCORE:    0.00 PKD
ROOT
HETATM    1  C   UNL     1      -8.947   7.040  67.064  1.00  0.00    -0.125 C  
HETATM    2  O   UNL     1      -7.981   7.261  67.796  1.00  0.00    -0.111 OA 
HETATM    3  C   UNL     1     -10.247   7.820  67.107  1.00  0.00    -0.295 C  
HETATM    4  O   UNL     1     -10.212   8.841  66.105  1.00  0.00    -0.405 OA 
HETATM    5  H   UNL     1     -11.026   9.329  66.132  1.00  0.00     0.000 HD 
ENDROOT
BRANCH   3   6
HETATM    6  C   UNL     1     -10.495   8.452  68.484  1.00  0.00    -0.164 C  
HETATM    7  O   UNL     1     -11.214   9.685  68.278  1.00  0.00    -0.500 OA 
HETATM    8  H   UNL     1     -11.368  10.076  69.130  1.00  0.00     0.000 HD 
BRANCH   6   9
HETATM    9  C   UNL     1     -11.252   7.552  69.502  1.00  0.00     0.048 C  
HETATM   10  O   UNL     1     -11.281   6.197  69.023  1.00  0.00    -0.383 OA 
HETATM   11  H   UNL     1     -11.744   5.648  69.646  1.00  0.00     0.000 HD 
BRANCH   9  12
HETATM   12  C   UNL     1     -10.724   7.551  70.953  1.00  0.00    -0.235 C  
HETATM   13  H   UNL     1     -10.712   6.293  72.475  1.00  0.00     0.000 HD 
HETATM   14  O   UNL     1     -11.036   6.294  71.582  1.00  0.00    -0.253 OA 
BRANCH  12  15
HETATM   15  C   UNL     1     -11.217   8.731  71.808  1.00  0.00    -0.340 C  
HETATM   16  O   UNL     1     -10.915   9.988  71.187  1.00  0.00    -0.302 OA 
HETATM   17  H   UNL     1     -11.219  10.718  71.715  1.00  0.00     0.000 HD 
ENDBRANCH  12  15
ENDBRANCH   9  12
ENDBRANCH   6   9
ENDBRANCH   3   6
TORSDOF 4
ENDMDL
MODEL      279
REMARK 921   NORMALIZED FREE ENERGY PREDICTED BY IDOCK:   -1.84 KCAL/MOL
REMARK 922        TOTAL FREE ENERGY PREDICTED BY IDOCK:   -3.14 KCAL/MOL
REMARK 923 INTER-LIGAND FREE ENERGY PREDICTED BY IDOCK:   -2.61 KCAL/MOL
REMARK 924 INTRA-LIGAND FREE ENERGY PREDICTED BY IDOCK:   -0.53 KCAL/MOL
REMARK 927      BINDING AFFINITY PREDICTED BY RF-SCORE:    0.00 PKD
ROOT
HETATM    1  C   UNL     1      -9.963   9.575  67.820  1.00  0.00    -0.174 C  
HETATM    2  O   UNL     1     -10.957   9.923  68.460  1.00  0.00    -0.225 OA 
HETATM    3  C   UNL     1      -9.590   8.132  67.540  1.00  0.00    -0.157 C  
HETATM    4  O   UNL     1     -10.074   7.768  66.243  1.00  0.00    -0.470 OA 
HETATM    5  H   UNL     1      -9.839   6.865  66.068  1.00  0.00     0.000 HD 
ENDROOT
BRANCH   3   6
HETATM    6  C   UNL     1     -10.159   7.173  68.594  1.00  0.00    -0.173 C  
HETATM    7  O   UNL     1     -11.496   6.815  68.186  1.00  0.00    -0.545 OA 
HETATM    8  H   UNL     1     -11.848   6.222  68.839  1.00  0.00     0.000 HD 
BRANCH   6   9
HETATM    9  C   UNL     1      -9.316   5.893  68.855  1.00  0.00    -0.126 C  
HETATM   10  O   UNL     1      -7.940   6.143  68.519  1.00  0.00    -0.105 OA 
HETATM   11  H   UNL     1      -7.425   5.360  68.678  1.00  0.00     0.000 HD 
BRANCH   9  12
HETATM   12  C   UNL     1      -9.376   5.299  70.278  1.00  0.00    -0.158 C  
HETATM   13  H   UNL     1     -10.767   4.979  71.642  1.00  0.00     0.000 HD 
HETATM   14  O   UNL     1     -10.730   5.344  70.766  1.00  0.00    -0.248 OA 
BRANCH  12  15
HETATM   15  C   UNL     1      -8.408   5.952  71.279  1.00  0.00    -0.124 C  
HETATM   16  O   UNL     1      -7.940   5.004  72.248  1.00  0.00    -0.104 OA 
HETATM   17  H   UNL     1      -7.342   5.408  72.867  1.00  0.00     0.000 HD 
ENDBRANCH  12  15
ENDBRANCH   9  12
ENDBRANCH   6   9
ENDBRANCH   3   6
TORSDOF 4
ENDMDL
MODEL      280
REMARK 921   NORMALIZED FREE ENERGY PREDICTED BY IDOCK:   -1.84 KCAL/MOL
REMARK 922        TOTAL FREE ENERGY PREDICTED BY IDOCK:   -3.14 KCAL/MOL
REMARK 923 INTER-LIGAND FREE ENERGY PREDICTED BY IDOCK:   -2.85 KCAL/MOL
REMARK 924 INTRA-LIGAND FREE ENERGY PREDICTED BY IDOCK:   -0.29 KCAL/MOL
REMARK 927      BINDING AFFINITY PREDICTED BY RF-SCORE:    0.00 PKD
ROOT
HETATM    1  C   UNL     1     -11.203   6.223  70.258  1.00  0.00    -0.388 C  
HETATM    2  O   UNL     1     -10.730   7.279  69.835  1.00  0.00    -0.233 OA 
HETATM    3  C   UNL     1     -11.587   5.977  71.704  1.00  0.00    -0.199 C  
HETATM    4  O   UNL     1     -12.988   6.219  71.863  1.00  0.00    -0.222 OA 
HETATM    5  H   UNL     1     -13.228   6.065  72.769  1.00  0.00     0.000 HD 
ENDROOT
BRANCH   3   6
HETATM    6  C   UNL     1     -10.793   6.868  72.670  1.00  0.00    -0.257 C  
HETATM    7  O   UNL     1     -11.699   7.858  73.200  1.00  0.00    -0.630 OA 
HETATM    8  H   UNL     1     -11.207   8.409  73.798  1.00  0.00     0.000 HD 
BRANCH   6   9
HETATM    9  C   UNL     1     -10.079   6.118  73.832  1.00  0.00    -0.257 C  
HETATM   10  O   UNL     1     -10.805   4.920  74.154  1.00  0.00    -0.295 OA 
HETATM   11  H   UNL     1     -10.368   4.463  74.863  1.00  0.00     0.000 HD 
BRANCH   9  12
HETATM   12  C   UNL     1      -8.595   5.752  73.612  1.00  0.00    -0.119 C  
HETATM   13  H   UNL     1      -7.223   6.086  72.233  1.00  0.00     0.000 HD 
HETATM   14  O   UNL     1      -8.135   6.311  72.368  1.00  0.00    -0.104 OA 
BRANCH  12  15
HETATM   15  C   UNL     1      -8.298   4.244  73.682  1.00  0.00    -0.093 C  
HETATM   16  O   UNL     1      -7.441   3.830  72.609  1.00  0.00    -0.057 OA 
HETATM   17  H   UNL     1      -7.257   2.899  72.652  1.00  0.00     0.000 HD 
ENDBRANCH  12  15
ENDBRANCH   9  12
ENDBRANCH   6   9
ENDBRANCH   3   6
TORSDOF 4
ENDMDL
MODEL      281
REMARK 921   NORMALIZED FREE ENERGY PREDICTED BY IDOCK:   -1.81 KCAL/MOL
REMARK 922        TOTAL FREE ENERGY PREDICTED BY IDOCK:   -3.10 KCAL/MOL
REMARK 923 INTER-LIGAND FREE ENERGY PREDICTED BY IDOCK:   -2.53 KCAL/MOL
REMARK 924 INTRA-LIGAND FREE ENERGY PREDICTED BY IDOCK:   -0.56 KCAL/MOL
REMARK 927      BINDING AFFINITY PREDICTED BY RF-SCORE:    0.00 PKD
ROOT
HETATM    1  C   UNL     1      -7.910   6.848  67.224  1.00  0.00    -0.110 C  
HETATM    2  O   UNL     1      -6.683   6.954  67.265  1.00  0.00    -0.058 OA 
HETATM    3  C   UNL     1      -8.829   7.833  66.529  1.00  0.00    -0.153 C  
HETATM    4  O   UNL     1      -9.131   7.345  65.218  1.00  0.00    -0.363 OA 
HETATM    5  H   UNL     1      -9.707   7.963  64.783  1.00  0.00     0.000 HD 
ENDROOT
BRANCH   3   6
HETATM    6  C   UNL     1      -8.207   9.233  66.431  1.00  0.00    -0.111 C  
HETATM    7  O   UNL     1      -7.319   9.241  65.295  1.00  0.00    -0.091 OA 
HETATM    8  H   UNL     1      -6.934  10.108  65.235  1.00  0.00     0.000 HD 
BRANCH   6   9
HETATM    9  C   UNL     1      -9.223  10.407  66.328  1.00  0.00    -0.166 C  
HETATM   10  O   UNL     1     -10.134  10.164  65.242  1.00  0.00    -0.319 OA 
HETATM   11  H   UNL     1     -10.754  10.881  65.179  1.00  0.00     0.000 HD 
BRANCH   9  12
HETATM   12  C   UNL     1     -10.041  10.732  67.595  1.00  0.00    -0.176 C  
HETATM   13  H   UNL     1     -11.950  10.915  68.064  1.00  0.00     0.000 HD 
HETATM   14  O   UNL     1     -11.446  10.715  67.284  1.00  0.00    -0.412 OA 
BRANCH  12  15
HETATM   15  C   UNL     1      -9.645  12.049  68.285  1.00  0.00    -0.204 C  
HETATM   16  O   UNL     1      -8.431  11.904  69.033  1.00  0.00    -0.366 OA 
HETATM   17  H   UNL     1      -8.187  12.717  69.460  1.00  0.00     0.000 HD 
ENDBRANCH  12  15
ENDBRANCH   9  12
ENDBRANCH   6   9
ENDBRANCH   3   6
TORSDOF 4
ENDMDL
MODEL      282
REMARK 921   NORMALIZED FREE ENERGY PREDICTED BY IDOCK:   -1.78 KCAL/MOL
REMARK 922        TOTAL FREE ENERGY PREDICTED BY IDOCK:   -3.07 KCAL/MOL
REMARK 923 INTER-LIGAND FREE ENERGY PREDICTED BY IDOCK:   -2.88 KCAL/MOL
REMARK 924 INTRA-LIGAND FREE ENERGY PREDICTED BY IDOCK:   -0.19 KCAL/MOL
REMARK 927      BINDING AFFINITY PREDICTED BY RF-SCORE:    0.00 PKD
ROOT
HETATM    1  C   UNL     1      -8.482   9.146  68.169  1.00  0.00    -0.125 C  
HETATM    2  O   UNL     1      -7.680   8.243  67.925  1.00  0.00    -0.100 OA 
HETATM    3  C   UNL     1      -8.823   9.630  69.564  1.00  0.00    -0.190 C  
HETATM    4  O   UNL     1      -8.029  10.782  69.866  1.00  0.00    -0.355 OA 
HETATM    5  H   UNL     1      -8.243  11.086  70.740  1.00  0.00     0.000 HD 
ENDROOT
BRANCH   3   6
HETATM    6  C   UNL     1      -8.589   8.547  70.625  1.00  0.00    -0.148 C  
HETATM    7  O   UNL     1      -9.077   9.052  71.885  1.00  0.00    -0.365 OA 
HETATM    8  H   UNL     1      -8.932   8.381  72.542  1.00  0.00     0.000 HD 
BRANCH   6   9
HETATM    9  C   UNL     1      -9.231   7.163  70.317  1.00  0.00    -0.156 C  
HETATM   10  O   UNL     1      -8.204   6.160  70.242  1.00  0.00    -0.119 OA 
HETATM   11  H   UNL     1      -8.596   5.315  70.054  1.00  0.00     0.000 HD 
BRANCH   9  12
HETATM   12  C   UNL     1     -10.328   6.675  71.286  1.00  0.00    -0.205 C  
HETATM   13  H   UNL     1     -10.586   5.150  72.513  1.00  0.00     0.000 HD 
HETATM   14  O   UNL     1      -9.911   5.450  71.916  1.00  0.00    -0.163 OA 
BRANCH  12  15
HETATM   15  C   UNL     1     -11.717   6.518  70.643  1.00  0.00    -0.374 C  
HETATM   16  O   UNL     1     -11.704   6.914  69.265  1.00  0.00    -0.580 OA 
HETATM   17  H   UNL     1     -12.563   6.817  68.868  1.00  0.00     0.000 HD 
ENDBRANCH  12  15
ENDBRANCH   9  12
ENDBRANCH   6   9
ENDBRANCH   3   6
TORSDOF 4
ENDMDL
MODEL      283
REMARK 921   NORMALIZED FREE ENERGY PREDICTED BY IDOCK:   -1.73 KCAL/MOL
REMARK 922        TOTAL FREE ENERGY PREDICTED BY IDOCK:   -3.00 KCAL/MOL
REMARK 923 INTER-LIGAND FREE ENERGY PREDICTED BY IDOCK:   -2.56 KCAL/MOL
REMARK 924 INTRA-LIGAND FREE ENERGY PREDICTED BY IDOCK:   -0.44 KCAL/MOL
REMARK 927      BINDING AFFINITY PREDICTED BY RF-SCORE:    0.00 PKD
ROOT
HETATM    1  C   UNL     1      -7.642   7.684  74.154  1.00  0.00    -0.143 C  
HETATM    2  O   UNL     1      -6.778   7.186  73.431  1.00  0.00    -0.065 OA 
HETATM    3  C   UNL     1      -9.068   7.956  73.716  1.00  0.00    -0.242 C  
HETATM    4  O   UNL     1      -9.899   6.867  74.129  1.00  0.00    -0.278 OA 
HETATM    5  H   UNL     1     -10.792   7.038  73.855  1.00  0.00     0.000 HD 
ENDROOT
BRANCH   3   6
HETATM    6  C   UNL     1      -9.179   8.147  72.197  1.00  0.00    -0.194 C  
HETATM    7  O   UNL     1      -8.067   8.962  71.774  1.00  0.00    -0.313 OA 
HETATM    8  H   UNL     1      -8.136   9.080  70.834  1.00  0.00     0.000 HD 
BRANCH   6   9
HETATM    9  C   UNL     1      -9.231   6.834  71.364  1.00  0.00    -0.153 C  
HETATM   10  O   UNL     1      -8.898   5.715  72.202  1.00  0.00    -0.136 OA 
HETATM   11  H   UNL     1      -8.930   4.913  71.692  1.00  0.00     0.000 HD 
BRANCH   9  12
HETATM   12  C   UNL     1     -10.557   6.527  70.635  1.00  0.00    -0.233 C  
HETATM   13  H   UNL     1     -11.543   7.248  69.084  1.00  0.00     0.000 HD 
HETATM   14  O   UNL     1     -10.727   7.437  69.532  1.00  0.00    -0.235 OA 
BRANCH  12  15
HETATM   15  C   UNL     1     -11.796   6.529  71.547  1.00  0.00    -0.333 C  
HETATM   16  O   UNL     1     -11.752   5.452  72.493  1.00  0.00    -0.233 OA 
HETATM   17  H   UNL     1     -12.518   5.453  73.055  1.00  0.00     0.000 HD 
ENDBRANCH  12  15
ENDBRANCH   9  12
ENDBRANCH   6   9
ENDBRANCH   3   6
TORSDOF 4
ENDMDL
MODEL      284
REMARK 921   NORMALIZED FREE ENERGY PREDICTED BY IDOCK:   -1.72 KCAL/MOL
REMARK 922        TOTAL FREE ENERGY PREDICTED BY IDOCK:   -2.99 KCAL/MOL
REMARK 923 INTER-LIGAND FREE ENERGY PREDICTED BY IDOCK:   -3.82 KCAL/MOL
REMARK 924 INTRA-LIGAND FREE ENERGY PREDICTED BY IDOCK:    0.82 KCAL/MOL
REMARK 927      BINDING AFFINITY PREDICTED BY RF-SCORE:    0.00 PKD
ROOT
HETATM    1  C   UNL     1     -12.043  13.858  68.300  1.00  0.00    -0.287 C  
HETATM    2  O   UNL     1     -12.215  14.084  67.101  1.00  0.00    -0.419 OA 
HETATM    3  C   UNL     1     -11.445  14.850  69.279  1.00  0.00    -0.303 C  
HETATM    4  O   UNL     1     -12.505  15.532  69.956  1.00  0.00    -0.497 OA 
HETATM    5  H   UNL     1     -12.131  16.154  70.570  1.00  0.00     0.000 HD 
ENDROOT
BRANCH   3   6
HETATM    6  C   UNL     1     -10.532  15.868  68.584  1.00  0.00    -0.240 C  
HETATM    7  O   UNL     1      -9.176  15.592  68.990  1.00  0.00    -0.206 OA 
HETATM    8  H   UNL     1      -8.611  16.223  68.559  1.00  0.00     0.000 HD 
BRANCH   6   9
HETATM    9  C   UNL     1     -10.632  15.901  67.032  1.00  0.00    -0.306 C  
HETATM   10  O   UNL     1     -10.703  17.264  66.580  1.00  0.00    -0.220 OA 
HETATM   11  H   UNL     1     -10.764  17.284  65.632  1.00  0.00     0.000 HD 
BRANCH   9  12
HETATM   12  C   UNL     1      -9.515  15.180  66.249  1.00  0.00    -0.309 C  
HETATM   13  H   UNL     1      -7.692  15.610  65.623  1.00  0.00     0.000 HD 
HETATM   14  O   UNL     1      -8.380  16.054  66.105  1.00  0.00    -0.307 OA 
BRANCH  12  15
HETATM   15  C   UNL     1      -9.956  14.621  64.885  1.00  0.00    -0.062 C  
HETATM   16  O   UNL     1     -11.125  15.293  64.397  1.00  0.00    -0.660 OA 
HETATM   17  H   UNL     1     -11.397  14.947  63.554  1.00  0.00     0.000 HD 
ENDBRANCH  12  15
ENDBRANCH   9  12
ENDBRANCH   6   9
ENDBRANCH   3   6
TORSDOF 4
ENDMDL
MODEL      285
REMARK 921   NORMALIZED FREE ENERGY PREDICTED BY IDOCK:   -1.71 KCAL/MOL
REMARK 922        TOTAL FREE ENERGY PREDICTED BY IDOCK:   -2.98 KCAL/MOL
REMARK 923 INTER-LIGAND FREE ENERGY PREDICTED BY IDOCK:   -2.41 KCAL/MOL
REMARK 924 INTRA-LIGAND FREE ENERGY PREDICTED BY IDOCK:   -0.58 KCAL/MOL
REMARK 927      BINDING AFFINITY PREDICTED BY RF-SCORE:    0.00 PKD
ROOT
HETATM    1  C   UNL     1     -10.224   3.878  65.070  1.00  0.00    -0.137 C  
HETATM    2  O   UNL     1     -11.388   4.216  64.846  1.00  0.00    -0.242 OA 
HETATM    3  C   UNL     1      -9.420   4.331  66.273  1.00  0.00    -0.180 C  
HETATM    4  O   UNL     1      -9.499   3.328  67.291  1.00  0.00    -0.244 OA 
HETATM    5  H   UNL     1      -8.995   3.612  68.045  1.00  0.00     0.000 HD 
ENDROOT
BRANCH   3   6
HETATM    6  C   UNL     1      -9.917   5.673  66.827  1.00  0.00    -0.178 C  
HETATM    7  O   UNL     1     -11.131   5.422  67.564  1.00  0.00    -0.136 OA 
HETATM    8  H   UNL     1     -11.439   6.253  67.908  1.00  0.00     0.000 HD 
BRANCH   6   9
HETATM    9  C   UNL     1      -8.899   6.445  67.715  1.00  0.00    -0.112 C  
HETATM   10  O   UNL     1      -7.749   6.803  66.932  1.00  0.00    -0.099 OA 
HETATM   11  H   UNL     1      -7.127   7.275  67.475  1.00  0.00     0.000 HD 
BRANCH   9  12
HETATM   12  C   UNL     1      -9.421   7.708  68.432  1.00  0.00    -0.150 C  
HETATM   13  H   UNL     1     -10.644   8.107  69.931  1.00  0.00     0.000 HD 
HETATM   14  O   UNL     1     -10.322   7.329  69.490  1.00  0.00    -0.211 OA 
BRANCH  12  15
HETATM   15  C   UNL     1     -10.072   8.743  67.499  1.00  0.00    -0.222 C  
HETATM   16  O   UNL     1     -11.251   9.309  68.086  1.00  0.00    -0.493 OA 
HETATM   17  H   UNL     1     -11.654   9.949  67.509  1.00  0.00     0.000 HD 
ENDBRANCH  12  15
ENDBRANCH   9  12
ENDBRANCH   6   9
ENDBRANCH   3   6
TORSDOF 4
ENDMDL
MODEL      286
REMARK 921   NORMALIZED FREE ENERGY PREDICTED BY IDOCK:   -1.70 KCAL/MOL
REMARK 922        TOTAL FREE ENERGY PREDICTED BY IDOCK:   -2.97 KCAL/MOL
REMARK 923 INTER-LIGAND FREE ENERGY PREDICTED BY IDOCK:   -2.85 KCAL/MOL
REMARK 924 INTRA-LIGAND FREE ENERGY PREDICTED BY IDOCK:   -0.11 KCAL/MOL
REMARK 927      BINDING AFFINITY PREDICTED BY RF-SCORE:    0.00 PKD
ROOT
HETATM    1  C   UNL     1      -9.357   9.128  66.941  1.00  0.00    -0.156 C  
HETATM    2  O   UNL     1     -10.487   9.183  66.454  1.00  0.00    -0.213 OA 
HETATM    3  C   UNL     1      -9.044   8.557  68.311  1.00  0.00    -0.138 C  
HETATM    4  O   UNL     1      -8.626   7.196  68.164  1.00  0.00    -0.128 OA 
HETATM    5  H   UNL     1      -8.430   6.838  69.022  1.00  0.00     0.000 HD 
ENDROOT
BRANCH   3   6
HETATM    6  C   UNL     1     -10.251   8.630  69.256  1.00  0.00    -0.211 C  
HETATM    7  O   UNL     1     -11.151   9.634  68.743  1.00  0.00    -0.417 OA 
HETATM    8  H   UNL     1     -11.898   9.679  69.328  1.00  0.00     0.000 HD 
BRANCH   6   9
HETATM    9  C   UNL     1     -11.010   7.289  69.472  1.00  0.00    -0.164 C  
HETATM   10  O   UNL     1     -11.331   6.704  68.199  1.00  0.00    -0.552 OA 
HETATM   11  H   UNL     1     -11.795   5.885  68.332  1.00  0.00     0.000 HD 
BRANCH   9  12
HETATM   12  C   UNL     1     -10.305   6.225  70.340  1.00  0.00    -0.208 C  
HETATM   13  H   UNL     1      -9.699   4.360  70.114  1.00  0.00     0.000 HD 
HETATM   14  O   UNL     1     -10.133   5.015  69.581  1.00  0.00    -0.222 OA 
BRANCH  12  15
HETATM   15  C   UNL     1     -11.001   5.939  71.682  1.00  0.00    -0.268 C  
HETATM   16  O   UNL     1     -10.087   6.055  72.781  1.00  0.00    -0.178 OA 
HETATM   17  H   UNL     1     -10.517   5.878  73.610  1.00  0.00     0.000 HD 
ENDBRANCH  12  15
ENDBRANCH   9  12
ENDBRANCH   6   9
ENDBRANCH   3   6
TORSDOF 4
ENDMDL
MODEL      287
REMARK 921   NORMALIZED FREE ENERGY PREDICTED BY IDOCK:   -1.67 KCAL/MOL
REMARK 922        TOTAL FREE ENERGY PREDICTED BY IDOCK:   -2.93 KCAL/MOL
REMARK 923 INTER-LIGAND FREE ENERGY PREDICTED BY IDOCK:   -2.56 KCAL/MOL
REMARK 924 INTRA-LIGAND FREE ENERGY PREDICTED BY IDOCK:   -0.37 KCAL/MOL
REMARK 927      BINDING AFFINITY PREDICTED BY RF-SCORE:    0.00 PKD
ROOT
HETATM    1  C   UNL     1      -9.575  16.602  66.840  1.00  0.00    -0.249 C  
HETATM    2  O   UNL     1      -9.144  16.097  65.802  1.00  0.00    -0.398 OA 
HETATM    3  C   UNL     1      -8.747  16.820  68.092  1.00  0.00    -0.219 C  
HETATM    4  O   UNL     1      -8.257  18.165  68.099  1.00  0.00    -0.259 OA 
HETATM    5  H   UNL     1      -7.739  18.301  68.883  1.00  0.00     0.000 HD 
ENDROOT
BRANCH   3   6
HETATM    6  C   UNL     1      -7.571  15.839  68.184  1.00  0.00    -0.124 C  
HETATM    7  O   UNL     1      -6.565  16.436  69.027  1.00  0.00    -0.157 OA 
HETATM    8  H   UNL     1      -5.837  15.828  69.084  1.00  0.00     0.000 HD 
BRANCH   6   9
HETATM    9  C   UNL     1      -7.931  14.416  68.701  1.00  0.00    -0.145 C  
HETATM   10  O   UNL     1      -9.087  13.925  68.002  1.00  0.00    -0.177 OA 
HETATM   11  H   UNL     1      -9.306  13.056  68.318  1.00  0.00     0.000 HD 
BRANCH   9  12
HETATM   12  C   UNL     1      -6.818  13.349  68.626  1.00  0.00    -0.098 C  
HETATM   13  H   UNL     1      -5.144  13.089  67.612  1.00  0.00     0.000 HD 
HETATM   14  O   UNL     1      -5.829  13.745  67.658  1.00  0.00    -0.271 OA 
BRANCH  12  15
HETATM   15  C   UNL     1      -7.325  11.924  68.343  1.00  0.00    -0.095 C  
HETATM   16  O   UNL     1      -8.398  11.566  69.224  1.00  0.00    -0.369 OA 
HETATM   17  H   UNL     1      -8.711  10.685  69.050  1.00  0.00     0.000 HD 
ENDBRANCH  12  15
ENDBRANCH   9  12
ENDBRANCH   6   9
ENDBRANCH   3   6
TORSDOF 4
ENDMDL
MODEL      288
REMARK 921   NORMALIZED FREE ENERGY PREDICTED BY IDOCK:   -1.67 KCAL/MOL
REMARK 922        TOTAL FREE ENERGY PREDICTED BY IDOCK:   -2.93 KCAL/MOL
REMARK 923 INTER-LIGAND FREE ENERGY PREDICTED BY IDOCK:   -3.02 KCAL/MOL
REMARK 924 INTRA-LIGAND FREE ENERGY PREDICTED BY IDOCK:    0.10 KCAL/MOL
REMARK 927      BINDING AFFINITY PREDICTED BY RF-SCORE:    0.00 PKD
ROOT
HETATM    1  C   UNL     1     -10.504  17.837  66.433  1.00  0.00    -0.297 C  
HETATM    2  O   UNL     1     -10.440  18.988  66.866  1.00  0.00    -0.379 OA 
HETATM    3  C   UNL     1     -10.415  16.594  67.297  1.00  0.00    -0.313 C  
HETATM    4  O   UNL     1     -11.739  16.140  67.599  1.00  0.00     0.035 OA 
HETATM    5  H   UNL     1     -11.683  15.361  68.140  1.00  0.00     0.000 HD 
ENDROOT
BRANCH   3   6
HETATM    6  C   UNL     1      -9.644  16.849  68.598  1.00  0.00    -0.265 C  
HETATM    7  O   UNL     1     -10.542  16.597  69.699  1.00  0.00    -0.316 OA 
HETATM    8  H   UNL     1     -10.064  16.755  70.505  1.00  0.00     0.000 HD 
BRANCH   6   9
HETATM    9  C   UNL     1      -8.337  16.023  68.771  1.00  0.00    -0.216 C  
HETATM   10  O   UNL     1      -8.552  14.972  69.728  1.00  0.00    -0.447 OA 
HETATM   11  H   UNL     1      -7.754  14.467  69.834  1.00  0.00     0.000 HD 
BRANCH   9  12
HETATM   12  C   UNL     1      -7.730  15.408  67.492  1.00  0.00    -0.181 C  
HETATM   13  H   UNL     1      -8.152  13.908  66.280  1.00  0.00     0.000 HD 
HETATM   14  O   UNL     1      -8.526  14.287  67.067  1.00  0.00    -0.210 OA 
BRANCH  12  15
HETATM   15  C   UNL     1      -6.248  15.015  67.620  1.00  0.00    -0.110 C  
HETATM   16  O   UNL     1      -5.388  16.045  67.114  1.00  0.00    -0.326 OA 
HETATM   17  H   UNL     1      -4.472  15.802  67.192  1.00  0.00     0.000 HD 
ENDBRANCH  12  15
ENDBRANCH   9  12
ENDBRANCH   6   9
ENDBRANCH   3   6
TORSDOF 4
ENDMDL
MODEL      289
REMARK 921   NORMALIZED FREE ENERGY PREDICTED BY IDOCK:   -1.65 KCAL/MOL
REMARK 922        TOTAL FREE ENERGY PREDICTED BY IDOCK:   -2.90 KCAL/MOL
REMARK 923 INTER-LIGAND FREE ENERGY PREDICTED BY IDOCK:   -2.41 KCAL/MOL
REMARK 924 INTRA-LIGAND FREE ENERGY PREDICTED BY IDOCK:   -0.49 KCAL/MOL
REMARK 927      BINDING AFFINITY PREDICTED BY RF-SCORE:    0.00 PKD
ROOT
HETATM    1  C   UNL     1     -12.431   6.613  71.440  1.00  0.00    -0.251 C  
HETATM    2  O   UNL     1     -12.143   6.941  70.288  1.00  0.00    -0.278 OA 
HETATM    3  C   UNL     1     -11.412   6.316  72.523  1.00  0.00    -0.261 C  
HETATM    4  O   UNL     1     -11.221   7.490  73.318  1.00  0.00    -0.567 OA 
HETATM    5  H   UNL     1     -10.583   7.304  73.997  1.00  0.00     0.000 HD 
ENDROOT
BRANCH   3   6
HETATM    6  C   UNL     1     -10.068   5.858  71.941  1.00  0.00    -0.185 C  
HETATM    7  O   UNL     1     -10.346   4.960  70.848  1.00  0.00    -0.217 OA 
HETATM    8  H   UNL     1      -9.513   4.676  70.487  1.00  0.00     0.000 HD 
BRANCH   6   9
HETATM    9  C   UNL     1      -9.123   7.001  71.472  1.00  0.00    -0.139 C  
HETATM   10  O   UNL     1      -8.344   7.473  72.584  1.00  0.00    -0.107 OA 
HETATM   11  H   UNL     1      -7.766   8.171  72.297  1.00  0.00     0.000 HD 
BRANCH   9  12
HETATM   12  C   UNL     1      -8.167   6.675  70.304  1.00  0.00    -0.126 C  
HETATM   13  H   UNL     1      -6.227   6.801  69.958  1.00  0.00     0.000 HD 
HETATM   14  O   UNL     1      -6.815   7.001  70.677  1.00  0.00    -0.052 OA 
BRANCH  12  15
HETATM   15  C   UNL     1      -8.547   7.341  68.970  1.00  0.00    -0.129 C  
HETATM   16  O   UNL     1      -7.448   8.085  68.425  1.00  0.00    -0.098 OA 
HETATM   17  H   UNL     1      -7.683   8.497  67.602  1.00  0.00     0.000 HD 
ENDBRANCH  12  15
ENDBRANCH   9  12
ENDBRANCH   6   9
ENDBRANCH   3   6
TORSDOF 4
ENDMDL
MODEL      290
REMARK 921   NORMALIZED FREE ENERGY PREDICTED BY IDOCK:   -1.64 KCAL/MOL
REMARK 922        TOTAL FREE ENERGY PREDICTED BY IDOCK:   -2.89 KCAL/MOL
REMARK 923 INTER-LIGAND FREE ENERGY PREDICTED BY IDOCK:   -2.26 KCAL/MOL
REMARK 924 INTRA-LIGAND FREE ENERGY PREDICTED BY IDOCK:   -0.63 KCAL/MOL
REMARK 927      BINDING AFFINITY PREDICTED BY RF-SCORE:    0.00 PKD
ROOT
HETATM    1  C   UNL     1      -8.517   8.912  63.680  1.00  0.00    -0.138 C  
HETATM    2  O   UNL     1      -7.527   8.200  63.500  1.00  0.00    -0.106 OA 
HETATM    3  C   UNL     1      -8.812   9.653  64.970  1.00  0.00    -0.186 C  
HETATM    4  O   UNL     1      -8.345  11.000  64.851  1.00  0.00    -0.373 OA 
HETATM    5  H   UNL     1      -8.530  11.464  65.659  1.00  0.00     0.000 HD 
ENDROOT
BRANCH   3   6
HETATM    6  C   UNL     1      -8.158   8.981  66.185  1.00  0.00    -0.111 C  
HETATM    7  O   UNL     1      -6.728   9.060  66.014  1.00  0.00    -0.073 OA 
HETATM    8  H   UNL     1      -6.323   8.644  66.766  1.00  0.00     0.000 HD 
BRANCH   6   9
HETATM    9  C   UNL     1      -8.567   9.564  67.568  1.00  0.00    -0.126 C  
HETATM   10  O   UNL     1      -8.333  10.982  67.584  1.00  0.00    -0.115 OA 
HETATM   11  H   UNL     1      -8.583  11.338  68.429  1.00  0.00     0.000 HD 
BRANCH   9  12
HETATM   12  C   UNL     1     -10.014   9.297  68.033  1.00  0.00    -0.182 C  
HETATM   13  H   UNL     1     -11.549   8.223  67.408  1.00  0.00     0.000 HD 
HETATM   14  O   UNL     1     -10.658   8.387  67.122  1.00  0.00    -0.311 OA 
BRANCH  12  15
HETATM   15  C   UNL     1     -10.860  10.567  68.233  1.00  0.00    -0.248 C  
HETATM   16  O   UNL     1     -11.140  11.211  66.983  1.00  0.00    -0.291 OA 
HETATM   17  H   UNL     1     -11.662  11.996  67.106  1.00  0.00     0.000 HD 
ENDBRANCH  12  15
ENDBRANCH   9  12
ENDBRANCH   6   9
ENDBRANCH   3   6
TORSDOF 4
ENDMDL
MODEL      291
REMARK 921   NORMALIZED FREE ENERGY PREDICTED BY IDOCK:   -1.64 KCAL/MOL
REMARK 922        TOTAL FREE ENERGY PREDICTED BY IDOCK:   -2.89 KCAL/MOL
REMARK 923 INTER-LIGAND FREE ENERGY PREDICTED BY IDOCK:   -2.39 KCAL/MOL
REMARK 924 INTRA-LIGAND FREE ENERGY PREDICTED BY IDOCK:   -0.50 KCAL/MOL
REMARK 927      BINDING AFFINITY PREDICTED BY RF-SCORE:    0.00 PKD
ROOT
HETATM    1  C   UNL     1      -7.857   3.537  67.562  1.00  0.00    -0.078 C  
HETATM    2  O   UNL     1      -6.934   4.342  67.699  1.00  0.00    -0.057 OA 
HETATM    3  C   UNL     1      -9.309   3.929  67.365  1.00  0.00    -0.191 C  
HETATM    4  O   UNL     1      -9.608   3.921  65.965  1.00  0.00    -0.178 OA 
HETATM    5  H   UNL     1     -10.518   4.166  65.842  1.00  0.00     0.000 HD 
ENDROOT
BRANCH   3   6
HETATM    6  C   UNL     1      -9.619   5.311  67.954  1.00  0.00    -0.134 C  
HETATM    7  O   UNL     1     -10.831   5.791  67.336  1.00  0.00    -0.288 OA 
HETATM    8  H   UNL     1     -11.023   6.647  67.701  1.00  0.00     0.000 HD 
BRANCH   6   9
HETATM    9  C   UNL     1      -9.750   5.360  69.503  1.00  0.00    -0.176 C  
HETATM   10  O   UNL     1      -8.523   5.843  70.078  1.00  0.00    -0.122 OA 
HETATM   11  H   UNL     1      -8.604   5.873  71.024  1.00  0.00     0.000 HD 
BRANCH   9  12
HETATM   12  C   UNL     1     -10.921   6.187  70.075  1.00  0.00    -0.372 C  
HETATM   13  H   UNL     1     -11.549   8.055  69.964  1.00  0.00     0.000 HD 
HETATM   14  O   UNL     1     -10.829   7.547  69.612  1.00  0.00    -0.243 OA 
BRANCH  12  15
HETATM   15  C   UNL     1     -11.045   6.134  71.608  1.00  0.00    -0.276 C  
HETATM   16  O   UNL     1     -11.747   7.277  72.116  1.00  0.00    -0.276 OA 
HETATM   17  H   UNL     1     -11.823   7.245  73.063  1.00  0.00     0.000 HD 
ENDBRANCH  12  15
ENDBRANCH   9  12
ENDBRANCH   6   9
ENDBRANCH   3   6
TORSDOF 4
ENDMDL
MODEL      292
REMARK 921   NORMALIZED FREE ENERGY PREDICTED BY IDOCK:   -1.63 KCAL/MOL
REMARK 922        TOTAL FREE ENERGY PREDICTED BY IDOCK:   -2.88 KCAL/MOL
REMARK 923 INTER-LIGAND FREE ENERGY PREDICTED BY IDOCK:   -2.14 KCAL/MOL
REMARK 924 INTRA-LIGAND FREE ENERGY PREDICTED BY IDOCK:   -0.73 KCAL/MOL
REMARK 927      BINDING AFFINITY PREDICTED BY RF-SCORE:    0.00 PKD
ROOT
HETATM    1  C   UNL     1      -7.557  15.101  69.485  1.00  0.00    -0.207 C  
HETATM    2  O   UNL     1      -8.481  15.873  69.227  1.00  0.00    -0.242 OA 
HETATM    3  C   UNL     1      -7.421  13.707  68.904  1.00  0.00    -0.033 C  
HETATM    4  O   UNL     1      -6.548  13.758  67.770  1.00  0.00    -0.148 OA 
HETATM    5  H   UNL     1      -6.463  12.884  67.407  1.00  0.00     0.000 HD 
ENDROOT
BRANCH   3   6
HETATM    6  C   UNL     1      -8.776  13.120  68.490  1.00  0.00    -0.049 C  
HETATM    7  O   UNL     1      -9.202  13.799  67.291  1.00  0.00    -0.219 OA 
HETATM    8  H   UNL     1     -10.042  13.435  67.035  1.00  0.00     0.000 HD 
BRANCH   6   9
HETATM    9  C   UNL     1      -8.796  11.580  68.271  1.00  0.00    -0.166 C  
HETATM   10  O   UNL     1      -9.523  10.948  69.338  1.00  0.00    -0.408 OA 
HETATM   11  H   UNL     1      -9.535  10.007  69.204  1.00  0.00     0.000 HD 
BRANCH   9  12
HETATM   12  C   UNL     1      -9.358  11.077  66.925  1.00  0.00    -0.173 C  
HETATM   13  H   UNL     1     -11.061  11.222  65.936  1.00  0.00     0.000 HD 
HETATM   14  O   UNL     1     -10.715  11.531  66.765  1.00  0.00    -0.245 OA 
BRANCH  12  15
HETATM   15  C   UNL     1      -9.260   9.555  66.725  1.00  0.00    -0.149 C  
HETATM   16  O   UNL     1      -8.115   9.011  67.397  1.00  0.00    -0.106 OA 
HETATM   17  H   UNL     1      -8.054   8.071  67.273  1.00  0.00     0.000 HD 
ENDBRANCH  12  15
ENDBRANCH   9  12
ENDBRANCH   6   9
ENDBRANCH   3   6
TORSDOF 4
ENDMDL
MODEL      293
REMARK 921   NORMALIZED FREE ENERGY PREDICTED BY IDOCK:   -1.63 KCAL/MOL
REMARK 922        TOTAL FREE ENERGY PREDICTED BY IDOCK:   -2.88 KCAL/MOL
REMARK 923 INTER-LIGAND FREE ENERGY PREDICTED BY IDOCK:   -2.69 KCAL/MOL
REMARK 924 INTRA-LIGAND FREE ENERGY PREDICTED BY IDOCK:   -0.19 KCAL/MOL
REMARK 927      BINDING AFFINITY PREDICTED BY RF-SCORE:    0.00 PKD
ROOT
HETATM    1  C   UNL     1      -9.177   3.944  73.182  1.00  0.00    -0.106 C  
HETATM    2  O   UNL     1      -8.115   4.483  73.499  1.00  0.00    -0.093 OA 
HETATM    3  C   UNL     1     -10.080   4.428  72.065  1.00  0.00    -0.186 C  
HETATM    4  O   UNL     1      -9.794   3.682  70.877  1.00  0.00    -0.174 OA 
HETATM    5  H   UNL     1     -10.360   3.986  70.178  1.00  0.00     0.000 HD 
ENDROOT
BRANCH   3   6
HETATM    6  C   UNL     1      -9.905   5.928  71.791  1.00  0.00    -0.163 C  
HETATM    7  O   UNL     1     -10.481   6.209  70.498  1.00  0.00    -0.209 OA 
HETATM    8  H   UNL     1     -10.373   7.137  70.329  1.00  0.00     0.000 HD 
BRANCH   6   9
HETATM    9  C   UNL     1     -10.510   6.876  72.866  1.00  0.00    -0.244 C  
HETATM   10  O   UNL     1      -9.493   7.768  73.352  1.00  0.00    -0.250 OA 
HETATM   11  H   UNL     1      -9.862   8.347  74.008  1.00  0.00     0.000 HD 
BRANCH   9  12
HETATM   12  C   UNL     1     -11.738   7.711  72.444  1.00  0.00    -0.317 C  
HETATM   13  H   UNL     1     -13.386   7.413  71.398  1.00  0.00     0.000 HD 
HETATM   14  O   UNL     1     -12.631   6.899  71.658  1.00  0.00    -0.357 OA 
BRANCH  12  15
HETATM   15  C   UNL     1     -11.393   9.019  71.710  1.00  0.00    -0.377 C  
HETATM   16  O   UNL     1     -10.180   8.892  70.956  1.00  0.00    -0.212 OA 
HETATM   17  H   UNL     1      -9.967   9.700  70.503  1.00  0.00     0.000 HD 
ENDBRANCH  12  15
ENDBRANCH   9  12
ENDBRANCH   6   9
ENDBRANCH   3   6
TORSDOF 4
ENDMDL
MODEL      294
REMARK 921   NORMALIZED FREE ENERGY PREDICTED BY IDOCK:   -1.61 KCAL/MOL
REMARK 922        TOTAL FREE ENERGY PREDICTED BY IDOCK:   -2.86 KCAL/MOL
REMARK 923 INTER-LIGAND FREE ENERGY PREDICTED BY IDOCK:   -2.43 KCAL/MOL
REMARK 924 INTRA-LIGAND FREE ENERGY PREDICTED BY IDOCK:   -0.43 KCAL/MOL
REMARK 927      BINDING AFFINITY PREDICTED BY RF-SCORE:    0.00 PKD
ROOT
HETATM    1  C   UNL     1      -9.314   5.880  68.319  1.00  0.00    -0.116 C  
HETATM    2  O   UNL     1      -8.151   6.131  68.000  1.00  0.00    -0.112 OA 
HETATM    3  C   UNL     1      -9.963   4.518  68.177  1.00  0.00    -0.031 C  
HETATM    4  O   UNL     1      -9.880   3.828  69.428  1.00  0.00    -0.136 OA 
HETATM    5  H   UNL     1     -10.287   2.975  69.339  1.00  0.00     0.000 HD 
ENDROOT
BRANCH   3   6
HETATM    6  C   UNL     1      -9.304   3.676  67.076  1.00  0.00    -0.198 C  
HETATM    7  O   UNL     1      -9.586   2.289  67.354  1.00  0.00    -0.408 OA 
HETATM    8  H   UNL     1      -9.177   1.768  66.673  1.00  0.00     0.000 HD 
BRANCH   6   9
HETATM    9  C   UNL     1      -9.730   4.030  65.622  1.00  0.00    -0.192 C  
HETATM   10  O   UNL     1     -11.041   4.618  65.632  1.00  0.00    -0.826 OA 
HETATM   11  H   UNL     1     -11.302   4.834  64.744  1.00  0.00     0.000 HD 
BRANCH   9  12
HETATM   12  C   UNL     1      -8.782   4.951  64.826  1.00  0.00    -0.154 C  
HETATM   13  H   UNL     1      -8.449   5.371  62.925  1.00  0.00     0.000 HD 
HETATM   14  O   UNL     1      -9.032   4.804  63.416  1.00  0.00    -0.139 OA 
BRANCH  12  15
HETATM   15  C   UNL     1      -7.290   4.753  65.144  1.00  0.00    -0.072 C  
HETATM   16  O   UNL     1      -6.661   5.991  65.500  1.00  0.00    -0.045 OA 
HETATM   17  H   UNL     1      -5.739   5.869  65.696  1.00  0.00     0.000 HD 
ENDBRANCH  12  15
ENDBRANCH   9  12
ENDBRANCH   6   9
ENDBRANCH   3   6
TORSDOF 4
ENDMDL
MODEL      295
REMARK 921   NORMALIZED FREE ENERGY PREDICTED BY IDOCK:   -1.57 KCAL/MOL
REMARK 922        TOTAL FREE ENERGY PREDICTED BY IDOCK:   -2.80 KCAL/MOL
REMARK 923 INTER-LIGAND FREE ENERGY PREDICTED BY IDOCK:   -2.45 KCAL/MOL
REMARK 924 INTRA-LIGAND FREE ENERGY PREDICTED BY IDOCK:   -0.35 KCAL/MOL
REMARK 927      BINDING AFFINITY PREDICTED BY RF-SCORE:    0.00 PKD
ROOT
HETATM    1  C   UNL     1     -11.514  12.497  69.203  1.00  0.00    -0.305 C  
HETATM    2  O   UNL     1     -10.804  13.375  69.695  1.00  0.00     0.030 OA 
HETATM    3  C   UNL     1     -10.987  11.207  68.605  1.00  0.00    -0.220 C  
HETATM    4  O   UNL     1     -11.059  10.172  69.591  1.00  0.00    -0.236 OA 
HETATM    5  H   UNL     1     -10.729   9.364  69.216  1.00  0.00     0.000 HD 
ENDROOT
BRANCH   3   6
HETATM    6  C   UNL     1      -9.543  11.350  68.107  1.00  0.00    -0.190 C  
HETATM    7  O   UNL     1      -8.766  11.934  69.173  1.00  0.00    -0.346 OA 
HETATM    8  H   UNL     1      -7.871  12.022  68.864  1.00  0.00     0.000 HD 
BRANCH   6   9
HETATM    9  C   UNL     1      -8.875  10.034  67.614  1.00  0.00    -0.121 C  
HETATM   10  O   UNL     1      -8.716   9.129  68.720  1.00  0.00    -0.129 OA 
HETATM   11  H   UNL     1      -8.308   8.325  68.418  1.00  0.00     0.000 HD 
BRANCH   9  12
HETATM   12  C   UNL     1      -9.580   9.287  66.462  1.00  0.00    -0.224 C  
HETATM   13  H   UNL     1     -10.675   7.655  66.266  1.00  0.00     0.000 HD 
HETATM   14  O   UNL     1     -10.241   8.115  66.975  1.00  0.00    -0.250 OA 
BRANCH  12  15
HETATM   15  C   UNL     1      -8.660   8.928  65.283  1.00  0.00    -0.184 C  
HETATM   16  O   UNL     1      -8.995   7.649  64.727  1.00  0.00    -0.275 OA 
HETATM   17  H   UNL     1      -8.427   7.428  63.999  1.00  0.00     0.000 HD 
ENDBRANCH  12  15
ENDBRANCH   9  12
ENDBRANCH   6   9
ENDBRANCH   3   6
TORSDOF 4
ENDMDL
MODEL      296
REMARK 921   NORMALIZED FREE ENERGY PREDICTED BY IDOCK:   -1.54 KCAL/MOL
REMARK 922        TOTAL FREE ENERGY PREDICTED BY IDOCK:   -2.76 KCAL/MOL
REMARK 923 INTER-LIGAND FREE ENERGY PREDICTED BY IDOCK:   -2.64 KCAL/MOL
REMARK 924 INTRA-LIGAND FREE ENERGY PREDICTED BY IDOCK:   -0.13 KCAL/MOL
REMARK 927      BINDING AFFINITY PREDICTED BY RF-SCORE:    0.00 PKD
ROOT
HETATM    1  C   UNL     1     -11.027  10.771  69.547  1.00  0.00    -0.266 C  
HETATM    2  O   UNL     1     -12.132  10.577  70.057  1.00  0.00    -0.287 OA 
HETATM    3  C   UNL     1     -10.109   9.669  69.055  1.00  0.00    -0.186 C  
HETATM    4  O   UNL     1     -10.298   9.498  67.646  1.00  0.00    -0.212 OA 
HETATM    5  H   UNL     1      -9.723   8.808  67.338  1.00  0.00     0.000 HD 
ENDROOT
BRANCH   3   6
HETATM    6  C   UNL     1     -10.363   8.339  69.777  1.00  0.00    -0.216 C  
HETATM    7  O   UNL     1      -9.800   7.285  68.970  1.00  0.00    -0.160 OA 
HETATM    8  H   UNL     1      -9.958   6.462  69.417  1.00  0.00     0.000 HD 
BRANCH   6   9
HETATM    9  C   UNL     1      -9.813   8.255  71.230  1.00  0.00    -0.175 C  
HETATM   10  O   UNL     1     -10.388   9.305  72.027  1.00  0.00    -0.216 OA 
HETATM   11  H   UNL     1     -10.052   9.253  72.914  1.00  0.00     0.000 HD 
BRANCH   9  12
HETATM   12  C   UNL     1     -10.006   6.914  71.969  1.00  0.00    -0.166 C  
HETATM   13  H   UNL     1     -10.081   5.002  71.478  1.00  0.00     0.000 HD 
HETATM   14  O   UNL     1      -9.962   5.828  71.024  1.00  0.00    -0.178 OA 
BRANCH  12  15
HETATM   15  C   UNL     1     -11.277   6.842  72.832  1.00  0.00    -0.198 C  
HETATM   16  O   UNL     1     -11.118   7.564  74.060  1.00  0.00    -0.376 OA 
HETATM   17  H   UNL     1     -11.903   7.519  74.594  1.00  0.00     0.000 HD 
ENDBRANCH  12  15
ENDBRANCH   9  12
ENDBRANCH   6   9
ENDBRANCH   3   6
TORSDOF 4
ENDMDL
MODEL      297
REMARK 921   NORMALIZED FREE ENERGY PREDICTED BY IDOCK:   -1.50 KCAL/MOL
REMARK 922        TOTAL FREE ENERGY PREDICTED BY IDOCK:   -2.72 KCAL/MOL
REMARK 923 INTER-LIGAND FREE ENERGY PREDICTED BY IDOCK:   -1.89 KCAL/MOL
REMARK 924 INTRA-LIGAND FREE ENERGY PREDICTED BY IDOCK:   -0.83 KCAL/MOL
REMARK 927      BINDING AFFINITY PREDICTED BY RF-SCORE:    0.00 PKD
ROOT
HETATM    1  C   UNL     1      -8.608   9.506  67.226  1.00  0.00    -0.128 C  
HETATM    2  O   UNL     1      -9.603  10.214  67.060  1.00  0.00    -0.163 OA 
HETATM    3  C   UNL     1      -8.403   8.588  68.416  1.00  0.00    -0.124 C  
HETATM    4  O   UNL     1      -8.810   7.263  68.058  1.00  0.00    -0.130 OA 
HETATM    5  H   UNL     1      -8.681   6.688  68.803  1.00  0.00     0.000 HD 
ENDROOT
BRANCH   3   6
HETATM    6  C   UNL     1      -9.188   9.056  69.648  1.00  0.00    -0.159 C  
HETATM    7  O   UNL     1     -10.509   8.482  69.573  1.00  0.00    -0.217 OA 
HETATM    8  H   UNL     1     -10.995   8.772  70.336  1.00  0.00     0.000 HD 
BRANCH   6   9
HETATM    9  C   UNL     1      -8.535   8.722  71.020  1.00  0.00    -0.179 C  
HETATM   10  O   UNL     1      -9.464   9.005  72.080  1.00  0.00    -0.340 OA 
HETATM   11  H   UNL     1      -9.065   8.801  72.918  1.00  0.00     0.000 HD 
BRANCH   9  12
HETATM   12  C   UNL     1      -8.000   7.286  71.203  1.00  0.00    -0.101 C  
HETATM   13  H   UNL     1      -8.723   5.455  71.059  1.00  0.00     0.000 HD 
HETATM   14  O   UNL     1      -9.052   6.339  70.946  1.00  0.00    -0.149 OA 
BRANCH  12  15
HETATM   15  C   UNL     1      -7.343   7.024  72.569  1.00  0.00    -0.080 C  
HETATM   16  O   UNL     1      -8.318   6.660  73.557  1.00  0.00    -0.117 OA 
HETATM   17  H   UNL     1      -7.912   6.498  74.401  1.00  0.00     0.000 HD 
ENDBRANCH  12  15
ENDBRANCH   9  12
ENDBRANCH   6   9
ENDBRANCH   3   6
TORSDOF 4
ENDMDL
MODEL      298
REMARK 921   NORMALIZED FREE ENERGY PREDICTED BY IDOCK:   -1.49 KCAL/MOL
REMARK 922        TOTAL FREE ENERGY PREDICTED BY IDOCK:   -2.71 KCAL/MOL
REMARK 923 INTER-LIGAND FREE ENERGY PREDICTED BY IDOCK:   -2.47 KCAL/MOL
REMARK 924 INTRA-LIGAND FREE ENERGY PREDICTED BY IDOCK:   -0.24 KCAL/MOL
REMARK 927      BINDING AFFINITY PREDICTED BY RF-SCORE:    0.00 PKD
ROOT
HETATM    1  C   UNL     1      -8.765   9.735  67.808  1.00  0.00    -0.129 C  
HETATM    2  O   UNL     1      -9.551  10.675  67.937  1.00  0.00    -0.158 OA 
HETATM    3  C   UNL     1      -8.974   8.358  68.407  1.00  0.00    -0.136 C  
HETATM    4  O   UNL     1      -9.556   7.502  67.419  1.00  0.00    -0.139 OA 
HETATM    5  H   UNL     1      -9.687   6.640  67.795  1.00  0.00     0.000 HD 
ENDROOT
BRANCH   3   6
HETATM    6  C   UNL     1      -9.871   8.401  69.651  1.00  0.00    -0.184 C  
HETATM    7  O   UNL     1     -10.970   7.492  69.431  1.00  0.00    -0.384 OA 
HETATM    8  H   UNL     1     -11.526   7.519  70.202  1.00  0.00     0.000 HD 
BRANCH   6   9
HETATM    9  C   UNL     1      -9.162   8.070  70.996  1.00  0.00    -0.149 C  
HETATM   10  O   UNL     1      -7.753   8.331  70.876  1.00  0.00    -0.072 OA 
HETATM   11  H   UNL     1      -7.320   8.129  71.698  1.00  0.00     0.000 HD 
BRANCH   9  12
HETATM   12  C   UNL     1      -9.691   8.789  72.255  1.00  0.00    -0.212 C  
HETATM   13  H   UNL     1      -9.532   8.565  74.210  1.00  0.00     0.000 HD 
HETATM   14  O   UNL     1      -9.206   8.123  73.435  1.00  0.00    -0.265 OA 
BRANCH  12  15
HETATM   15  C   UNL     1     -11.221   8.945  72.300  1.00  0.00    -0.199 C  
HETATM   16  O   UNL     1     -11.870   7.682  72.504  1.00  0.00    -0.441 OA 
HETATM   17  H   UNL     1     -12.815   7.778  72.532  1.00  0.00     0.000 HD 
ENDBRANCH  12  15
ENDBRANCH   9  12
ENDBRANCH   6   9
ENDBRANCH   3   6
TORSDOF 4
ENDMDL
MODEL      299
REMARK 921   NORMALIZED FREE ENERGY PREDICTED BY IDOCK:   -1.46 KCAL/MOL
REMARK 922        TOTAL FREE ENERGY PREDICTED BY IDOCK:   -2.67 KCAL/MOL
REMARK 923 INTER-LIGAND FREE ENERGY PREDICTED BY IDOCK:   -2.27 KCAL/MOL
REMARK 924 INTRA-LIGAND FREE ENERGY PREDICTED BY IDOCK:   -0.40 KCAL/MOL
REMARK 927      BINDING AFFINITY PREDICTED BY RF-SCORE:    0.00 PKD
ROOT
HETATM    1  C   UNL     1      -9.425   6.698  68.358  1.00  0.00    -0.125 C  
HETATM    2  O   UNL     1      -8.430   7.287  67.932  1.00  0.00    -0.118 OA 
HETATM    3  C   UNL     1      -9.657   5.205  68.223  1.00  0.00    -0.135 C  
HETATM    4  O   UNL     1      -9.235   4.557  69.427  1.00  0.00    -0.106 OA 
HETATM    5  H   UNL     1      -9.381   3.622  69.342  1.00  0.00     0.000 HD 
ENDROOT
BRANCH   3   6
HETATM    6  C   UNL     1      -8.908   4.611  67.023  1.00  0.00    -0.111 C  
HETATM    7  O   UNL     1      -8.626   3.228  67.321  1.00  0.00    -0.098 OA 
HETATM    8  H   UNL     1      -8.162   2.861  66.578  1.00  0.00     0.000 HD 
BRANCH   6   9
HETATM    9  C   UNL     1      -9.641   4.727  65.656  1.00  0.00    -0.174 C  
HETATM   10  O   UNL     1      -9.204   5.913  64.971  1.00  0.00    -0.358 OA 
HETATM   11  H   UNL     1      -9.652   5.984  64.136  1.00  0.00     0.000 HD 
BRANCH   9  12
HETATM   12  C   UNL     1      -9.512   3.527  64.694  1.00  0.00    -0.156 C  
HETATM   13  H   UNL     1      -8.077   2.692  63.624  1.00  0.00     0.000 HD 
HETATM   14  O   UNL     1      -8.157   3.431  64.216  1.00  0.00    -0.085 OA 
BRANCH  12  15
HETATM   15  C   UNL     1     -10.509   3.543  63.523  1.00  0.00    -0.251 C  
HETATM   16  O   UNL     1     -11.509   2.526  63.673  1.00  0.00    -0.550 OA 
HETATM   17  H   UNL     1     -12.124   2.535  62.949  1.00  0.00     0.000 HD 
ENDBRANCH  12  15
ENDBRANCH   9  12
ENDBRANCH   6   9
ENDBRANCH   3   6
TORSDOF 4
ENDMDL
MODEL      300
REMARK 921   NORMALIZED FREE ENERGY PREDICTED BY IDOCK:   -1.45 KCAL/MOL
REMARK 922        TOTAL FREE ENERGY PREDICTED BY IDOCK:   -2.66 KCAL/MOL
REMARK 923 INTER-LIGAND FREE ENERGY PREDICTED BY IDOCK:   -1.87 KCAL/MOL
REMARK 924 INTRA-LIGAND FREE ENERGY PREDICTED BY IDOCK:   -0.79 KCAL/MOL
REMARK 927      BINDING AFFINITY PREDICTED BY RF-SCORE:    0.00 PKD
ROOT
HETATM    1  C   UNL     1      -7.142   5.451  67.376  1.00  0.00    -0.070 C  
HETATM    2  O   UNL     1      -5.918   5.563  67.464  1.00  0.00    -0.020 OA 
HETATM    3  C   UNL     1      -8.105   6.621  67.318  1.00  0.00    -0.121 C  
HETATM    4  O   UNL     1      -8.419   6.899  65.949  1.00  0.00    -0.135 OA 
HETATM    5  H   UNL     1      -9.023   7.632  65.913  1.00  0.00     0.000 HD 
ENDROOT
BRANCH   3   6
HETATM    6  C   UNL     1      -7.527   7.878  67.983  1.00  0.00    -0.108 C  
HETATM    7  O   UNL     1      -6.356   8.270  67.238  1.00  0.00    -0.054 OA 
HETATM    8  H   UNL     1      -5.998   9.048  67.650  1.00  0.00     0.000 HD 
BRANCH   6   9
HETATM    9  C   UNL     1      -8.510   9.077  68.108  1.00  0.00    -0.129 C  
HETATM   10  O   UNL     1      -8.505   9.837  66.888  1.00  0.00    -0.120 OA 
HETATM   11  H   UNL     1      -9.106  10.569  66.965  1.00  0.00     0.000 HD 
BRANCH   9  12
HETATM   12  C   UNL     1      -9.972   8.740  68.474  1.00  0.00    -0.182 C  
HETATM   13  H   UNL     1     -11.671   8.478  67.502  1.00  0.00     0.000 HD 
HETATM   14  O   UNL     1     -10.771   8.684  67.278  1.00  0.00    -0.271 OA 
BRANCH  12  15
HETATM   15  C   UNL     1     -10.600   9.687  69.512  1.00  0.00    -0.229 C  
HETATM   16  O   UNL     1      -9.848  10.901  69.635  1.00  0.00    -0.434 OA 
HETATM   17  H   UNL     1     -10.235  11.486  70.276  1.00  0.00     0.000 HD 
ENDBRANCH  12  15
ENDBRANCH   9  12
ENDBRANCH   6   9
ENDBRANCH   3   6
TORSDOF 4
ENDMDL
MODEL      301
REMARK 921   NORMALIZED FREE ENERGY PREDICTED BY IDOCK:   -1.44 KCAL/MOL
REMARK 922        TOTAL FREE ENERGY PREDICTED BY IDOCK:   -2.65 KCAL/MOL
REMARK 923 INTER-LIGAND FREE ENERGY PREDICTED BY IDOCK:   -2.12 KCAL/MOL
REMARK 924 INTRA-LIGAND FREE ENERGY PREDICTED BY IDOCK:   -0.52 KCAL/MOL
REMARK 927      BINDING AFFINITY PREDICTED BY RF-SCORE:    0.00 PKD
ROOT
HETATM    1  C   UNL     1      -8.532   5.929  70.038  1.00  0.00    -0.126 C  
HETATM    2  O   UNL     1      -7.379   5.784  70.449  1.00  0.00    -0.075 OA 
HETATM    3  C   UNL     1      -9.167   5.076  68.958  1.00  0.00    -0.114 C  
HETATM    4  O   UNL     1      -9.931   4.035  69.575  1.00  0.00    -0.145 OA 
HETATM    5  H   UNL     1     -10.329   3.500  68.898  1.00  0.00     0.000 HD 
ENDROOT
BRANCH   3   6
HETATM    6  C   UNL     1      -8.121   4.464  68.016  1.00  0.00    -0.090 C  
HETATM    7  O   UNL     1      -7.351   3.509  68.775  1.00  0.00    -0.050 OA 
HETATM    8  H   UNL     1      -6.704   3.130  68.192  1.00  0.00     0.000 HD 
BRANCH   6   9
HETATM    9  C   UNL     1      -8.692   3.795  66.732  1.00  0.00    -0.118 C  
HETATM   10  O   UNL     1      -9.682   2.818  67.095  1.00  0.00    -0.402 OA 
HETATM   11  H   UNL     1     -10.030   2.410  66.310  1.00  0.00     0.000 HD 
BRANCH   9  12
HETATM   12  C   UNL     1      -9.294   4.737  65.669  1.00  0.00    -0.163 C  
HETATM   13  H   UNL     1     -10.832   5.971  65.548  1.00  0.00     0.000 HD 
HETATM   14  O   UNL     1     -10.460   5.391  66.203  1.00  0.00    -0.210 OA 
BRANCH  12  15
HETATM   15  C   UNL     1      -9.612   4.056  64.326  1.00  0.00    -0.166 C  
HETATM   16  O   UNL     1     -10.839   3.318  64.391  1.00  0.00    -0.467 OA 
HETATM   17  H   UNL     1     -11.035   2.896  63.562  1.00  0.00     0.000 HD 
ENDBRANCH  12  15
ENDBRANCH   9  12
ENDBRANCH   6   9
ENDBRANCH   3   6
TORSDOF 4
ENDMDL
MODEL      302
REMARK 921   NORMALIZED FREE ENERGY PREDICTED BY IDOCK:   -1.43 KCAL/MOL
REMARK 922        TOTAL FREE ENERGY PREDICTED BY IDOCK:   -2.64 KCAL/MOL
REMARK 923 INTER-LIGAND FREE ENERGY PREDICTED BY IDOCK:   -2.23 KCAL/MOL
REMARK 924 INTRA-LIGAND FREE ENERGY PREDICTED BY IDOCK:   -0.41 KCAL/MOL
REMARK 927      BINDING AFFINITY PREDICTED BY RF-SCORE:    0.00 PKD
ROOT
HETATM    1  C   UNL     1      -9.556   3.481  64.346  1.00  0.00    -0.162 C  
HETATM    2  O   UNL     1     -10.446   4.213  63.910  1.00  0.00    -0.155 OA 
HETATM    3  C   UNL     1      -8.815   3.721  65.647  1.00  0.00    -0.123 C  
HETATM    4  O   UNL     1      -9.426   2.946  66.683  1.00  0.00    -0.363 OA 
HETATM    5  H   UNL     1      -8.961   3.097  67.497  1.00  0.00     0.000 HD 
ENDROOT
BRANCH   3   6
HETATM    6  C   UNL     1      -8.809   5.204  66.042  1.00  0.00    -0.137 C  
HETATM    7  O   UNL     1      -8.816   5.983  64.828  1.00  0.00    -0.365 OA 
HETATM    8  H   UNL     1      -8.813   6.901  65.074  1.00  0.00     0.000 HD 
BRANCH   6   9
HETATM    9  C   UNL     1      -9.973   5.649  66.973  1.00  0.00    -0.169 C  
HETATM   10  O   UNL     1      -9.990   4.829  68.154  1.00  0.00    -0.145 OA 
HETATM   11  H   UNL     1     -10.701   5.101  68.722  1.00  0.00     0.000 HD 
BRANCH   9  12
HETATM   12  C   UNL     1      -9.991   7.132  67.403  1.00  0.00    -0.172 C  
HETATM   13  H   UNL     1     -10.110   8.885  66.504  1.00  0.00     0.000 HD 
HETATM   14  O   UNL     1     -10.099   7.973  66.240  1.00  0.00    -0.173 OA 
BRANCH  12  15
HETATM   15  C   UNL     1      -8.797   7.552  68.277  1.00  0.00    -0.125 C  
HETATM   16  O   UNL     1      -8.937   7.070  69.620  1.00  0.00    -0.141 OA 
HETATM   17  H   UNL     1      -8.200   7.330  70.161  1.00  0.00     0.000 HD 
ENDBRANCH  12  15
ENDBRANCH   9  12
ENDBRANCH   6   9
ENDBRANCH   3   6
TORSDOF 4
ENDMDL
MODEL      303
REMARK 921   NORMALIZED FREE ENERGY PREDICTED BY IDOCK:   -1.38 KCAL/MOL
REMARK 922        TOTAL FREE ENERGY PREDICTED BY IDOCK:   -2.57 KCAL/MOL
REMARK 923 INTER-LIGAND FREE ENERGY PREDICTED BY IDOCK:   -2.00 KCAL/MOL
REMARK 924 INTRA-LIGAND FREE ENERGY PREDICTED BY IDOCK:   -0.57 KCAL/MOL
REMARK 927      BINDING AFFINITY PREDICTED BY RF-SCORE:    0.00 PKD
ROOT
HETATM    1  C   UNL     1      -8.568   5.062  65.418  1.00  0.00    -0.143 C  
HETATM    2  O   UNL     1      -9.717   4.764  65.089  1.00  0.00    -0.141 OA 
HETATM    3  C   UNL     1      -8.223   6.104  66.464  1.00  0.00    -0.111 C  
HETATM    4  O   UNL     1      -8.000   5.450  67.718  1.00  0.00    -0.099 OA 
HETATM    5  H   UNL     1      -7.783   6.103  68.373  1.00  0.00     0.000 HD 
ENDROOT
BRANCH   3   6
HETATM    6  C   UNL     1      -9.329   7.156  66.618  1.00  0.00    -0.166 C  
HETATM    7  O   UNL     1     -10.420   6.546  67.339  1.00  0.00    -0.183 OA 
HETATM    8  H   UNL     1     -11.105   7.198  67.434  1.00  0.00     0.000 HD 
BRANCH   6   9
HETATM    9  C   UNL     1      -8.898   8.479  67.314  1.00  0.00    -0.130 C  
HETATM   10  O   UNL     1      -9.441   9.602  66.599  1.00  0.00    -0.155 OA 
HETATM   11  H   UNL     1      -9.178  10.410  67.024  1.00  0.00     0.000 HD 
BRANCH   9  12
HETATM   12  C   UNL     1      -9.256   8.626  68.808  1.00  0.00    -0.142 C  
HETATM   13  H   UNL     1      -9.251   7.467  70.406  1.00  0.00     0.000 HD 
HETATM   14  O   UNL     1      -9.030   7.377  69.487  1.00  0.00    -0.143 OA 
BRANCH  12  15
HETATM   15  C   UNL     1     -10.680   9.146  69.070  1.00  0.00    -0.153 C  
HETATM   16  O   UNL     1     -11.342   8.372  70.080  1.00  0.00    -0.436 OA 
HETATM   17  H   UNL     1     -12.222   8.693  70.242  1.00  0.00     0.000 HD 
ENDBRANCH  12  15
ENDBRANCH   9  12
ENDBRANCH   6   9
ENDBRANCH   3   6
TORSDOF 4
ENDMDL
MODEL      304
REMARK 921   NORMALIZED FREE ENERGY PREDICTED BY IDOCK:   -1.31 KCAL/MOL
REMARK 922        TOTAL FREE ENERGY PREDICTED BY IDOCK:   -2.49 KCAL/MOL
REMARK 923 INTER-LIGAND FREE ENERGY PREDICTED BY IDOCK:   -1.89 KCAL/MOL
REMARK 924 INTRA-LIGAND FREE ENERGY PREDICTED BY IDOCK:   -0.59 KCAL/MOL
REMARK 927      BINDING AFFINITY PREDICTED BY RF-SCORE:    0.00 PKD
ROOT
HETATM    1  C   UNL     1      -8.521   9.086  63.542  1.00  0.00    -0.169 C  
HETATM    2  O   UNL     1      -7.399   8.616  63.343  1.00  0.00    -0.097 OA 
HETATM    3  C   UNL     1      -8.951   9.749  64.837  1.00  0.00    -0.216 C  
HETATM    4  O   UNL     1      -8.803  11.166  64.706  1.00  0.00    -0.358 OA 
HETATM    5  H   UNL     1      -9.073  11.581  65.517  1.00  0.00     0.000 HD 
ENDROOT
BRANCH   3   6
HETATM    6  C   UNL     1      -8.137   9.251  66.038  1.00  0.00    -0.110 C  
HETATM    7  O   UNL     1      -6.824   9.842  65.956  1.00  0.00    -0.090 OA 
HETATM    8  H   UNL     1      -6.320   9.534  66.700  1.00  0.00     0.000 HD 
BRANCH   6   9
HETATM    9  C   UNL     1      -8.767   9.534  67.432  1.00  0.00    -0.125 C  
HETATM   10  O   UNL     1      -9.396  10.826  67.425  1.00  0.00    -0.150 OA 
HETATM   11  H   UNL     1      -9.781  10.999  68.277  1.00  0.00     0.000 HD 
BRANCH   9  12
HETATM   12  C   UNL     1      -9.778   8.495  67.961  1.00  0.00    -0.154 C  
HETATM   13  H   UNL     1     -10.405   7.870  69.726  1.00  0.00     0.000 HD 
HETATM   14  O   UNL     1      -9.782   8.509  69.401  1.00  0.00    -0.172 OA 
BRANCH  12  15
HETATM   15  C   UNL     1      -9.562   7.069  67.425  1.00  0.00    -0.135 C  
HETATM   16  O   UNL     1      -8.583   6.362  68.198  1.00  0.00    -0.118 OA 
HETATM   17  H   UNL     1      -8.449   5.482  67.866  1.00  0.00     0.000 HD 
ENDBRANCH  12  15
ENDBRANCH   9  12
ENDBRANCH   6   9
ENDBRANCH   3   6
TORSDOF 4
ENDMDL
MODEL      305
REMARK 921   NORMALIZED FREE ENERGY PREDICTED BY IDOCK:   -1.23 KCAL/MOL
REMARK 922        TOTAL FREE ENERGY PREDICTED BY IDOCK:   -2.38 KCAL/MOL
REMARK 923 INTER-LIGAND FREE ENERGY PREDICTED BY IDOCK:   -1.78 KCAL/MOL
REMARK 924 INTRA-LIGAND FREE ENERGY PREDICTED BY IDOCK:   -0.61 KCAL/MOL
REMARK 927      BINDING AFFINITY PREDICTED BY RF-SCORE:    0.00 PKD
ROOT
HETATM    1  C   UNL     1      -8.036   8.487  63.841  1.00  0.00    -0.155 C  
HETATM    2  O   UNL     1      -6.979   7.856  63.792  1.00  0.00    -0.068 OA 
HETATM    3  C   UNL     1      -8.752   8.855  65.127  1.00  0.00    -0.178 C  
HETATM    4  O   UNL     1      -8.387  10.188  65.499  1.00  0.00    -0.144 OA 
HETATM    5  H   UNL     1      -8.836  10.418  66.304  1.00  0.00     0.000 HD 
ENDROOT
BRANCH   3   6
HETATM    6  C   UNL     1      -8.418   7.887  66.270  1.00  0.00    -0.135 C  
HETATM    7  O   UNL     1      -8.030   8.675  67.414  1.00  0.00    -0.101 OA 
HETATM    8  H   UNL     1      -7.824   8.076  68.122  1.00  0.00     0.000 HD 
BRANCH   6   9
HETATM    9  C   UNL     1      -9.554   6.898  66.658  1.00  0.00    -0.168 C  
HETATM   10  O   UNL     1      -9.752   5.948  65.598  1.00  0.00    -0.373 OA 
HETATM   11  H   UNL     1     -10.446   5.344  65.836  1.00  0.00     0.000 HD 
BRANCH   9  12
HETATM   12  C   UNL     1      -9.381   6.129  67.985  1.00  0.00    -0.114 C  
HETATM   13  H   UNL     1      -9.375   6.568  69.910  1.00  0.00     0.000 HD 
HETATM   14  O   UNL     1      -9.481   7.042  69.093  1.00  0.00    -0.144 OA 
BRANCH  12  15
HETATM   15  C   UNL     1      -8.090   5.297  68.072  1.00  0.00    -0.099 C  
HETATM   16  O   UNL     1      -8.127   4.177  67.177  1.00  0.00    -0.099 OA 
HETATM   17  H   UNL     1      -7.329   3.663  67.231  1.00  0.00     0.000 HD 
ENDBRANCH  12  15
ENDBRANCH   9  12
ENDBRANCH   6   9
ENDBRANCH   3   6
TORSDOF 4
ENDMDL
MODEL      306
REMARK 921   NORMALIZED FREE ENERGY PREDICTED BY IDOCK:   -1.22 KCAL/MOL
REMARK 922        TOTAL FREE ENERGY PREDICTED BY IDOCK:   -2.38 KCAL/MOL
REMARK 923 INTER-LIGAND FREE ENERGY PREDICTED BY IDOCK:   -2.14 KCAL/MOL
REMARK 924 INTRA-LIGAND FREE ENERGY PREDICTED BY IDOCK:   -0.24 KCAL/MOL
REMARK 927      BINDING AFFINITY PREDICTED BY RF-SCORE:    0.00 PKD
ROOT
HETATM    1  C   UNL     1     -10.321  10.799  68.359  1.00  0.00    -0.180 C  
HETATM    2  O   UNL     1     -10.975  11.148  69.344  1.00  0.00    -0.238 OA 
HETATM    3  C   UNL     1      -8.918  11.285  68.051  1.00  0.00    -0.156 C  
HETATM    4  O   UNL     1      -7.974  10.324  68.536  1.00  0.00    -0.099 OA 
HETATM    5  H   UNL     1      -7.096  10.628  68.342  1.00  0.00     0.000 HD 
ENDROOT
BRANCH   3   6
HETATM    6  C   UNL     1      -8.631  12.656  68.677  1.00  0.00     0.046 C  
HETATM    7  O   UNL     1      -7.240  12.683  69.058  1.00  0.00    -0.223 OA 
HETATM    8  H   UNL     1      -7.063  13.533  69.445  1.00  0.00     0.000 HD 
BRANCH   6   9
HETATM    9  C   UNL     1      -8.967  13.881  67.779  1.00  0.00    -0.188 C  
HETATM   10  O   UNL     1      -9.936  13.503  66.787  1.00  0.00    -0.255 OA 
HETATM   11  H   UNL     1     -10.141  14.252  66.239  1.00  0.00     0.000 HD 
BRANCH   9  12
HETATM   12  C   UNL     1      -9.467  15.152  68.498  1.00  0.00    -0.203 C  
HETATM   13  H   UNL     1     -10.988  16.398  68.320  1.00  0.00     0.000 HD 
HETATM   14  O   UNL     1     -10.681  15.616  67.878  1.00  0.00    -0.277 OA 
BRANCH  12  15
HETATM   15  C   UNL     1      -8.427  16.283  68.584  1.00  0.00    -0.221 C  
HETATM   16  O   UNL     1      -7.162  15.796  69.054  1.00  0.00    -0.142 OA 
HETATM   17  H   UNL     1      -6.520  16.494  69.107  1.00  0.00     0.000 HD 
ENDBRANCH  12  15
ENDBRANCH   9  12
ENDBRANCH   6   9
ENDBRANCH   3   6
TORSDOF 4
ENDMDL
MODEL      307
REMARK 921   NORMALIZED FREE ENERGY PREDICTED BY IDOCK:   -1.11 KCAL/MOL
REMARK 922        TOTAL FREE ENERGY PREDICTED BY IDOCK:   -2.24 KCAL/MOL
REMARK 923 INTER-LIGAND FREE ENERGY PREDICTED BY IDOCK:   -2.58 KCAL/MOL
REMARK 924 INTRA-LIGAND FREE ENERGY PREDICTED BY IDOCK:    0.34 KCAL/MOL
REMARK 927      BINDING AFFINITY PREDICTED BY RF-SCORE:    0.00 PKD
ROOT
HETATM    1  C   UNL     1     -12.545   7.130  71.241  1.00  0.00    -0.380 C  
HETATM    2  O   UNL     1     -12.258   6.471  70.240  1.00  0.00    -0.278 OA 
HETATM    3  C   UNL     1     -11.528   7.681  72.221  1.00  0.00    -0.317 C  
HETATM    4  O   UNL     1     -11.243   9.042  71.881  1.00  0.00    -0.354 OA 
HETATM    5  H   UNL     1     -10.606   9.388  72.496  1.00  0.00     0.000 HD 
ENDROOT
BRANCH   3   6
HETATM    6  C   UNL     1     -10.229   6.864  72.225  1.00  0.00    -0.186 C  
HETATM    7  O   UNL     1     -10.588   5.468  72.250  1.00  0.00    -0.209 OA 
HETATM    8  H   UNL     1      -9.783   4.962  72.252  1.00  0.00     0.000 HD 
BRANCH   6   9
HETATM    9  C   UNL     1      -9.259   7.150  71.042  1.00  0.00    -0.158 C  
HETATM   10  O   UNL     1      -9.518   6.226  69.971  1.00  0.00    -0.153 OA 
HETATM   11  H   UNL     1      -8.926   6.401  69.249  1.00  0.00     0.000 HD 
BRANCH   9  12
HETATM   12  C   UNL     1      -9.265   8.583  70.470  1.00  0.00    -0.156 C  
HETATM   13  H   UNL     1      -9.775   9.449  68.771  1.00  0.00     0.000 HD 
HETATM   14  O   UNL     1      -9.772   8.567  69.123  1.00  0.00    -0.165 OA 
BRANCH  12  15
HETATM   15  C   UNL     1      -7.904   9.297  70.538  1.00  0.00    -0.153 C  
HETATM   16  O   UNL     1      -7.466   9.712  69.237  1.00  0.00    -0.076 OA 
HETATM   17  H   UNL     1      -6.625  10.153  69.278  1.00  0.00     0.000 HD 
ENDBRANCH  12  15
ENDBRANCH   9  12
ENDBRANCH   6   9
ENDBRANCH   3   6
TORSDOF 4
ENDMDL
MODEL      308
REMARK 921   NORMALIZED FREE ENERGY PREDICTED BY IDOCK:   -1.00 KCAL/MOL
REMARK 922        TOTAL FREE ENERGY PREDICTED BY IDOCK:   -2.10 KCAL/MOL
REMARK 923 INTER-LIGAND FREE ENERGY PREDICTED BY IDOCK:   -2.19 KCAL/MOL
REMARK 924 INTRA-LIGAND FREE ENERGY PREDICTED BY IDOCK:    0.09 KCAL/MOL
REMARK 927      BINDING AFFINITY PREDICTED BY RF-SCORE:    0.00 PKD
ROOT
HETATM    1  C   UNL     1      -9.430   6.716  68.654  1.00  0.00    -0.128 C  
HETATM    2  O   UNL     1      -8.640   7.521  69.148  1.00  0.00    -0.134 OA 
HETATM    3  C   UNL     1     -10.515   5.997  69.431  1.00  0.00    -0.267 C  
HETATM    4  O   UNL     1     -11.748   6.709  69.280  1.00  0.00    -0.645 OA 
HETATM    5  H   UNL     1     -12.427   6.259  69.767  1.00  0.00     0.000 HD 
ENDROOT
BRANCH   3   6
HETATM    6  C   UNL     1     -10.169   5.869  70.921  1.00  0.00    -0.213 C  
HETATM    7  O   UNL     1     -11.408   5.753  71.651  1.00  0.00    -0.242 OA 
HETATM    8  H   UNL     1     -11.193   5.674  72.574  1.00  0.00     0.000 HD 
BRANCH   6   9
HETATM    9  C   UNL     1      -9.219   4.693  71.285  1.00  0.00    -0.139 C  
HETATM   10  O   UNL     1      -8.486   4.284  70.118  1.00  0.00    -0.064 OA 
HETATM   11  H   UNL     1      -7.905   3.565  70.340  1.00  0.00     0.000 HD 
BRANCH   9  12
HETATM   12  C   UNL     1      -8.218   4.939  72.434  1.00  0.00    -0.119 C  
HETATM   13  H   UNL     1      -6.434   5.760  72.633  1.00  0.00     0.000 HD 
HETATM   14  O   UNL     1      -7.050   5.609  71.926  1.00  0.00    -0.080 OA 
BRANCH  12  15
HETATM   15  C   UNL     1      -7.830   3.673  73.218  1.00  0.00    -0.074 C  
HETATM   16  O   UNL     1      -8.403   3.676  74.533  1.00  0.00    -0.083 OA 
HETATM   17  H   UNL     1      -8.163   2.894  75.018  1.00  0.00     0.000 HD 
ENDBRANCH  12  15
ENDBRANCH   9  12
ENDBRANCH   6   9
ENDBRANCH   3   6
TORSDOF 4
ENDMDL
MODEL      309
REMARK 921   NORMALIZED FREE ENERGY PREDICTED BY IDOCK:   -0.96 KCAL/MOL
REMARK 922        TOTAL FREE ENERGY PREDICTED BY IDOCK:   -2.05 KCAL/MOL
REMARK 923 INTER-LIGAND FREE ENERGY PREDICTED BY IDOCK:   -1.75 KCAL/MOL
REMARK 924 INTRA-LIGAND FREE ENERGY PREDICTED BY IDOCK:   -0.30 KCAL/MOL
REMARK 927      BINDING AFFINITY PREDICTED BY RF-SCORE:    0.00 PKD
ROOT
HETATM    1  C   UNL     1     -10.378   8.311  70.247  1.00  0.00    -0.209 C  
HETATM    2  O   UNL     1     -10.754   8.896  71.264  1.00  0.00    -0.239 OA 
HETATM    3  C   UNL     1      -9.277   7.269  70.218  1.00  0.00    -0.155 C  
HETATM    4  O   UNL     1      -9.865   5.966  70.284  1.00  0.00    -0.173 OA 
HETATM    5  H   UNL     1      -9.175   5.314  70.265  1.00  0.00     0.000 HD 
ENDROOT
BRANCH   3   6
HETATM    6  C   UNL     1      -8.283   7.449  71.373  1.00  0.00    -0.104 C  
HETATM    7  O   UNL     1      -8.179   8.861  71.649  1.00  0.00    -0.286 OA 
HETATM    8  H   UNL     1      -7.563   8.972  72.364  1.00  0.00     0.000 HD 
BRANCH   6   9
HETATM    9  C   UNL     1      -8.628   6.671  72.675  1.00  0.00    -0.123 C  
HETATM   10  O   UNL     1     -10.050   6.480  72.763  1.00  0.00    -0.171 OA 
HETATM   11  H   UNL     1     -10.260   6.005  73.558  1.00  0.00     0.000 HD 
BRANCH   9  12
HETATM   12  C   UNL     1      -7.933   5.307  72.874  1.00  0.00    -0.102 C  
HETATM   13  H   UNL     1      -6.724   4.492  74.205  1.00  0.00     0.000 HD 
HETATM   14  O   UNL     1      -7.151   5.331  74.082  1.00  0.00    -0.080 OA 
BRANCH  12  15
HETATM   15  C   UNL     1      -7.083   4.848  71.677  1.00  0.00    -0.057 C  
HETATM   16  O   UNL     1      -7.777   3.875  70.885  1.00  0.00    -0.050 OA 
HETATM   17  H   UNL     1      -7.252   3.591  70.145  1.00  0.00     0.000 HD 
ENDBRANCH  12  15
ENDBRANCH   9  12
ENDBRANCH   6   9
ENDBRANCH   3   6
TORSDOF 4
ENDMDL
MODEL      310
REMARK 921   NORMALIZED FREE ENERGY PREDICTED BY IDOCK:   -0.92 KCAL/MOL
REMARK 922        TOTAL FREE ENERGY PREDICTED BY IDOCK:   -2.00 KCAL/MOL
REMARK 923 INTER-LIGAND FREE ENERGY PREDICTED BY IDOCK:   -1.39 KCAL/MOL
REMARK 924 INTRA-LIGAND FREE ENERGY PREDICTED BY IDOCK:   -0.61 KCAL/MOL
REMARK 927      BINDING AFFINITY PREDICTED BY RF-SCORE:    0.00 PKD
ROOT
HETATM    1  C   UNL     1      -7.207   4.861  67.124  1.00  0.00    -0.077 C  
HETATM    2  O   UNL     1      -6.429   5.641  66.572  1.00  0.00    -0.047 OA 
HETATM    3  C   UNL     1      -7.426   3.424  66.690  1.00  0.00    -0.076 C  
HETATM    4  O   UNL     1      -6.606   2.565  67.489  1.00  0.00    -0.035 OA 
HETATM    5  H   UNL     1      -6.744   1.665  67.217  1.00  0.00     0.000 HD 
ENDROOT
BRANCH   3   6
HETATM    6  C   UNL     1      -7.103   3.215  65.204  1.00  0.00    -0.061 C  
HETATM    7  O   UNL     1      -6.697   1.841  65.032  1.00  0.00    -0.026 OA 
HETATM    8  H   UNL     1      -6.497   1.712  64.112  1.00  0.00     0.000 HD 
BRANCH   6   9
HETATM    9  C   UNL     1      -8.253   3.564  64.217  1.00  0.00    -0.090 C  
HETATM   10  O   UNL     1      -7.889   3.159  62.887  1.00  0.00    -0.065 OA 
HETATM   11  H   UNL     1      -8.592   3.372  62.284  1.00  0.00     0.000 HD 
BRANCH   9  12
HETATM   12  C   UNL     1      -9.647   2.986  64.544  1.00  0.00    -0.150 C  
HETATM   13  H   UNL     1     -10.427   1.196  64.835  1.00  0.00     0.000 HD 
HETATM   14  O   UNL     1      -9.570   1.551  64.634  1.00  0.00    -0.120 OA 
BRANCH  12  15
HETATM   15  C   UNL     1     -10.756   3.417  63.568  1.00  0.00    -0.250 C  
HETATM   16  O   UNL     1     -10.336   4.518  62.751  1.00  0.00    -0.397 OA 
HETATM   17  H   UNL     1     -11.022   4.784  62.149  1.00  0.00     0.000 HD 
ENDBRANCH  12  15
ENDBRANCH   9  12
ENDBRANCH   6   9
ENDBRANCH   3   6
TORSDOF 4
ENDMDL
MODEL      311
REMARK 921   NORMALIZED FREE ENERGY PREDICTED BY IDOCK:   -0.88 KCAL/MOL
REMARK 922        TOTAL FREE ENERGY PREDICTED BY IDOCK:   -1.95 KCAL/MOL
REMARK 923 INTER-LIGAND FREE ENERGY PREDICTED BY IDOCK:   -1.42 KCAL/MOL
REMARK 924 INTRA-LIGAND FREE ENERGY PREDICTED BY IDOCK:   -0.52 KCAL/MOL
REMARK 927      BINDING AFFINITY PREDICTED BY RF-SCORE:    0.00 PKD
ROOT
HETATM    1  C   UNL     1      -8.871   5.483  67.712  1.00  0.00    -0.105 C  
HETATM    2  O   UNL     1      -7.871   6.202  67.730  1.00  0.00    -0.103 OA 
HETATM    3  C   UNL     1      -8.893   4.064  67.178  1.00  0.00    -0.119 C  
HETATM    4  O   UNL     1      -8.731   3.152  68.270  1.00  0.00    -0.089 OA 
HETATM    5  H   UNL     1      -8.745   2.263  67.935  1.00  0.00     0.000 HD 
ENDROOT
BRANCH   3   6
HETATM    6  C   UNL     1      -7.794   3.823  66.134  1.00  0.00    -0.089 C  
HETATM    7  O   UNL     1      -6.559   3.589  66.842  1.00  0.00    -0.040 OA 
HETATM    8  H   UNL     1      -5.878   3.440  66.196  1.00  0.00     0.000 HD 
BRANCH   6   9
HETATM    9  C   UNL     1      -8.068   2.663  65.135  1.00  0.00    -0.083 C  
HETATM   10  O   UNL     1      -8.948   1.701  65.739  1.00  0.00    -0.123 OA 
HETATM   11  H   UNL     1      -9.115   0.992  65.128  1.00  0.00     0.000 HD 
BRANCH   9  12
HETATM   12  C   UNL     1      -8.639   3.055  63.756  1.00  0.00    -0.089 C  
HETATM   13  H   UNL     1      -7.965   3.175  61.903  1.00  0.00     0.000 HD 
HETATM   14  O   UNL     1      -7.614   2.933  62.752  1.00  0.00    -0.052 OA 
BRANCH  12  15
HETATM   15  C   UNL     1      -9.288   4.450  63.712  1.00  0.00    -0.098 C  
HETATM   16  O   UNL     1     -10.684   4.367  63.394  1.00  0.00    -0.433 OA 
HETATM   17  H   UNL     1     -11.085   5.228  63.366  1.00  0.00     0.000 HD 
ENDBRANCH  12  15
ENDBRANCH   9  12
ENDBRANCH   6   9
ENDBRANCH   3   6
TORSDOF 4
ENDMDL
MODEL      312
REMARK 921   NORMALIZED FREE ENERGY PREDICTED BY IDOCK:   -0.49 KCAL/MOL
REMARK 922        TOTAL FREE ENERGY PREDICTED BY IDOCK:   -1.48 KCAL/MOL
REMARK 923 INTER-LIGAND FREE ENERGY PREDICTED BY IDOCK:   -1.03 KCAL/MOL
REMARK 924 INTRA-LIGAND FREE ENERGY PREDICTED BY IDOCK:   -0.44 KCAL/MOL
REMARK 927      BINDING AFFINITY PREDICTED BY RF-SCORE:    0.00 PKD
ROOT
HETATM    1  C   UNL     1      -8.820   6.779  68.595  1.00  0.00    -0.123 C  
HETATM    2  O   UNL     1      -7.923   7.562  68.913  1.00  0.00    -0.121 OA 
HETATM    3  C   UNL     1      -8.584   5.418  67.971  1.00  0.00    -0.100 C  
HETATM    4  O   UNL     1      -8.609   4.423  69.000  1.00  0.00    -0.081 OA 
HETATM    5  H   UNL     1      -8.461   3.570  68.609  1.00  0.00     0.000 HD 
ENDROOT
BRANCH   3   6
HETATM    6  C   UNL     1      -7.248   5.352  67.218  1.00  0.00    -0.075 C  
HETATM    7  O   UNL     1      -6.880   3.963  67.096  1.00  0.00    -0.049 OA 
HETATM    8  H   UNL     1      -6.053   3.922  66.630  1.00  0.00     0.000 HD 
BRANCH   6   9
HETATM    9  C   UNL     1      -7.238   6.035  65.820  1.00  0.00    -0.075 C  
HETATM   10  O   UNL     1      -6.062   6.851  65.689  1.00  0.00    -0.034 OA 
HETATM   11  H   UNL     1      -6.056   7.268  64.835  1.00  0.00     0.000 HD 
BRANCH   9  12
HETATM   12  C   UNL     1      -7.333   5.105  64.592  1.00  0.00    -0.063 C  
HETATM   13  H   UNL     1      -6.777   5.165  62.699  1.00  0.00     0.000 HD 
HETATM   14  O   UNL     1      -6.719   5.737  63.455  1.00  0.00    -0.034 OA 
BRANCH  12  15
HETATM   15  C   UNL     1      -8.761   4.639  64.259  1.00  0.00    -0.148 C  
HETATM   16  O   UNL     1      -9.088   3.422  64.943  1.00  0.00    -0.127 OA 
HETATM   17  H   UNL     1      -9.970   3.134  64.737  1.00  0.00     0.000 HD 
ENDBRANCH  12  15
ENDBRANCH   9  12
ENDBRANCH   6   9
ENDBRANCH   3   6
TORSDOF 4
ENDMDL
MODEL      313
REMARK 921   NORMALIZED FREE ENERGY PREDICTED BY IDOCK:   -0.42 KCAL/MOL
REMARK 922        TOTAL FREE ENERGY PREDICTED BY IDOCK:   -1.38 KCAL/MOL
REMARK 923 INTER-LIGAND FREE ENERGY PREDICTED BY IDOCK:   -2.59 KCAL/MOL
REMARK 924 INTRA-LIGAND FREE ENERGY PREDICTED BY IDOCK:    1.21 KCAL/MOL
REMARK 927      BINDING AFFINITY PREDICTED BY RF-SCORE:    0.00 PKD
ROOT
HETATM    1  C   UNL     1     -10.575   9.211  69.713  1.00  0.00    -0.229 C  
HETATM    2  O   UNL     1     -11.004   9.313  70.864  1.00  0.00    -0.249 OA 
HETATM    3  C   UNL     1      -9.936   7.958  69.148  1.00  0.00    -0.184 C  
HETATM    4  O   UNL     1     -10.926   7.213  68.431  1.00  0.00    -0.413 OA 
HETATM    5  H   UNL     1     -10.525   6.428  68.076  1.00  0.00     0.000 HD 
ENDROOT
BRANCH   3   6
HETATM    6  C   UNL     1      -9.318   7.080  70.244  1.00  0.00    -0.159 C  
HETATM    7  O   UNL     1      -9.030   7.927  71.376  1.00  0.00    -0.129 OA 
HETATM    8  H   UNL     1      -8.648   7.383  72.055  1.00  0.00     0.000 HD 
BRANCH   6   9
HETATM    9  C   UNL     1     -10.182   5.865  70.689  1.00  0.00    -0.209 C  
HETATM   10  O   UNL     1      -9.424   4.652  70.540  1.00  0.00    -0.147 OA 
HETATM   11  H   UNL     1      -9.951   3.910  70.812  1.00  0.00     0.000 HD 
BRANCH   9  12
HETATM   12  C   UNL     1     -10.761   5.911  72.119  1.00  0.00    -0.231 C  
HETATM   13  H   UNL     1     -12.541   6.152  72.940  1.00  0.00     0.000 HD 
HETATM   14  O   UNL     1     -12.184   6.123  72.060  1.00  0.00    -0.312 OA 
BRANCH  12  15
HETATM   15  C   UNL     1     -10.089   6.942  73.042  1.00  0.00    -0.201 C  
HETATM   16  O   UNL     1      -9.139   6.319  73.918  1.00  0.00    -0.126 OA 
HETATM   17  H   UNL     1      -8.724   6.956  74.489  1.00  0.00     0.000 HD 
ENDBRANCH  12  15
ENDBRANCH   9  12
ENDBRANCH   6   9
ENDBRANCH   3   6
TORSDOF 4
ENDMDL
