MODEL        1
REMARK 921   NORMALIZED FREE ENERGY PREDICTED BY IDOCK:   -5.55 KCAL/MOL
REMARK 922        TOTAL FREE ENERGY PREDICTED BY IDOCK:  -14.68 KCAL/MOL
REMARK 923 INTER-LIGAND FREE ENERGY PREDICTED BY IDOCK:  -12.36 KCAL/MOL
REMARK 924 INTRA-LIGAND FREE ENERGY PREDICTED BY IDOCK:   -2.32 KCAL/MOL
REMARK 927      BINDING AFFINITY PREDICTED BY RF-SCORE:    0.00 PKD
ROOT
HETATM    1  I   UNL     1      -7.560   3.168  66.852  1.00  0.00    -0.076 I  
HETATM    2  I   UNL     2      -9.552   2.178  71.601  1.00  0.00    -0.188 I  
HETATM    3  I   UNL     3     -10.336   6.062  67.220  1.00  0.00    -0.415 I  
HETATM    4  C   UNL     4      -9.663   8.980  69.616  1.00  0.00    -0.177 C  
HETATM    5  C   UNL     4     -10.033   9.246  71.091  1.00  0.00    -0.286 C  
ENDROOT
BRANCH   5   6
HETATM    6  N   UNL     4     -11.206   8.477  71.634  1.00  0.00    -0.271 N  
BRANCH   6   7
HETATM    7  C   UNL     4     -10.734   7.655  72.810  1.00  0.00    -0.345 C  
HETATM    8  C   UNL     4      -9.259   7.829  73.220  1.00  0.00    -0.318 C  
ENDBRANCH   6   7
BRANCH   6   9
HETATM    9  C   UNL     4     -12.277   9.454  72.037  1.00  0.00    -0.326 C  
BRANCH   9  10
HETATM   10  C   UNL     4     -13.068  10.229  70.939  1.00  0.00    -0.344 C  
BRANCH  10  11
HETATM   11  O   UNL     4     -12.484  11.377  70.433  1.00  0.00    -0.298 OA 
BRANCH  11  12
HETATM   12  C   UNL     4     -12.612  12.672  70.822  1.00  0.00    -0.217 A  
HETATM   13  C   UNL     4     -12.942  12.947  72.156  1.00  0.00    -0.350 A  
HETATM   14  C   UNL     4     -13.123  14.232  72.597  1.00  0.00    -0.567 A  
HETATM   15  C   UNL     4     -12.926  15.286  71.743  1.00  0.00    -0.475 A  
HETATM   16  C   UNL     4     -12.555  15.106  70.379  1.00  0.00    -0.359 A  
HETATM   17  C   UNL     4     -12.408  13.765  69.888  1.00  0.00    -0.275 A  
BRANCH  16  18
HETATM   18  O   UNL     4     -12.321  16.217  69.589  1.00  0.00    -0.108 OA 
BRANCH  18  19
HETATM   19  C   UNL     4     -11.020  16.459  69.133  1.00  0.00    -0.324 C  
BRANCH  19  20
HETATM   20  C   UNL     4     -10.777  17.253  67.824  1.00  0.00    -0.333 C  
BRANCH  20  21
HETATM   21  N   UNL     4      -9.353  17.805  67.722  1.00  0.00    -0.254 N  
BRANCH  21  22
HETATM   22  C   UNL     4      -8.348  16.681  67.649  1.00  0.00    -0.173 C  
HETATM   23  C   UNL     4      -7.454  16.633  66.397  1.00  0.00    -0.260 C  
ENDBRANCH  21  22
BRANCH  21  24
HETATM   24  C   UNL     4      -9.033  18.623  68.952  1.00  0.00    -0.182 C  
HETATM   25  C   UNL     4      -7.719  19.434  68.940  1.00  0.00    -0.382 C  
ENDBRANCH  21  24
BRANCH  21  26
HETATM   26  C   UNL     4      -9.208  18.634  66.477  1.00  0.00    -0.320 C  
HETATM   27  C   UNL     4     -10.456  19.413  66.028  1.00  0.00    -0.596 C  
ENDBRANCH  21  26
ENDBRANCH  20  21
ENDBRANCH  19  20
ENDBRANCH  18  19
ENDBRANCH  16  18
BRANCH  17  28
HETATM   28  O   UNL     4     -12.070  13.554  68.562  1.00  0.00    -0.359 OA 
BRANCH  28  29
HETATM   29  C   UNL     4     -10.978  12.792  68.143  1.00  0.00    -0.247 C  
BRANCH  29  30
HETATM   30  C   UNL     4     -11.274  11.756  67.037  1.00  0.00    -0.322 C  
BRANCH  30  31
HETATM   31  N   UNL     4     -10.998  12.233  65.617  1.00  0.00    -0.289 N  
BRANCH  31  32
HETATM   32  C   UNL     4     -10.333  11.165  64.791  1.00  0.00    -0.325 C  
HETATM   33  C   UNL     4      -9.875   9.898  65.528  1.00  0.00    -0.381 C  
ENDBRANCH  31  32
BRANCH  31  34
HETATM   34  C   UNL     4     -10.088  13.428  65.682  1.00  0.00    -0.274 C  
HETATM   35  C   UNL     4     -10.599  14.712  64.991  1.00  0.00    -0.461 C  
ENDBRANCH  31  34
BRANCH  31  36
HETATM   36  C   UNL     4     -12.293  12.590  64.918  1.00  0.00    -0.470 C  
HETATM   37  C   UNL     4     -12.470  12.081  63.471  1.00  0.00    -0.654 C  
ENDBRANCH  31  36
ENDBRANCH  30  31
ENDBRANCH  29  30
ENDBRANCH  28  29
ENDBRANCH  17  28
ENDBRANCH  11  12
ENDBRANCH  10  11
ENDBRANCH   9  10
ENDBRANCH   6   9
BRANCH   6  38
HETATM   38  C   UNL     4     -11.759   7.531  70.600  1.00  0.00    -0.215 C  
HETATM   39  C   UNL     4     -11.596   6.025  70.891  1.00  0.00    -0.147 C  
ENDBRANCH   6  38
ENDBRANCH   5   6
TORSDOF 21
ENDMDL
MODEL        2
REMARK 921   NORMALIZED FREE ENERGY PREDICTED BY IDOCK:   -5.40 KCAL/MOL
REMARK 922        TOTAL FREE ENERGY PREDICTED BY IDOCK:  -14.35 KCAL/MOL
REMARK 923 INTER-LIGAND FREE ENERGY PREDICTED BY IDOCK:  -11.32 KCAL/MOL
REMARK 924 INTRA-LIGAND FREE ENERGY PREDICTED BY IDOCK:   -3.03 KCAL/MOL
REMARK 927      BINDING AFFINITY PREDICTED BY RF-SCORE:    0.00 PKD
ROOT
HETATM    1  I   UNL     1      -5.250   5.020  66.472  1.00  0.00    -0.009 I  
HETATM    2  I   UNL     2      -5.459  10.003  68.092  1.00  0.00    -0.036 I  
HETATM    3  I   UNL     3      -7.419   4.716  69.851  1.00  0.00    -0.055 I  
HETATM    4  C   UNL     4     -11.033   5.997  69.853  1.00  0.00    -0.458 C  
HETATM    5  C   UNL     4     -11.680   7.341  70.252  1.00  0.00    -0.126 C  
ENDROOT
BRANCH   5   6
HETATM    6  N   UNL     4     -10.894   8.206  71.199  1.00  0.00    -0.228 N  
BRANCH   6   7
HETATM    7  C   UNL     4     -10.011   9.122  70.386  1.00  0.00    -0.218 C  
HETATM    8  C   UNL     4      -8.491   8.886  70.497  1.00  0.00    -0.198 C  
ENDBRANCH   6   7
BRANCH   6   9
HETATM    9  C   UNL     4     -11.858   8.982  72.054  1.00  0.00    -0.356 C  
BRANCH   9  10
HETATM   10  C   UNL     4     -13.100   9.660  71.397  1.00  0.00    -0.385 C  
BRANCH  10  11
HETATM   11  O   UNL     4     -12.875  10.809  70.659  1.00  0.00    -0.340 OA 
BRANCH  11  12
HETATM   12  C   UNL     4     -12.758  12.100  71.059  1.00  0.00    -0.228 A  
HETATM   13  C   UNL     4     -13.454  12.520  72.201  1.00  0.00    -0.523 A  
HETATM   14  C   UNL     4     -13.406  13.820  72.630  1.00  0.00    -0.618 A  
HETATM   15  C   UNL     4     -12.622  14.732  71.973  1.00  0.00    -0.401 A  
HETATM   16  C   UNL     4     -11.851  14.392  70.824  1.00  0.00    -0.285 A  
HETATM   17  C   UNL     4     -11.927  13.044  70.333  1.00  0.00    -0.258 A  
BRANCH  16  18
HETATM   18  O   UNL     4     -11.040  15.350  70.244  1.00  0.00    -0.265 OA 
BRANCH  18  19
HETATM   19  C   UNL     4     -11.511  16.045  69.124  1.00  0.00    -0.347 C  
BRANCH  19  20
HETATM   20  C   UNL     4     -10.667  17.177  68.485  1.00  0.00    -0.326 C  
BRANCH  20  21
HETATM   21  N   UNL     4     -10.047  16.768  67.146  1.00  0.00    -0.275 N  
BRANCH  21  22
HETATM   22  C   UNL     4      -8.600  16.374  67.325  1.00  0.00    -0.181 C  
HETATM   23  C   UNL     4      -7.571  17.097  66.439  1.00  0.00    -0.347 C  
ENDBRANCH  21  22
BRANCH  21  24
HETATM   24  C   UNL     4     -10.086  17.935  66.188  1.00  0.00    -0.320 C  
HETATM   25  C   UNL     4     -10.515  19.305  66.757  1.00  0.00    -0.544 C  
ENDBRANCH  21  24
BRANCH  21  26
HETATM   26  C   UNL     4     -10.778  15.585  66.578  1.00  0.00    -0.304 C  
HETATM   27  C   UNL     4     -10.867  15.512  65.044  1.00  0.00    -0.468 C  
ENDBRANCH  21  26
ENDBRANCH  20  21
ENDBRANCH  19  20
ENDBRANCH  18  19
ENDBRANCH  16  18
BRANCH  17  28
HETATM   28  O   UNL     4     -11.209  12.685  69.205  1.00  0.00    -0.243 OA 
BRANCH  28  29
HETATM   29  C   UNL     4     -11.790  12.321  67.989  1.00  0.00    -0.305 C  
BRANCH  29  30
HETATM   30  C   UNL     4     -11.402  10.922  67.460  1.00  0.00    -0.232 C  
BRANCH  30  31
HETATM   31  N   UNL     4     -10.202  10.897  66.524  1.00  0.00    -0.225 N  
BRANCH  31  32
HETATM   32  C   UNL     4     -10.327  11.923  65.429  1.00  0.00    -0.267 C  
HETATM   33  C   UNL     4     -10.518  11.396  64.000  1.00  0.00    -0.435 C  
ENDBRANCH  31  32
BRANCH  31  34
HETATM   34  C   UNL     4     -10.111   9.533  65.897  1.00  0.00    -0.214 C  
HETATM   35  C   UNL     4     -10.236   8.331  66.858  1.00  0.00    -0.388 C  
ENDBRANCH  31  34
BRANCH  31  36
HETATM   36  C   UNL     4      -8.931  11.216  67.285  1.00  0.00    -0.147 C  
HETATM   37  C   UNL     4      -8.334  12.627  67.089  1.00  0.00    -0.172 C  
ENDBRANCH  31  36
ENDBRANCH  30  31
ENDBRANCH  29  30
ENDBRANCH  28  29
ENDBRANCH  17  28
ENDBRANCH  11  12
ENDBRANCH  10  11
ENDBRANCH   9  10
ENDBRANCH   6   9
BRANCH   6  38
HETATM   38  C   UNL     4     -10.005   7.371  72.084  1.00  0.00    -0.170 C  
HETATM   39  C   UNL     4     -10.495   7.143  73.528  1.00  0.00    -0.422 C  
ENDBRANCH   6  38
ENDBRANCH   5   6
TORSDOF 21
ENDMDL
MODEL        3
REMARK 921   NORMALIZED FREE ENERGY PREDICTED BY IDOCK:   -5.23 KCAL/MOL
REMARK 922        TOTAL FREE ENERGY PREDICTED BY IDOCK:  -13.98 KCAL/MOL
REMARK 923 INTER-LIGAND FREE ENERGY PREDICTED BY IDOCK:  -11.43 KCAL/MOL
REMARK 924 INTRA-LIGAND FREE ENERGY PREDICTED BY IDOCK:   -2.54 KCAL/MOL
REMARK 927      BINDING AFFINITY PREDICTED BY RF-SCORE:    0.00 PKD
ROOT
HETATM    1  I   UNL     1      -5.323   3.035  68.018  1.00  0.00    -0.014 I  
HETATM    2  I   UNL     2      -6.309   7.993  66.623  1.00  0.00    -0.057 I  
HETATM    3  I   UNL     3      -6.957   4.545  71.375  1.00  0.00    -0.045 I  
HETATM    4  C   UNL     4     -10.724   5.256  71.443  1.00  0.00    -0.203 C  
HETATM    5  C   UNL     4     -11.570   6.517  71.162  1.00  0.00    -0.335 C  
ENDROOT
BRANCH   5   6
HETATM    6  N   UNL     4     -10.859   7.838  71.280  1.00  0.00    -0.229 N  
BRANCH   6   7
HETATM    7  C   UNL     4      -9.554   7.747  70.527  1.00  0.00    -0.167 C  
HETATM    8  C   UNL     4      -9.600   8.108  69.028  1.00  0.00    -0.156 C  
ENDBRANCH   6   7
BRANCH   6   9
HETATM    9  C   UNL     4     -11.748   8.914  70.719  1.00  0.00    -0.230 C  
BRANCH   9  10
HETATM   10  C   UNL     4     -11.688  10.354  71.316  1.00  0.00    -0.231 C  
BRANCH  10  11
HETATM   11  O   UNL     4     -12.811  11.147  71.162  1.00  0.00    -0.378 OA 
BRANCH  11  12
HETATM   12  C   UNL     4     -12.952  12.495  71.244  1.00  0.00    -0.208 A  
HETATM   13  C   UNL     4     -13.670  13.034  72.320  1.00  0.00    -0.608 A  
HETATM   14  C   UNL     4     -13.879  14.384  72.435  1.00  0.00    -0.595 A  
HETATM   15  C   UNL     4     -13.334  15.244  71.518  1.00  0.00    -0.559 A  
HETATM   16  C   UNL     4     -12.560  14.792  70.411  1.00  0.00    -0.346 A  
HETATM   17  C   UNL     4     -12.372  13.378  70.248  1.00  0.00    -0.284 A  
BRANCH  16  18
HETATM   18  O   UNL     4     -11.996  15.721  69.555  1.00  0.00    -0.361 OA 
BRANCH  18  19
HETATM   19  C   UNL     4     -10.808  16.356  69.936  1.00  0.00    -0.333 C  
BRANCH  19  20
HETATM   20  C   UNL     4      -9.513  16.172  69.105  1.00  0.00    -0.251 C  
BRANCH  20  21
HETATM   21  N   UNL     4      -9.131  17.429  68.319  1.00  0.00    -0.264 N  
BRANCH  21  22
HETATM   22  C   UNL     4     -10.053  18.575  68.662  1.00  0.00    -0.369 C  
HETATM   23  C   UNL     4     -10.786  19.249  67.490  1.00  0.00    -0.571 C  
ENDBRANCH  21  22
BRANCH  21  24
HETATM   24  C   UNL     4      -9.265  17.165  66.838  1.00  0.00    -0.241 C  
HETATM   25  C   UNL     4      -7.981  17.251  65.984  1.00  0.00    -0.196 C  
ENDBRANCH  21  24
BRANCH  21  26
HETATM   26  C   UNL     4      -7.729  17.848  68.662  1.00  0.00    -0.289 C  
HETATM   27  C   UNL     4      -6.822  16.762  69.265  1.00  0.00    -0.225 C  
ENDBRANCH  21  26
ENDBRANCH  20  21
ENDBRANCH  19  20
ENDBRANCH  18  19
ENDBRANCH  16  18
BRANCH  17  28
HETATM   28  O   UNL     4     -11.644  12.903  69.171  1.00  0.00    -0.285 OA 
BRANCH  28  29
HETATM   29  C   UNL     4     -12.133  12.831  67.865  1.00  0.00    -0.132 C  
BRANCH  29  30
HETATM   30  C   UNL     4     -11.400  11.840  66.935  1.00  0.00    -0.320 C  
BRANCH  30  31
HETATM   31  N   UNL     4     -10.874  12.441  65.639  1.00  0.00    -0.269 N  
BRANCH  31  32
HETATM   32  C   UNL     4     -10.062  13.684  65.891  1.00  0.00    -0.310 C  
HETATM   33  C   UNL     4      -8.824  13.537  66.786  1.00  0.00    -0.146 C  
ENDBRANCH  31  32
BRANCH  31  34
HETATM   34  C   UNL     4     -12.045  12.800  64.767  1.00  0.00    -0.432 C  
HETATM   35  C   UNL     4     -11.878  12.532  63.255  1.00  0.00    -0.498 C  
ENDBRANCH  31  34
BRANCH  31  36
HETATM   36  C   UNL     4      -9.966  11.458  64.929  1.00  0.00    -0.265 C  
HETATM   37  C   UNL     4      -9.867  10.038  65.529  1.00  0.00    -0.373 C  
ENDBRANCH  31  36
ENDBRANCH  30  31
ENDBRANCH  29  30
ENDBRANCH  28  29
ENDBRANCH  17  28
ENDBRANCH  11  12
ENDBRANCH  10  11
ENDBRANCH   9  10
ENDBRANCH   6   9
BRANCH   6  38
HETATM   38  C   UNL     4     -10.541   8.154  72.719  1.00  0.00    -0.316 C  
HETATM   39  C   UNL     4      -9.071   7.979  73.151  1.00  0.00    -0.341 C  
ENDBRANCH   6  38
ENDBRANCH   5   6
TORSDOF 21
ENDMDL
MODEL        4
REMARK 921   NORMALIZED FREE ENERGY PREDICTED BY IDOCK:   -5.13 KCAL/MOL
REMARK 922        TOTAL FREE ENERGY PREDICTED BY IDOCK:  -13.75 KCAL/MOL
REMARK 923 INTER-LIGAND FREE ENERGY PREDICTED BY IDOCK:  -10.81 KCAL/MOL
REMARK 924 INTRA-LIGAND FREE ENERGY PREDICTED BY IDOCK:   -2.94 KCAL/MOL
REMARK 927      BINDING AFFINITY PREDICTED BY RF-SCORE:    0.00 PKD
ROOT
HETATM    1  I   UNL     1      -5.188   6.769  66.083  1.00  0.00    -0.019 I  
HETATM    2  I   UNL     2      -5.722  10.744  69.461  1.00  0.00    -0.059 I  
HETATM    3  I   UNL     3      -7.165   5.025  69.128  1.00  0.00    -0.058 I  
HETATM    4  C   UNL     4     -10.867   5.874  69.659  1.00  0.00    -0.444 C  
HETATM    5  C   UNL     4     -11.601   6.906  70.542  1.00  0.00    -0.346 C  
ENDROOT
BRANCH   5   6
HETATM    6  N   UNL     4     -10.843   7.424  71.735  1.00  0.00    -0.222 N  
BRANCH   6   7
HETATM    7  C   UNL     4      -9.365   7.303  71.451  1.00  0.00    -0.149 C  
HETATM    8  C   UNL     4      -8.593   8.624  71.261  1.00  0.00    -0.236 C  
ENDBRANCH   6   7
BRANCH   6   9
HETATM    9  C   UNL     4     -11.245   8.853  71.976  1.00  0.00    -0.352 C  
BRANCH   9  10
HETATM   10  C   UNL     4     -12.461   9.454  71.206  1.00  0.00    -0.335 C  
BRANCH  10  11
HETATM   11  O   UNL     4     -12.214  10.545  70.391  1.00  0.00    -0.290 OA 
BRANCH  11  12
HETATM   12  C   UNL     4     -12.446  11.866  70.598  1.00  0.00    -0.257 A  
HETATM   13  C   UNL     4     -13.133  12.258  71.755  1.00  0.00    -0.449 A  
HETATM   14  C   UNL     4     -13.431  13.573  71.998  1.00  0.00    -0.584 A  
HETATM   15  C   UNL     4     -13.007  14.546  71.131  1.00  0.00    -0.414 A  
HETATM   16  C   UNL     4     -12.272  14.248  69.947  1.00  0.00    -0.352 A  
HETATM   17  C   UNL     4     -11.993  12.870  69.652  1.00  0.00    -0.292 A  
BRANCH  16  18
HETATM   18  O   UNL     4     -11.830  15.284  69.145  1.00  0.00    -0.316 OA 
BRANCH  18  19
HETATM   19  C   UNL     4     -10.818  16.124  69.625  1.00  0.00    -0.338 C  
BRANCH  19  20
HETATM   20  C   UNL     4      -9.527  16.356  68.799  1.00  0.00    -0.247 C  
BRANCH  20  21
HETATM   21  N   UNL     4      -9.796  17.064  67.468  1.00  0.00    -0.252 N  
BRANCH  21  22
HETATM   22  C   UNL     4     -10.527  16.151  66.515  1.00  0.00    -0.297 C  
HETATM   23  C   UNL     4      -9.669  15.390  65.489  1.00  0.00    -0.318 C  
ENDBRANCH  21  22
BRANCH  21  24
HETATM   24  C   UNL     4      -8.486  17.446  66.819  1.00  0.00    -0.254 C  
HETATM   25  C   UNL     4      -7.199  17.238  67.646  1.00  0.00    -0.176 C  
ENDBRANCH  21  24
BRANCH  21  26
HETATM   26  C   UNL     4     -10.655  18.277  67.693  1.00  0.00    -0.405 C  
HETATM   27  C   UNL     4      -9.942  19.638  67.626  1.00  0.00    -0.510 C  
ENDBRANCH  21  26
ENDBRANCH  20  21
ENDBRANCH  19  20
ENDBRANCH  18  19
ENDBRANCH  16  18
BRANCH  17  28
HETATM   28  O   UNL     4     -11.301  12.544  68.499  1.00  0.00    -0.251 OA 
BRANCH  28  29
HETATM   29  C   UNL     4      -9.917  12.370  68.437  1.00  0.00    -0.210 C  
BRANCH  29  30
HETATM   30  C   UNL     4      -9.328  12.225  67.017  1.00  0.00    -0.205 C  
BRANCH  30  31
HETATM   31  N   UNL     4      -9.170  10.792  66.528  1.00  0.00    -0.165 N  
BRANCH  31  32
HETATM   32  C   UNL     4      -9.412   9.797  67.632  1.00  0.00    -0.144 C  
HETATM   33  C   UNL     4     -10.406   8.663  67.342  1.00  0.00    -0.353 C  
ENDBRANCH  31  32
BRANCH  31  34
HETATM   34  C   UNL     4      -7.768  10.611  66.016  1.00  0.00    -0.151 C  
HETATM   35  C   UNL     4      -7.613   9.763  64.735  1.00  0.00    -0.129 C  
ENDBRANCH  31  34
BRANCH  31  36
HETATM   36  C   UNL     4     -10.176  10.492  65.435  1.00  0.00    -0.270 C  
HETATM   37  C   UNL     4     -10.808  11.703  64.715  1.00  0.00    -0.367 C  
ENDBRANCH  31  36
ENDBRANCH  30  31
ENDBRANCH  29  30
ENDBRANCH  28  29
ENDBRANCH  17  28
ENDBRANCH  11  12
ENDBRANCH  10  11
ENDBRANCH   9  10
ENDBRANCH   6   9
BRANCH   6  38
HETATM   38  C   UNL     4     -11.146   6.608  72.965  1.00  0.00    -0.205 C  
HETATM   39  C   UNL     4     -10.091   6.645  74.089  1.00  0.00    -0.390 C  
ENDBRANCH   6  38
ENDBRANCH   5   6
TORSDOF 21
ENDMDL
MODEL        5
REMARK 921   NORMALIZED FREE ENERGY PREDICTED BY IDOCK:   -4.65 KCAL/MOL
REMARK 922        TOTAL FREE ENERGY PREDICTED BY IDOCK:  -12.68 KCAL/MOL
REMARK 923 INTER-LIGAND FREE ENERGY PREDICTED BY IDOCK:   -9.78 KCAL/MOL
REMARK 924 INTRA-LIGAND FREE ENERGY PREDICTED BY IDOCK:   -2.90 KCAL/MOL
REMARK 927      BINDING AFFINITY PREDICTED BY RF-SCORE:    0.00 PKD
ROOT
HETATM    1  I   UNL     1      -5.215  18.316  67.838  1.00  0.00    -0.157 I  
HETATM    2  I   UNL     2     -10.144  19.326  66.358  1.00  0.00    -0.587 I  
HETATM    3  I   UNL     3      -7.190  15.095  69.233  1.00  0.00    -0.203 I  
HETATM    4  C   UNL     4      -8.430  12.460  66.738  1.00  0.00    -0.095 C  
HETATM    5  C   UNL     4      -9.774  12.241  66.009  1.00  0.00    -0.242 C  
ENDROOT
BRANCH   5   6
HETATM    6  N   UNL     4     -10.986  12.874  66.638  1.00  0.00    -0.271 N  
BRANCH   6   7
HETATM    7  C   UNL     4     -11.900  13.353  65.536  1.00  0.00    -0.363 C  
HETATM    8  C   UNL     4     -11.635  12.783  64.128  1.00  0.00    -0.456 C  
ENDBRANCH   6   7
BRANCH   6   9
HETATM    9  C   UNL     4     -11.661  11.854  67.513  1.00  0.00    -0.265 C  
BRANCH   9  10
HETATM   10  C   UNL     4     -12.019  12.216  68.987  1.00  0.00    -0.247 C  
BRANCH  10  11
HETATM   11  O   UNL     4     -11.299  11.583  69.984  1.00  0.00    -0.244 OA 
BRANCH  11  12
HETATM   12  C   UNL     4     -11.626  10.522  70.765  1.00  0.00    -0.338 A  
HETATM   13  C   UNL     4     -12.948  10.398  71.218  1.00  0.00    -0.517 A  
HETATM   14  C   UNL     4     -13.328   9.371  72.041  1.00  0.00    -0.525 A  
HETATM   15  C   UNL     4     -12.424   8.403  72.394  1.00  0.00    -0.390 A  
HETATM   16  C   UNL     4     -11.069   8.425  71.955  1.00  0.00    -0.308 A  
HETATM   17  C   UNL     4     -10.641   9.520  71.131  1.00  0.00    -0.318 A  
BRANCH  16  18
HETATM   18  O   UNL     4     -10.226   7.386  72.306  1.00  0.00    -0.190 OA 
BRANCH  18  19
HETATM   19  C   UNL     4     -10.582   6.561  73.380  1.00  0.00    -0.285 C  
BRANCH  19  20
HETATM   20  C   UNL     4     -10.933   5.070  73.148  1.00  0.00    -0.309 C  
BRANCH  20  21
HETATM   21  N   UNL     4      -9.691   4.189  72.986  1.00  0.00    -0.126 N  
BRANCH  21  22
HETATM   22  C   UNL     4      -8.597   4.628  73.929  1.00  0.00    -0.103 C  
HETATM   23  C   UNL     4      -7.195   4.813  73.323  1.00  0.00    -0.081 C  
ENDBRANCH  21  22
BRANCH  21  24
HETATM   24  C   UNL     4      -9.157   4.312  71.578  1.00  0.00    -0.127 C  
HETATM   25  C   UNL     4      -9.400   3.124  70.622  1.00  0.00    -0.225 C  
ENDBRANCH  21  24
BRANCH  21  26
HETATM   26  C   UNL     4     -10.027   2.759  73.306  1.00  0.00    -0.107 C  
HETATM   27  C   UNL     4     -11.507   2.454  73.593  1.00  0.00    -0.278 C  
ENDBRANCH  21  26
ENDBRANCH  20  21
ENDBRANCH  19  20
ENDBRANCH  18  19
ENDBRANCH  16  18
BRANCH  17  28
HETATM   28  O   UNL     4      -9.326   9.584  70.705  1.00  0.00    -0.254 OA 
BRANCH  28  29
HETATM   29  C   UNL     4      -8.908   9.295  69.405  1.00  0.00    -0.149 C  
BRANCH  29  30
HETATM   30  C   UNL     4      -8.763   7.794  69.071  1.00  0.00    -0.135 C  
BRANCH  30  31
HETATM   31  N   UNL     4      -9.193   7.403  67.664  1.00  0.00    -0.127 N  
BRANCH  31  32
HETATM   32  C   UNL     4      -9.019   8.540  66.692  1.00  0.00    -0.148 C  
HETATM   33  C   UNL     4      -7.621   8.732  66.087  1.00  0.00    -0.094 C  
ENDBRANCH  31  32
BRANCH  31  34
HETATM   34  C   UNL     4     -10.645   7.015  67.696  1.00  0.00    -0.257 C  
HETATM   35  C   UNL     4     -11.124   6.267  68.960  1.00  0.00    -0.446 C  
ENDBRANCH  31  34
BRANCH  31  36
HETATM   36  C   UNL     4      -8.349   6.253  67.153  1.00  0.00    -0.109 C  
HETATM   37  C   UNL     4      -8.968   5.367  66.050  1.00  0.00    -0.147 C  
ENDBRANCH  31  36
ENDBRANCH  30  31
ENDBRANCH  29  30
ENDBRANCH  28  29
ENDBRANCH  17  28
ENDBRANCH  11  12
ENDBRANCH  10  11
ENDBRANCH   9  10
ENDBRANCH   6   9
BRANCH   6  38
HETATM   38  C   UNL     4     -10.601  14.068  67.472  1.00  0.00    -0.260 C  
HETATM   39  C   UNL     4     -10.935  15.454  66.882  1.00  0.00    -0.294 C  
ENDBRANCH   6  38
ENDBRANCH   5   6
TORSDOF 21
ENDMDL
MODEL        6
REMARK 921   NORMALIZED FREE ENERGY PREDICTED BY IDOCK:   -4.61 KCAL/MOL
REMARK 922        TOTAL FREE ENERGY PREDICTED BY IDOCK:  -12.58 KCAL/MOL
REMARK 923 INTER-LIGAND FREE ENERGY PREDICTED BY IDOCK:   -9.65 KCAL/MOL
REMARK 924 INTRA-LIGAND FREE ENERGY PREDICTED BY IDOCK:   -2.93 KCAL/MOL
REMARK 927      BINDING AFFINITY PREDICTED BY RF-SCORE:    0.00 PKD
ROOT
HETATM    1  I   UNL     1      -5.447  18.242  67.868  1.00  0.00    -0.157 I  
HETATM    2  I   UNL     2     -10.402  19.281  66.502  1.00  0.00    -0.595 I  
HETATM    3  I   UNL     3      -7.387  14.968  69.185  1.00  0.00    -0.182 I  
HETATM    4  C   UNL     4      -8.659  12.414  66.622  1.00  0.00    -0.076 C  
HETATM    5  C   UNL     4     -10.014  12.214  65.909  1.00  0.00    -0.245 C  
ENDROOT
BRANCH   5   6
HETATM    6  N   UNL     4     -11.217  12.820  66.578  1.00  0.00    -0.293 N  
BRANCH   6   7
HETATM    7  C   UNL     4     -12.262  13.093  65.523  1.00  0.00    -0.461 C  
HETATM    8  C   UNL     4     -12.116  12.322  64.196  1.00  0.00    -0.525 C  
ENDBRANCH   6   7
BRANCH   6   9
HETATM    9  C   UNL     4     -11.721  11.861  67.621  1.00  0.00    -0.275 C  
BRANCH   9  10
HETATM   10  C   UNL     4     -11.859  12.333  69.101  1.00  0.00    -0.301 C  
BRANCH  10  11
HETATM   11  O   UNL     4     -11.288  11.532  70.074  1.00  0.00    -0.244 OA 
BRANCH  11  12
HETATM   12  C   UNL     4     -11.821  10.519  70.803  1.00  0.00    -0.365 A  
HETATM   13  C   UNL     4     -13.216  10.419  70.900  1.00  0.00    -0.321 A  
HETATM   14  C   UNL     4     -13.811   9.441  71.653  1.00  0.00    -0.329 A  
HETATM   15  C   UNL     4     -13.044   8.498  72.286  1.00  0.00    -0.372 A  
HETATM   16  C   UNL     4     -11.621   8.497  72.217  1.00  0.00    -0.374 A  
HETATM   17  C   UNL     4     -10.979   9.543  71.471  1.00  0.00    -0.299 A  
BRANCH  16  18
HETATM   18  O   UNL     4     -10.913   7.484  72.836  1.00  0.00    -0.323 OA 
BRANCH  18  19
HETATM   19  C   UNL     4     -11.094   6.167  72.397  1.00  0.00    -0.275 C  
BRANCH  19  20
HETATM   20  C   UNL     4     -10.029   5.479  71.506  1.00  0.00    -0.177 C  
BRANCH  20  21
HETATM   21  N   UNL     4      -9.460   4.207  72.140  1.00  0.00    -0.127 N  
BRANCH  21  22
HETATM   22  C   UNL     4      -9.684   3.015  71.242  1.00  0.00    -0.138 C  
HETATM   23  C   UNL     4      -9.154   3.123  69.801  1.00  0.00    -0.200 C  
ENDBRANCH  21  22
BRANCH  21  24
HETATM   24  C   UNL     4     -10.162   3.930  73.449  1.00  0.00    -0.147 C  
HETATM   25  C   UNL     4     -11.000   2.637  73.542  1.00  0.00    -0.312 C  
ENDBRANCH  21  24
BRANCH  21  26
HETATM   26  C   UNL     4      -7.978   4.353  72.349  1.00  0.00    -0.092 C  
HETATM   27  C   UNL     4      -7.471   5.768  72.672  1.00  0.00    -0.096 C  
ENDBRANCH  21  26
ENDBRANCH  20  21
ENDBRANCH  19  20
ENDBRANCH  18  19
ENDBRANCH  16  18
BRANCH  17  28
HETATM   28  O   UNL     4      -9.597   9.586  71.401  1.00  0.00    -0.217 OA 
BRANCH  28  29
HETATM   29  C   UNL     4      -8.852   9.112  70.320  1.00  0.00    -0.213 C  
BRANCH  29  30
HETATM   30  C   UNL     4      -9.672   8.495  69.166  1.00  0.00    -0.170 C  
BRANCH  30  31
HETATM   31  N   UNL     4      -8.854   7.755  68.117  1.00  0.00    -0.126 N  
BRANCH  31  32
HETATM   32  C   UNL     4      -9.683   6.738  67.379  1.00  0.00    -0.133 C  
HETATM   33  C   UNL     4     -10.907   6.172  68.114  1.00  0.00    -0.389 C  
ENDBRANCH  31  32
BRANCH  31  34
HETATM   34  C   UNL     4      -7.721   7.045  68.806  1.00  0.00    -0.110 C  
HETATM   35  C   UNL     4      -7.056   5.896  68.017  1.00  0.00    -0.074 C  
ENDBRANCH  31  34
BRANCH  31  36
HETATM   36  C   UNL     4      -8.320   8.724  67.082  1.00  0.00    -0.103 C  
HETATM   37  C   UNL     4      -8.927   8.639  65.665  1.00  0.00    -0.231 C  
ENDBRANCH  31  36
ENDBRANCH  30  31
ENDBRANCH  29  30
ENDBRANCH  28  29
ENDBRANCH  17  28
ENDBRANCH  11  12
ENDBRANCH  10  11
ENDBRANCH   9  10
ENDBRANCH   6   9
BRANCH   6  38
HETATM   38  C   UNL     4     -10.869  14.131  67.234  1.00  0.00    -0.285 C  
HETATM   39  C   UNL     4     -10.857  15.374  66.320  1.00  0.00    -0.301 C  
ENDBRANCH   6  38
ENDBRANCH   5   6
TORSDOF 21
ENDMDL
MODEL        7
REMARK 921   NORMALIZED FREE ENERGY PREDICTED BY IDOCK:   -4.47 KCAL/MOL
REMARK 922        TOTAL FREE ENERGY PREDICTED BY IDOCK:  -12.28 KCAL/MOL
REMARK 923 INTER-LIGAND FREE ENERGY PREDICTED BY IDOCK:   -9.67 KCAL/MOL
REMARK 924 INTRA-LIGAND FREE ENERGY PREDICTED BY IDOCK:   -2.61 KCAL/MOL
REMARK 927      BINDING AFFINITY PREDICTED BY RF-SCORE:    0.00 PKD
ROOT
HETATM    1  I   UNL     1     -10.831   1.509  73.954  1.00  0.00    -0.246 I  
HETATM    2  I   UNL     2      -9.114   2.008  69.024  1.00  0.00    -0.181 I  
HETATM    3  I   UNL     3      -8.890   5.035  74.091  1.00  0.00    -0.111 I  
HETATM    4  C   UNL     4     -10.476   8.089  72.399  1.00  0.00    -0.368 C  
HETATM    5  C   UNL     4     -10.322   8.723  70.999  1.00  0.00    -0.233 C  
ENDROOT
BRANCH   5   6
HETATM    6  N   UNL     4      -9.054   8.402  70.256  1.00  0.00    -0.145 N  
BRANCH   6   7
HETATM    7  C   UNL     4      -8.616   7.009  70.638  1.00  0.00    -0.147 C  
HETATM    8  C   UNL     4      -8.565   5.970  69.501  1.00  0.00    -0.119 C  
ENDBRANCH   6   7
BRANCH   6   9
HETATM    9  C   UNL     4      -9.321   8.513  68.780  1.00  0.00    -0.143 C  
BRANCH   9  10
HETATM   10  C   UNL     4      -8.787   9.746  67.989  1.00  0.00    -0.119 C  
BRANCH  10  11
HETATM   11  O   UNL     4      -9.505  10.924  68.097  1.00  0.00    -0.155 OA 
BRANCH  11  12
HETATM   12  C   UNL     4      -9.078  12.200  68.271  1.00  0.00    -0.191 A  
HETATM   13  C   UNL     4      -7.702  12.442  68.389  1.00  0.00    -0.144 A  
HETATM   14  C   UNL     4      -7.214  13.704  68.606  1.00  0.00    -0.110 A  
HETATM   15  C   UNL     4      -8.070  14.773  68.654  1.00  0.00    -0.153 A  
HETATM   16  C   UNL     4      -9.480  14.631  68.509  1.00  0.00    -0.216 A  
HETATM   17  C   UNL     4     -10.013  13.309  68.330  1.00  0.00    -0.236 A  
BRANCH  16  18
HETATM   18  O   UNL     4     -10.279  15.760  68.514  1.00  0.00    -0.210 OA 
BRANCH  18  19
HETATM   19  C   UNL     4      -9.694  17.000  68.799  1.00  0.00    -0.273 C  
BRANCH  19  20
HETATM   20  C   UNL     4     -10.038  18.249  67.948  1.00  0.00    -0.361 C  
BRANCH  20  21
HETATM   21  N   UNL     4      -8.867  18.714  67.079  1.00  0.00    -0.274 N  
BRANCH  21  22
HETATM   22  C   UNL     4      -9.311  19.785  66.113  1.00  0.00    -0.363 C  
HETATM   23  C   UNL     4     -10.785  19.754  65.673  1.00  0.00    -0.418 C  
ENDBRANCH  21  22
BRANCH  21  24
HETATM   24  C   UNL     4      -8.344  17.554  66.264  1.00  0.00    -0.224 C  
HETATM   25  C   UNL     4      -6.812  17.371  66.196  1.00  0.00    -0.278 C  
ENDBRANCH  21  24
BRANCH  21  26
HETATM   26  C   UNL     4      -7.782  19.293  67.942  1.00  0.00    -0.283 C  
HETATM   27  C   UNL     4      -7.239  20.669  67.520  1.00  0.00    -0.382 C  
ENDBRANCH  21  26
ENDBRANCH  20  21
ENDBRANCH  19  20
ENDBRANCH  18  19
ENDBRANCH  16  18
BRANCH  17  28
HETATM   28  O   UNL     4     -11.380  13.133  68.208  1.00  0.00    -0.260 OA 
BRANCH  28  29
HETATM   29  C   UNL     4     -12.098  13.359  67.032  1.00  0.00    -0.339 C  
BRANCH  29  30
HETATM   30  C   UNL     4     -11.844  12.348  65.892  1.00  0.00    -0.405 C  
BRANCH  30  31
HETATM   31  N   UNL     4     -11.143  12.920  64.668  1.00  0.00    -0.308 N  
BRANCH  31  32
HETATM   32  C   UNL     4     -10.526  14.263  64.956  1.00  0.00    -0.435 C  
HETATM   33  C   UNL     4     -11.300  15.501  64.481  1.00  0.00    -0.322 C  
ENDBRANCH  31  32
BRANCH  31  34
HETATM   34  C   UNL     4     -12.157  13.083  63.569  1.00  0.00    -0.542 C  
HETATM   35  C   UNL     4     -13.139  11.908  63.367  1.00  0.00    -0.092 C  
ENDBRANCH  31  34
BRANCH  31  36
HETATM   36  C   UNL     4     -10.022  12.004  64.223  1.00  0.00    -0.240 C  
HETATM   37  C   UNL     4     -10.118  10.523  64.649  1.00  0.00    -0.408 C  
ENDBRANCH  31  36
ENDBRANCH  30  31
ENDBRANCH  29  30
ENDBRANCH  28  29
ENDBRANCH  17  28
ENDBRANCH  11  12
ENDBRANCH  10  11
ENDBRANCH   9  10
ENDBRANCH   6   9
BRANCH   6  38
HETATM   38  C   UNL     4      -7.950   9.355  70.634  1.00  0.00    -0.158 C  
HETATM   39  C   UNL     4      -6.785   8.764  71.455  1.00  0.00    -0.081 C  
ENDBRANCH   6  38
ENDBRANCH   5   6
TORSDOF 21
ENDMDL
MODEL        8
REMARK 921   NORMALIZED FREE ENERGY PREDICTED BY IDOCK:   -4.41 KCAL/MOL
REMARK 922        TOTAL FREE ENERGY PREDICTED BY IDOCK:  -12.14 KCAL/MOL
REMARK 923 INTER-LIGAND FREE ENERGY PREDICTED BY IDOCK:   -8.99 KCAL/MOL
REMARK 924 INTRA-LIGAND FREE ENERGY PREDICTED BY IDOCK:   -3.15 KCAL/MOL
REMARK 927      BINDING AFFINITY PREDICTED BY RF-SCORE:    0.00 PKD
ROOT
HETATM    1  I   UNL     1      -7.841   5.247  64.974  1.00  0.00    -0.115 I  
HETATM    2  I   UNL     2      -5.288   8.405  68.292  1.00  0.00    -0.035 I  
HETATM    3  I   UNL     3      -9.148   3.941  68.552  1.00  0.00    -0.226 I  
HETATM    4  C   UNL     4     -11.610   6.116  70.530  1.00  0.00    -0.261 C  
HETATM    5  C   UNL     4     -11.433   7.178  71.637  1.00  0.00    -0.266 C  
ENDROOT
BRANCH   5   6
HETATM    6  N   UNL     4     -10.153   7.114  72.425  1.00  0.00    -0.179 N  
BRANCH   6   7
HETATM    7  C   UNL     4      -9.287   6.023  71.842  1.00  0.00    -0.150 C  
HETATM    8  C   UNL     4      -7.790   6.351  71.675  1.00  0.00    -0.101 C  
ENDBRANCH   6   7
BRANCH   6   9
HETATM    9  C   UNL     4      -9.476   8.455  72.352  1.00  0.00    -0.295 C  
BRANCH   9  10
HETATM   10  C   UNL     4      -9.840   9.442  71.200  1.00  0.00    -0.216 C  
BRANCH  10  11
HETATM   11  O   UNL     4      -8.959   9.522  70.136  1.00  0.00    -0.203 OA 
BRANCH  11  12
HETATM   12  C   UNL     4      -9.165   9.328  68.809  1.00  0.00    -0.136 A  
HETATM   13  C   UNL     4      -9.873   8.192  68.394  1.00  0.00    -0.186 A  
HETATM   14  C   UNL     4     -10.078   7.923  67.066  1.00  0.00    -0.347 A  
HETATM   15  C   UNL     4      -9.637   8.800  66.111  1.00  0.00    -0.323 A  
HETATM   16  C   UNL     4      -8.939   9.999  66.437  1.00  0.00    -0.144 A  
HETATM   17  C   UNL     4      -8.673  10.273  67.821  1.00  0.00    -0.121 A  
BRANCH  16  18
HETATM   18  O   UNL     4      -8.570  10.865  65.424  1.00  0.00    -0.176 OA 
BRANCH  18  19
HETATM   19  C   UNL     4      -9.540  11.709  64.871  1.00  0.00    -0.150 C  
BRANCH  19  20
HETATM   20  C   UNL     4     -10.931  11.857  65.538  1.00  0.00    -0.297 C  
BRANCH  20  21
HETATM   21  N   UNL     4     -11.516  13.262  65.382  1.00  0.00    -0.300 N  
BRANCH  21  22
HETATM   22  C   UNL     4     -12.570  13.285  64.301  1.00  0.00    -0.182 C  
HETATM   23  C   UNL     4     -12.610  12.079  63.347  1.00  0.00    -0.592 C  
ENDBRANCH  21  22
BRANCH  21  24
HETATM   24  C   UNL     4     -10.427  14.227  64.976  1.00  0.00    -0.435 C  
HETATM   25  C   UNL     4     -10.802  15.723  64.891  1.00  0.00    -0.433 C  
ENDBRANCH  21  24
BRANCH  21  26
HETATM   26  C   UNL     4     -12.165  13.698  66.666  1.00  0.00    -0.389 C  
HETATM   27  C   UNL     4     -12.030  12.736  67.858  1.00  0.00    -0.320 C  
ENDBRANCH  21  26
ENDBRANCH  20  21
ENDBRANCH  19  20
ENDBRANCH  18  19
ENDBRANCH  16  18
BRANCH  17  28
HETATM   28  O   UNL     4      -7.977  11.416  68.172  1.00  0.00    -0.119 OA 
BRANCH  28  29
HETATM   29  C   UNL     4      -8.530  12.698  68.181  1.00  0.00    -0.177 C  
BRANCH  29  30
HETATM   30  C   UNL     4      -7.583  13.834  67.732  1.00  0.00    -0.169 C  
BRANCH  30  31
HETATM   31  N   UNL     4      -7.934  15.215  68.269  1.00  0.00    -0.125 N  
BRANCH  31  32
HETATM   32  C   UNL     4      -9.423  15.432  68.317  1.00  0.00    -0.200 C  
HETATM   33  C   UNL     4     -10.038  15.734  69.692  1.00  0.00    -0.289 C  
ENDBRANCH  31  32
BRANCH  31  34
HETATM   34  C   UNL     4      -7.326  16.249  67.362  1.00  0.00    -0.163 C  
HETATM   35  C   UNL     4      -7.367  17.708  67.868  1.00  0.00    -0.203 C  
ENDBRANCH  31  34
BRANCH  31  36
HETATM   36  C   UNL     4      -7.417  15.380  69.683  1.00  0.00    -0.170 C  
HETATM   37  C   UNL     4      -6.201  14.518  70.089  1.00  0.00    -0.167 C  
ENDBRANCH  31  36
ENDBRANCH  30  31
ENDBRANCH  29  30
ENDBRANCH  28  29
ENDBRANCH  17  28
ENDBRANCH  11  12
ENDBRANCH  10  11
ENDBRANCH   9  10
ENDBRANCH   6   9
BRANCH   6  38
HETATM   38  C   UNL     4     -10.422   6.771  73.867  1.00  0.00    -0.327 C  
HETATM   39  C   UNL     4     -10.442   5.270  74.223  1.00  0.00    -0.304 C  
ENDBRANCH   6  38
ENDBRANCH   5   6
TORSDOF 21
ENDMDL
MODEL        9
REMARK 921   NORMALIZED FREE ENERGY PREDICTED BY IDOCK:   -4.35 KCAL/MOL
REMARK 922        TOTAL FREE ENERGY PREDICTED BY IDOCK:  -12.01 KCAL/MOL
REMARK 923 INTER-LIGAND FREE ENERGY PREDICTED BY IDOCK:   -8.83 KCAL/MOL
REMARK 924 INTRA-LIGAND FREE ENERGY PREDICTED BY IDOCK:   -3.19 KCAL/MOL
REMARK 927      BINDING AFFINITY PREDICTED BY RF-SCORE:    0.00 PKD
ROOT
HETATM    1  I   UNL     1      -6.895   6.387  64.673  1.00  0.00    -0.048 I  
HETATM    2  I   UNL     2      -5.466   9.680  68.495  1.00  0.00    -0.034 I  
HETATM    3  I   UNL     3      -8.307   4.530  67.955  1.00  0.00    -0.106 I  
HETATM    4  C   UNL     4     -11.383   5.981  69.725  1.00  0.00    -0.344 C  
HETATM    5  C   UNL     4     -11.563   6.952  70.911  1.00  0.00    -0.337 C  
ENDROOT
BRANCH   5   6
HETATM    6  N   UNL     4     -10.398   7.075  71.856  1.00  0.00    -0.193 N  
BRANCH   6   7
HETATM    7  C   UNL     4      -9.222   6.340  71.262  1.00  0.00    -0.152 C  
HETATM    8  C   UNL     4      -7.898   7.126  71.167  1.00  0.00    -0.098 C  
ENDBRANCH   6   7
BRANCH   6   9
HETATM    9  C   UNL     4     -10.095   8.535  72.057  1.00  0.00    -0.316 C  
BRANCH   9  10
HETATM   10  C   UNL     4     -10.653   9.586  71.050  1.00  0.00    -0.322 C  
BRANCH  10  11
HETATM   11  O   UNL     4      -9.753  10.151  70.164  1.00  0.00    -0.190 OA 
BRANCH  11  12
HETATM   12  C   UNL     4      -9.574   9.935  68.836  1.00  0.00    -0.172 A  
HETATM   13  C   UNL     4      -9.763   8.641  68.330  1.00  0.00    -0.176 A  
HETATM   14  C   UNL     4      -9.559   8.354  67.006  1.00  0.00    -0.248 A  
HETATM   15  C   UNL     4      -9.216   9.352  66.132  1.00  0.00    -0.241 A  
HETATM   16  C   UNL     4      -9.036  10.703  66.545  1.00  0.00    -0.162 A  
HETATM   17  C   UNL     4      -9.199  11.013  67.938  1.00  0.00    -0.155 A  
BRANCH  16  18
HETATM   18  O   UNL     4      -8.744  11.668  65.599  1.00  0.00    -0.045 OA 
BRANCH  18  19
HETATM   19  C   UNL     4      -9.757  12.091  64.730  1.00  0.00    -0.085 C  
BRANCH  19  20
HETATM   20  C   UNL     4     -10.207  13.574  64.705  1.00  0.00    -0.316 C  
BRANCH  20  21
HETATM   21  N   UNL     4     -11.714  13.731  64.491  1.00  0.00    -0.389 N  
BRANCH  21  22
HETATM   22  C   UNL     4     -12.087  15.188  64.365  1.00  0.00    -0.300 C  
HETATM   23  C   UNL     4     -11.000  16.216  64.726  1.00  0.00    -0.330 C  
ENDBRANCH  21  22
BRANCH  21  24
HETATM   24  C   UNL     4     -12.460  13.171  65.680  1.00  0.00    -0.425 C  
HETATM   25  C   UNL     4     -11.950  13.563  67.084  1.00  0.00    -0.426 C  
ENDBRANCH  21  24
BRANCH  21  26
HETATM   26  C   UNL     4     -12.132  13.039  63.224  1.00  0.00    -0.422 C  
HETATM   27  C   UNL     4     -13.025  11.798  63.388  1.00  0.00    -0.177 C  
ENDBRANCH  21  26
ENDBRANCH  20  21
ENDBRANCH  19  20
ENDBRANCH  18  19
ENDBRANCH  16  18
BRANCH  17  28
HETATM   28  O   UNL     4      -9.010  12.311  68.378  1.00  0.00    -0.188 OA 
BRANCH  28  29
HETATM   29  C   UNL     4      -7.806  13.010  68.264  1.00  0.00    -0.143 C  
BRANCH  29  30
HETATM   30  C   UNL     4      -7.923  14.453  67.725  1.00  0.00    -0.158 C  
BRANCH  30  31
HETATM   31  N   UNL     4      -7.846  15.544  68.784  1.00  0.00    -0.147 N  
BRANCH  31  32
HETATM   32  C   UNL     4      -6.718  15.303  69.752  1.00  0.00    -0.176 C  
HETATM   33  C   UNL     4      -5.325  15.797  69.334  1.00  0.00    -0.108 C  
ENDBRANCH  31  32
BRANCH  31  34
HETATM   34  C   UNL     4      -9.140  15.562  69.549  1.00  0.00    -0.260 C  
HETATM   35  C   UNL     4     -10.155  16.655  69.148  1.00  0.00    -0.285 C  
ENDBRANCH  31  34
BRANCH  31  36
HETATM   36  C   UNL     4      -7.593  16.891  68.138  1.00  0.00    -0.188 C  
HETATM   37  C   UNL     4      -7.478  16.918  66.598  1.00  0.00    -0.303 C  
ENDBRANCH  31  36
ENDBRANCH  30  31
ENDBRANCH  29  30
ENDBRANCH  28  29
ENDBRANCH  17  28
ENDBRANCH  11  12
ENDBRANCH  10  11
ENDBRANCH   9  10
ENDBRANCH   6   9
BRANCH   6  38
HETATM   38  C   UNL     4     -10.713   6.445  73.188  1.00  0.00    -0.268 C  
HETATM   39  C   UNL     4     -11.294   5.017  73.151  1.00  0.00    -0.397 C  
ENDBRANCH   6  38
ENDBRANCH   5   6
TORSDOF 21
ENDMDL
MODEL       10
REMARK 921   NORMALIZED FREE ENERGY PREDICTED BY IDOCK:   -4.32 KCAL/MOL
REMARK 922        TOTAL FREE ENERGY PREDICTED BY IDOCK:  -11.94 KCAL/MOL
REMARK 923 INTER-LIGAND FREE ENERGY PREDICTED BY IDOCK:   -9.43 KCAL/MOL
REMARK 924 INTRA-LIGAND FREE ENERGY PREDICTED BY IDOCK:   -2.50 KCAL/MOL
REMARK 927      BINDING AFFINITY PREDICTED BY RF-SCORE:    0.00 PKD
ROOT
HETATM    1  I   UNL     1     -10.862   1.528  73.858  1.00  0.00    -0.246 I  
HETATM    2  I   UNL     2      -9.096   2.494  69.016  1.00  0.00    -0.179 I  
HETATM    3  I   UNL     3      -9.868   5.424  74.086  1.00  0.00    -0.292 I  
HETATM    4  C   UNL     4     -12.084   8.006  72.317  1.00  0.00    -0.392 C  
HETATM    5  C   UNL     4     -12.028   8.675  70.926  1.00  0.00    -0.191 C  
ENDROOT
BRANCH   5   6
HETATM    6  N   UNL     4     -10.687   8.688  70.245  1.00  0.00    -0.223 N  
BRANCH   6   7
HETATM    7  C   UNL     4     -10.186   7.267  70.148  1.00  0.00    -0.203 C  
HETATM    8  C   UNL     4     -11.119   6.257  69.451  1.00  0.00    -0.477 C  
ENDBRANCH   6   7
BRANCH   6   9
HETATM    9  C   UNL     4     -10.845   9.313  68.885  1.00  0.00    -0.099 C  
BRANCH   9  10
HETATM   10  C   UNL     4      -9.584   9.808  68.112  1.00  0.00    -0.143 C  
BRANCH  10  11
HETATM   11  O   UNL     4      -9.692  11.011  67.437  1.00  0.00    -0.167 OA 
BRANCH  11  12
HETATM   12  C   UNL     4      -8.868  12.090  67.427  1.00  0.00    -0.178 A  
HETATM   13  C   UNL     4      -7.509  11.904  67.716  1.00  0.00    -0.121 A  
HETATM   14  C   UNL     4      -6.637  12.960  67.760  1.00  0.00    -0.140 A  
HETATM   15  C   UNL     4      -7.073  14.225  67.463  1.00  0.00    -0.189 A  
HETATM   16  C   UNL     4      -8.428  14.507  67.123  1.00  0.00    -0.212 A  
HETATM   17  C   UNL     4      -9.366  13.419  67.119  1.00  0.00    -0.240 A  
BRANCH  16  18
HETATM   18  O   UNL     4      -8.786  15.798  66.782  1.00  0.00    -0.220 OA 
BRANCH  18  19
HETATM   19  C   UNL     4      -7.819  16.808  66.851  1.00  0.00    -0.218 C  
BRANCH  19  20
HETATM   20  C   UNL     4      -7.608  17.611  68.159  1.00  0.00    -0.234 C  
BRANCH  20  21
HETATM   21  N   UNL     4      -8.140  19.043  68.066  1.00  0.00    -0.285 N  
BRANCH  21  22
HETATM   22  C   UNL     4      -9.580  19.109  68.514  1.00  0.00    -0.395 C  
HETATM   23  C   UNL     4     -10.595  19.671  67.503  1.00  0.00    -0.577 C  
ENDBRANCH  21  22
BRANCH  21  24
HETATM   24  C   UNL     4      -8.087  19.516  66.632  1.00  0.00    -0.306 C  
HETATM   25  C   UNL     4      -6.962  20.505  66.254  1.00  0.00    -0.273 C  
ENDBRANCH  21  24
BRANCH  21  26
HETATM   26  C   UNL     4      -7.339  19.951  68.958  1.00  0.00    -0.207 C  
HETATM   27  C   UNL     4      -6.121  19.320  69.654  1.00  0.00    -0.301 C  
ENDBRANCH  21  26
ENDBRANCH  20  21
ENDBRANCH  19  20
ENDBRANCH  18  19
ENDBRANCH  16  18
BRANCH  17  28
HETATM   28  O   UNL     4     -10.694  13.661  66.816  1.00  0.00    -0.271 OA 
BRANCH  28  29
HETATM   29  C   UNL     4     -11.750  13.469  67.709  1.00  0.00    -0.359 C  
BRANCH  29  30
HETATM   30  C   UNL     4     -12.142  14.703  68.550  1.00  0.00    -0.194 C  
BRANCH  30  31
HETATM   31  N   UNL     4     -12.038  14.515  70.057  1.00  0.00    -0.320 N  
BRANCH  31  32
HETATM   32  C   UNL     4     -13.362  14.739  70.739  1.00  0.00    -0.255 C  
HETATM   33  C   UNL     4     -13.332  15.444  72.103  1.00  0.00    -0.541 C  
ENDBRANCH  31  32
BRANCH  31  34
HETATM   34  C   UNL     4     -11.045  15.507  70.598  1.00  0.00    -0.352 C  
HETATM   35  C   UNL     4      -9.570  15.283  70.196  1.00  0.00     0.190 C  
ENDBRANCH  31  34
BRANCH  31  36
HETATM   36  C   UNL     4     -11.606  13.101  70.385  1.00  0.00     0.099 C  
HETATM   37  C   UNL     4     -12.659  12.182  71.044  1.00  0.00    -0.359 C  
ENDBRANCH  31  36
ENDBRANCH  30  31
ENDBRANCH  29  30
ENDBRANCH  28  29
ENDBRANCH  17  28
ENDBRANCH  11  12
ENDBRANCH  10  11
ENDBRANCH   9  10
ENDBRANCH   6   9
BRANCH   6  38
HETATM   38  C   UNL     4      -9.682   9.479  71.042  1.00  0.00    -0.126 C  
HETATM   39  C   UNL     4      -8.450   8.706  71.553  1.00  0.00    -0.238 C  
ENDBRANCH   6  38
ENDBRANCH   5   6
TORSDOF 21
ENDMDL
MODEL       11
REMARK 921   NORMALIZED FREE ENERGY PREDICTED BY IDOCK:   -4.25 KCAL/MOL
REMARK 922        TOTAL FREE ENERGY PREDICTED BY IDOCK:  -11.79 KCAL/MOL
REMARK 923 INTER-LIGAND FREE ENERGY PREDICTED BY IDOCK:   -9.07 KCAL/MOL
REMARK 924 INTRA-LIGAND FREE ENERGY PREDICTED BY IDOCK:   -2.73 KCAL/MOL
REMARK 927      BINDING AFFINITY PREDICTED BY RF-SCORE:    0.00 PKD
ROOT
HETATM    1  I   UNL     1      -7.721   5.397  64.667  1.00  0.00    -0.109 I  
HETATM    2  I   UNL     2      -5.572   8.748  68.081  1.00  0.00    -0.034 I  
HETATM    3  I   UNL     3      -7.676   3.229  68.061  1.00  0.00    -0.066 I  
HETATM    4  C   UNL     4     -10.154   4.107  70.852  1.00  0.00    -0.119 C  
HETATM    5  C   UNL     4     -10.060   4.998  72.110  1.00  0.00    -0.196 C  
ENDROOT
BRANCH   5   6
HETATM    6  N   UNL     4      -8.676   5.275  72.631  1.00  0.00    -0.120 N  
BRANCH   6   7
HETATM    7  C   UNL     4      -7.943   3.961  72.761  1.00  0.00    -0.082 C  
HETATM    8  C   UNL     4      -6.565   3.874  72.076  1.00  0.00    -0.015 C  
ENDBRANCH   6   7
BRANCH   6   9
HETATM    9  C   UNL     4      -7.980   6.204  71.675  1.00  0.00    -0.103 C  
BRANCH   9  10
HETATM   10  C   UNL     4      -8.562   7.629  71.422  1.00  0.00    -0.120 C  
BRANCH  10  11
HETATM   11  O   UNL     4      -9.750   7.709  70.717  1.00  0.00    -0.174 OA 
BRANCH  11  12
HETATM   12  C   UNL     4     -10.690   8.687  70.689  1.00  0.00    -0.222 A  
HETATM   13  C   UNL     4     -11.505   8.873  71.815  1.00  0.00    -0.423 A  
HETATM   14  C   UNL     4     -12.497   9.818  71.831  1.00  0.00    -0.451 A  
HETATM   15  C   UNL     4     -12.675  10.646  70.753  1.00  0.00    -0.468 A  
HETATM   16  C   UNL     4     -11.874  10.556  69.579  1.00  0.00    -0.215 A  
HETATM   17  C   UNL     4     -10.861   9.539  69.526  1.00  0.00    -0.222 A  
BRANCH  16  18
HETATM   18  O   UNL     4     -12.074  11.459  68.551  1.00  0.00    -0.550 OA 
BRANCH  18  19
HETATM   19  C   UNL     4     -11.766  12.807  68.767  1.00  0.00    -0.323 C  
BRANCH  19  20
HETATM   20  C   UNL     4     -11.433  13.742  67.577  1.00  0.00    -0.330 C  
BRANCH  20  21
HETATM   21  N   UNL     4     -10.701  15.014  68.010  1.00  0.00    -0.256 N  
BRANCH  21  22
HETATM   22  C   UNL     4      -9.482  14.675  68.833  1.00  0.00    -0.173 C  
HETATM   23  C   UNL     4      -8.234  15.549  68.617  1.00  0.00    -0.162 C  
ENDBRANCH  21  22
BRANCH  21  24
HETATM   24  C   UNL     4     -11.611  15.860  68.870  1.00  0.00    -0.388 C  
HETATM   25  C   UNL     4     -11.274  15.956  70.374  1.00  0.00    -0.392 C  
ENDBRANCH  21  24
BRANCH  21  26
HETATM   26  C   UNL     4     -10.241  15.782  66.803  1.00  0.00    -0.282 C  
HETATM   27  C   UNL     4     -10.241  15.018  65.468  1.00  0.00    -0.406 C  
ENDBRANCH  21  26
ENDBRANCH  20  21
ENDBRANCH  19  20
ENDBRANCH  18  19
ENDBRANCH  16  18
BRANCH  17  28
HETATM   28  O   UNL     4     -10.080   9.409  68.391  1.00  0.00    -0.171 OA 
BRANCH  28  29
HETATM   29  C   UNL     4     -10.527   8.855  67.191  1.00  0.00    -0.274 C  
BRANCH  29  30
HETATM   30  C   UNL     4      -9.457   8.711  66.085  1.00  0.00    -0.240 C  
BRANCH  30  31
HETATM   31  N   UNL     4      -9.172   9.981  65.296  1.00  0.00    -0.198 N  
BRANCH  31  32
HETATM   32  C   UNL     4      -7.981  10.721  65.845  1.00  0.00    -0.140 C  
HETATM   33  C   UNL     4      -8.266  11.879  66.812  1.00  0.00    -0.129 C  
ENDBRANCH  31  32
BRANCH  31  34
HETATM   34  C   UNL     4     -10.376  10.878  65.379  1.00  0.00    -0.261 C  
HETATM   35  C   UNL     4     -10.796  11.579  64.069  1.00  0.00    -0.453 C  
ENDBRANCH  31  34
BRANCH  31  36
HETATM   36  C   UNL     4      -8.858   9.648  63.852  1.00  0.00    -0.228 C  
HETATM   37  C   UNL     4      -7.384   9.338  63.510  1.00  0.00    -0.097 C  
ENDBRANCH  31  36
ENDBRANCH  30  31
ENDBRANCH  29  30
ENDBRANCH  28  29
ENDBRANCH  17  28
ENDBRANCH  11  12
ENDBRANCH  10  11
ENDBRANCH   9  10
ENDBRANCH   6   9
BRANCH   6  38
HETATM   38  C   UNL     4      -8.729   5.912  73.995  1.00  0.00    -0.119 C  
HETATM   39  C   UNL     4     -10.130   6.271  74.531  1.00  0.00    -0.353 C  
ENDBRANCH   6  38
ENDBRANCH   5   6
TORSDOF 21
ENDMDL
MODEL       12
REMARK 921   NORMALIZED FREE ENERGY PREDICTED BY IDOCK:   -4.22 KCAL/MOL
REMARK 922        TOTAL FREE ENERGY PREDICTED BY IDOCK:  -11.72 KCAL/MOL
REMARK 923 INTER-LIGAND FREE ENERGY PREDICTED BY IDOCK:   -9.22 KCAL/MOL
REMARK 924 INTRA-LIGAND FREE ENERGY PREDICTED BY IDOCK:   -2.50 KCAL/MOL
REMARK 927      BINDING AFFINITY PREDICTED BY RF-SCORE:    0.00 PKD
ROOT
HETATM    1  I   UNL     1     -10.156   5.082  74.328  1.00  0.00    -0.336 I  
HETATM    2  I   UNL     2     -13.687   7.879  71.644  1.00  0.00    -0.294 I  
HETATM    3  I   UNL     3      -9.125   4.302  70.514  1.00  0.00    -0.218 I  
HETATM    4  C   UNL     4      -7.411   7.050  68.460  1.00  0.00    -0.102 C  
HETATM    5  C   UNL     4      -7.935   8.125  67.485  1.00  0.00    -0.122 C  
ENDROOT
BRANCH   5   6
HETATM    6  N   UNL     4      -9.275   7.860  66.854  1.00  0.00    -0.147 N  
BRANCH   6   7
HETATM    7  C   UNL     4      -9.251   6.479  66.244  1.00  0.00    -0.133 C  
HETATM    8  C   UNL     4     -10.431   5.552  66.598  1.00  0.00    -0.355 C  
ENDBRANCH   6   7
BRANCH   6   9
HETATM    9  C   UNL     4     -10.337   7.978  67.914  1.00  0.00    -0.222 C  
BRANCH   9  10
HETATM   10  C   UNL     4     -10.267   9.140  68.951  1.00  0.00    -0.207 C  
BRANCH  10  11
HETATM   11  O   UNL     4     -10.475  10.423  68.474  1.00  0.00    -0.167 OA 
BRANCH  11  12
HETATM   12  C   UNL     4     -10.896  11.541  69.118  1.00  0.00    -0.195 A  
HETATM   13  C   UNL     4     -12.026  11.460  69.945  1.00  0.00    -0.434 A  
HETATM   14  C   UNL     4     -12.521  12.563  70.589  1.00  0.00    -0.323 A  
HETATM   15  C   UNL     4     -11.879  13.769  70.479  1.00  0.00    -0.296 A  
HETATM   16  C   UNL     4     -10.705  13.942  69.690  1.00  0.00     0.166 A  
HETATM   17  C   UNL     4     -10.200  12.807  68.970  1.00  0.00     0.128 A  
BRANCH  16  18
HETATM   18  O   UNL     4     -10.079  15.175  69.669  1.00  0.00    -0.232 OA 
BRANCH  18  19
HETATM   19  C   UNL     4     -10.561  16.162  68.801  1.00  0.00    -0.279 C  
BRANCH  19  20
HETATM   20  C   UNL     4     -10.194  17.652  69.019  1.00  0.00    -0.314 C  
BRANCH  20  21
HETATM   21  N   UNL     4      -9.145  18.154  68.025  1.00  0.00    -0.276 N  
BRANCH  21  22
HETATM   22  C   UNL     4      -7.991  17.185  67.929  1.00  0.00    -0.192 C  
HETATM   23  C   UNL     4      -7.661  16.638  66.529  1.00  0.00    -0.327 C  
ENDBRANCH  21  22
BRANCH  21  24
HETATM   24  C   UNL     4      -8.589  19.479  68.494  1.00  0.00    -0.339 C  
HETATM   25  C   UNL     4      -7.136  19.491  69.018  1.00  0.00    -0.399 C  
ENDBRANCH  21  24
BRANCH  21  26
HETATM   26  C   UNL     4      -9.750  18.284  66.656  1.00  0.00    -0.339 C  
HETATM   27  C   UNL     4     -10.443  19.621  66.341  1.00  0.00    -0.618 C  
ENDBRANCH  21  26
ENDBRANCH  20  21
ENDBRANCH  19  20
ENDBRANCH  18  19
ENDBRANCH  16  18
BRANCH  17  28
HETATM   28  O   UNL     4      -9.074  12.944  68.177  1.00  0.00    -0.199 OA 
BRANCH  28  29
HETATM   29  C   UNL     4      -9.107  13.136  66.794  1.00  0.00    -0.209 C  
BRANCH  29  30
HETATM   30  C   UNL     4     -10.303  12.487  66.062  1.00  0.00    -0.256 C  
BRANCH  30  31
HETATM   31  N   UNL     4     -10.977  13.371  65.022  1.00  0.00    -0.303 N  
BRANCH  31  32
HETATM   32  C   UNL     4     -10.882  12.778  63.641  1.00  0.00    -0.320 C  
HETATM   33  C   UNL     4     -11.397  11.343  63.463  1.00  0.00    -0.257 C  
ENDBRANCH  31  32
BRANCH  31  34
HETATM   34  C   UNL     4     -10.295  14.712  65.017  1.00  0.00    -0.402 C  
HETATM   35  C   UNL     4     -11.141  15.906  64.523  1.00  0.00    -0.285 C  
ENDBRANCH  31  34
BRANCH  31  36
HETATM   36  C   UNL     4     -12.451  13.527  65.334  1.00  0.00    -0.497 C  
HETATM   37  C   UNL     4     -12.821  13.920  66.781  1.00  0.00     0.418 C  
ENDBRANCH  31  36
ENDBRANCH  30  31
ENDBRANCH  29  30
ENDBRANCH  28  29
ENDBRANCH  17  28
ENDBRANCH  11  12
ENDBRANCH  10  11
ENDBRANCH   9  10
ENDBRANCH   6   9
BRANCH   6  38
HETATM   38  C   UNL     4      -9.561   8.847  65.753  1.00  0.00    -0.174 C  
HETATM   39  C   UNL     4      -8.357   9.279  64.890  1.00  0.00    -0.164 C  
ENDBRANCH   6  38
ENDBRANCH   5   6
TORSDOF 21
ENDMDL
MODEL       13
REMARK 921   NORMALIZED FREE ENERGY PREDICTED BY IDOCK:   -4.20 KCAL/MOL
REMARK 922        TOTAL FREE ENERGY PREDICTED BY IDOCK:  -11.68 KCAL/MOL
REMARK 923 INTER-LIGAND FREE ENERGY PREDICTED BY IDOCK:  -10.54 KCAL/MOL
REMARK 924 INTRA-LIGAND FREE ENERGY PREDICTED BY IDOCK:   -1.15 KCAL/MOL
REMARK 927      BINDING AFFINITY PREDICTED BY RF-SCORE:    0.00 PKD
ROOT
HETATM    1  I   UNL     1     -10.228   3.184  73.035  1.00  0.00    -0.244 I  
HETATM    2  I   UNL     2      -5.739   5.819  72.398  1.00  0.00    -0.033 I  
HETATM    3  I   UNL     3     -11.482   6.561  71.233  1.00  0.00    -0.350 I  
HETATM    4  C   UNL     4     -10.716   7.067  67.510  1.00  0.00    -0.352 C  
HETATM    5  C   UNL     4      -9.576   7.779  66.751  1.00  0.00    -0.212 C  
ENDROOT
BRANCH   5   6
HETATM    6  N   UNL     4      -8.820   8.832  67.515  1.00  0.00    -0.134 N  
BRANCH   6   7
HETATM    7  C   UNL     4      -7.687   8.163  68.256  1.00  0.00    -0.114 C  
HETATM    8  C   UNL     4      -7.892   7.942  69.768  1.00  0.00    -0.104 C  
ENDBRANCH   6   7
BRANCH   6   9
HETATM    9  C   UNL     4      -8.312   9.861  66.542  1.00  0.00    -0.125 C  
BRANCH   9  10
HETATM   10  C   UNL     4      -9.012  10.025  65.157  1.00  0.00    -0.192 C  
BRANCH  10  11
HETATM   11  O   UNL     4      -9.297  11.315  64.744  1.00  0.00    -0.210 OA 
BRANCH  11  12
HETATM   12  C   UNL     4     -10.419  12.061  64.906  1.00  0.00    -0.285 A  
HETATM   13  C   UNL     4     -11.469  11.910  63.989  1.00  0.00    -0.480 A  
HETATM   14  C   UNL     4     -12.609  12.664  64.078  1.00  0.00    -0.429 A  
HETATM   15  C   UNL     4     -12.769  13.549  65.112  1.00  0.00    -0.453 A  
HETATM   16  C   UNL     4     -11.773  13.746  66.111  1.00  0.00    -0.370 A  
HETATM   17  C   UNL     4     -10.551  12.999  66.006  1.00  0.00    -0.279 A  
BRANCH  16  18
HETATM   18  O   UNL     4     -12.024  14.617  67.156  1.00  0.00    -0.391 OA 
BRANCH  18  19
HETATM   19  C   UNL     4     -12.123  14.104  68.454  1.00  0.00    -0.273 C  
BRANCH  19  20
HETATM   20  C   UNL     4     -11.933  15.028  69.684  1.00  0.00    -0.321 C  
BRANCH  20  21
HETATM   21  N   UNL     4     -12.548  14.447  70.960  1.00  0.00    -0.326 N  
BRANCH  21  22
HETATM   22  C   UNL     4     -13.974  14.913  71.127  1.00  0.00    -0.330 C  
HETATM   23  C   UNL     4     -14.350  15.518  72.491  1.00  0.00    -0.363 C  
ENDBRANCH  21  22
BRANCH  21  24
HETATM   24  C   UNL     4     -11.770  14.922  72.165  1.00  0.00    -0.263 C  
HETATM   25  C   UNL     4     -11.662  16.448  72.381  1.00  0.00    -0.459 C  
ENDBRANCH  21  24
BRANCH  21  26
HETATM   26  C   UNL     4     -12.560  12.945  70.891  1.00  0.00    -0.270 C  
HETATM   27  C   UNL     4     -13.291  12.217  72.031  1.00  0.00    -0.470 C  
ENDBRANCH  21  26
ENDBRANCH  20  21
ENDBRANCH  19  20
ENDBRANCH  18  19
ENDBRANCH  16  18
BRANCH  17  28
HETATM   28  O   UNL     4      -9.553  13.183  66.947  1.00  0.00    -0.233 OA 
BRANCH  28  29
HETATM   29  C   UNL     4      -8.513  14.105  66.818  1.00  0.00     0.000 C  
BRANCH  29  30
HETATM   30  C   UNL     4      -8.941  15.540  66.439  1.00  0.00    -0.324 C  
BRANCH  30  31
HETATM   31  N   UNL     4      -8.089  16.648  67.043  1.00  0.00    -0.178 N  
BRANCH  31  32
HETATM   32  C   UNL     4      -7.518  17.553  65.984  1.00  0.00    -0.239 C  
HETATM   33  C   UNL     4      -7.130  18.974  66.418  1.00  0.00    -0.248 C  
ENDBRANCH  31  32
BRANCH  31  34
HETATM   34  C   UNL     4      -6.952  16.018  67.800  1.00  0.00    -0.143 C  
HETATM   35  C   UNL     4      -6.784  16.460  69.271  1.00  0.00    -0.215 C  
ENDBRANCH  31  34
BRANCH  31  36
HETATM   36  C   UNL     4      -8.922  17.515  67.963  1.00  0.00    -0.258 C  
HETATM   37  C   UNL     4     -10.400  17.733  67.571  1.00  0.00    -0.371 C  
ENDBRANCH  31  36
ENDBRANCH  30  31
ENDBRANCH  29  30
ENDBRANCH  28  29
ENDBRANCH  17  28
ENDBRANCH  11  12
ENDBRANCH  10  11
ENDBRANCH   9  10
ENDBRANCH   6   9
BRANCH   6  38
HETATM   38  C   UNL     4      -9.705   9.504  68.532  1.00  0.00    -0.151 C  
HETATM   39  C   UNL     4     -10.938  10.250  67.982  1.00  0.00    -0.345 C  
ENDBRANCH   6  38
ENDBRANCH   5   6
TORSDOF 21
ENDMDL
MODEL       14
REMARK 921   NORMALIZED FREE ENERGY PREDICTED BY IDOCK:   -4.17 KCAL/MOL
REMARK 922        TOTAL FREE ENERGY PREDICTED BY IDOCK:  -11.61 KCAL/MOL
REMARK 923 INTER-LIGAND FREE ENERGY PREDICTED BY IDOCK:   -8.93 KCAL/MOL
REMARK 924 INTRA-LIGAND FREE ENERGY PREDICTED BY IDOCK:   -2.68 KCAL/MOL
REMARK 927      BINDING AFFINITY PREDICTED BY RF-SCORE:    0.00 PKD
ROOT
HETATM    1  I   UNL     1     -10.515  19.469  67.800  1.00  0.00    -0.386 I  
HETATM    2  I   UNL     2     -11.773  15.648  71.164  1.00  0.00    -0.600 I  
HETATM    3  I   UNL     3      -8.370  16.365  66.390  1.00  0.00    -0.173 I  
HETATM    4  C   UNL     4     -10.201  13.515  64.592  1.00  0.00    -0.341 C  
HETATM    5  C   UNL     4     -10.765  12.157  65.061  1.00  0.00    -0.297 C  
ENDROOT
BRANCH   5   6
HETATM    6  N   UNL     4     -10.180  11.591  66.326  1.00  0.00    -0.223 N  
BRANCH   6   7
HETATM    7  C   UNL     4     -11.312  11.198  67.243  1.00  0.00    -0.226 C  
HETATM    8  C   UNL     4     -11.908  12.321  68.117  1.00  0.00    -0.372 C  
ENDBRANCH   6   7
BRANCH   6   9
HETATM    9  C   UNL     4      -9.321  10.407  65.970  1.00  0.00    -0.178 C  
BRANCH   9  10
HETATM   10  C   UNL     4      -9.891   8.964  66.130  1.00  0.00    -0.256 C  
BRANCH  10  11
HETATM   11  O   UNL     4      -9.006   7.977  66.525  1.00  0.00    -0.140 OA 
BRANCH  11  12
HETATM   12  C   UNL     4      -9.228   6.680  66.858  1.00  0.00    -0.142 A  
HETATM   13  C   UNL     4      -9.138   5.701  65.859  1.00  0.00    -0.158 A  
HETATM   14  C   UNL     4      -9.390   4.381  66.127  1.00  0.00    -0.159 A  
HETATM   15  C   UNL     4      -9.684   3.983  67.405  1.00  0.00    -0.190 A  
HETATM   16  C   UNL     4      -9.764   4.900  68.493  1.00  0.00    -0.155 A  
HETATM   17  C   UNL     4      -9.549   6.294  68.220  1.00  0.00    -0.119 A  
BRANCH  16  18
HETATM   18  O   UNL     4     -10.012   4.421  69.766  1.00  0.00    -0.225 OA 
BRANCH  18  19
HETATM   19  C   UNL     4      -8.935   4.242  70.642  1.00  0.00    -0.100 C  
BRANCH  19  20
HETATM   20  C   UNL     4      -8.803   5.111  71.918  1.00  0.00    -0.134 C  
BRANCH  20  21
HETATM   21  N   UNL     4      -8.757   4.276  73.200  1.00  0.00    -0.100 N  
BRANCH  21  22
HETATM   22  C   UNL     4      -9.978   4.533  74.050  1.00  0.00    -0.164 C  
HETATM   23  C   UNL     4     -11.337   4.534  73.328  1.00  0.00    -0.364 C  
ENDBRANCH  21  22
BRANCH  21  24
HETATM   24  C   UNL     4      -7.545   4.660  74.016  1.00  0.00    -0.086 C  
HETATM   25  C   UNL     4      -6.666   5.811  73.480  1.00  0.00    -0.079 C  
ENDBRANCH  21  24
BRANCH  21  26
HETATM   26  C   UNL     4      -8.732   2.812  72.862  1.00  0.00    -0.075 C  
HETATM   27  C   UNL     4      -8.786   1.837  74.051  1.00  0.00    -0.058 C  
ENDBRANCH  21  26
ENDBRANCH  20  21
ENDBRANCH  19  20
ENDBRANCH  18  19
ENDBRANCH  16  18
BRANCH  17  28
HETATM   28  O   UNL     4      -9.641   7.215  69.249  1.00  0.00    -0.155 OA 
BRANCH  28  29
HETATM   29  C   UNL     4     -10.721   8.080  69.433  1.00  0.00    -0.159 C  
BRANCH  29  30
HETATM   30  C   UNL     4     -11.830   7.568  70.380  1.00  0.00    -0.036 C  
BRANCH  30  31
HETATM   31  N   UNL     4     -12.129   8.471  71.569  1.00  0.00    -0.292 N  
BRANCH  31  32
HETATM   32  C   UNL     4     -11.497   7.955  72.834  1.00  0.00    -0.297 C  
HETATM   33  C   UNL     4      -9.985   8.172  72.996  1.00  0.00    -0.303 C  
ENDBRANCH  31  32
BRANCH  31  34
HETATM   34  C   UNL     4     -13.619   8.528  71.764  1.00  0.00    -0.388 C  
HETATM   35  C   UNL     4     -14.396   7.226  71.468  1.00  0.00    -0.558 C  
ENDBRANCH  31  34
BRANCH  31  36
HETATM   36  C   UNL     4     -11.573   9.860  71.332  1.00  0.00    -0.352 C  
HETATM   37  C   UNL     4     -12.580  11.031  71.354  1.00  0.00    -0.498 C  
ENDBRANCH  31  36
ENDBRANCH  30  31
ENDBRANCH  29  30
ENDBRANCH  28  29
ENDBRANCH  17  28
ENDBRANCH  11  12
ENDBRANCH  10  11
ENDBRANCH   9  10
ENDBRANCH   6   9
BRANCH   6  38
HETATM   38  C   UNL     4      -9.340  12.617  67.041  1.00  0.00    -0.220 C  
HETATM   39  C   UNL     4      -7.846  12.278  67.219  1.00  0.00    -0.171 C  
ENDBRANCH   6  38
ENDBRANCH   5   6
TORSDOF 21
ENDMDL
MODEL       15
REMARK 921   NORMALIZED FREE ENERGY PREDICTED BY IDOCK:   -4.10 KCAL/MOL
REMARK 922        TOTAL FREE ENERGY PREDICTED BY IDOCK:  -11.45 KCAL/MOL
REMARK 923 INTER-LIGAND FREE ENERGY PREDICTED BY IDOCK:   -8.58 KCAL/MOL
REMARK 924 INTRA-LIGAND FREE ENERGY PREDICTED BY IDOCK:   -2.88 KCAL/MOL
REMARK 927      BINDING AFFINITY PREDICTED BY RF-SCORE:    0.00 PKD
ROOT
HETATM    1  I   UNL     1      -7.086   6.194  63.277  1.00  0.00    -0.067 I  
HETATM    2  I   UNL     2      -8.895   1.587  65.011  1.00  0.00    -0.106 I  
HETATM    3  I   UNL     3      -9.187   7.287  66.535  1.00  0.00    -0.136 I  
HETATM    4  C   UNL     4      -7.770   6.485  70.006  1.00  0.00    -0.102 C  
HETATM    5  C   UNL     4      -7.973   5.311  70.988  1.00  0.00    -0.103 C  
ENDROOT
BRANCH   5   6
HETATM    6  N   UNL     4      -9.236   4.511  70.820  1.00  0.00    -0.130 N  
BRANCH   6   7
HETATM    7  C   UNL     4      -8.936   3.070  71.157  1.00  0.00    -0.099 C  
HETATM    8  C   UNL     4      -9.847   2.408  72.210  1.00  0.00    -0.219 C  
ENDBRANCH   6   7
BRANCH   6   9
HETATM    9  C   UNL     4     -10.292   5.083  71.726  1.00  0.00    -0.200 C  
BRANCH   9  10
HETATM   10  C   UNL     4     -11.280   6.158  71.179  1.00  0.00    -0.292 C  
BRANCH  10  11
HETATM   11  O   UNL     4     -10.804   7.452  71.067  1.00  0.00    -0.234 OA 
BRANCH  11  12
HETATM   12  C   UNL     4     -11.464   8.638  71.115  1.00  0.00    -0.280 A  
HETATM   13  C   UNL     4     -12.554   8.769  71.986  1.00  0.00    -0.447 A  
HETATM   14  C   UNL     4     -13.283   9.928  72.049  1.00  0.00    -0.555 A  
HETATM   15  C   UNL     4     -12.918  11.011  71.293  1.00  0.00    -0.472 A  
HETATM   16  C   UNL     4     -11.804  10.984  70.405  1.00  0.00    -0.367 A  
HETATM   17  C   UNL     4     -11.059   9.762  70.291  1.00  0.00    -0.292 A  
BRANCH  16  18
HETATM   18  O   UNL     4     -11.462  12.132  69.713  1.00  0.00    -0.260 OA 
BRANCH  18  19
HETATM   19  C   UNL     4     -11.847  12.252  68.372  1.00  0.00    -0.304 C  
BRANCH  19  20
HETATM   20  C   UNL     4     -11.831  13.633  67.668  1.00  0.00    -0.369 C  
BRANCH  20  21
HETATM   21  N   UNL     4     -11.017  13.625  66.371  1.00  0.00    -0.296 N  
BRANCH  21  22
HETATM   22  C   UNL     4     -11.919  13.800  65.173  1.00  0.00    -0.379 C  
HETATM   23  C   UNL     4     -11.873  15.165  64.464  1.00  0.00    -0.335 C  
ENDBRANCH  21  22
BRANCH  21  24
HETATM   24  C   UNL     4     -10.310  12.299  66.219  1.00  0.00    -0.232 C  
HETATM   25  C   UNL     4     -10.544  11.518  64.908  1.00  0.00    -0.360 C  
ENDBRANCH  21  24
BRANCH  21  26
HETATM   26  C   UNL     4     -10.032  14.760  66.373  1.00  0.00    -0.277 C  
HETATM   27  C   UNL     4      -9.492  15.191  67.748  1.00  0.00    -0.194 C  
ENDBRANCH  21  26
ENDBRANCH  20  21
ENDBRANCH  19  20
ENDBRANCH  18  19
ENDBRANCH  16  18
BRANCH  17  28
HETATM   28  O   UNL     4      -9.984   9.694  69.421  1.00  0.00    -0.176 OA 
BRANCH  28  29
HETATM   29  C   UNL     4      -8.667   9.989  69.777  1.00  0.00    -0.179 C  
BRANCH  29  30
HETATM   30  C   UNL     4      -7.933  10.982  68.849  1.00  0.00    -0.138 C  
BRANCH  30  31
HETATM   31  N   UNL     4      -6.413  10.922  68.915  1.00  0.00    -0.046 N  
BRANCH  31  32
HETATM   32  C   UNL     4      -5.900   9.525  68.686  1.00  0.00    -0.040 C  
HETATM   33  C   UNL     4      -5.883   9.019  67.237  1.00  0.00    -0.046 C  
ENDBRANCH  31  32
BRANCH  31  34
HETATM   34  C   UNL     4      -5.974  11.378  70.280  1.00  0.00    -0.159 C  
HETATM   35  C   UNL     4      -5.173  10.356  71.116  1.00  0.00    -0.089 C  
ENDBRANCH  31  34
BRANCH  31  36
HETATM   36  C   UNL     4      -5.802  11.799  67.842  1.00  0.00    -0.050 C  
HETATM   37  C   UNL     4      -6.644  12.999  67.354  1.00  0.00    -0.115 C  
ENDBRANCH  31  36
ENDBRANCH  30  31
ENDBRANCH  29  30
ENDBRANCH  28  29
ENDBRANCH  17  28
ENDBRANCH  11  12
ENDBRANCH  10  11
ENDBRANCH   9  10
ENDBRANCH   6   9
BRANCH   6  38
HETATM   38  C   UNL     4      -9.723   4.561  69.395  1.00  0.00    -0.202 C  
HETATM   39  C   UNL     4      -9.194   3.463  68.450  1.00  0.00    -0.230 C  
ENDBRANCH   6  38
ENDBRANCH   5   6
TORSDOF 21
ENDMDL
MODEL       16
REMARK 921   NORMALIZED FREE ENERGY PREDICTED BY IDOCK:   -4.09 KCAL/MOL
REMARK 922        TOTAL FREE ENERGY PREDICTED BY IDOCK:  -11.43 KCAL/MOL
REMARK 923 INTER-LIGAND FREE ENERGY PREDICTED BY IDOCK:   -8.50 KCAL/MOL
REMARK 924 INTRA-LIGAND FREE ENERGY PREDICTED BY IDOCK:   -2.92 KCAL/MOL
REMARK 927      BINDING AFFINITY PREDICTED BY RF-SCORE:    0.00 PKD
ROOT
HETATM    1  I   UNL     1      -7.664   7.879  63.281  1.00  0.00    -0.101 I  
HETATM    2  I   UNL     2     -10.773   6.804  67.365  1.00  0.00    -0.407 I  
HETATM    3  I   UNL     3      -9.892  11.223  63.546  1.00  0.00    -0.454 I  
HETATM    4  C   UNL     4      -9.239  13.659  66.434  1.00  0.00    -0.142 C  
HETATM    5  C   UNL     4      -9.864  13.833  67.835  1.00  0.00    -0.232 C  
ENDROOT
BRANCH   5   6
HETATM    6  N   UNL     4     -11.244  13.266  68.026  1.00  0.00    -0.262 N  
BRANCH   6   7
HETATM    7  C   UNL     4     -11.748  12.776  66.690  1.00  0.00    -0.393 C  
HETATM    8  C   UNL     4     -12.671  13.735  65.911  1.00  0.00    -0.452 C  
ENDBRANCH   6   7
BRANCH   6   9
HETATM    9  C   UNL     4     -11.170  12.149  69.032  1.00  0.00    -0.260 C  
BRANCH   9  10
HETATM   10  C   UNL     4     -12.217  12.079  70.186  1.00  0.00    -0.231 C  
BRANCH  10  11
HETATM   11  O   UNL     4     -11.977  11.170  71.201  1.00  0.00    -0.255 OA 
BRANCH  11  12
HETATM   12  C   UNL     4     -12.399   9.888  71.349  1.00  0.00    -0.404 A  
HETATM   13  C   UNL     4     -13.776   9.624  71.337  1.00  0.00    -0.273 A  
HETATM   14  C   UNL     4     -14.262   8.357  71.522  1.00  0.00    -0.471 A  
HETATM   15  C   UNL     4     -13.397   7.303  71.667  1.00  0.00    -0.421 A  
HETATM   16  C   UNL     4     -11.982   7.468  71.658  1.00  0.00    -0.302 A  
HETATM   17  C   UNL     4     -11.456   8.796  71.513  1.00  0.00    -0.305 A  
BRANCH  16  18
HETATM   18  O   UNL     4     -11.170   6.353  71.756  1.00  0.00    -0.252 OA 
BRANCH  18  19
HETATM   19  C   UNL     4     -10.870   5.845  73.025  1.00  0.00    -0.267 C  
BRANCH  19  20
HETATM   20  C   UNL     4     -10.144   4.484  73.179  1.00  0.00    -0.156 C  
BRANCH  20  21
HETATM   21  N   UNL     4      -8.637   4.587  72.931  1.00  0.00    -0.109 N  
BRANCH  21  22
HETATM   22  C   UNL     4      -8.299   4.177  71.518  1.00  0.00    -0.090 C  
HETATM   23  C   UNL     4      -9.368   3.378  70.754  1.00  0.00    -0.225 C  
ENDBRANCH  21  22
BRANCH  21  24
HETATM   24  C   UNL     4      -7.901   3.654  73.865  1.00  0.00    -0.071 C  
HETATM   25  C   UNL     4      -6.697   2.879  73.286  1.00  0.00    -0.023 C  
ENDBRANCH  21  24
BRANCH  21  26
HETATM   26  C   UNL     4      -8.178   6.005  73.121  1.00  0.00    -0.116 C  
HETATM   27  C   UNL     4      -7.485   6.324  74.457  1.00  0.00    -0.096 C  
ENDBRANCH  21  26
ENDBRANCH  20  21
ENDBRANCH  19  20
ENDBRANCH  18  19
ENDBRANCH  16  18
BRANCH  17  28
HETATM   28  O   UNL     4     -10.086   8.995  71.522  1.00  0.00    -0.301 OA 
BRANCH  28  29
HETATM   29  C   UNL     4      -9.319   9.217  70.377  1.00  0.00    -0.250 C  
BRANCH  29  30
HETATM   30  C   UNL     4      -7.795   9.036  70.553  1.00  0.00    -0.130 C  
BRANCH  30  31
HETATM   31  N   UNL     4      -6.972   9.244  69.289  1.00  0.00    -0.053 N  
BRANCH  31  32
HETATM   32  C   UNL     4      -7.843   9.566  68.103  1.00  0.00    -0.083 C  
HETATM   33  C   UNL     4      -7.143   9.708  66.744  1.00  0.00    -0.086 C  
ENDBRANCH  31  32
BRANCH  31  34
HETATM   34  C   UNL     4      -6.211   7.980  68.998  1.00  0.00    -0.039 C  
HETATM   35  C   UNL     4      -7.042   6.678  68.960  1.00  0.00    -0.089 C  
ENDBRANCH  31  34
BRANCH  31  36
HETATM   36  C   UNL     4      -6.018  10.407  69.465  1.00  0.00    -0.044 C  
HETATM   37  C   UNL     4      -6.642  11.817  69.555  1.00  0.00    -0.102 C  
ENDBRANCH  31  36
ENDBRANCH  30  31
ENDBRANCH  29  30
ENDBRANCH  28  29
ENDBRANCH  17  28
ENDBRANCH  11  12
ENDBRANCH  10  11
ENDBRANCH   9  10
ENDBRANCH   6   9
BRANCH   6  38
HETATM   38  C   UNL     4     -12.199  14.320  68.523  1.00  0.00    -0.159 C  
HETATM   39  C   UNL     4     -11.566  15.620  69.060  1.00  0.00    -0.396 C  
ENDBRANCH   6  38
ENDBRANCH   5   6
TORSDOF 21
ENDMDL
MODEL       17
REMARK 921   NORMALIZED FREE ENERGY PREDICTED BY IDOCK:   -4.00 KCAL/MOL
REMARK 922        TOTAL FREE ENERGY PREDICTED BY IDOCK:  -11.23 KCAL/MOL
REMARK 923 INTER-LIGAND FREE ENERGY PREDICTED BY IDOCK:   -8.68 KCAL/MOL
REMARK 924 INTRA-LIGAND FREE ENERGY PREDICTED BY IDOCK:   -2.55 KCAL/MOL
REMARK 927      BINDING AFFINITY PREDICTED BY RF-SCORE:    0.00 PKD
ROOT
HETATM    1  I   UNL     1      -5.128  18.838  67.359  1.00  0.00    -0.154 I  
HETATM    2  I   UNL     2     -10.232  19.683  66.503  1.00  0.00    -0.671 I  
HETATM    3  I   UNL     3      -6.825  15.704  69.233  1.00  0.00    -0.182 I  
HETATM    4  C   UNL     4      -8.338  12.882  67.123  1.00  0.00    -0.158 C  
HETATM    5  C   UNL     4      -9.763  12.596  66.603  1.00  0.00    -0.249 C  
ENDROOT
BRANCH   5   6
HETATM    6  N   UNL     4     -10.891  13.259  67.346  1.00  0.00    -0.264 N  
BRANCH   6   7
HETATM    7  C   UNL     4     -11.558  14.247  66.419  1.00  0.00    -0.372 C  
HETATM    8  C   UNL     4     -12.716  13.706  65.557  1.00  0.00    -0.514 C  
ENDBRANCH   6   7
BRANCH   6   9
HETATM    9  C   UNL     4     -11.852  12.197  67.806  1.00  0.00    -0.257 C  
BRANCH   9  10
HETATM   10  C   UNL     4     -11.775  11.668  69.271  1.00  0.00    -0.331 C  
BRANCH  10  11
HETATM   11  O   UNL     4     -11.071  10.495  69.482  1.00  0.00    -0.231 OA 
BRANCH  11  12
HETATM   12  C   UNL     4     -11.018   9.687  70.571  1.00  0.00    -0.313 A  
HETATM   13  C   UNL     4     -12.218   9.273  71.165  1.00  0.00    -0.373 A  
HETATM   14  C   UNL     4     -12.226   8.489  72.289  1.00  0.00    -0.454 A  
HETATM   15  C   UNL     4     -11.047   8.045  72.826  1.00  0.00    -0.448 A  
HETATM   16  C   UNL     4      -9.778   8.384  72.272  1.00  0.00    -0.316 A  
HETATM   17  C   UNL     4      -9.750   9.244  71.122  1.00  0.00    -0.257 A  
BRANCH  16  18
HETATM   18  O   UNL     4      -8.631   7.856  72.834  1.00  0.00    -0.144 OA 
BRANCH  18  19
HETATM   19  C   UNL     4      -8.680   6.572  73.391  1.00  0.00    -0.123 C  
BRANCH  19  20
HETATM   20  C   UNL     4      -7.905   5.399  72.741  1.00  0.00    -0.099 C  
BRANCH  20  21
HETATM   21  N   UNL     4      -8.616   4.054  72.910  1.00  0.00    -0.099 N  
BRANCH  21  22
HETATM   22  C   UNL     4      -9.271   3.630  71.618  1.00  0.00    -0.122 C  
HETATM   23  C   UNL     4      -9.862   4.748  70.741  1.00  0.00    -0.280 C  
ENDBRANCH  21  22
BRANCH  21  24
HETATM   24  C   UNL     4      -9.702   4.178  73.952  1.00  0.00    -0.114 C  
HETATM   25  C   UNL     4     -11.121   3.717  73.554  1.00  0.00    -0.328 C  
ENDBRANCH  21  24
BRANCH  21  26
HETATM   26  C   UNL     4      -7.625   2.990  73.293  1.00  0.00    -0.052 C  
HETATM   27  C   UNL     4      -7.898   1.578  72.750  1.00  0.00    -0.044 C  
ENDBRANCH  21  26
ENDBRANCH  20  21
ENDBRANCH  19  20
ENDBRANCH  18  19
ENDBRANCH  16  18
BRANCH  17  28
HETATM   28  O   UNL     4      -8.534   9.612  70.572  1.00  0.00    -0.190 OA 
BRANCH  28  29
HETATM   29  C   UNL     4      -7.726   8.761  69.815  1.00  0.00    -0.084 C  
BRANCH  29  30
HETATM   30  C   UNL     4      -8.328   8.293  68.472  1.00  0.00    -0.129 C  
BRANCH  30  31
HETATM   31  N   UNL     4      -7.465   8.569  67.248  1.00  0.00    -0.092 N  
BRANCH  31  32
HETATM   32  C   UNL     4      -6.347   9.528  67.560  1.00  0.00    -0.061 C  
HETATM   33  C   UNL     4      -5.197   9.610  66.546  1.00  0.00    -0.044 C  
ENDBRANCH  31  32
BRANCH  31  34
HETATM   34  C   UNL     4      -8.331   9.172  66.177  1.00  0.00    -0.119 C  
HETATM   35  C   UNL     4      -9.850   8.918  66.304  1.00  0.00    -0.355 C  
ENDBRANCH  31  34
BRANCH  31  36
HETATM   36  C   UNL     4      -6.824   7.289  66.753  1.00  0.00    -0.065 C  
HETATM   37  C   UNL     4      -7.414   5.962  67.279  1.00  0.00    -0.081 C  
ENDBRANCH  31  36
ENDBRANCH  30  31
ENDBRANCH  29  30
ENDBRANCH  28  29
ENDBRANCH  17  28
ENDBRANCH  11  12
ENDBRANCH  10  11
ENDBRANCH   9  10
ENDBRANCH   6   9
BRANCH   6  38
HETATM   38  C   UNL     4     -10.379  14.018  68.542  1.00  0.00    -0.247 C  
HETATM   39  C   UNL     4     -10.962  15.430  68.759  1.00  0.00    -0.264 C  
ENDBRANCH   6  38
ENDBRANCH   5   6
TORSDOF 21
ENDMDL
MODEL       18
REMARK 921   NORMALIZED FREE ENERGY PREDICTED BY IDOCK:   -3.92 KCAL/MOL
REMARK 922        TOTAL FREE ENERGY PREDICTED BY IDOCK:  -11.05 KCAL/MOL
REMARK 923 INTER-LIGAND FREE ENERGY PREDICTED BY IDOCK:   -8.03 KCAL/MOL
REMARK 924 INTRA-LIGAND FREE ENERGY PREDICTED BY IDOCK:   -3.02 KCAL/MOL
REMARK 927      BINDING AFFINITY PREDICTED BY RF-SCORE:    0.00 PKD
ROOT
HETATM    1  I   UNL     1      -7.264   6.685  62.863  1.00  0.00    -0.081 I  
HETATM    2  I   UNL     2      -8.455   1.798  64.346  1.00  0.00    -0.090 I  
HETATM    3  I   UNL     3      -9.131   7.303  66.378  1.00  0.00    -0.117 I  
HETATM    4  C   UNL     4      -7.312   6.384  69.626  1.00  0.00    -0.080 C  
HETATM    5  C   UNL     4      -7.307   5.123  70.517  1.00  0.00    -0.066 C  
ENDROOT
BRANCH   5   6
HETATM    6  N   UNL     4      -8.500   4.213  70.394  1.00  0.00    -0.071 N  
BRANCH   6   7
HETATM    7  C   UNL     4      -8.050   2.798  70.662  1.00  0.00    -0.045 C  
HETATM    8  C   UNL     4      -6.566   2.608  71.036  1.00  0.00    -0.031 C  
ENDBRANCH   6   7
BRANCH   6   9
HETATM    9  C   UNL     4      -9.546   4.657  71.379  1.00  0.00    -0.166 C  
BRANCH   9  10
HETATM   10  C   UNL     4     -10.653   5.660  70.931  1.00  0.00    -0.258 C  
BRANCH  10  11
HETATM   11  O   UNL     4     -10.632   6.920  71.502  1.00  0.00    -0.216 OA 
BRANCH  11  12
HETATM   12  C   UNL     4     -11.525   7.939  71.415  1.00  0.00    -0.260 A  
HETATM   13  C   UNL     4     -12.870   7.687  71.720  1.00  0.00    -0.357 A  
HETATM   14  C   UNL     4     -13.822   8.665  71.613  1.00  0.00    -0.440 A  
HETATM   15  C   UNL     4     -13.463   9.938  71.254  1.00  0.00    -0.353 A  
HETATM   16  C   UNL     4     -12.116  10.299  70.959  1.00  0.00    -0.386 A  
HETATM   17  C   UNL     4     -11.112   9.274  71.020  1.00  0.00    -0.326 A  
BRANCH  16  18
HETATM   18  O   UNL     4     -11.818  11.615  70.657  1.00  0.00    -0.321 OA 
BRANCH  18  19
HETATM   19  C   UNL     4     -12.000  12.064  69.344  1.00  0.00    -0.275 C  
BRANCH  19  20
HETATM   20  C   UNL     4     -11.270  13.334  68.836  1.00  0.00    -0.277 C  
BRANCH  20  21
HETATM   21  N   UNL     4     -11.084  13.341  67.316  1.00  0.00    -0.272 N  
BRANCH  21  22
HETATM   22  C   UNL     4     -11.524  12.027  66.718  1.00  0.00    -0.345 C  
HETATM   23  C   UNL     4     -10.482  11.263  65.882  1.00  0.00    -0.314 C  
ENDBRANCH  21  22
BRANCH  21  24
HETATM   24  C   UNL     4      -9.623  13.527  66.982  1.00  0.00    -0.248 C  
HETATM   25  C   UNL     4      -9.153  14.957  66.633  1.00  0.00    -0.309 C  
ENDBRANCH  21  24
BRANCH  21  26
HETATM   26  C   UNL     4     -11.917  14.429  66.699  1.00  0.00    -0.392 C  
HETATM   27  C   UNL     4     -12.837  14.008  65.541  1.00  0.00    -0.453 C  
ENDBRANCH  21  26
ENDBRANCH  20  21
ENDBRANCH  19  20
ENDBRANCH  18  19
ENDBRANCH  16  18
BRANCH  17  28
HETATM   28  O   UNL     4      -9.798   9.584  70.718  1.00  0.00    -0.272 OA 
BRANCH  28  29
HETATM   29  C   UNL     4      -9.236   9.464  69.445  1.00  0.00    -0.165 C  
BRANCH  29  30
HETATM   30  C   UNL     4      -8.635  10.760  68.858  1.00  0.00    -0.153 C  
BRANCH  30  31
HETATM   31  N   UNL     4      -7.117  10.774  68.748  1.00  0.00    -0.073 N  
BRANCH  31  32
HETATM   32  C   UNL     4      -6.570  12.176  68.774  1.00  0.00    -0.083 C  
HETATM   33  C   UNL     4      -5.968  12.712  67.467  1.00  0.00    -0.151 C  
ENDBRANCH  31  32
BRANCH  31  34
HETATM   34  C   UNL     4      -6.725  10.128  67.448  1.00  0.00    -0.073 C  
HETATM   35  C   UNL     4      -5.701   8.975  67.540  1.00  0.00    -0.039 C  
ENDBRANCH  31  34
BRANCH  31  36
HETATM   36  C   UNL     4      -6.495  10.035  69.915  1.00  0.00    -0.077 C  
HETATM   37  C   UNL     4      -5.395  10.777  70.706  1.00  0.00    -0.105 C  
ENDBRANCH  31  36
ENDBRANCH  30  31
ENDBRANCH  29  30
ENDBRANCH  28  29
ENDBRANCH  17  28
ENDBRANCH  11  12
ENDBRANCH  10  11
ENDBRANCH   9  10
ENDBRANCH   6   9
BRANCH   6  38
HETATM   38  C   UNL     4      -9.075   4.261  69.003  1.00  0.00    -0.131 C  
HETATM   39  C   UNL     4      -8.815   3.029  68.111  1.00  0.00    -0.164 C  
ENDBRANCH   6  38
ENDBRANCH   5   6
TORSDOF 21
ENDMDL
MODEL       19
REMARK 921   NORMALIZED FREE ENERGY PREDICTED BY IDOCK:   -3.91 KCAL/MOL
REMARK 922        TOTAL FREE ENERGY PREDICTED BY IDOCK:  -11.03 KCAL/MOL
REMARK 923 INTER-LIGAND FREE ENERGY PREDICTED BY IDOCK:   -8.31 KCAL/MOL
REMARK 924 INTRA-LIGAND FREE ENERGY PREDICTED BY IDOCK:   -2.71 KCAL/MOL
REMARK 927      BINDING AFFINITY PREDICTED BY RF-SCORE:    0.00 PKD
ROOT
HETATM    1  I   UNL     1      -7.170   5.339  73.492  1.00  0.00    -0.088 I  
HETATM    2  I   UNL     2     -11.732   6.957  71.475  1.00  0.00    -0.417 I  
HETATM    3  I   UNL     3      -6.505   5.007  69.534  1.00  0.00    -0.042 I  
HETATM    4  C   UNL     4      -6.024   8.198  67.463  1.00  0.00    -0.047 C  
HETATM    5  C   UNL     4      -6.985   9.079  66.636  1.00  0.00    -0.081 C  
ENDROOT
BRANCH   5   6
HETATM    6  N   UNL     4      -8.256   8.423  66.167  1.00  0.00    -0.108 N  
BRANCH   6   7
HETATM    7  C   UNL     4      -8.160   6.943  66.445  1.00  0.00    -0.113 C  
HETATM    8  C   UNL     4      -8.494   6.001  65.272  1.00  0.00    -0.131 C  
ENDBRANCH   6   7
BRANCH   6   9
HETATM    9  C   UNL     4      -9.416   9.049  66.892  1.00  0.00    -0.167 C  
BRANCH   9  10
HETATM   10  C   UNL     4      -9.177   9.768  68.255  1.00  0.00    -0.129 C  
BRANCH  10  11
HETATM   11  O   UNL     4      -9.587  11.086  68.353  1.00  0.00    -0.167 OA 
BRANCH  11  12
HETATM   12  C   UNL     4      -8.945  12.233  68.015  1.00  0.00    -0.190 A  
HETATM   13  C   UNL     4      -7.607  12.398  68.401  1.00  0.00    -0.129 A  
HETATM   14  C   UNL     4      -6.920  13.550  68.123  1.00  0.00    -0.118 A  
HETATM   15  C   UNL     4      -7.518  14.551  67.405  1.00  0.00    -0.194 A  
HETATM   16  C   UNL     4      -8.862  14.461  66.939  1.00  0.00    -0.223 A  
HETATM   17  C   UNL     4      -9.613  13.281  67.263  1.00  0.00    -0.234 A  
BRANCH  16  18
HETATM   18  O   UNL     4      -9.384  15.487  66.173  1.00  0.00    -0.295 OA 
BRANCH  18  19
HETATM   19  C   UNL     4      -8.651  16.673  66.042  1.00  0.00    -0.194 C  
BRANCH  19  20
HETATM   20  C   UNL     4      -8.804  17.814  67.080  1.00  0.00    -0.252 C  
BRANCH  20  21
HETATM   21  N   UNL     4      -7.762  18.921  66.900  1.00  0.00    -0.234 N  
BRANCH  21  22
HETATM   22  C   UNL     4      -6.915  19.064  68.142  1.00  0.00    -0.244 C  
HETATM   23  C   UNL     4      -6.571  17.770  68.899  1.00  0.00    -0.229 C  
ENDBRANCH  21  22
BRANCH  21  24
HETATM   24  C   UNL     4      -8.455  20.242  66.666  1.00  0.00    -0.226 C  
HETATM   25  C   UNL     4      -9.927  20.360  67.120  1.00  0.00    -0.568 C  
ENDBRANCH  21  24
BRANCH  21  26
HETATM   26  C   UNL     4      -6.846  18.587  65.756  1.00  0.00    -0.275 C  
HETATM   27  C   UNL     4      -6.352  19.773  64.911  1.00  0.00    -0.320 C  
ENDBRANCH  21  26
ENDBRANCH  20  21
ENDBRANCH  19  20
ENDBRANCH  18  19
ENDBRANCH  16  18
BRANCH  17  28
HETATM   28  O   UNL     4     -10.928  13.170  66.846  1.00  0.00    -0.269 OA 
BRANCH  28  29
HETATM   29  C   UNL     4     -12.028  13.191  67.706  1.00  0.00    -0.307 C  
BRANCH  29  30
HETATM   30  C   UNL     4     -12.134  14.432  68.619  1.00  0.00    -0.239 C  
BRANCH  30  31
HETATM   31  N   UNL     4     -12.049  14.143  70.112  1.00  0.00    -0.325 N  
BRANCH  31  32
HETATM   32  C   UNL     4     -11.825  12.679  70.384  1.00  0.00    -0.154 C  
HETATM   33  C   UNL     4     -12.907  11.947  71.192  1.00  0.00    -0.346 C  
ENDBRANCH  31  32
BRANCH  31  34
HETATM   34  C   UNL     4     -13.344  14.559  70.755  1.00  0.00    -0.189 C  
HETATM   35  C   UNL     4     -13.232  15.552  71.932  1.00  0.00    -0.553 C  
ENDBRANCH  31  34
BRANCH  31  36
HETATM   36  C   UNL     4     -10.886  14.890  70.730  1.00  0.00     0.028 C  
HETATM   37  C   UNL     4     -10.292  16.059  69.914  1.00  0.00    -0.249 C  
ENDBRANCH  31  36
ENDBRANCH  30  31
ENDBRANCH  29  30
ENDBRANCH  28  29
ENDBRANCH  17  28
ENDBRANCH  11  12
ENDBRANCH  10  11
ENDBRANCH   9  10
ENDBRANCH   6   9
BRANCH   6  38
HETATM   38  C   UNL     4      -8.442   8.604  64.683  1.00  0.00    -0.132 C  
HETATM   39  C   UNL     4      -8.404  10.054  64.158  1.00  0.00    -0.167 C  
ENDBRANCH   6  38
ENDBRANCH   5   6
TORSDOF 21
ENDMDL
MODEL       20
REMARK 921   NORMALIZED FREE ENERGY PREDICTED BY IDOCK:   -3.86 KCAL/MOL
REMARK 922        TOTAL FREE ENERGY PREDICTED BY IDOCK:  -10.93 KCAL/MOL
REMARK 923 INTER-LIGAND FREE ENERGY PREDICTED BY IDOCK:   -8.69 KCAL/MOL
REMARK 924 INTRA-LIGAND FREE ENERGY PREDICTED BY IDOCK:   -2.23 KCAL/MOL
REMARK 927      BINDING AFFINITY PREDICTED BY RF-SCORE:    0.00 PKD
ROOT
HETATM    1  I   UNL     1     -11.982  15.188  72.671  1.00  0.00    -0.381 I  
HETATM    2  I   UNL     2      -8.260  14.343  69.075  1.00  0.00     0.212 I  
HETATM    3  I   UNL     3     -12.980  11.548  71.266  1.00  0.00     0.055 I  
HETATM    4  C   UNL     4     -10.814   8.534  72.230  1.00  0.00    -0.418 C  
HETATM    5  C   UNL     4      -9.622   7.826  71.550  1.00  0.00    -0.155 C  
ENDROOT
BRANCH   5   6
HETATM    6  N   UNL     4      -9.486   8.024  70.065  1.00  0.00    -0.160 N  
BRANCH   6   7
HETATM    7  C   UNL     4      -9.731   6.700  69.383  1.00  0.00    -0.147 C  
HETATM    8  C   UNL     4     -11.141   6.097  69.541  1.00  0.00    -0.490 C  
ENDBRANCH   6   7
BRANCH   6   9
HETATM    9  C   UNL     4     -10.479   9.065  69.626  1.00  0.00    -0.222 C  
BRANCH   9  10
HETATM   10  C   UNL     4     -10.643   9.383  68.108  1.00  0.00    -0.212 C  
BRANCH  10  11
HETATM   11  O   UNL     4     -10.090  10.565  67.648  1.00  0.00    -0.168 OA 
BRANCH  11  12
HETATM   12  C   UNL     4     -10.676  11.757  67.366  1.00  0.00    -0.236 A  
HETATM   13  C   UNL     4     -11.617  12.278  68.266  1.00  0.00    -0.385 A  
HETATM   14  C   UNL     4     -12.269  13.456  68.016  1.00  0.00    -0.136 A  
HETATM   15  C   UNL     4     -11.967  14.184  66.894  1.00  0.00    -0.479 A  
HETATM   16  C   UNL     4     -11.000  13.754  65.940  1.00  0.00    -0.283 A  
HETATM   17  C   UNL     4     -10.342  12.497  66.163  1.00  0.00    -0.253 A  
BRANCH  16  18
HETATM   18  O   UNL     4     -10.707  14.566  64.860  1.00  0.00    -0.396 OA 
BRANCH  18  19
HETATM   19  C   UNL     4     -10.386  15.909  65.091  1.00  0.00    -0.252 C  
BRANCH  19  20
HETATM   20  C   UNL     4      -9.194  16.289  66.006  1.00  0.00    -0.316 C  
BRANCH  20  21
HETATM   21  N   UNL     4      -9.263  17.737  66.496  1.00  0.00    -0.269 N  
BRANCH  21  22
HETATM   22  C   UNL     4      -9.438  17.787  67.995  1.00  0.00    -0.281 C  
HETATM   23  C   UNL     4     -10.785  17.291  68.552  1.00  0.00    -0.305 C  
ENDBRANCH  21  22
BRANCH  21  24
HETATM   24  C   UNL     4     -10.453  18.431  65.875  1.00  0.00    -0.321 C  
HETATM   25  C   UNL     4     -10.447  19.975  65.866  1.00  0.00    -0.511 C  
ENDBRANCH  21  24
BRANCH  21  26
HETATM   26  C   UNL     4      -7.989  18.458  66.158  1.00  0.00    -0.185 C  
HETATM   27  C   UNL     4      -6.711  17.603  66.122  1.00  0.00    -0.321 C  
ENDBRANCH  21  26
ENDBRANCH  20  21
ENDBRANCH  19  20
ENDBRANCH  18  19
ENDBRANCH  16  18
BRANCH  17  28
HETATM   28  O   UNL     4      -9.413  12.039  65.244  1.00  0.00    -0.160 OA 
BRANCH  28  29
HETATM   29  C   UNL     4      -9.676  11.058  64.287  1.00  0.00    -0.284 C  
BRANCH  29  30
HETATM   30  C   UNL     4      -9.300   9.615  64.692  1.00  0.00    -0.207 C  
BRANCH  30  31
HETATM   31  N   UNL     4      -7.805   9.336  64.765  1.00  0.00    -0.113 N  
BRANCH  31  32
HETATM   32  C   UNL     4      -7.065  10.443  65.468  1.00  0.00    -0.133 C  
HETATM   33  C   UNL     4      -6.663  10.194  66.929  1.00  0.00    -0.079 C  
ENDBRANCH  31  32
BRANCH  31  34
HETATM   34  C   UNL     4      -7.271   9.214  63.364  1.00  0.00    -0.095 C  
HETATM   35  C   UNL     4      -5.975   9.997  63.058  1.00  0.00    -0.127 C  
ENDBRANCH  31  34
BRANCH  31  36
HETATM   36  C   UNL     4      -7.542   8.065  65.545  1.00  0.00    -0.085 C  
HETATM   37  C   UNL     4      -8.747   7.130  65.787  1.00  0.00    -0.125 C  
ENDBRANCH  31  36
ENDBRANCH  30  31
ENDBRANCH  29  30
ENDBRANCH  28  29
ENDBRANCH  17  28
ENDBRANCH  11  12
ENDBRANCH  10  11
ENDBRANCH   9  10
ENDBRANCH   6   9
BRANCH   6  38
HETATM   38  C   UNL     4      -8.096   8.480  69.705  1.00  0.00    -0.116 C  
HETATM   39  C   UNL     4      -7.541   9.681  70.498  1.00  0.00    -0.151 C  
ENDBRANCH   6  38
ENDBRANCH   5   6
TORSDOF 21
ENDMDL
MODEL       21
REMARK 921   NORMALIZED FREE ENERGY PREDICTED BY IDOCK:   -3.82 KCAL/MOL
REMARK 922        TOTAL FREE ENERGY PREDICTED BY IDOCK:  -10.83 KCAL/MOL
REMARK 923 INTER-LIGAND FREE ENERGY PREDICTED BY IDOCK:   -8.44 KCAL/MOL
REMARK 924 INTRA-LIGAND FREE ENERGY PREDICTED BY IDOCK:   -2.39 KCAL/MOL
REMARK 927      BINDING AFFINITY PREDICTED BY RF-SCORE:    0.00 PKD
ROOT
HETATM    1  I   UNL     1     -10.268  19.246  67.177  1.00  0.00    -0.629 I  
HETATM    2  I   UNL     2      -6.025  16.211  67.710  1.00  0.00    -0.179 I  
HETATM    3  I   UNL     3     -11.192  16.092  64.850  1.00  0.00     0.129 I  
HETATM    4  C   UNL     4     -12.100  12.762  66.521  1.00  0.00    -0.338 C  
HETATM    5  C   UNL     4     -11.282  11.506  66.893  1.00  0.00    -0.298 C  
ENDROOT
BRANCH   5   6
HETATM    6  N   UNL     4      -9.998  11.297  66.137  1.00  0.00    -0.220 N  
BRANCH   6   7
HETATM    7  C   UNL     4      -9.845  12.416  65.136  1.00  0.00    -0.136 C  
HETATM    8  C   UNL     4     -10.479  12.188  63.749  1.00  0.00    -0.470 C  
ENDBRANCH   6   7
BRANCH   6   9
HETATM    9  C   UNL     4      -8.860  11.275  67.121  1.00  0.00    -0.153 C  
BRANCH   9  10
HETATM   10  C   UNL     4      -8.746  10.105  68.146  1.00  0.00    -0.122 C  
BRANCH  10  11
HETATM   11  O   UNL     4      -9.069  10.386  69.461  1.00  0.00    -0.183 OA 
BRANCH  11  12
HETATM   12  C   UNL     4     -10.010   9.836  70.271  1.00  0.00    -0.253 A  
HETATM   13  C   UNL     4     -11.300  10.387  70.279  1.00  0.00    -0.406 A  
HETATM   14  C   UNL     4     -12.279   9.900  71.104  1.00  0.00    -0.468 A  
HETATM   15  C   UNL     4     -12.028   8.817  71.905  1.00  0.00    -0.435 A  
HETATM   16  C   UNL     4     -10.760   8.169  71.939  1.00  0.00    -0.265 A  
HETATM   17  C   UNL     4      -9.707   8.695  71.117  1.00  0.00    -0.224 A  
BRANCH  16  18
HETATM   18  O   UNL     4     -10.594   7.047  72.731  1.00  0.00    -0.219 OA 
BRANCH  18  19
HETATM   19  C   UNL     4     -11.357   5.907  72.456  1.00  0.00    -0.304 C  
BRANCH  19  20
HETATM   20  C   UNL     4     -11.321   4.684  73.408  1.00  0.00    -0.305 C  
BRANCH  20  21
HETATM   21  N   UNL     4     -10.173   3.722  73.092  1.00  0.00    -0.149 N  
BRANCH  21  22
HETATM   22  C   UNL     4     -10.544   2.307  73.465  1.00  0.00    -0.145 C  
HETATM   23  C   UNL     4     -12.040   2.015  73.674  1.00  0.00    -0.060 C  
ENDBRANCH  21  22
BRANCH  21  24
HETATM   24  C   UNL     4      -8.952   4.100  73.897  1.00  0.00    -0.091 C  
HETATM   25  C   UNL     4      -7.809   4.823  73.151  1.00  0.00    -0.096 C  
ENDBRANCH  21  24
BRANCH  21  26
HETATM   26  C   UNL     4      -9.871   3.744  71.620  1.00  0.00    -0.170 C  
HETATM   27  C   UNL     4      -9.552   2.388  70.969  1.00  0.00    -0.203 C  
ENDBRANCH  21  26
ENDBRANCH  20  21
ENDBRANCH  19  20
ENDBRANCH  18  19
ENDBRANCH  16  18
BRANCH  17  28
HETATM   28  O   UNL     4      -8.456   8.104  71.143  1.00  0.00    -0.115 OA 
BRANCH  28  29
HETATM   29  C   UNL     4      -7.963   7.269  70.138  1.00  0.00    -0.112 C  
BRANCH  29  30
HETATM   30  C   UNL     4      -9.031   6.544  69.291  1.00  0.00    -0.131 C  
BRANCH  30  31
HETATM   31  N   UNL     4      -8.514   5.912  68.006  1.00  0.00    -0.111 N  
BRANCH  31  32
HETATM   32  C   UNL     4      -8.581   4.409  68.059  1.00  0.00    -0.102 C  
HETATM   33  C   UNL     4      -9.522   3.718  67.062  1.00  0.00    -0.227 C  
ENDBRANCH  31  32
BRANCH  31  34
HETATM   34  C   UNL     4      -7.081   6.324  67.812  1.00  0.00    -0.081 C  
HETATM   35  C   UNL     4      -6.781   7.184  66.565  1.00  0.00    -0.057 C  
ENDBRANCH  31  34
BRANCH  31  36
HETATM   36  C   UNL     4      -9.356   6.350  66.825  1.00  0.00    -0.147 C  
HETATM   37  C   UNL     4     -10.686   7.069  67.141  1.00  0.00    -0.433 C  
ENDBRANCH  31  36
ENDBRANCH  30  31
ENDBRANCH  29  30
ENDBRANCH  28  29
ENDBRANCH  17  28
ENDBRANCH  11  12
ENDBRANCH  10  11
ENDBRANCH   9  10
ENDBRANCH   6   9
BRANCH   6  38
HETATM   38  C   UNL     4     -10.023   9.996  65.377  1.00  0.00    -0.294 C  
HETATM   39  C   UNL     4      -8.712   9.587  64.675  1.00  0.00    -0.233 C  
ENDBRANCH   6  38
ENDBRANCH   5   6
TORSDOF 21
ENDMDL
MODEL       22
REMARK 921   NORMALIZED FREE ENERGY PREDICTED BY IDOCK:   -3.81 KCAL/MOL
REMARK 922        TOTAL FREE ENERGY PREDICTED BY IDOCK:  -10.81 KCAL/MOL
REMARK 923 INTER-LIGAND FREE ENERGY PREDICTED BY IDOCK:   -7.61 KCAL/MOL
REMARK 924 INTRA-LIGAND FREE ENERGY PREDICTED BY IDOCK:   -3.20 KCAL/MOL
REMARK 927      BINDING AFFINITY PREDICTED BY RF-SCORE:    0.00 PKD
ROOT
HETATM    1  I   UNL     1      -7.515   7.496  63.698  1.00  0.00    -0.114 I  
HETATM    2  I   UNL     2     -10.911   6.796  67.632  1.00  0.00    -0.282 I  
HETATM    3  I   UNL     3      -9.584  10.950  63.648  1.00  0.00    -0.414 I  
HETATM    4  C   UNL     4      -8.982  13.509  66.440  1.00  0.00     0.011 C  
HETATM    5  C   UNL     4      -9.679  13.789  67.788  1.00  0.00    -0.230 C  
ENDROOT
BRANCH   5   6
HETATM    6  N   UNL     4     -11.095  13.299  67.923  1.00  0.00    -0.252 N  
BRANCH   6   7
HETATM    7  C   UNL     4     -11.442  12.498  66.691  1.00  0.00    -0.359 C  
HETATM    8  C   UNL     4     -12.373  13.180  65.669  1.00  0.00    -0.519 C  
ENDBRANCH   6   7
BRANCH   6   9
HETATM    9  C   UNL     4     -11.199  12.466  69.171  1.00  0.00    -0.236 C  
BRANCH   9  10
HETATM   10  C   UNL     4     -12.389  11.473  69.340  1.00  0.00    -0.092 C  
BRANCH  10  11
HETATM   11  O   UNL     4     -12.608  10.960  70.607  1.00  0.00    -0.331 OA 
BRANCH  11  12
HETATM   12  C   UNL     4     -12.656   9.674  71.037  1.00  0.00    -0.283 A  
HETATM   13  C   UNL     4     -13.902   9.035  71.120  1.00  0.00    -0.128 A  
HETATM   14  C   UNL     4     -14.017   7.751  71.584  1.00  0.00    -0.495 A  
HETATM   15  C   UNL     4     -12.897   7.041  71.927  1.00  0.00    -0.296 A  
HETATM   16  C   UNL     4     -11.585   7.592  71.843  1.00  0.00    -0.280 A  
HETATM   17  C   UNL     4     -11.450   8.953  71.404  1.00  0.00    -0.311 A  
BRANCH  16  18
HETATM   18  O   UNL     4     -10.496   6.800  72.154  1.00  0.00    -0.203 OA 
BRANCH  18  19
HETATM   19  C   UNL     4     -10.297   5.614  71.437  1.00  0.00    -0.228 C  
BRANCH  19  20
HETATM   20  C   UNL     4      -8.912   4.917  71.432  1.00  0.00    -0.134 C  
BRANCH  20  21
HETATM   21  N   UNL     4      -8.945   3.541  70.762  1.00  0.00    -0.085 N  
BRANCH  21  22
HETATM   22  C   UNL     4      -7.563   2.935  70.720  1.00  0.00    -0.039 C  
HETATM   23  C   UNL     4      -6.393   3.848  71.125  1.00  0.00    -0.018 C  
ENDBRANCH  21  22
BRANCH  21  24
HETATM   24  C   UNL     4      -9.426   3.678  69.336  1.00  0.00    -0.179 C  
HETATM   25  C   UNL     4      -8.761   2.775  68.275  1.00  0.00    -0.136 C  
ENDBRANCH  21  24
BRANCH  21  26
HETATM   26  C   UNL     4      -9.832   2.609  71.538  1.00  0.00    -0.123 C  
HETATM   27  C   UNL     4      -9.479   2.410  73.022  1.00  0.00    -0.123 C  
ENDBRANCH  21  26
ENDBRANCH  20  21
ENDBRANCH  19  20
ENDBRANCH  18  19
ENDBRANCH  16  18
BRANCH  17  28
HETATM   28  O   UNL     4     -10.193   9.528  71.332  1.00  0.00    -0.283 OA 
BRANCH  28  29
HETATM   29  C   UNL     4      -9.372   9.480  70.204  1.00  0.00    -0.247 C  
BRANCH  29  30
HETATM   30  C   UNL     4      -8.022   8.753  70.393  1.00  0.00    -0.112 C  
BRANCH  30  31
HETATM   31  N   UNL     4      -6.860   9.337  69.602  1.00  0.00    -0.053 N  
BRANCH  31  32
HETATM   32  C   UNL     4      -5.879  10.048  70.495  1.00  0.00    -0.084 C  
HETATM   33  C   UNL     4      -5.467   9.329  71.788  1.00  0.00    -0.071 C  
ENDBRANCH  31  32
BRANCH  31  34
HETATM   34  C   UNL     4      -7.406  10.322  68.606  1.00  0.00    -0.083 C  
HETATM   35  C   UNL     4      -6.728  10.335  67.218  1.00  0.00    -0.073 C  
ENDBRANCH  31  34
BRANCH  31  36
HETATM   36  C   UNL     4      -6.096   8.236  68.895  1.00  0.00    -0.044 C  
HETATM   37  C   UNL     4      -6.737   6.831  68.889  1.00  0.00    -0.053 C  
ENDBRANCH  31  36
ENDBRANCH  30  31
ENDBRANCH  29  30
ENDBRANCH  28  29
ENDBRANCH  17  28
ENDBRANCH  11  12
ENDBRANCH  10  11
ENDBRANCH   9  10
ENDBRANCH   6   9
BRANCH   6  38
HETATM   38  C   UNL     4     -12.061  14.452  68.012  1.00  0.00    -0.231 C  
HETATM   39  C   UNL     4     -11.597  15.673  68.832  1.00  0.00    -0.392 C  
ENDBRANCH   6  38
ENDBRANCH   5   6
TORSDOF 21
ENDMDL
MODEL       23
REMARK 921   NORMALIZED FREE ENERGY PREDICTED BY IDOCK:   -3.76 KCAL/MOL
REMARK 922        TOTAL FREE ENERGY PREDICTED BY IDOCK:  -10.70 KCAL/MOL
REMARK 923 INTER-LIGAND FREE ENERGY PREDICTED BY IDOCK:   -8.51 KCAL/MOL
REMARK 924 INTRA-LIGAND FREE ENERGY PREDICTED BY IDOCK:   -2.20 KCAL/MOL
REMARK 927      BINDING AFFINITY PREDICTED BY RF-SCORE:    0.00 PKD
ROOT
HETATM    1  I   UNL     1      -6.430  10.421  62.610  1.00  0.00    -0.049 I  
HETATM    2  I   UNL     2      -5.131  11.757  67.511  1.00  0.00    -0.100 I  
HETATM    3  I   UNL     3     -10.032  10.702  64.388  1.00  0.00    -0.294 I  
HETATM    4  C   UNL     4     -11.400  14.177  65.261  1.00  0.00    -0.328 C  
HETATM    5  C   UNL     4     -11.352  15.044  66.537  1.00  0.00    -0.280 C  
ENDROOT
BRANCH   5   6
HETATM    6  N   UNL     4     -11.112  14.315  67.831  1.00  0.00    -0.269 N  
BRANCH   6   7
HETATM    7  C   UNL     4     -11.671  15.148  68.959  1.00  0.00    -0.335 C  
HETATM    8  C   UNL     4     -11.112  14.861  70.367  1.00  0.00    -0.212 C  
ENDBRANCH   6   7
BRANCH   6   9
HETATM    9  C   UNL     4     -11.778  12.968  67.756  1.00  0.00    -0.359 C  
BRANCH   9  10
HETATM   10  C   UNL     4     -10.985  11.690  68.168  1.00  0.00    -0.226 C  
BRANCH  10  11
HETATM   11  O   UNL     4     -10.836  11.450  69.523  1.00  0.00    -0.204 OA 
BRANCH  11  12
HETATM   12  C   UNL     4     -11.422  10.521  70.319  1.00  0.00    -0.333 A  
HETATM   13  C   UNL     4     -12.802  10.603  70.552  1.00  0.00    -0.356 A  
HETATM   14  C   UNL     4     -13.442   9.717  71.378  1.00  0.00    -0.403 A  
HETATM   15  C   UNL     4     -12.744   8.688  71.954  1.00  0.00    -0.413 A  
HETATM   16  C   UNL     4     -11.347   8.502  71.749  1.00  0.00    -0.307 A  
HETATM   17  C   UNL     4     -10.651   9.449  70.924  1.00  0.00    -0.320 A  
BRANCH  16  18
HETATM   18  O   UNL     4     -10.718   7.410  72.319  1.00  0.00    -0.216 OA 
BRANCH  18  19
HETATM   19  C   UNL     4     -11.195   6.127  72.026  1.00  0.00    -0.286 C  
BRANCH  19  20
HETATM   20  C   UNL     4     -10.231   5.022  71.525  1.00  0.00    -0.204 C  
BRANCH  20  21
HETATM   21  N   UNL     4      -9.762   4.092  72.647  1.00  0.00    -0.138 N  
BRANCH  21  22
HETATM   22  C   UNL     4     -10.899   3.777  73.590  1.00  0.00    -0.242 C  
HETATM   23  C   UNL     4     -11.341   2.306  73.674  1.00  0.00    -0.318 C  
ENDBRANCH  21  22
BRANCH  21  24
HETATM   24  C   UNL     4      -8.677   4.769  73.452  1.00  0.00    -0.100 C  
HETATM   25  C   UNL     4      -7.442   3.922  73.827  1.00  0.00    -0.070 C  
ENDBRANCH  21  24
BRANCH  21  26
HETATM   26  C   UNL     4      -9.270   2.794  72.071  1.00  0.00    -0.095 C  
HETATM   27  C   UNL     4      -8.750   2.844  70.625  1.00  0.00    -0.128 C  
ENDBRANCH  21  26
ENDBRANCH  20  21
ENDBRANCH  19  20
ENDBRANCH  18  19
ENDBRANCH  16  18
BRANCH  17  28
HETATM   28  O   UNL     4      -9.289   9.311  70.722  1.00  0.00    -0.241 OA 
BRANCH  28  29
HETATM   29  C   UNL     4      -8.719   8.453  69.780  1.00  0.00    -0.133 C  
BRANCH  29  30
HETATM   30  C   UNL     4      -9.628   8.075  68.590  1.00  0.00    -0.148 C  
BRANCH  30  31
HETATM   31  N   UNL     4      -9.072   6.993  67.674  1.00  0.00    -0.123 N  
BRANCH  31  32
HETATM   32  C   UNL     4      -9.980   5.793  67.615  1.00  0.00    -0.140 C  
HETATM   33  C   UNL     4     -10.474   5.361  66.227  1.00  0.00    -0.277 C  
ENDBRANCH  31  32
BRANCH  31  34
HETATM   34  C   UNL     4      -7.733   6.559  68.202  1.00  0.00    -0.105 C  
HETATM   35  C   UNL     4      -7.506   5.035  68.315  1.00  0.00    -0.075 C  
ENDBRANCH  31  34
BRANCH  31  36
HETATM   36  C   UNL     4      -8.939   7.516  66.258  1.00  0.00    -0.167 C  
HETATM   37  C   UNL     4      -7.544   7.414  65.603  1.00  0.00    -0.092 C  
ENDBRANCH  31  36
ENDBRANCH  30  31
ENDBRANCH  29  30
ENDBRANCH  28  29
ENDBRANCH  17  28
ENDBRANCH  11  12
ENDBRANCH  10  11
ENDBRANCH   9  10
ENDBRANCH   6   9
BRANCH   6  38
HETATM   38  C   UNL     4      -9.638  14.127  68.081  1.00  0.00    -0.218 C  
HETATM   39  C   UNL     4      -8.716  14.218  66.848  1.00  0.00    -0.202 C  
ENDBRANCH   6  38
ENDBRANCH   5   6
TORSDOF 21
ENDMDL
MODEL       24
REMARK 921   NORMALIZED FREE ENERGY PREDICTED BY IDOCK:   -3.57 KCAL/MOL
REMARK 922        TOTAL FREE ENERGY PREDICTED BY IDOCK:  -10.28 KCAL/MOL
REMARK 923 INTER-LIGAND FREE ENERGY PREDICTED BY IDOCK:   -8.52 KCAL/MOL
REMARK 924 INTRA-LIGAND FREE ENERGY PREDICTED BY IDOCK:   -1.76 KCAL/MOL
REMARK 927      BINDING AFFINITY PREDICTED BY RF-SCORE:    0.00 PKD
ROOT
HETATM    1  I   UNL     1     -10.393  19.328  67.818  1.00  0.00    -0.519 I  
HETATM    2  I   UNL     2     -11.747  15.629  71.280  1.00  0.00    -0.609 I  
HETATM    3  I   UNL     3      -8.434  16.103  66.412  1.00  0.00    -0.151 I  
HETATM    4  C   UNL     4     -10.441  13.313  64.711  1.00  0.00    -0.402 C  
HETATM    5  C   UNL     4     -11.058  11.992  65.218  1.00  0.00    -0.317 C  
ENDROOT
BRANCH   5   6
HETATM    6  N   UNL     4     -10.468  11.419  66.478  1.00  0.00    -0.240 N  
BRANCH   6   7
HETATM    7  C   UNL     4     -11.527  11.442  67.554  1.00  0.00    -0.260 C  
HETATM    8  C   UNL     4     -11.865  12.820  68.155  1.00  0.00    -0.372 C  
ENDBRANCH   6   7
BRANCH   6   9
HETATM    9  C   UNL     4      -9.996  10.019  66.195  1.00  0.00    -0.256 C  
BRANCH   9  10
HETATM   10  C   UNL     4     -10.425   8.854  67.140  1.00  0.00    -0.274 C  
BRANCH  10  11
HETATM   11  O   UNL     4     -10.301   7.566  66.649  1.00  0.00    -0.264 OA 
BRANCH  11  12
HETATM   12  C   UNL     4      -9.827   6.442  67.243  1.00  0.00    -0.138 A  
HETATM   13  C   UNL     4     -10.172   5.195  66.702  1.00  0.00    -0.297 A  
HETATM   14  C   UNL     4      -9.756   4.025  67.281  1.00  0.00    -0.199 A  
HETATM   15  C   UNL     4      -8.939   4.055  68.381  1.00  0.00    -0.159 A  
HETATM   16  C   UNL     4      -8.507   5.274  68.981  1.00  0.00    -0.095 A  
HETATM   17  C   UNL     4      -8.973   6.509  68.415  1.00  0.00    -0.125 A  
BRANCH  16  18
HETATM   18  O   UNL     4      -7.639   5.229  70.056  1.00  0.00    -0.066 OA 
BRANCH  18  19
HETATM   19  C   UNL     4      -7.836   4.256  71.043  1.00  0.00    -0.067 C  
BRANCH  19  20
HETATM   20  C   UNL     4      -8.526   4.619  72.383  1.00  0.00    -0.115 C  
BRANCH  20  21
HETATM   21  N   UNL     4      -8.000   3.795  73.561  1.00  0.00    -0.085 N  
BRANCH  21  22
HETATM   22  C   UNL     4      -7.121   2.668  73.075  1.00  0.00    -0.032 C  
HETATM   23  C   UNL     4      -6.436   1.810  74.153  1.00  0.00    -0.016 C  
ENDBRANCH  21  22
BRANCH  21  24
HETATM   24  C   UNL     4      -9.158   3.179  74.311  1.00  0.00    -0.082 C  
HETATM   25  C   UNL     4     -10.367   2.702  73.478  1.00  0.00    -0.212 C  
ENDBRANCH  21  24
BRANCH  21  26
HETATM   26  C   UNL     4      -7.175   4.662  74.470  1.00  0.00    -0.073 C  
HETATM   27  C   UNL     4      -6.883   6.088  73.973  1.00  0.00    -0.080 C  
ENDBRANCH  21  26
ENDBRANCH  20  21
ENDBRANCH  19  20
ENDBRANCH  18  19
ENDBRANCH  16  18
BRANCH  17  28
HETATM   28  O   UNL     4      -8.591   7.710  68.986  1.00  0.00    -0.134 OA 
BRANCH  28  29
HETATM   29  C   UNL     4      -9.265   8.326  70.042  1.00  0.00    -0.151 C  
BRANCH  29  30
HETATM   30  C   UNL     4     -10.243   7.422  70.825  1.00  0.00    -0.197 C  
BRANCH  30  31
HETATM   31  N   UNL     4     -11.578   8.065  71.173  1.00  0.00    -0.280 N  
BRANCH  31  32
HETATM   32  C   UNL     4     -11.700   9.447  70.586  1.00  0.00    -0.240 C  
HETATM   33  C   UNL     4     -12.602  10.442  71.331  1.00  0.00    -0.539 C  
ENDBRANCH  31  32
BRANCH  31  34
HETATM   34  C   UNL     4     -11.684   8.168  72.670  1.00  0.00    -0.355 C  
HETATM   35  C   UNL     4     -10.601   7.425  73.483  1.00  0.00    -0.388 C  
ENDBRANCH  31  34
BRANCH  31  36
HETATM   36  C   UNL     4     -12.722   7.245  70.615  1.00  0.00     0.063 C  
HETATM   37  C   UNL     4     -14.043   7.251  71.416  1.00  0.00    -0.456 C  
ENDBRANCH  31  36
ENDBRANCH  30  31
ENDBRANCH  29  30
ENDBRANCH  28  29
ENDBRANCH  17  28
ENDBRANCH  11  12
ENDBRANCH  10  11
ENDBRANCH   9  10
ENDBRANCH   6   9
BRANCH   6  38
HETATM   38  C   UNL     4      -9.304  12.249  66.956  1.00  0.00    -0.205 C  
HETATM   39  C   UNL     4      -8.306  11.549  67.901  1.00  0.00    -0.136 C  
ENDBRANCH   6  38
ENDBRANCH   5   6
TORSDOF 21
ENDMDL
MODEL       25
REMARK 921   NORMALIZED FREE ENERGY PREDICTED BY IDOCK:   -3.56 KCAL/MOL
REMARK 922        TOTAL FREE ENERGY PREDICTED BY IDOCK:  -10.25 KCAL/MOL
REMARK 923 INTER-LIGAND FREE ENERGY PREDICTED BY IDOCK:   -6.81 KCAL/MOL
REMARK 924 INTRA-LIGAND FREE ENERGY PREDICTED BY IDOCK:   -3.45 KCAL/MOL
REMARK 927      BINDING AFFINITY PREDICTED BY RF-SCORE:    0.00 PKD
ROOT
HETATM    1  I   UNL     1      -8.371  16.793  66.585  1.00  0.00    -0.368 I  
HETATM    2  I   UNL     2     -12.404  13.646  65.436  1.00  0.00    -0.524 I  
HETATM    3  I   UNL     3      -7.067  13.229  67.933  1.00  0.00    -0.183 I  
HETATM    4  C   UNL     4      -6.027  10.555  65.388  1.00  0.00    -0.129 C  
HETATM    5  C   UNL     4      -6.772   9.376  64.727  1.00  0.00    -0.087 C  
ENDROOT
BRANCH   5   6
HETATM    6  N   UNL     4      -7.986   8.861  65.453  1.00  0.00    -0.105 N  
BRANCH   6   7
HETATM    7  C   UNL     4      -8.168   7.403  65.105  1.00  0.00    -0.113 C  
HETATM    8  C   UNL     4      -7.350   6.876  63.909  1.00  0.00    -0.080 C  
ENDBRANCH   6   7
BRANCH   6   9
HETATM    9  C   UNL     4      -7.781   9.056  66.930  1.00  0.00    -0.098 C  
BRANCH   9  10
HETATM   10  C   UNL     4      -6.915   8.035  67.731  1.00  0.00    -0.078 C  
BRANCH  10  11
HETATM   11  O   UNL     4      -7.589   7.104  68.502  1.00  0.00    -0.109 OA 
BRANCH  11  12
HETATM   12  C   UNL     4      -7.645   6.956  69.850  1.00  0.00    -0.099 A  
HETATM   13  C   UNL     4      -6.651   7.554  70.637  1.00  0.00    -0.043 A  
HETATM   14  C   UNL     4      -6.632   7.405  71.999  1.00  0.00    -0.050 A  
HETATM   15  C   UNL     4      -7.630   6.707  72.628  1.00  0.00    -0.093 A  
HETATM   16  C   UNL     4      -8.701   6.094  71.916  1.00  0.00    -0.137 A  
HETATM   17  C   UNL     4      -8.710   6.199  70.484  1.00  0.00    -0.142 A  
BRANCH  16  18
HETATM   18  O   UNL     4      -9.703   5.451  72.620  1.00  0.00    -0.150 OA 
BRANCH  18  19
HETATM   19  C   UNL     4     -10.913   6.121  72.837  1.00  0.00    -0.262 C  
BRANCH  19  20
HETATM   20  C   UNL     4     -10.944   7.663  72.992  1.00  0.00    -0.400 C  
BRANCH  20  21
HETATM   21  N   UNL     4     -11.770   8.350  71.902  1.00  0.00    -0.310 N  
BRANCH  21  22
HETATM   22  C   UNL     4     -12.833   9.232  72.512  1.00  0.00    -0.281 C  
HETATM   23  C   UNL     4     -13.061  10.601  71.848  1.00  0.00    -0.563 C  
ENDBRANCH  21  22
BRANCH  21  24
HETATM   24  C   UNL     4     -12.469   7.310  71.058  1.00  0.00    -0.285 C  
HETATM   25  C   UNL     4     -13.981   7.105  71.298  1.00  0.00    -0.295 C  
ENDBRANCH  21  24
BRANCH  21  26
HETATM   26  C   UNL     4     -10.884   9.219  71.053  1.00  0.00    -0.314 C  
HETATM   27  C   UNL     4     -10.836   8.884  69.553  1.00  0.00    -0.163 C  
ENDBRANCH  21  26
ENDBRANCH  20  21
ENDBRANCH  19  20
ENDBRANCH  18  19
ENDBRANCH  16  18
BRANCH  17  28
HETATM   28  O   UNL     4      -9.723   5.596  69.759  1.00  0.00    -0.151 OA 
BRANCH  28  29
HETATM   29  C   UNL     4      -9.714   4.258  69.362  1.00  0.00    -0.187 C  
BRANCH  29  30
HETATM   30  C   UNL     4      -8.794   3.924  68.167  1.00  0.00    -0.110 C  
BRANCH  30  31
HETATM   31  N   UNL     4      -7.542   3.133  68.520  1.00  0.00    -0.049 N  
BRANCH  31  32
HETATM   32  C   UNL     4      -7.463   2.842  69.995  1.00  0.00    -0.044 C  
HETATM   33  C   UNL     4      -6.302   3.481  70.770  1.00  0.00    -0.023 C  
ENDBRANCH  31  32
BRANCH  31  34
HETATM   34  C   UNL     4      -6.337   3.942  68.124  1.00  0.00    -0.037 C  
HETATM   35  C   UNL     4      -6.227   4.316  66.630  1.00  0.00    -0.032 C  
ENDBRANCH  31  34
BRANCH  31  36
HETATM   36  C   UNL     4      -7.541   1.797  67.805  1.00  0.00    -0.054 C  
HETATM   37  C   UNL     4      -8.702   1.529  66.822  1.00  0.00    -0.118 C  
ENDBRANCH  31  36
ENDBRANCH  30  31
ENDBRANCH  29  30
ENDBRANCH  28  29
ENDBRANCH  17  28
ENDBRANCH  11  12
ENDBRANCH  10  11
ENDBRANCH   9  10
ENDBRANCH   6   9
BRANCH   6  38
HETATM   38  C   UNL     4      -9.227   9.598  65.021  1.00  0.00    -0.250 C  
HETATM   39  C   UNL     4      -9.932  10.445  66.101  1.00  0.00    -0.290 C  
ENDBRANCH   6  38
ENDBRANCH   5   6
TORSDOF 21
ENDMDL
MODEL       26
REMARK 921   NORMALIZED FREE ENERGY PREDICTED BY IDOCK:   -3.50 KCAL/MOL
REMARK 922        TOTAL FREE ENERGY PREDICTED BY IDOCK:  -10.12 KCAL/MOL
REMARK 923 INTER-LIGAND FREE ENERGY PREDICTED BY IDOCK:   -7.41 KCAL/MOL
REMARK 924 INTRA-LIGAND FREE ENERGY PREDICTED BY IDOCK:   -2.71 KCAL/MOL
REMARK 927      BINDING AFFINITY PREDICTED BY RF-SCORE:    0.00 PKD
ROOT
HETATM    1  I   UNL     1     -10.091  19.690  68.079  1.00  0.00    -0.560 I  
HETATM    2  I   UNL     2      -6.269  16.243  69.082  1.00  0.00    -0.194 I  
HETATM    3  I   UNL     3     -10.789  16.835  65.326  1.00  0.00     0.404 I  
HETATM    4  C   UNL     4     -12.247  13.478  66.469  1.00  0.00    -0.433 C  
HETATM    5  C   UNL     4     -11.612  12.125  66.859  1.00  0.00    -0.341 C  
ENDROOT
BRANCH   5   6
HETATM    6  N   UNL     4     -10.227  11.861  66.335  1.00  0.00    -0.205 N  
BRANCH   6   7
HETATM    7  C   UNL     4      -9.576  13.186  66.017  1.00  0.00    -0.157 C  
HETATM    8  C   UNL     4      -8.707  13.808  67.128  1.00  0.00    -0.231 C  
ENDBRANCH   6   7
BRANCH   6   9
HETATM    9  C   UNL     4      -9.455  11.102  67.380  1.00  0.00    -0.164 C  
BRANCH   9  10
HETATM   10  C   UNL     4     -10.075  10.888  68.795  1.00  0.00    -0.194 C  
BRANCH  10  11
HETATM   11  O   UNL     4     -10.715   9.683  69.027  1.00  0.00    -0.217 OA 
BRANCH  11  12
HETATM   12  C   UNL     4     -11.373   9.236  70.126  1.00  0.00    -0.164 A  
HETATM   13  C   UNL     4     -12.070  10.160  70.918  1.00  0.00    -0.453 A  
HETATM   14  C   UNL     4     -12.721   9.773  72.061  1.00  0.00    -0.463 A  
HETATM   15  C   UNL     4     -12.749   8.452  72.423  1.00  0.00    -0.346 A  
HETATM   16  C   UNL     4     -12.100   7.437  71.663  1.00  0.00    -0.317 A  
HETATM   17  C   UNL     4     -11.373   7.830  70.488  1.00  0.00    -0.241 A  
BRANCH  16  18
HETATM   18  O   UNL     4     -12.215   6.116  72.058  1.00  0.00    -0.312 OA 
BRANCH  18  19
HETATM   19  C   UNL     4     -11.427   5.658  73.120  1.00  0.00    -0.110 C  
BRANCH  19  20
HETATM   20  C   UNL     4      -9.901   5.459  72.941  1.00  0.00    -0.159 C  
BRANCH  20  21
HETATM   21  N   UNL     4      -9.468   4.003  73.125  1.00  0.00    -0.112 N  
BRANCH  21  22
HETATM   22  C   UNL     4      -8.664   3.840  74.393  1.00  0.00    -0.091 C  
HETATM   23  C   UNL     4      -7.134   3.779  74.240  1.00  0.00    -0.053 C  
ENDBRANCH  21  22
BRANCH  21  24
HETATM   24  C   UNL     4      -8.589   3.580  71.971  1.00  0.00    -0.086 C  
HETATM   25  C   UNL     4      -9.292   3.193  70.651  1.00  0.00    -0.225 C  
ENDBRANCH  21  24
BRANCH  21  26
HETATM   26  C   UNL     4     -10.676   3.114  73.231  1.00  0.00    -0.189 C  
HETATM   27  C   UNL     4     -10.528   1.865  74.116  1.00  0.00    -0.183 C  
ENDBRANCH  21  26
ENDBRANCH  20  21
ENDBRANCH  19  20
ENDBRANCH  18  19
ENDBRANCH  16  18
BRANCH  17  28
HETATM   28  O   UNL     4     -10.712   6.872  69.739  1.00  0.00    -0.222 OA 
BRANCH  28  29
HETATM   29  C   UNL     4      -9.323   6.770  69.645  1.00  0.00    -0.144 C  
BRANCH  29  30
HETATM   30  C   UNL     4      -8.789   6.133  68.344  1.00  0.00    -0.113 C  
BRANCH  30  31
HETATM   31  N   UNL     4      -7.405   6.603  67.917  1.00  0.00    -0.094 N  
BRANCH  31  32
HETATM   32  C   UNL     4      -7.281   8.103  67.984  1.00  0.00    -0.094 C  
HETATM   33  C   UNL     4      -6.043   8.668  68.694  1.00  0.00    -0.045 C  
ENDBRANCH  31  32
BRANCH  31  34
HETATM   34  C   UNL     4      -7.166   6.164  66.499  1.00  0.00    -0.073 C  
HETATM   35  C   UNL     4      -8.357   5.489  65.784  1.00  0.00    -0.129 C  
ENDBRANCH  31  34
BRANCH  31  36
HETATM   36  C   UNL     4      -6.345   6.031  68.835  1.00  0.00    -0.041 C  
HETATM   37  C   UNL     4      -6.201   4.494  68.865  1.00  0.00    -0.031 C  
ENDBRANCH  31  36
ENDBRANCH  30  31
ENDBRANCH  29  30
ENDBRANCH  28  29
ENDBRANCH  17  28
ENDBRANCH  11  12
ENDBRANCH  10  11
ENDBRANCH   9  10
ENDBRANCH   6   9
BRANCH   6  38
HETATM   38  C   UNL     4     -10.274  11.052  65.066  1.00  0.00    -0.299 C  
HETATM   39  C   UNL     4      -9.373   9.800  65.017  1.00  0.00    -0.325 C  
ENDBRANCH   6  38
ENDBRANCH   5   6
TORSDOF 21
ENDMDL
MODEL       27
REMARK 921   NORMALIZED FREE ENERGY PREDICTED BY IDOCK:   -3.50 KCAL/MOL
REMARK 922        TOTAL FREE ENERGY PREDICTED BY IDOCK:  -10.11 KCAL/MOL
REMARK 923 INTER-LIGAND FREE ENERGY PREDICTED BY IDOCK:   -6.74 KCAL/MOL
REMARK 924 INTRA-LIGAND FREE ENERGY PREDICTED BY IDOCK:   -3.36 KCAL/MOL
REMARK 927      BINDING AFFINITY PREDICTED BY RF-SCORE:    0.00 PKD
ROOT
HETATM    1  I   UNL     1     -12.022  14.984  70.657  1.00  0.00    -0.497 I  
HETATM    2  I   UNL     2     -10.208  15.327  65.749  1.00  0.00    -0.446 I  
HETATM    3  I   UNL     3     -11.790  11.112  69.573  1.00  0.00    -0.428 I  
HETATM    4  C   UNL     4      -8.335   9.475  69.279  1.00  0.00    -0.129 C  
HETATM    5  C   UNL     4      -7.362   9.259  68.100  1.00  0.00    -0.079 C  
ENDROOT
BRANCH   5   6
HETATM    6  N   UNL     4      -7.965   9.291  66.722  1.00  0.00    -0.107 N  
BRANCH   6   7
HETATM    7  C   UNL     4      -7.553  10.579  66.051  1.00  0.00    -0.140 C  
HETATM    8  C   UNL     4      -6.164  11.133  66.422  1.00  0.00    -0.127 C  
ENDBRANCH   6   7
BRANCH   6   9
HETATM    9  C   UNL     4      -7.481   8.089  65.957  1.00  0.00    -0.077 C  
BRANCH   9  10
HETATM   10  C   UNL     4      -6.261   7.275  66.489  1.00  0.00    -0.040 C  
BRANCH  10  11
HETATM   11  O   UNL     4      -6.440   5.915  66.665  1.00  0.00    -0.043 OA 
BRANCH  11  12
HETATM   12  C   UNL     4      -6.814   5.213  67.765  1.00  0.00    -0.060 A  
HETATM   13  C   UNL     4      -5.820   4.682  68.599  1.00  0.00    -0.025 A  
HETATM   14  C   UNL     4      -6.137   3.932  69.701  1.00  0.00    -0.023 A  
HETATM   15  C   UNL     4      -7.448   3.734  70.043  1.00  0.00    -0.045 A  
HETATM   16  C   UNL     4      -8.528   4.263  69.279  1.00  0.00    -0.073 A  
HETATM   17  C   UNL     4      -8.214   5.011  68.093  1.00  0.00    -0.096 A  
BRANCH  16  18
HETATM   18  O   UNL     4      -9.826   4.069  69.714  1.00  0.00    -0.211 OA 
BRANCH  18  19
HETATM   19  C   UNL     4     -10.514   5.145  70.287  1.00  0.00    -0.226 C  
BRANCH  19  20
HETATM   20  C   UNL     4      -9.867   5.983  71.419  1.00  0.00    -0.173 C  
BRANCH  20  21
HETATM   21  N   UNL     4     -10.862   6.359  72.519  1.00  0.00    -0.227 N  
BRANCH  21  22
HETATM   22  C   UNL     4     -10.535   7.716  73.095  1.00  0.00    -0.374 C  
HETATM   23  C   UNL     4      -9.074   8.185  72.975  1.00  0.00    -0.344 C  
ENDBRANCH  21  22
BRANCH  21  24
HETATM   24  C   UNL     4     -10.783   5.355  73.645  1.00  0.00    -0.293 C  
HETATM   25  C   UNL     4      -9.494   4.510  73.750  1.00  0.00    -0.129 C  
ENDBRANCH  21  24
BRANCH  21  26
HETATM   26  C   UNL     4     -12.255   6.423  71.957  1.00  0.00    -0.269 C  
HETATM   27  C   UNL     4     -12.810   7.828  71.669  1.00  0.00    -0.365 C  
ENDBRANCH  21  26
ENDBRANCH  20  21
ENDBRANCH  19  20
ENDBRANCH  18  19
ENDBRANCH  16  18
BRANCH  17  28
HETATM   28  O   UNL     4      -9.239   5.521  67.315  1.00  0.00    -0.111 OA 
BRANCH  28  29
HETATM   29  C   UNL     4      -9.988   4.765  66.412  1.00  0.00    -0.241 C  
BRANCH  29  30
HETATM   30  C   UNL     4      -9.334   4.539  65.030  1.00  0.00    -0.156 C  
BRANCH  30  31
HETATM   31  N   UNL     4      -8.822   3.127  64.784  1.00  0.00    -0.113 N  
BRANCH  31  32
HETATM   32  C   UNL     4      -7.358   3.119  64.431  1.00  0.00    -0.066 C  
HETATM   33  C   UNL     4      -6.839   4.294  63.590  1.00  0.00    -0.044 C  
ENDBRANCH  31  32
BRANCH  31  34
HETATM   34  C   UNL     4      -9.596   2.529  63.641  1.00  0.00    -0.114 C  
HETATM   35  C   UNL     4     -10.767   3.374  63.094  1.00  0.00    -0.219 C  
ENDBRANCH  31  34
BRANCH  31  36
HETATM   36  C   UNL     4      -8.981   2.281  66.030  1.00  0.00    -0.107 C  
HETATM   37  C   UNL     4      -7.696   1.665  66.626  1.00  0.00    -0.065 C  
ENDBRANCH  31  36
ENDBRANCH  30  31
ENDBRANCH  29  30
ENDBRANCH  28  29
ENDBRANCH  17  28
ENDBRANCH  11  12
ENDBRANCH  10  11
ENDBRANCH   9  10
ENDBRANCH   6   9
BRANCH   6  38
HETATM   38  C   UNL     4      -9.470   9.264  66.789  1.00  0.00    -0.175 C  
HETATM   39  C   UNL     4     -10.218  10.127  65.752  1.00  0.00    -0.283 C  
ENDBRANCH   6  38
ENDBRANCH   5   6
TORSDOF 21
ENDMDL
MODEL       28
REMARK 921   NORMALIZED FREE ENERGY PREDICTED BY IDOCK:   -3.46 KCAL/MOL
REMARK 922        TOTAL FREE ENERGY PREDICTED BY IDOCK:  -10.02 KCAL/MOL
REMARK 923 INTER-LIGAND FREE ENERGY PREDICTED BY IDOCK:   -8.64 KCAL/MOL
REMARK 924 INTRA-LIGAND FREE ENERGY PREDICTED BY IDOCK:   -1.38 KCAL/MOL
REMARK 927      BINDING AFFINITY PREDICTED BY RF-SCORE:    0.00 PKD
ROOT
HETATM    1  I   UNL     1      -5.789   5.672  71.368  1.00  0.00    -0.027 I  
HETATM    2  I   UNL     2     -10.841   6.284  70.106  1.00  0.00    -0.455 I  
HETATM    3  I   UNL     3      -5.605   6.160  67.375  1.00  0.00    -0.009 I  
HETATM    4  C   UNL     4      -6.230   9.646  65.905  1.00  0.00    -0.069 C  
HETATM    5  C   UNL     4      -7.485  10.351  65.347  1.00  0.00    -0.127 C  
ENDROOT
BRANCH   5   6
HETATM    6  N   UNL     4      -8.601   9.457  64.879  1.00  0.00    -0.165 N  
BRANCH   6   7
HETATM    7  C   UNL     4      -8.295   8.044  65.314  1.00  0.00    -0.143 C  
HETATM    8  C   UNL     4      -9.397   7.318  66.109  1.00  0.00    -0.101 C  
ENDBRANCH   6   7
BRANCH   6   9
HETATM    9  C   UNL     4      -9.893   9.951  65.470  1.00  0.00    -0.311 C  
BRANCH   9  10
HETATM   10  C   UNL     4      -9.921  10.465  66.942  1.00  0.00    -0.206 C  
BRANCH  10  11
HETATM   11  O   UNL     4     -10.134  11.819  67.133  1.00  0.00    -0.201 OA 
BRANCH  11  12
HETATM   12  C   UNL     4      -9.308  12.778  67.623  1.00  0.00    -0.191 A  
HETATM   13  C   UNL     4      -8.017  12.413  68.032  1.00  0.00    -0.155 A  
HETATM   14  C   UNL     4      -7.153  13.329  68.571  1.00  0.00    -0.105 A  
HETATM   15  C   UNL     4      -7.520  14.646  68.669  1.00  0.00    -0.125 A  
HETATM   16  C   UNL     4      -8.796  15.118  68.248  1.00  0.00    -0.173 A  
HETATM   17  C   UNL     4      -9.733  14.163  67.724  1.00  0.00    -0.223 A  
BRANCH  16  18
HETATM   18  O   UNL     4      -9.078  16.469  68.326  1.00  0.00    -0.203 OA 
BRANCH  18  19
HETATM   19  C   UNL     4      -8.148  17.319  68.935  1.00  0.00    -0.189 C  
BRANCH  19  20
HETATM   20  C   UNL     4      -8.323  18.858  68.868  1.00  0.00    -0.238 C  
BRANCH  20  21
HETATM   21  N   UNL     4      -7.331  19.525  67.912  1.00  0.00    -0.267 N  
BRANCH  21  22
HETATM   22  C   UNL     4      -8.059  20.344  66.873  1.00  0.00    -0.265 C  
HETATM   23  C   UNL     4      -9.596  20.343  66.943  1.00  0.00    -0.546 C  
ENDBRANCH  21  22
BRANCH  21  24
HETATM   24  C   UNL     4      -6.535  18.468  67.182  1.00  0.00    -0.183 C  
HETATM   25  C   UNL     4      -6.863  18.239  65.691  1.00  0.00    -0.264 C  
ENDBRANCH  21  24
BRANCH  21  26
HETATM   26  C   UNL     4      -6.422  20.449  68.671  1.00  0.00    -0.286 C  
HETATM   27  C   UNL     4      -5.748  19.865  69.924  1.00  0.00    -0.309 C  
ENDBRANCH  21  26
ENDBRANCH  20  21
ENDBRANCH  19  20
ENDBRANCH  18  19
ENDBRANCH  16  18
BRANCH  17  28
HETATM   28  O   UNL     4     -10.989  14.583  67.326  1.00  0.00    -0.291 OA 
BRANCH  28  29
HETATM   29  C   UNL     4     -12.128  14.522  68.132  1.00  0.00    -0.197 C  
BRANCH  29  30
HETATM   30  C   UNL     4     -12.036  15.282  69.473  1.00  0.00    -0.330 C  
BRANCH  30  31
HETATM   31  N   UNL     4     -12.167  14.413  70.716  1.00  0.00    -0.320 N  
BRANCH  31  32
HETATM   32  C   UNL     4     -13.606  14.240  71.126  1.00  0.00    -0.238 C  
HETATM   33  C   UNL     4     -14.390  15.514  71.470  1.00  0.00    -0.452 C  
ENDBRANCH  31  32
BRANCH  31  34
HETATM   34  C   UNL     4     -11.423  15.074  71.844  1.00  0.00    -0.289 C  
HETATM   35  C   UNL     4     -12.040  14.920  73.251  1.00  0.00    -0.391 C  
ENDBRANCH  31  34
BRANCH  31  36
HETATM   36  C   UNL     4     -11.612  13.028  70.455  1.00  0.00     0.131 C  
HETATM   37  C   UNL     4     -12.482  11.831  70.897  1.00  0.00    -0.416 C  
ENDBRANCH  31  36
ENDBRANCH  30  31
ENDBRANCH  29  30
ENDBRANCH  28  29
ENDBRANCH  17  28
ENDBRANCH  11  12
ENDBRANCH  10  11
ENDBRANCH   9  10
ENDBRANCH   6   9
BRANCH   6  38
HETATM   38  C   UNL     4      -8.706   9.466  63.376  1.00  0.00    -0.204 C  
HETATM   39  C   UNL     4      -7.378   9.525  62.595  1.00  0.00    -0.103 C  
ENDBRANCH   6  38
ENDBRANCH   5   6
TORSDOF 21
ENDMDL
MODEL       29
REMARK 921   NORMALIZED FREE ENERGY PREDICTED BY IDOCK:   -3.43 KCAL/MOL
REMARK 922        TOTAL FREE ENERGY PREDICTED BY IDOCK:   -9.97 KCAL/MOL
REMARK 923 INTER-LIGAND FREE ENERGY PREDICTED BY IDOCK:   -6.48 KCAL/MOL
REMARK 924 INTRA-LIGAND FREE ENERGY PREDICTED BY IDOCK:   -3.48 KCAL/MOL
REMARK 927      BINDING AFFINITY PREDICTED BY RF-SCORE:    0.00 PKD
ROOT
HETATM    1  I   UNL     1     -12.727  10.963  71.425  1.00  0.00    -0.374 I  
HETATM    2  I   UNL     2      -7.871  10.144  69.623  1.00  0.00    -0.090 I  
HETATM    3  I   UNL     3     -12.513   6.942  71.380  1.00  0.00    -0.204 I  
HETATM    4  C   UNL     4     -10.362   5.173  74.016  1.00  0.00    -0.299 C  
HETATM    5  C   UNL     4      -8.903   4.668  74.028  1.00  0.00    -0.107 C  
ENDROOT
BRANCH   5   6
HETATM    6  N   UNL     4      -8.275   4.410  72.685  1.00  0.00    -0.103 N  
BRANCH   6   7
HETATM    7  C   UNL     4      -8.788   3.090  72.163  1.00  0.00    -0.082 C  
HETATM    8  C   UNL     4      -9.631   3.143  70.874  1.00  0.00    -0.225 C  
ENDBRANCH   6   7
BRANCH   6   9
HETATM    9  C   UNL     4      -8.629   5.545  71.763  1.00  0.00    -0.135 C  
BRANCH   9  10
HETATM   10  C   UNL     4      -7.599   6.021  70.693  1.00  0.00    -0.092 C  
BRANCH  10  11
HETATM   11  O   UNL     4      -7.885   5.732  69.371  1.00  0.00    -0.090 OA 
BRANCH  11  12
HETATM   12  C   UNL     4      -8.678   6.383  68.482  1.00  0.00    -0.121 A  
HETATM   13  C   UNL     4     -10.070   6.273  68.610  1.00  0.00    -0.185 A  
HETATM   14  C   UNL     4     -10.919   6.874  67.720  1.00  0.00    -0.280 A  
HETATM   15  C   UNL     4     -10.418   7.651  66.708  1.00  0.00    -0.319 A  
HETATM   16  C   UNL     4      -9.020   7.851  66.518  1.00  0.00    -0.161 A  
HETATM   17  C   UNL     4      -8.113   7.188  67.413  1.00  0.00    -0.112 A  
BRANCH  16  18
HETATM   18  O   UNL     4      -8.587   8.691  65.508  1.00  0.00    -0.157 OA 
BRANCH  18  19
HETATM   19  C   UNL     4      -9.365   9.807  65.178  1.00  0.00    -0.260 C  
BRANCH  19  20
HETATM   20  C   UNL     4      -9.085  11.185  65.830  1.00  0.00    -0.206 C  
BRANCH  20  21
HETATM   21  N   UNL     4     -10.191  12.206  65.552  1.00  0.00    -0.259 N  
BRANCH  21  22
HETATM   22  C   UNL     4     -11.514  11.721  66.095  1.00  0.00    -0.220 C  
HETATM   23  C   UNL     4     -11.666  11.692  67.626  1.00  0.00    -0.300 C  
ENDBRANCH  21  22
BRANCH  21  24
HETATM   24  C   UNL     4     -10.351  12.394  64.062  1.00  0.00    -0.409 C  
HETATM   25  C   UNL     4     -11.789  12.544  63.518  1.00  0.00    -0.616 C  
ENDBRANCH  21  24
BRANCH  21  26
HETATM   26  C   UNL     4      -9.870  13.511  66.224  1.00  0.00    -0.299 C  
HETATM   27  C   UNL     4      -8.605  13.534  67.099  1.00  0.00    -0.203 C  
ENDBRANCH  21  26
ENDBRANCH  20  21
ENDBRANCH  19  20
ENDBRANCH  18  19
ENDBRANCH  16  18
BRANCH  17  28
HETATM   28  O   UNL     4      -6.748   7.343  67.244  1.00  0.00    -0.064 OA 
BRANCH  28  29
HETATM   29  C   UNL     4      -5.924   6.401  66.626  1.00  0.00    -0.025 C  
BRANCH  29  30
HETATM   30  C   UNL     4      -6.606   5.516  65.560  1.00  0.00    -0.040 C  
BRANCH  30  31
HETATM   31  N   UNL     4      -6.696   4.037  65.910  1.00  0.00    -0.048 N  
BRANCH  31  32
HETATM   32  C   UNL     4      -6.007   3.731  67.214  1.00  0.00    -0.024 C  
HETATM   33  C   UNL     4      -6.718   2.758  68.165  1.00  0.00    -0.036 C  
ENDBRANCH  31  32
BRANCH  31  34
HETATM   34  C   UNL     4      -6.032   3.245  64.818  1.00  0.00    -0.022 C  
HETATM   35  C   UNL     4      -5.691   4.018  63.525  1.00  0.00    -0.014 C  
ENDBRANCH  31  34
BRANCH  31  36
HETATM   36  C   UNL     4      -8.142   3.617  66.066  1.00  0.00    -0.093 C  
HETATM   37  C   UNL     4      -9.173   4.297  65.138  1.00  0.00    -0.151 C  
ENDBRANCH  31  36
ENDBRANCH  30  31
ENDBRANCH  29  30
ENDBRANCH  28  29
ENDBRANCH  17  28
ENDBRANCH  11  12
ENDBRANCH  10  11
ENDBRANCH   9  10
ENDBRANCH   6   9
BRANCH   6  38
HETATM   38  C   UNL     4      -6.776   4.311  72.799  1.00  0.00    -0.050 C  
HETATM   39  C   UNL     4      -6.178   2.890  72.770  1.00  0.00    -0.009 C  
ENDBRANCH   6  38
ENDBRANCH   5   6
TORSDOF 21
ENDMDL
MODEL       30
REMARK 921   NORMALIZED FREE ENERGY PREDICTED BY IDOCK:   -3.41 KCAL/MOL
REMARK 922        TOTAL FREE ENERGY PREDICTED BY IDOCK:   -9.92 KCAL/MOL
REMARK 923 INTER-LIGAND FREE ENERGY PREDICTED BY IDOCK:   -8.39 KCAL/MOL
REMARK 924 INTRA-LIGAND FREE ENERGY PREDICTED BY IDOCK:   -1.53 KCAL/MOL
REMARK 927      BINDING AFFINITY PREDICTED BY RF-SCORE:    0.00 PKD
ROOT
HETATM    1  I   UNL     1      -8.969   2.652  72.127  1.00  0.00    -0.160 I  
HETATM    2  I   UNL     2      -5.706   2.176  68.050  1.00  0.00    -0.020 I  
HETATM    3  I   UNL     3      -8.458   6.486  71.006  1.00  0.00    -0.126 I  
HETATM    4  C   UNL     4     -10.125   7.709  67.776  1.00  0.00    -0.237 C  
HETATM    5  C   UNL     4      -9.642   7.828  66.314  1.00  0.00    -0.108 C  
ENDROOT
BRANCH   5   6
HETATM    6  N   UNL     4      -8.153   7.889  66.105  1.00  0.00    -0.104 N  
BRANCH   6   7
HETATM    7  C   UNL     4      -7.638   6.481  65.928  1.00  0.00    -0.087 C  
HETATM    8  C   UNL     4      -7.981   5.478  67.048  1.00  0.00    -0.102 C  
ENDBRANCH   6   7
BRANCH   6   9
HETATM    9  C   UNL     4      -7.872   8.737  64.895  1.00  0.00    -0.120 C  
BRANCH   9  10
HETATM   10  C   UNL     4      -9.034   9.528  64.220  1.00  0.00    -0.205 C  
BRANCH  10  11
HETATM   11  O   UNL     4      -9.094  10.889  64.460  1.00  0.00    -0.199 OA 
BRANCH  11  12
HETATM   12  C   UNL     4     -10.164  11.721  64.537  1.00  0.00    -0.284 A  
HETATM   13  C   UNL     4     -11.136  11.669  63.528  1.00  0.00    -0.476 A  
HETATM   14  C   UNL     4     -12.216  12.510  63.531  1.00  0.00    -0.652 A  
HETATM   15  C   UNL     4     -12.398  13.391  64.565  1.00  0.00    -0.415 A  
HETATM   16  C   UNL     4     -11.484  13.493  65.654  1.00  0.00    -0.315 A  
HETATM   17  C   UNL     4     -10.320  12.651  65.641  1.00  0.00    -0.273 A  
BRANCH  16  18
HETATM   18  O   UNL     4     -11.759  14.366  66.690  1.00  0.00    -0.371 OA 
BRANCH  18  19
HETATM   19  C   UNL     4     -12.100  13.842  67.942  1.00  0.00    -0.287 C  
BRANCH  19  20
HETATM   20  C   UNL     4     -12.138  14.753  69.196  1.00  0.00    -0.243 C  
BRANCH  20  21
HETATM   21  N   UNL     4     -12.393  13.972  70.487  1.00  0.00    -0.346 N  
BRANCH  21  22
HETATM   22  C   UNL     4     -11.867  12.562  70.372  1.00  0.00    -0.160 C  
HETATM   23  C   UNL     4     -12.775  11.439  70.903  1.00  0.00    -0.397 C  
ENDBRANCH  21  22
BRANCH  21  24
HETATM   24  C   UNL     4     -13.879  13.884  70.746  1.00  0.00     0.508 C  
HETATM   25  C   UNL     4     -14.405  14.487  72.067  1.00  0.00    -0.639 C  
ENDBRANCH  21  24
BRANCH  21  26
HETATM   26  C   UNL     4     -11.689  14.633  71.639  1.00  0.00    -0.177 C  
HETATM   27  C   UNL     4     -11.692  16.171  71.647  1.00  0.00    -0.558 C  
ENDBRANCH  21  26
ENDBRANCH  20  21
ENDBRANCH  19  20
ENDBRANCH  18  19
ENDBRANCH  16  18
BRANCH  17  28
HETATM   28  O   UNL     4      -9.400  12.740  66.671  1.00  0.00    -0.238 OA 
BRANCH  28  29
HETATM   29  C   UNL     4      -8.435  13.743  66.776  1.00  0.00     0.032 C  
BRANCH  29  30
HETATM   30  C   UNL     4      -8.617  14.720  67.958  1.00  0.00    -0.166 C  
BRANCH  30  31
HETATM   31  N   UNL     4      -8.280  16.173  67.650  1.00  0.00    -0.145 N  
BRANCH  31  32
HETATM   32  C   UNL     4      -9.253  16.775  66.671  1.00  0.00    -0.256 C  
HETATM   33  C   UNL     4     -10.186  17.872  67.203  1.00  0.00    -0.355 C  
ENDBRANCH  31  32
BRANCH  31  34
HETATM   34  C   UNL     4      -6.901  16.229  67.054  1.00  0.00    -0.200 C  
HETATM   35  C   UNL     4      -6.685  17.268  65.931  1.00  0.00     0.013 C  
ENDBRANCH  31  34
BRANCH  31  36
HETATM   36  C   UNL     4      -8.347  17.010  68.911  1.00  0.00    -0.196 C  
HETATM   37  C   UNL     4      -7.151  17.944  69.195  1.00  0.00    -0.182 C  
ENDBRANCH  31  36
ENDBRANCH  30  31
ENDBRANCH  29  30
ENDBRANCH  28  29
ENDBRANCH  17  28
ENDBRANCH  11  12
ENDBRANCH  10  11
ENDBRANCH   9  10
ENDBRANCH   6   9
BRANCH   6  38
HETATM   38  C   UNL     4      -7.463   8.487  67.303  1.00  0.00    -0.093 C  
HETATM   39  C   UNL     4      -5.924   8.570  67.238  1.00  0.00    -0.051 C  
ENDBRANCH   6  38
ENDBRANCH   5   6
TORSDOF 21
ENDMDL
MODEL       31
REMARK 921   NORMALIZED FREE ENERGY PREDICTED BY IDOCK:   -3.38 KCAL/MOL
REMARK 922        TOTAL FREE ENERGY PREDICTED BY IDOCK:   -9.86 KCAL/MOL
REMARK 923 INTER-LIGAND FREE ENERGY PREDICTED BY IDOCK:   -7.24 KCAL/MOL
REMARK 924 INTRA-LIGAND FREE ENERGY PREDICTED BY IDOCK:   -2.61 KCAL/MOL
REMARK 927      BINDING AFFINITY PREDICTED BY RF-SCORE:    0.00 PKD
ROOT
HETATM    1  I   UNL     1      -9.998   2.391  73.402  1.00  0.00    -0.215 I  
HETATM    2  I   UNL     2      -9.005   2.464  68.253  1.00  0.00    -0.246 I  
HETATM    3  I   UNL     3      -7.326   5.389  73.102  1.00  0.00    -0.093 I  
HETATM    4  C   UNL     4      -8.439   8.713  71.546  1.00  0.00    -0.238 C  
HETATM    5  C   UNL     4      -8.368   9.288  70.115  1.00  0.00    -0.178 C  
ENDROOT
BRANCH   5   6
HETATM    6  N   UNL     4      -7.335   8.686  69.203  1.00  0.00    -0.074 N  
BRANCH   6   7
HETATM    7  C   UNL     4      -6.981   7.313  69.722  1.00  0.00    -0.057 C  
HETATM    8  C   UNL     4      -5.527   6.851  69.505  1.00  0.00    -0.015 C  
ENDBRANCH   6   7
BRANCH   6   9
HETATM    9  C   UNL     4      -7.902   8.622  67.811  1.00  0.00    -0.103 C  
BRANCH   9  10
HETATM   10  C   UNL     4      -7.681   9.815  66.831  1.00  0.00    -0.098 C  
BRANCH  10  11
HETATM   11  O   UNL     4      -8.489  10.926  66.999  1.00  0.00    -0.129 OA 
BRANCH  11  12
HETATM   12  C   UNL     4      -8.192  12.165  67.468  1.00  0.00    -0.167 A  
HETATM   13  C   UNL     4      -6.875  12.633  67.355  1.00  0.00    -0.141 A  
HETATM   14  C   UNL     4      -6.507  13.858  67.845  1.00  0.00    -0.168 A  
HETATM   15  C   UNL     4      -7.445  14.681  68.411  1.00  0.00    -0.117 A  
HETATM   16  C   UNL     4      -8.814  14.308  68.539  1.00  0.00    -0.176 A  
HETATM   17  C   UNL     4      -9.208  13.007  68.074  1.00  0.00    -0.212 A  
BRANCH  16  18
HETATM   18  O   UNL     4      -9.716  15.211  69.072  1.00  0.00    -0.216 OA 
BRANCH  18  19
HETATM   19  C   UNL     4      -9.396  16.574  69.056  1.00  0.00    -0.239 C  
BRANCH  19  20
HETATM   20  C   UNL     4      -9.721  17.446  67.817  1.00  0.00    -0.268 C  
BRANCH  20  21
HETATM   21  N   UNL     4      -9.010  18.801  67.845  1.00  0.00    -0.290 N  
BRANCH  21  22
HETATM   22  C   UNL     4      -9.306  19.534  69.132  1.00  0.00    -0.198 C  
HETATM   23  C   UNL     4     -10.785  19.830  69.436  1.00  0.00     0.698 C  
ENDBRANCH  21  22
BRANCH  21  24
HETATM   24  C   UNL     4      -9.506  19.662  66.707  1.00  0.00    -0.367 C  
HETATM   25  C   UNL     4     -10.552  19.042  65.754  1.00  0.00    -0.388 C  
ENDBRANCH  21  24
BRANCH  21  26
HETATM   26  C   UNL     4      -7.522  18.606  67.759  1.00  0.00    -0.227 C  
HETATM   27  C   UNL     4      -6.689  19.212  68.901  1.00  0.00    -0.336 C  
ENDBRANCH  21  26
ENDBRANCH  20  21
ENDBRANCH  19  20
ENDBRANCH  18  19
ENDBRANCH  16  18
BRANCH  17  28
HETATM   28  O   UNL     4     -10.525  12.603  68.203  1.00  0.00    -0.217 OA 
BRANCH  28  29
HETATM   29  C   UNL     4     -11.550  12.983  67.335  1.00  0.00    -0.356 C  
BRANCH  29  30
HETATM   30  C   UNL     4     -11.521  12.319  65.940  1.00  0.00    -0.376 C  
BRANCH  30  31
HETATM   31  N   UNL     4     -11.062  13.224  64.805  1.00  0.00    -0.326 N  
BRANCH  31  32
HETATM   32  C   UNL     4      -9.801  12.714  64.161  1.00  0.00    -0.047 C  
HETATM   33  C   UNL     4      -9.876  11.343  63.473  1.00  0.00    -0.404 C  
ENDBRANCH  31  32
BRANCH  31  34
HETATM   34  C   UNL     4     -10.796  14.595  65.363  1.00  0.00    -0.356 C  
HETATM   35  C   UNL     4     -11.440  15.777  64.606  1.00  0.00    -0.284 C  
ENDBRANCH  31  34
BRANCH  31  36
HETATM   36  C   UNL     4     -12.117  13.290  63.721  1.00  0.00    -0.482 C  
HETATM   37  C   UNL     4     -13.219  12.209  63.751  1.00  0.00     0.007 C  
ENDBRANCH  31  36
ENDBRANCH  30  31
ENDBRANCH  29  30
ENDBRANCH  28  29
ENDBRANCH  17  28
ENDBRANCH  11  12
ENDBRANCH  10  11
ENDBRANCH   9  10
ENDBRANCH   6   9
BRANCH   6  38
HETATM   38  C   UNL     4      -6.076   9.514  69.189  1.00  0.00    -0.041 C  
HETATM   39  C   UNL     4      -5.937  10.568  70.307  1.00  0.00    -0.104 C  
ENDBRANCH   6  38
ENDBRANCH   5   6
TORSDOF 21
ENDMDL
MODEL       32
REMARK 921   NORMALIZED FREE ENERGY PREDICTED BY IDOCK:   -3.36 KCAL/MOL
REMARK 922        TOTAL FREE ENERGY PREDICTED BY IDOCK:   -9.80 KCAL/MOL
REMARK 923 INTER-LIGAND FREE ENERGY PREDICTED BY IDOCK:   -7.82 KCAL/MOL
REMARK 924 INTRA-LIGAND FREE ENERGY PREDICTED BY IDOCK:   -1.98 KCAL/MOL
REMARK 927      BINDING AFFINITY PREDICTED BY RF-SCORE:    0.00 PKD
ROOT
HETATM    1  I   UNL     1      -6.294   9.486  64.224  1.00  0.00    -0.116 I  
HETATM    2  I   UNL     2      -5.142  12.912  68.023  1.00  0.00    -0.088 I  
HETATM    3  I   UNL     3      -9.770   9.702  66.245  1.00  0.00    -0.334 I  
HETATM    4  C   UNL     4     -11.908  12.868  65.919  1.00  0.00    -0.476 C  
HETATM    5  C   UNL     4     -12.017  14.163  66.753  1.00  0.00    -0.447 C  
ENDROOT
BRANCH   5   6
HETATM    6  N   UNL     4     -11.546  14.081  68.180  1.00  0.00    -0.314 N  
BRANCH   6   7
HETATM    7  C   UNL     4     -11.845  15.396  68.858  1.00  0.00    -0.329 C  
HETATM    8  C   UNL     4     -12.258  15.325  70.342  1.00  0.00    -0.404 C  
ENDBRANCH   6   7
BRANCH   6   9
HETATM    9  C   UNL     4     -12.254  12.938  68.854  1.00  0.00    -0.006 C  
BRANCH   9  10
HETATM   10  C   UNL     4     -11.423  11.822  69.559  1.00  0.00    -0.295 C  
BRANCH  10  11
HETATM   11  O   UNL     4     -11.914  11.330  70.755  1.00  0.00    -0.339 OA 
BRANCH  11  12
HETATM   12  C   UNL     4     -12.280  10.070  71.102  1.00  0.00    -0.380 A  
HETATM   13  C   UNL     4     -13.638   9.724  71.053  1.00  0.00    -0.170 A  
HETATM   14  C   UNL     4     -14.072   8.480  71.429  1.00  0.00    -0.360 A  
HETATM   15  C   UNL     4     -13.168   7.523  71.811  1.00  0.00    -0.364 A  
HETATM   16  C   UNL     4     -11.766   7.770  71.859  1.00  0.00    -0.292 A  
HETATM   17  C   UNL     4     -11.298   9.084  71.514  1.00  0.00    -0.346 A  
BRANCH  16  18
HETATM   18  O   UNL     4     -10.907   6.742  72.202  1.00  0.00    -0.217 OA 
BRANCH  18  19
HETATM   19  C   UNL     4     -10.957   5.549  71.471  1.00  0.00    -0.150 C  
BRANCH  19  20
HETATM   20  C   UNL     4      -9.685   4.991  70.783  1.00  0.00    -0.196 C  
BRANCH  20  21
HETATM   21  N   UNL     4      -9.182   3.698  71.429  1.00  0.00    -0.117 N  
BRANCH  21  22
HETATM   22  C   UNL     4      -8.924   2.642  70.381  1.00  0.00    -0.096 C  
HETATM   23  C   UNL     4      -9.149   3.052  68.915  1.00  0.00    -0.210 C  
ENDBRANCH  21  22
BRANCH  21  24
HETATM   24  C   UNL     4     -10.231   3.156  72.373  1.00  0.00    -0.127 C  
HETATM   25  C   UNL     4      -9.832   2.994  73.856  1.00  0.00    -0.149 C  
ENDBRANCH  21  24
BRANCH  21  26
HETATM   26  C   UNL     4      -7.891   3.951  72.155  1.00  0.00    -0.072 C  
HETATM   27  C   UNL     4      -6.603   3.563  71.408  1.00  0.00    -0.026 C  
ENDBRANCH  21  26
ENDBRANCH  20  21
ENDBRANCH  19  20
ENDBRANCH  18  19
ENDBRANCH  16  18
BRANCH  17  28
HETATM   28  O   UNL     4      -9.944   9.365  71.571  1.00  0.00    -0.266 OA 
BRANCH  28  29
HETATM   29  C   UNL     4      -8.963   8.642  70.890  1.00  0.00    -0.187 C  
BRANCH  29  30
HETATM   30  C   UNL     4      -7.850   9.487  70.232  1.00  0.00    -0.168 C  
BRANCH  30  31
HETATM   31  N   UNL     4      -6.616   8.706  69.803  1.00  0.00    -0.041 N  
BRANCH  31  32
HETATM   32  C   UNL     4      -6.632   7.300  70.343  1.00  0.00    -0.047 C  
HETATM   33  C   UNL     4      -5.783   7.025  71.593  1.00  0.00    -0.037 C  
ENDBRANCH  31  32
BRANCH  31  34
HETATM   34  C   UNL     4      -5.396   9.410  70.330  1.00  0.00    -0.027 C  
HETATM   35  C   UNL     4      -5.653  10.609  71.268  1.00  0.00     0.025 C  
ENDBRANCH  31  34
BRANCH  31  36
HETATM   36  C   UNL     4      -6.555   8.599  68.293  1.00  0.00    -0.061 C  
HETATM   37  C   UNL     4      -7.124   7.310  67.660  1.00  0.00    -0.085 C  
ENDBRANCH  31  36
ENDBRANCH  30  31
ENDBRANCH  29  30
ENDBRANCH  28  29
ENDBRANCH  17  28
ENDBRANCH  11  12
ENDBRANCH  10  11
ENDBRANCH   9  10
ENDBRANCH   6   9
BRANCH   6  38
HETATM   38  C   UNL     4     -10.059  13.853  68.247  1.00  0.00    -0.241 C  
HETATM   39  C   UNL     4      -9.303  13.857  66.902  1.00  0.00    -0.265 C  
ENDBRANCH   6  38
ENDBRANCH   5   6
TORSDOF 21
ENDMDL
MODEL       33
REMARK 921   NORMALIZED FREE ENERGY PREDICTED BY IDOCK:   -3.34 KCAL/MOL
REMARK 922        TOTAL FREE ENERGY PREDICTED BY IDOCK:   -9.77 KCAL/MOL
REMARK 923 INTER-LIGAND FREE ENERGY PREDICTED BY IDOCK:   -7.00 KCAL/MOL
REMARK 924 INTRA-LIGAND FREE ENERGY PREDICTED BY IDOCK:   -2.77 KCAL/MOL
REMARK 927      BINDING AFFINITY PREDICTED BY RF-SCORE:    0.00 PKD
ROOT
HETATM    1  I   UNL     1      -7.532   7.549  62.914  1.00  0.00    -0.123 I  
HETATM    2  I   UNL     2     -10.407   6.214  67.091  1.00  0.00    -0.417 I  
HETATM    3  I   UNL     3      -9.797  10.834  63.461  1.00  0.00    -0.286 I  
HETATM    4  C   UNL     4      -9.035  13.135  66.432  1.00  0.00     0.005 C  
HETATM    5  C   UNL     4      -9.589  13.226  67.871  1.00  0.00    -0.217 C  
ENDROOT
BRANCH   5   6
HETATM    6  N   UNL     4     -10.948  12.625  68.103  1.00  0.00    -0.225 N  
BRANCH   6   7
HETATM    7  C   UNL     4     -11.178  11.551  67.067  1.00  0.00    -0.300 C  
HETATM    8  C   UNL     4     -10.726  10.126  67.444  1.00  0.00    -0.336 C  
ENDBRANCH   6   7
BRANCH   6   9
HETATM    9  C   UNL     4     -10.994  12.066  69.499  1.00  0.00     0.007 C  
BRANCH   9  10
HETATM   10  C   UNL     4     -12.244  11.258  69.966  1.00  0.00    -0.314 C  
BRANCH  10  11
HETATM   11  O   UNL     4     -12.151  10.600  71.180  1.00  0.00    -0.349 OA 
BRANCH  11  12
HETATM   12  C   UNL     4     -12.125   9.273  71.460  1.00  0.00    -0.361 A  
HETATM   13  C   UNL     4     -13.325   8.549  71.421  1.00  0.00    -0.245 A  
HETATM   14  C   UNL     4     -13.366   7.216  71.732  1.00  0.00    -0.347 A  
HETATM   15  C   UNL     4     -12.211   6.544  72.035  1.00  0.00    -0.343 A  
HETATM   16  C   UNL     4     -10.939   7.186  72.066  1.00  0.00    -0.235 A  
HETATM   17  C   UNL     4     -10.884   8.594  71.789  1.00  0.00    -0.325 A  
BRANCH  16  18
HETATM   18  O   UNL     4      -9.807   6.435  72.327  1.00  0.00    -0.159 OA 
BRANCH  18  19
HETATM   19  C   UNL     4      -9.587   5.266  71.588  1.00  0.00    -0.152 C  
BRANCH  19  20
HETATM   20  C   UNL     4      -8.384   4.344  71.910  1.00  0.00    -0.106 C  
BRANCH  20  21
HETATM   21  N   UNL     4      -8.482   2.981  71.221  1.00  0.00    -0.063 N  
BRANCH  21  22
HETATM   22  C   UNL     4      -8.761   1.891  72.228  1.00  0.00    -0.064 C  
HETATM   23  C   UNL     4      -8.988   2.335  73.683  1.00  0.00    -0.072 C  
ENDBRANCH  21  22
BRANCH  21  24
HETATM   24  C   UNL     4      -7.170   2.653  70.547  1.00  0.00    -0.033 C  
HETATM   25  C   UNL     4      -6.091   1.954  71.402  1.00  0.00    -0.014 C  
ENDBRANCH  21  24
BRANCH  21  26
HETATM   26  C   UNL     4      -9.608   2.986  70.225  1.00  0.00    -0.090 C  
HETATM   27  C   UNL     4      -9.223   2.715  68.761  1.00  0.00    -0.228 C  
ENDBRANCH  21  26
ENDBRANCH  20  21
ENDBRANCH  19  20
ENDBRANCH  18  19
ENDBRANCH  16  18
BRANCH  17  28
HETATM   28  O   UNL     4      -9.668   9.253  71.832  1.00  0.00    -0.260 OA 
BRANCH  28  29
HETATM   29  C   UNL     4      -8.833   9.432  70.727  1.00  0.00    -0.171 C  
BRANCH  29  30
HETATM   30  C   UNL     4      -7.838   8.283  70.451  1.00  0.00    -0.089 C  
BRANCH  30  31
HETATM   31  N   UNL     4      -6.790   8.580  69.388  1.00  0.00    -0.045 N  
BRANCH  31  32
HETATM   32  C   UNL     4      -6.549   7.390  68.497  1.00  0.00    -0.049 C  
HETATM   33  C   UNL     4      -7.035   6.026  69.010  1.00  0.00    -0.068 C  
ENDBRANCH  31  32
BRANCH  31  34
HETATM   34  C   UNL     4      -5.500   8.938  70.073  1.00  0.00    -0.028 C  
HETATM   35  C   UNL     4      -5.125   8.089  71.307  1.00  0.00    -0.026 C  
ENDBRANCH  31  34
BRANCH  31  36
HETATM   36  C   UNL     4      -7.249   9.714  68.495  1.00  0.00    -0.070 C  
HETATM   37  C   UNL     4      -7.049   9.532  66.974  1.00  0.00    -0.086 C  
ENDBRANCH  31  36
ENDBRANCH  30  31
ENDBRANCH  29  30
ENDBRANCH  28  29
ENDBRANCH  17  28
ENDBRANCH  11  12
ENDBRANCH  10  11
ENDBRANCH   9  10
ENDBRANCH   6   9
BRANCH   6  38
HETATM   38  C   UNL     4     -12.032  13.659  67.945  1.00  0.00    -0.347 C  
HETATM   39  C   UNL     4     -12.536  13.911  66.509  1.00  0.00    -0.364 C  
ENDBRANCH   6  38
ENDBRANCH   5   6
TORSDOF 21
ENDMDL
MODEL       34
REMARK 921   NORMALIZED FREE ENERGY PREDICTED BY IDOCK:   -3.34 KCAL/MOL
REMARK 922        TOTAL FREE ENERGY PREDICTED BY IDOCK:   -9.76 KCAL/MOL
REMARK 923 INTER-LIGAND FREE ENERGY PREDICTED BY IDOCK:   -7.52 KCAL/MOL
REMARK 924 INTRA-LIGAND FREE ENERGY PREDICTED BY IDOCK:   -2.24 KCAL/MOL
REMARK 927      BINDING AFFINITY PREDICTED BY RF-SCORE:    0.00 PKD
ROOT
HETATM    1  I   UNL     1     -11.961  15.088  72.553  1.00  0.00    -0.285 I  
HETATM    2  I   UNL     2      -8.060  14.107  69.189  1.00  0.00     0.459 I  
HETATM    3  I   UNL     3     -12.898  11.402  71.229  1.00  0.00    -0.115 I  
HETATM    4  C   UNL     4     -10.797   8.420  72.412  1.00  0.00    -0.416 C  
HETATM    5  C   UNL     4      -9.574   7.686  71.821  1.00  0.00    -0.149 C  
ENDROOT
BRANCH   5   6
HETATM    6  N   UNL     4      -9.359   7.830  70.339  1.00  0.00    -0.160 N  
BRANCH   6   7
HETATM    7  C   UNL     4     -10.246   6.835  69.629  1.00  0.00    -0.187 C  
HETATM    8  C   UNL     4     -10.192   5.381  70.139  1.00  0.00    -0.342 C  
ENDBRANCH   6   7
BRANCH   6   9
HETATM    9  C   UNL     4      -9.685   9.244  69.941  1.00  0.00    -0.201 C  
BRANCH   9  10
HETATM   10  C   UNL     4     -10.555   9.508  68.674  1.00  0.00    -0.210 C  
BRANCH  10  11
HETATM   11  O   UNL     4     -10.118  10.491  67.803  1.00  0.00    -0.166 OA 
BRANCH  11  12
HETATM   12  C   UNL     4     -10.677  11.682  67.470  1.00  0.00    -0.215 A  
HETATM   13  C   UNL     4     -11.684  12.209  68.292  1.00  0.00    -0.401 A  
HETATM   14  C   UNL     4     -12.312  13.387  67.985  1.00  0.00     0.061 A  
HETATM   15  C   UNL     4     -11.924  14.107  66.886  1.00  0.00    -0.479 A  
HETATM   16  C   UNL     4     -10.888  13.670  66.012  1.00  0.00    -0.275 A  
HETATM   17  C   UNL     4     -10.251  12.414  66.291  1.00  0.00    -0.238 A  
BRANCH  16  18
HETATM   18  O   UNL     4     -10.511  14.475  64.952  1.00  0.00    -0.418 OA 
BRANCH  18  19
HETATM   19  C   UNL     4      -9.833  15.670  65.219  1.00  0.00    -0.115 C  
BRANCH  19  20
HETATM   20  C   UNL     4     -10.340  16.638  66.318  1.00  0.00    -0.317 C  
BRANCH  20  21
HETATM   21  N   UNL     4      -9.259  17.611  66.794  1.00  0.00    -0.263 N  
BRANCH  21  22
HETATM   22  C   UNL     4      -7.884  17.020  66.597  1.00  0.00    -0.264 C  
HETATM   23  C   UNL     4      -6.816  17.942  65.982  1.00  0.00    -0.336 C  
ENDBRANCH  21  22
BRANCH  21  24
HETATM   24  C   UNL     4      -9.431  17.882  68.270  1.00  0.00    -0.300 C  
HETATM   25  C   UNL     4     -10.520  17.080  69.016  1.00  0.00    -0.337 C  
ENDBRANCH  21  24
BRANCH  21  26
HETATM   26  C   UNL     4      -9.328  18.887  66.004  1.00  0.00    -0.047 C  
HETATM   27  C   UNL     4     -10.732  19.475  65.780  1.00  0.00    -0.490 C  
ENDBRANCH  21  26
ENDBRANCH  20  21
ENDBRANCH  19  20
ENDBRANCH  18  19
ENDBRANCH  16  18
BRANCH  17  28
HETATM   28  O   UNL     4      -9.255  11.949  65.450  1.00  0.00    -0.109 OA 
BRANCH  28  29
HETATM   29  C   UNL     4      -9.370  10.806  64.656  1.00  0.00    -0.233 C  
BRANCH  29  30
HETATM   30  C   UNL     4      -8.038  10.120  64.280  1.00  0.00    -0.159 C  
BRANCH  30  31
HETATM   31  N   UNL     4      -7.576   9.039  65.247  1.00  0.00    -0.096 N  
BRANCH  31  32
HETATM   32  C   UNL     4      -6.549   8.134  64.620  1.00  0.00    -0.064 C  
HETATM   33  C   UNL     4      -6.031   8.527  63.229  1.00  0.00    -0.077 C  
ENDBRANCH  31  32
BRANCH  31  34
HETATM   34  C   UNL     4      -8.766   8.211  65.646  1.00  0.00    -0.145 C  
HETATM   35  C   UNL     4      -8.470   6.954  66.492  1.00  0.00    -0.125 C  
ENDBRANCH  31  34
BRANCH  31  36
HETATM   36  C   UNL     4      -6.930   9.661  66.467  1.00  0.00    -0.085 C  
HETATM   37  C   UNL     4      -5.623  10.452  66.242  1.00  0.00    -0.065 C  
ENDBRANCH  31  36
ENDBRANCH  30  31
ENDBRANCH  29  30
ENDBRANCH  28  29
ENDBRANCH  17  28
ENDBRANCH  11  12
ENDBRANCH  10  11
ENDBRANCH   9  10
ENDBRANCH   6   9
BRANCH   6  38
HETATM   38  C   UNL     4      -7.932   7.525  69.966  1.00  0.00    -0.112 C  
HETATM   39  C   UNL     4      -6.921   8.681  70.119  1.00  0.00    -0.043 C  
ENDBRANCH   6  38
ENDBRANCH   5   6
TORSDOF 21
ENDMDL
MODEL       35
REMARK 921   NORMALIZED FREE ENERGY PREDICTED BY IDOCK:   -3.27 KCAL/MOL
REMARK 922        TOTAL FREE ENERGY PREDICTED BY IDOCK:   -9.59 KCAL/MOL
REMARK 923 INTER-LIGAND FREE ENERGY PREDICTED BY IDOCK:   -6.62 KCAL/MOL
REMARK 924 INTRA-LIGAND FREE ENERGY PREDICTED BY IDOCK:   -2.97 KCAL/MOL
REMARK 927      BINDING AFFINITY PREDICTED BY RF-SCORE:    0.00 PKD
ROOT
HETATM    1  I   UNL     1      -5.606  17.674  67.134  1.00  0.00    -0.207 I  
HETATM    2  I   UNL     2     -10.633  16.960  65.822  1.00  0.00     0.134 I  
HETATM    3  I   UNL     3      -6.354  14.012  68.632  1.00  0.00    -0.127 I  
HETATM    4  C   UNL     4      -6.724  11.061  66.211  1.00  0.00    -0.103 C  
HETATM    5  C   UNL     4      -7.940  10.393  65.534  1.00  0.00    -0.153 C  
ENDROOT
BRANCH   5   6
HETATM    6  N   UNL     4      -9.274  10.602  66.198  1.00  0.00    -0.167 N  
BRANCH   6   7
HETATM    7  C   UNL     4     -10.105  11.511  65.326  1.00  0.00    -0.269 C  
HETATM    8  C   UNL     4     -10.399  11.012  63.898  1.00  0.00    -0.436 C  
ENDBRANCH   6   7
BRANCH   6   9
HETATM    9  C   UNL     4      -9.932   9.262  66.386  1.00  0.00    -0.286 C  
BRANCH   9  10
HETATM   10  C   UNL     4      -9.229   7.975  65.856  1.00  0.00    -0.067 C  
BRANCH  10  11
HETATM   11  O   UNL     4      -8.984   6.967  66.772  1.00  0.00    -0.122 OA 
BRANCH  11  12
HETATM   12  C   UNL     4      -8.068   6.890  67.770  1.00  0.00    -0.114 A  
HETATM   13  C   UNL     4      -6.747   7.279  67.506  1.00  0.00    -0.065 A  
HETATM   14  C   UNL     4      -5.770   7.186  68.462  1.00  0.00    -0.022 A  
HETATM   15  C   UNL     4      -6.084   6.760  69.726  1.00  0.00    -0.027 A  
HETATM   16  C   UNL     4      -7.404   6.377  70.099  1.00  0.00    -0.086 A  
HETATM   17  C   UNL     4      -8.431   6.422  69.095  1.00  0.00    -0.122 A  
BRANCH  16  18
HETATM   18  O   UNL     4      -7.659   6.009  71.407  1.00  0.00    -0.094 OA 
BRANCH  18  19
HETATM   19  C   UNL     4      -7.580   4.655  71.755  1.00  0.00    -0.091 C  
BRANCH  19  20
HETATM   20  C   UNL     4      -7.977   4.181  73.176  1.00  0.00    -0.089 C  
BRANCH  20  21
HETATM   21  N   UNL     4      -9.187   3.243  73.170  1.00  0.00    -0.090 N  
BRANCH  21  22
HETATM   22  C   UNL     4      -9.653   2.981  71.759  1.00  0.00    -0.154 C  
HETATM   23  C   UNL     4      -9.625   1.518  71.281  1.00  0.00    -0.200 C  
ENDBRANCH  21  22
BRANCH  21  24
HETATM   24  C   UNL     4     -10.334   3.884  73.917  1.00  0.00    -0.176 C  
HETATM   25  C   UNL     4     -11.531   4.385  73.080  1.00  0.00    -0.236 C  
ENDBRANCH  21  24
BRANCH  21  26
HETATM   26  C   UNL     4      -8.820   1.922  73.786  1.00  0.00    -0.058 C  
HETATM   27  C   UNL     4      -7.442   1.846  74.464  1.00  0.00    -0.033 C  
ENDBRANCH  21  26
ENDBRANCH  20  21
ENDBRANCH  19  20
ENDBRANCH  18  19
ENDBRANCH  16  18
BRANCH  17  28
HETATM   28  O   UNL     4      -9.721   6.036  69.417  1.00  0.00    -0.137 OA 
BRANCH  28  29
HETATM   29  C   UNL     4     -10.783   6.923  69.597  1.00  0.00    -0.245 C  
BRANCH  29  30
HETATM   30  C   UNL     4     -10.583   7.986  70.701  1.00  0.00    -0.219 C  
BRANCH  30  31
HETATM   31  N   UNL     4     -11.793   8.225  71.593  1.00  0.00    -0.284 N  
BRANCH  31  32
HETATM   32  C   UNL     4     -12.267   9.652  71.518  1.00  0.00    -0.399 C  
HETATM   33  C   UNL     4     -12.327  10.294  70.125  1.00  0.00    -0.213 C  
ENDBRANCH  31  32
BRANCH  31  34
HETATM   34  C   UNL     4     -11.408   7.919  73.014  1.00  0.00    -0.236 C  
HETATM   35  C   UNL     4      -9.932   7.531  73.253  1.00  0.00    -0.368 C  
ENDBRANCH  31  34
BRANCH  31  36
HETATM   36  C   UNL     4     -12.951   7.351  71.158  1.00  0.00    -0.240 C  
HETATM   37  C   UNL     4     -14.292   7.547  71.899  1.00  0.00    -0.520 C  
ENDBRANCH  31  36
ENDBRANCH  30  31
ENDBRANCH  29  30
ENDBRANCH  28  29
ENDBRANCH  17  28
ENDBRANCH  11  12
ENDBRANCH  10  11
ENDBRANCH   9  10
ENDBRANCH   6   9
BRANCH   6  38
HETATM   38  C   UNL     4      -9.111  11.268  67.540  1.00  0.00    -0.151 C  
HETATM   39  C   UNL     4      -8.845  10.337  68.741  1.00  0.00    -0.148 C  
ENDBRANCH   6  38
ENDBRANCH   5   6
TORSDOF 21
ENDMDL
MODEL       36
REMARK 921   NORMALIZED FREE ENERGY PREDICTED BY IDOCK:   -3.26 KCAL/MOL
REMARK 922        TOTAL FREE ENERGY PREDICTED BY IDOCK:   -9.59 KCAL/MOL
REMARK 923 INTER-LIGAND FREE ENERGY PREDICTED BY IDOCK:   -7.02 KCAL/MOL
REMARK 924 INTRA-LIGAND FREE ENERGY PREDICTED BY IDOCK:   -2.57 KCAL/MOL
REMARK 927      BINDING AFFINITY PREDICTED BY RF-SCORE:    0.00 PKD
ROOT
HETATM    1  I   UNL     1     -12.658  12.745  71.272  1.00  0.00     0.136 I  
HETATM    2  I   UNL     2      -8.152  11.678  68.812  1.00  0.00     0.146 I  
HETATM    3  I   UNL     3     -12.503   8.727  71.504  1.00  0.00    -0.376 I  
HETATM    4  C   UNL     4      -9.990   7.107  73.905  1.00  0.00    -0.360 C  
HETATM    5  C   UNL     4      -8.554   6.569  73.730  1.00  0.00    -0.123 C  
ENDROOT
BRANCH   5   6
HETATM    6  N   UNL     4      -8.145   6.198  72.331  1.00  0.00    -0.105 N  
BRANCH   6   7
HETATM    7  C   UNL     4      -8.897   4.953  71.928  1.00  0.00    -0.128 C  
HETATM    8  C   UNL     4      -9.983   5.126  70.847  1.00  0.00    -0.280 C  
ENDBRANCH   6   7
BRANCH   6   9
HETATM    9  C   UNL     4      -8.456   7.352  71.417  1.00  0.00    -0.113 C  
BRANCH   9  10
HETATM   10  C   UNL     4      -7.465   7.717  70.270  1.00  0.00    -0.079 C  
BRANCH  10  11
HETATM   11  O   UNL     4      -7.849   7.397  68.979  1.00  0.00    -0.115 OA 
BRANCH  11  12
HETATM   12  C   UNL     4      -8.759   7.987  68.162  1.00  0.00    -0.126 A  
HETATM   13  C   UNL     4     -10.038   8.263  68.664  1.00  0.00    -0.212 A  
HETATM   14  C   UNL     4     -11.010   8.821  67.875  1.00  0.00     0.056 A  
HETATM   15  C   UNL     4     -10.726   9.174  66.582  1.00  0.00    -0.049 A  
HETATM   16  C   UNL     4      -9.445   8.964  65.994  1.00  0.00    -0.252 A  
HETATM   17  C   UNL     4      -8.429   8.337  66.792  1.00  0.00    -0.122 A  
BRANCH  16  18
HETATM   18  O   UNL     4      -9.214   9.395  64.701  1.00  0.00    -0.220 OA 
BRANCH  18  19
HETATM   19  C   UNL     4      -9.274  10.766  64.424  1.00  0.00    -0.221 C  
BRANCH  19  20
HETATM   20  C   UNL     4      -9.687  11.776  65.525  1.00  0.00    -0.224 C  
BRANCH  20  21
HETATM   21  N   UNL     4     -10.754  12.765  65.050  1.00  0.00    -0.287 N  
BRANCH  21  22
HETATM   22  C   UNL     4     -11.180  12.454  63.636  1.00  0.00    -0.474 C  
HETATM   23  C   UNL     4     -12.627  11.969  63.439  1.00  0.00    -0.592 C  
ENDBRANCH  21  22
BRANCH  21  24
HETATM   24  C   UNL     4     -10.191  14.167  65.058  1.00  0.00    -0.370 C  
HETATM   25  C   UNL     4     -11.164  15.323  64.738  1.00  0.00    -0.405 C  
ENDBRANCH  21  24
BRANCH  21  26
HETATM   26  C   UNL     4     -11.971  12.673  65.927  1.00  0.00    -0.438 C  
HETATM   27  C   UNL     4     -11.751  12.930  67.427  1.00  0.00    -0.428 C  
ENDBRANCH  21  26
ENDBRANCH  20  21
ENDBRANCH  19  20
ENDBRANCH  18  19
ENDBRANCH  16  18
BRANCH  17  28
HETATM   28  O   UNL     4      -7.180   8.098  66.246  1.00  0.00    -0.075 OA 
BRANCH  28  29
HETATM   29  C   UNL     4      -6.711   6.834  65.885  1.00  0.00    -0.052 C  
BRANCH  29  30
HETATM   30  C   UNL     4      -7.601   6.053  64.893  1.00  0.00    -0.092 C  
BRANCH  30  31
HETATM   31  N   UNL     4      -8.039   4.675  65.368  1.00  0.00    -0.105 N  
BRANCH  31  32
HETATM   32  C   UNL     4      -6.862   3.815  65.744  1.00  0.00    -0.057 C  
HETATM   33  C   UNL     4      -7.069   2.812  66.888  1.00  0.00    -0.049 C  
ENDBRANCH  31  32
BRANCH  31  34
HETATM   34  C   UNL     4      -8.792   4.001  64.254  1.00  0.00    -0.130 C  
HETATM   35  C   UNL     4      -8.780   4.722  62.889  1.00  0.00    -0.126 C  
ENDBRANCH  31  34
BRANCH  31  36
HETATM   36  C   UNL     4      -8.911   4.793  66.601  1.00  0.00    -0.111 C  
HETATM   37  C   UNL     4     -10.410   5.089  66.373  1.00  0.00    -0.335 C  
ENDBRANCH  31  36
ENDBRANCH  30  31
ENDBRANCH  29  30
ENDBRANCH  28  29
ENDBRANCH  17  28
ENDBRANCH  11  12
ENDBRANCH  10  11
ENDBRANCH   9  10
ENDBRANCH   6   9
BRANCH   6  38
HETATM   38  C   UNL     4      -6.672   5.891  72.261  1.00  0.00    -0.072 C  
HETATM   39  C   UNL     4      -5.843   6.212  73.522  1.00  0.00    -0.053 C  
ENDBRANCH   6  38
ENDBRANCH   5   6
TORSDOF 21
ENDMDL
MODEL       37
REMARK 921   NORMALIZED FREE ENERGY PREDICTED BY IDOCK:   -3.22 KCAL/MOL
REMARK 922        TOTAL FREE ENERGY PREDICTED BY IDOCK:   -9.49 KCAL/MOL
REMARK 923 INTER-LIGAND FREE ENERGY PREDICTED BY IDOCK:   -7.69 KCAL/MOL
REMARK 924 INTRA-LIGAND FREE ENERGY PREDICTED BY IDOCK:   -1.80 KCAL/MOL
REMARK 927      BINDING AFFINITY PREDICTED BY RF-SCORE:    0.00 PKD
ROOT
HETATM    1  I   UNL     1      -6.695   6.616  72.852  1.00  0.00    -0.068 I  
HETATM    2  I   UNL     2     -10.991   6.370  69.856  1.00  0.00    -0.488 I  
HETATM    3  I   UNL     3      -5.127   6.407  69.149  1.00  0.00    -0.013 I  
HETATM    4  C   UNL     4      -5.370   9.473  66.859  1.00  0.00    -0.045 C  
HETATM    5  C   UNL     4      -6.379   9.908  65.775  1.00  0.00    -0.084 C  
ENDROOT
BRANCH   5   6
HETATM    6  N   UNL     4      -7.206   8.815  65.155  1.00  0.00    -0.086 N  
BRANCH   6   7
HETATM    7  C   UNL     4      -6.783   7.497  65.756  1.00  0.00    -0.045 C  
HETATM    8  C   UNL     4      -7.827   6.363  65.727  1.00  0.00    -0.104 C  
ENDBRANCH   6   7
BRANCH   6   9
HETATM    9  C   UNL     4      -8.659   9.103  65.419  1.00  0.00    -0.169 C  
BRANCH   9  10
HETATM   10  C   UNL     4      -9.086   9.731  66.781  1.00  0.00    -0.146 C  
BRANCH  10  11
HETATM   11  O   UNL     4      -9.609  11.012  66.748  1.00  0.00    -0.185 OA 
BRANCH  11  12
HETATM   12  C   UNL     4      -9.133  12.169  67.274  1.00  0.00    -0.181 A  
HETATM   13  C   UNL     4      -7.750  12.401  67.254  1.00  0.00    -0.158 A  
HETATM   14  C   UNL     4      -7.208  13.532  67.805  1.00  0.00    -0.157 A  
HETATM   15  C   UNL     4      -8.023  14.494  68.342  1.00  0.00    -0.141 A  
HETATM   16  C   UNL     4      -9.441  14.363  68.377  1.00  0.00    -0.207 A  
HETATM   17  C   UNL     4     -10.024  13.162  67.847  1.00  0.00    -0.233 A  
BRANCH  16  18
HETATM   18  O   UNL     4     -10.205  15.398  68.885  1.00  0.00    -0.203 OA 
BRANCH  18  19
HETATM   19  C   UNL     4     -10.471  16.505  68.070  1.00  0.00    -0.313 C  
BRANCH  19  20
HETATM   20  C   UNL     4      -9.629  16.767  66.795  1.00  0.00    -0.249 C  
BRANCH  20  21
HETATM   21  N   UNL     4      -8.686  17.963  66.945  1.00  0.00    -0.239 N  
BRANCH  21  22
HETATM   22  C   UNL     4      -8.528  18.340  68.399  1.00  0.00    -0.303 C  
HETATM   23  C   UNL     4      -7.145  18.857  68.833  1.00  0.00    -0.354 C  
ENDBRANCH  21  22
BRANCH  21  24
HETATM   24  C   UNL     4      -9.260  19.160  66.224  1.00  0.00    -0.313 C  
HETATM   25  C   UNL     4     -10.791  19.354  66.283  1.00  0.00    -0.414 C  
ENDBRANCH  21  24
BRANCH  21  26
HETATM   26  C   UNL     4      -7.325  17.618  66.409  1.00  0.00    -0.288 C  
HETATM   27  C   UNL     4      -6.756  18.563  65.337  1.00  0.00    -0.215 C  
ENDBRANCH  21  26
ENDBRANCH  20  21
ENDBRANCH  19  20
ENDBRANCH  18  19
ENDBRANCH  16  18
BRANCH  17  28
HETATM   28  O   UNL     4     -11.397  12.992  67.884  1.00  0.00    -0.255 OA 
BRANCH  28  29
HETATM   29  C   UNL     4     -12.125  12.752  69.051  1.00  0.00    -0.144 C  
BRANCH  29  30
HETATM   30  C   UNL     4     -12.392  11.265  69.373  1.00  0.00    -0.149 C  
BRANCH  30  31
HETATM   31  N   UNL     4     -12.446  10.927  70.857  1.00  0.00    -0.375 N  
BRANCH  31  32
HETATM   32  C   UNL     4     -11.231  10.156  71.298  1.00  0.00    -0.072 C  
HETATM   33  C   UNL     4     -10.122   9.949  70.256  1.00  0.00    -0.295 C  
ENDBRANCH  31  32
BRANCH  31  34
HETATM   34  C   UNL     4     -13.667  10.087  71.112  1.00  0.00    -0.007 C  
HETATM   35  C   UNL     4     -13.517   8.969  72.167  1.00  0.00    -0.514 C  
ENDBRANCH  31  34
BRANCH  31  36
HETATM   36  C   UNL     4     -12.492  12.194  71.686  1.00  0.00     0.049 C  
HETATM   37  C   UNL     4     -13.877  12.645  72.198  1.00  0.00    -0.263 C  
ENDBRANCH  31  36
ENDBRANCH  30  31
ENDBRANCH  29  30
ENDBRANCH  28  29
ENDBRANCH  17  28
ENDBRANCH  11  12
ENDBRANCH  10  11
ENDBRANCH   9  10
ENDBRANCH   6   9
BRANCH   6  38
HETATM   38  C   UNL     4      -6.977   8.741  63.667  1.00  0.00    -0.088 C  
HETATM   39  C   UNL     4      -8.176   9.106  62.769  1.00  0.00    -0.175 C  
ENDBRANCH   6  38
ENDBRANCH   5   6
TORSDOF 21
ENDMDL
MODEL       38
REMARK 921   NORMALIZED FREE ENERGY PREDICTED BY IDOCK:   -3.21 KCAL/MOL
REMARK 922        TOTAL FREE ENERGY PREDICTED BY IDOCK:   -9.46 KCAL/MOL
REMARK 923 INTER-LIGAND FREE ENERGY PREDICTED BY IDOCK:   -6.88 KCAL/MOL
REMARK 924 INTRA-LIGAND FREE ENERGY PREDICTED BY IDOCK:   -2.58 KCAL/MOL
REMARK 927      BINDING AFFINITY PREDICTED BY RF-SCORE:    0.00 PKD
ROOT
HETATM    1  I   UNL     1      -7.645  20.447  68.864  1.00  0.00     0.806 I  
HETATM    2  I   UNL     2      -5.128  16.025  67.596  1.00  0.00    -0.001 I  
HETATM    3  I   UNL     3     -10.426  18.482  66.713  1.00  0.00    -0.294 I  
HETATM    4  C   UNL     4     -12.157  15.434  68.268  1.00  0.00     0.039 C  
HETATM    5  C   UNL     4     -11.882  13.916  68.210  1.00  0.00    -0.376 C  
ENDROOT
BRANCH   5   6
HETATM    6  N   UNL     4     -11.074  13.428  67.040  1.00  0.00    -0.287 N  
BRANCH   6   7
HETATM    7  C   UNL     4     -10.341  14.604  66.441  1.00  0.00    -0.289 C  
HETATM    8  C   UNL     4      -8.803  14.579  66.545  1.00  0.00    -0.156 C  
ENDBRANCH   6   7
BRANCH   6   9
HETATM    9  C   UNL     4     -10.120  12.369  67.522  1.00  0.00    -0.202 C  
BRANCH   9  10
HETATM   10  C   UNL     4     -10.323  11.730  68.930  1.00  0.00    -0.128 C  
BRANCH  10  11
HETATM   11  O   UNL     4     -11.056  10.558  68.991  1.00  0.00    -0.219 OA 
BRANCH  11  12
HETATM   12  C   UNL     4     -11.615   9.926  70.054  1.00  0.00    -0.175 A  
HETATM   13  C   UNL     4     -12.578  10.605  70.815  1.00  0.00    -0.479 A  
HETATM   14  C   UNL     4     -13.148  10.033  71.921  1.00  0.00    -0.563 A  
HETATM   15  C   UNL     4     -12.824   8.749  72.276  1.00  0.00    -0.465 A  
HETATM   16  C   UNL     4     -11.883   7.968  71.544  1.00  0.00    -0.292 A  
HETATM   17  C   UNL     4     -11.240   8.569  70.409  1.00  0.00    -0.211 A  
BRANCH  16  18
HETATM   18  O   UNL     4     -11.645   6.661  71.927  1.00  0.00    -0.272 OA 
BRANCH  18  19
HETATM   19  C   UNL     4     -11.133   6.414  73.207  1.00  0.00    -0.108 C  
BRANCH  19  20
HETATM   20  C   UNL     4      -9.910   5.481  73.401  1.00  0.00    -0.162 C  
BRANCH  20  21
HETATM   21  N   UNL     4      -8.609   6.095  72.878  1.00  0.00    -0.123 N  
BRANCH  21  22
HETATM   22  C   UNL     4      -8.660   7.602  72.955  1.00  0.00    -0.143 C  
HETATM   23  C   UNL     4      -7.687   8.375  72.047  1.00  0.00    -0.163 C  
ENDBRANCH  21  22
BRANCH  21  24
HETATM   24  C   UNL     4      -8.414   5.719  71.428  1.00  0.00    -0.128 C  
HETATM   25  C   UNL     4      -9.261   4.550  70.879  1.00  0.00    -0.201 C  
ENDBRANCH  21  24
BRANCH  21  26
HETATM   26  C   UNL     4      -7.448   5.631  73.711  1.00  0.00    -0.090 C  
HETATM   27  C   UNL     4      -7.130   4.127  73.661  1.00  0.00    -0.061 C  
ENDBRANCH  21  26
ENDBRANCH  20  21
ENDBRANCH  19  20
ENDBRANCH  18  19
ENDBRANCH  16  18
BRANCH  17  28
HETATM   28  O   UNL     4     -10.305   7.846  69.689  1.00  0.00    -0.207 OA 
BRANCH  28  29
HETATM   29  C   UNL     4     -10.616   7.016  68.611  1.00  0.00    -0.210 C  
BRANCH  29  30
HETATM   30  C   UNL     4     -10.147   7.517  67.228  1.00  0.00    -0.231 C  
BRANCH  30  31
HETATM   31  N   UNL     4      -8.998   6.731  66.613  1.00  0.00    -0.138 N  
BRANCH  31  32
HETATM   32  C   UNL     4      -8.808   7.068  65.158  1.00  0.00     0.263 C  
HETATM   33  C   UNL     4      -7.465   7.697  64.759  1.00  0.00    -0.094 C  
ENDBRANCH  31  32
BRANCH  31  34
HETATM   34  C   UNL     4      -9.306   5.263  66.730  1.00  0.00    -0.134 C  
HETATM   35  C   UNL     4     -10.489   4.744  65.884  1.00  0.00    -0.313 C  
ENDBRANCH  31  34
BRANCH  31  36
HETATM   36  C   UNL     4      -7.697   7.057  67.316  1.00  0.00    -0.109 C  
HETATM   37  C   UNL     4      -6.992   5.900  68.057  1.00  0.00    -0.069 C  
ENDBRANCH  31  36
ENDBRANCH  30  31
ENDBRANCH  29  30
ENDBRANCH  28  29
ENDBRANCH  17  28
ENDBRANCH  11  12
ENDBRANCH  10  11
ENDBRANCH   9  10
ENDBRANCH   6   9
BRANCH   6  38
HETATM   38  C   UNL     4     -11.964  12.845  65.972  1.00  0.00    -0.446 C  
HETATM   39  C   UNL     4     -12.151  13.693  64.698  1.00  0.00    -0.449 C  
ENDBRANCH   6  38
ENDBRANCH   5   6
TORSDOF 21
ENDMDL
MODEL       39
REMARK 921   NORMALIZED FREE ENERGY PREDICTED BY IDOCK:   -3.20 KCAL/MOL
REMARK 922        TOTAL FREE ENERGY PREDICTED BY IDOCK:   -9.45 KCAL/MOL
REMARK 923 INTER-LIGAND FREE ENERGY PREDICTED BY IDOCK:   -6.81 KCAL/MOL
REMARK 924 INTRA-LIGAND FREE ENERGY PREDICTED BY IDOCK:   -2.64 KCAL/MOL
REMARK 927      BINDING AFFINITY PREDICTED BY RF-SCORE:    0.00 PKD
ROOT
HETATM    1  I   UNL     1     -10.045  18.488  66.555  1.00  0.00    -0.453 I  
HETATM    2  I   UNL     2     -11.926  14.072  64.443  1.00  0.00    -0.352 I  
HETATM    3  I   UNL     3      -8.564  15.675  69.028  1.00  0.00    -0.250 I  
HETATM    4  C   UNL     4      -5.711  13.435  67.786  1.00  0.00    -0.112 C  
HETATM    5  C   UNL     4      -5.670  12.041  67.124  1.00  0.00    -0.142 C  
ENDROOT
BRANCH   5   6
HETATM    6  N   UNL     4      -6.872  11.163  67.341  1.00  0.00    -0.083 N  
BRANCH   6   7
HETATM    7  C   UNL     4      -6.761   9.968  66.426  1.00  0.00    -0.088 C  
HETATM    8  C   UNL     4      -5.461   9.848  65.606  1.00  0.00    -0.053 C  
ENDBRANCH   6   7
BRANCH   6   9
HETATM    9  C   UNL     4      -6.910  10.750  68.787  1.00  0.00    -0.067 C  
BRANCH   9  10
HETATM   10  C   UNL     4      -6.607   9.270  69.176  1.00  0.00    -0.049 C  
BRANCH  10  11
HETATM   11  O   UNL     4      -7.692   8.452  69.434  1.00  0.00    -0.093 OA 
BRANCH  11  12
HETATM   12  C   UNL     4      -8.776   8.654  70.226  1.00  0.00    -0.147 A  
HETATM   13  C   UNL     4      -8.662   8.415  71.603  1.00  0.00    -0.240 A  
HETATM   14  C   UNL     4      -9.732   8.564  72.445  1.00  0.00    -0.357 A  
HETATM   15  C   UNL     4     -10.933   9.009  71.959  1.00  0.00    -0.355 A  
HETATM   16  C   UNL     4     -11.136   9.310  70.581  1.00  0.00    -0.276 A  
HETATM   17  C   UNL     4     -10.039   9.114  69.676  1.00  0.00    -0.198 A  
BRANCH  16  18
HETATM   18  O   UNL     4     -12.360   9.806  70.169  1.00  0.00    -0.022 OA 
BRANCH  18  19
HETATM   19  C   UNL     4     -12.723  11.105  70.545  1.00  0.00    -0.218 C  
BRANCH  19  20
HETATM   20  C   UNL     4     -11.718  12.276  70.408  1.00  0.00    -0.037 C  
BRANCH  20  21
HETATM   21  N   UNL     4     -12.389  13.648  70.518  1.00  0.00    -0.355 N  
BRANCH  21  22
HETATM   22  C   UNL     4     -13.826  13.506  70.958  1.00  0.00     0.515 C  
HETATM   23  C   UNL     4     -14.128  13.788  72.440  1.00  0.00    -0.593 C  
ENDBRANCH  21  22
BRANCH  21  24
HETATM   24  C   UNL     4     -12.390  14.325  69.167  1.00  0.00    -0.130 C  
HETATM   25  C   UNL     4     -11.763  13.552  67.987  1.00  0.00    -0.394 C  
ENDBRANCH  21  24
BRANCH  21  26
HETATM   26  C   UNL     4     -11.677  14.491  71.538  1.00  0.00    -0.119 C  
HETATM   27  C   UNL     4     -11.729  16.013  71.320  1.00  0.00    -0.516 C  
ENDBRANCH  21  26
ENDBRANCH  20  21
ENDBRANCH  19  20
ENDBRANCH  18  19
ENDBRANCH  16  18
BRANCH  17  28
HETATM   28  O   UNL     4     -10.208   9.376  68.327  1.00  0.00    -0.180 OA 
BRANCH  28  29
HETATM   29  C   UNL     4     -10.523   8.407  67.374  1.00  0.00    -0.283 C  
BRANCH  29  30
HETATM   30  C   UNL     4      -9.370   8.004  66.428  1.00  0.00    -0.200 C  
BRANCH  30  31
HETATM   31  N   UNL     4      -9.065   6.513  66.383  1.00  0.00    -0.153 N  
BRANCH  31  32
HETATM   32  C   UNL     4     -10.282   5.685  66.699  1.00  0.00    -0.229 C  
HETATM   33  C   UNL     4     -10.247   4.863  67.995  1.00  0.00    -0.105 C  
ENDBRANCH  31  32
BRANCH  31  34
HETATM   34  C   UNL     4      -8.000   6.211  67.402  1.00  0.00    -0.105 C  
HETATM   35  C   UNL     4      -6.776   5.418  66.894  1.00  0.00    -0.062 C  
ENDBRANCH  31  34
BRANCH  31  36
HETATM   36  C   UNL     4      -8.603   6.109  64.998  1.00  0.00    -0.008 C  
HETATM   37  C   UNL     4      -8.077   7.234  64.080  1.00  0.00    -0.021 C  
ENDBRANCH  31  36
ENDBRANCH  30  31
ENDBRANCH  29  30
ENDBRANCH  28  29
ENDBRANCH  17  28
ENDBRANCH  11  12
ENDBRANCH  10  11
ENDBRANCH   9  10
ENDBRANCH   6   9
BRANCH   6  38
HETATM   38  C   UNL     4      -8.145  11.892  66.999  1.00  0.00    -0.167 C  
HETATM   39  C   UNL     4      -8.889  11.417  65.734  1.00  0.00    -0.115 C  
ENDBRANCH   6  38
ENDBRANCH   5   6
TORSDOF 21
ENDMDL
MODEL       40
REMARK 921   NORMALIZED FREE ENERGY PREDICTED BY IDOCK:   -3.16 KCAL/MOL
REMARK 922        TOTAL FREE ENERGY PREDICTED BY IDOCK:   -9.36 KCAL/MOL
REMARK 923 INTER-LIGAND FREE ENERGY PREDICTED BY IDOCK:   -8.53 KCAL/MOL
REMARK 924 INTRA-LIGAND FREE ENERGY PREDICTED BY IDOCK:   -0.84 KCAL/MOL
REMARK 927      BINDING AFFINITY PREDICTED BY RF-SCORE:    0.00 PKD
ROOT
HETATM    1  I   UNL     1      -9.092   1.708  68.289  1.00  0.00    -0.237 I  
HETATM    2  I   UNL     2      -8.237   2.789  63.230  1.00  0.00    -0.086 I  
HETATM    3  I   UNL     3      -7.287   5.302  68.490  1.00  0.00    -0.072 I  
HETATM    4  C   UNL     4      -9.243   8.419  67.413  1.00  0.00    -0.163 C  
HETATM    5  C   UNL     4      -9.347   9.198  66.084  1.00  0.00    -0.228 C  
ENDROOT
BRANCH   5   6
HETATM    6  N   UNL     4      -8.209   9.022  65.116  1.00  0.00    -0.136 N  
BRANCH   6   7
HETATM    7  C   UNL     4      -8.195   7.586  64.650  1.00  0.00    -0.049 C  
HETATM    8  C   UNL     4      -6.881   7.081  64.023  1.00  0.00    -0.051 C  
ENDBRANCH   6   7
BRANCH   6   9
HETATM    9  C   UNL     4      -8.404   9.974  63.967  1.00  0.00    -0.170 C  
BRANCH   9  10
HETATM   10  C   UNL     4      -9.623  10.947  63.968  1.00  0.00    -0.278 C  
BRANCH  10  11
HETATM   11  O   UNL     4      -9.564  12.030  64.827  1.00  0.00    -0.138 OA 
BRANCH  11  12
HETATM   12  C   UNL     4     -10.556  12.813  65.323  1.00  0.00    -0.290 A  
HETATM   13  C   UNL     4     -11.868  12.604  64.876  1.00  0.00    -0.436 A  
HETATM   14  C   UNL     4     -12.904  13.389  65.311  1.00  0.00    -0.398 A  
HETATM   15  C   UNL     4     -12.681  14.366  66.245  1.00  0.00     0.035 A  
HETATM   16  C   UNL     4     -11.389  14.629  66.784  1.00  0.00    -0.356 A  
HETATM   17  C   UNL     4     -10.283  13.848  66.304  1.00  0.00    -0.297 A  
BRANCH  16  18
HETATM   18  O   UNL     4     -11.247  15.595  67.763  1.00  0.00    -0.329 OA 
BRANCH  18  19
HETATM   19  C   UNL     4     -11.980  15.467  68.949  1.00  0.00    -0.273 C  
BRANCH  19  20
HETATM   20  C   UNL     4     -11.861  14.187  69.816  1.00  0.00    -0.322 C  
BRANCH  20  21
HETATM   21  N   UNL     4     -12.475  14.357  71.208  1.00  0.00    -0.331 N  
BRANCH  21  22
HETATM   22  C   UNL     4     -11.655  15.314  72.041  1.00  0.00    -0.444 C  
HETATM   23  C   UNL     4     -11.823  15.221  73.567  1.00  0.00    -0.415 C  
ENDBRANCH  21  22
BRANCH  21  24
HETATM   24  C   UNL     4     -12.491  13.027  71.925  1.00  0.00     0.181 C  
HETATM   25  C   UNL     4     -13.867  12.371  72.169  1.00  0.00    -0.109 C  
ENDBRANCH  21  24
BRANCH  21  26
HETATM   26  C   UNL     4     -13.864  14.920  71.095  1.00  0.00    -0.358 C  
HETATM   27  C   UNL     4     -14.319  15.845  72.237  1.00  0.00    -0.168 C  
ENDBRANCH  21  26
ENDBRANCH  20  21
ENDBRANCH  19  20
ENDBRANCH  18  19
ENDBRANCH  16  18
BRANCH  17  28
HETATM   28  O   UNL     4      -9.011  14.092  66.790  1.00  0.00    -0.242 OA 
BRANCH  28  29
HETATM   29  C   UNL     4      -8.340  15.309  66.654  1.00  0.00    -0.181 C  
BRANCH  29  30
HETATM   30  C   UNL     4      -8.269  16.175  67.931  1.00  0.00    -0.153 C  
BRANCH  30  31
HETATM   31  N   UNL     4      -7.427  17.438  67.807  1.00  0.00    -0.185 N  
BRANCH  31  32
HETATM   32  C   UNL     4      -8.265  18.681  67.947  1.00  0.00    -0.265 C  
HETATM   33  C   UNL     4      -9.772  18.484  68.163  1.00  0.00    -0.367 C  
ENDBRANCH  31  32
BRANCH  31  34
HETATM   34  C   UNL     4      -6.775  17.448  66.452  1.00  0.00    -0.262 C  
HETATM   35  C   UNL     4      -6.853  18.776  65.667  1.00  0.00    -0.289 C  
ENDBRANCH  31  34
BRANCH  31  36
HETATM   36  C   UNL     4      -6.380  17.485  68.900  1.00  0.00    -0.211 C  
HETATM   37  C   UNL     4      -5.868  18.881  69.318  1.00  0.00    -0.242 C  
ENDBRANCH  31  36
ENDBRANCH  30  31
ENDBRANCH  29  30
ENDBRANCH  28  29
ENDBRANCH  17  28
ENDBRANCH  11  12
ENDBRANCH  10  11
ENDBRANCH   9  10
ENDBRANCH   6   9
BRANCH   6  38
HETATM   38  C   UNL     4      -6.886   9.307  65.778  1.00  0.00    -0.084 C  
HETATM   39  C   UNL     4      -6.036  10.434  65.157  1.00  0.00    -0.124 C  
ENDBRANCH   6  38
ENDBRANCH   5   6
TORSDOF 21
ENDMDL
MODEL       41
REMARK 921   NORMALIZED FREE ENERGY PREDICTED BY IDOCK:   -3.08 KCAL/MOL
REMARK 922        TOTAL FREE ENERGY PREDICTED BY IDOCK:   -9.19 KCAL/MOL
REMARK 923 INTER-LIGAND FREE ENERGY PREDICTED BY IDOCK:   -6.69 KCAL/MOL
REMARK 924 INTRA-LIGAND FREE ENERGY PREDICTED BY IDOCK:   -2.50 KCAL/MOL
REMARK 927      BINDING AFFINITY PREDICTED BY RF-SCORE:    0.00 PKD
ROOT
HETATM    1  I   UNL     1      -9.087  10.599  62.526  1.00  0.00    -0.324 I  
HETATM    2  I   UNL     2     -10.635   9.970  67.497  1.00  0.00    -0.279 I  
HETATM    3  I   UNL     3      -6.293   8.081  63.965  1.00  0.00    -0.063 I  
HETATM    4  C   UNL     4      -7.260   4.432  64.640  1.00  0.00    -0.066 C  
HETATM    5  C   UNL     4      -7.747   3.681  65.897  1.00  0.00    -0.089 C  
ENDROOT
BRANCH   5   6
HETATM    6  N   UNL     4      -7.419   4.313  67.223  1.00  0.00    -0.076 N  
BRANCH   6   7
HETATM    7  C   UNL     4      -6.199   3.629  67.789  1.00  0.00    -0.033 C  
HETATM    8  C   UNL     4      -5.614   4.230  69.083  1.00  0.00    -0.016 C  
ENDBRANCH   6   7
BRANCH   6   9
HETATM    9  C   UNL     4      -7.179   5.783  67.007  1.00  0.00    -0.075 C  
BRANCH   9  10
HETATM   10  C   UNL     4      -7.896   6.824  67.920  1.00  0.00    -0.113 C  
BRANCH  10  11
HETATM   11  O   UNL     4      -7.094   7.632  68.706  1.00  0.00    -0.075 OA 
BRANCH  11  12
HETATM   12  C   UNL     4      -6.663   8.904  68.504  1.00  0.00    -0.060 A  
HETATM   13  C   UNL     4      -5.852   9.175  67.393  1.00  0.00    -0.046 A  
HETATM   14  C   UNL     4      -5.356  10.431  67.160  1.00  0.00    -0.041 A  
HETATM   15  C   UNL     4      -5.694  11.468  67.989  1.00  0.00    -0.043 A  
HETATM   16  C   UNL     4      -6.540  11.298  69.123  1.00  0.00    -0.088 A  
HETATM   17  C   UNL     4      -7.031   9.978  69.409  1.00  0.00    -0.069 A  
BRANCH  16  18
HETATM   18  O   UNL     4      -6.883  12.400  69.884  1.00  0.00     0.113 OA 
BRANCH  18  19
HETATM   19  C   UNL     4      -7.462  13.506  69.249  1.00  0.00     0.221 C  
BRANCH  19  20
HETATM   20  C   UNL     4      -8.606  13.316  68.221  1.00  0.00    -0.169 C  
BRANCH  20  21
HETATM   21  N   UNL     4      -9.569  14.506  68.182  1.00  0.00    -0.206 N  
BRANCH  21  22
HETATM   22  C   UNL     4     -10.973  14.069  68.526  1.00  0.00    -0.256 C  
HETATM   23  C   UNL     4     -11.997  14.062  67.378  1.00  0.00    -0.439 C  
ENDBRANCH  21  22
BRANCH  21  24
HETATM   24  C   UNL     4      -9.602  15.091  66.790  1.00  0.00    -0.245 C  
HETATM   25  C   UNL     4      -8.356  15.873  66.321  1.00  0.00    -0.235 C  
ENDBRANCH  21  24
BRANCH  21  26
HETATM   26  C   UNL     4      -9.151  15.542  69.187  1.00  0.00    -0.248 C  
HETATM   27  C   UNL     4     -10.190  16.626  69.521  1.00  0.00    -0.191 C  
ENDBRANCH  21  26
ENDBRANCH  20  21
ENDBRANCH  19  20
ENDBRANCH  18  19
ENDBRANCH  16  18
BRANCH  17  28
HETATM   28  O   UNL     4      -7.837   9.773  70.515  1.00  0.00    -0.214 OA 
BRANCH  28  29
HETATM   29  C   UNL     4      -9.218   9.577  70.454  1.00  0.00    -0.253 C  
BRANCH  29  30
HETATM   30  C   UNL     4      -9.720   8.215  70.982  1.00  0.00    -0.162 C  
BRANCH  30  31
HETATM   31  N   UNL     4     -11.172   8.197  71.439  1.00  0.00    -0.248 N  
BRANCH  31  32
HETATM   32  C   UNL     4     -11.791   9.569  71.381  1.00  0.00    -0.389 C  
HETATM   33  C   UNL     4     -13.165   9.741  72.045  1.00  0.00    -0.557 C  
ENDBRANCH  31  32
BRANCH  31  34
HETATM   34  C   UNL     4     -11.221   7.707  72.860  1.00  0.00    -0.372 C  
HETATM   35  C   UNL     4      -9.871   7.646  73.608  1.00  0.00    -0.302 C  
ENDBRANCH  31  34
BRANCH  31  36
HETATM   36  C   UNL     4     -11.999   7.301  70.541  1.00  0.00    -0.160 C  
HETATM   37  C   UNL     4     -11.228   6.347  69.603  1.00  0.00    -0.483 C  
ENDBRANCH  31  36
ENDBRANCH  30  31
ENDBRANCH  29  30
ENDBRANCH  28  29
ENDBRANCH  17  28
ENDBRANCH  11  12
ENDBRANCH  10  11
ENDBRANCH   9  10
ENDBRANCH   6   9
BRANCH   6  38
HETATM   38  C   UNL     4      -8.549   4.132  68.203  1.00  0.00    -0.096 C  
HETATM   39  C   UNL     4      -9.213   2.741  68.235  1.00  0.00    -0.250 C  
ENDBRANCH   6  38
ENDBRANCH   5   6
TORSDOF 21
ENDMDL
MODEL       42
REMARK 921   NORMALIZED FREE ENERGY PREDICTED BY IDOCK:   -3.07 KCAL/MOL
REMARK 922        TOTAL FREE ENERGY PREDICTED BY IDOCK:   -9.15 KCAL/MOL
REMARK 923 INTER-LIGAND FREE ENERGY PREDICTED BY IDOCK:   -7.50 KCAL/MOL
REMARK 924 INTRA-LIGAND FREE ENERGY PREDICTED BY IDOCK:   -1.65 KCAL/MOL
REMARK 927      BINDING AFFINITY PREDICTED BY RF-SCORE:    0.00 PKD
ROOT
HETATM    1  I   UNL     1      -7.661   7.986  64.480  1.00  0.00    -0.131 I  
HETATM    2  I   UNL     2      -5.926  10.486  68.750  1.00  0.00    -0.039 I  
HETATM    3  I   UNL     3      -7.809   5.087  67.270  1.00  0.00    -0.095 I  
HETATM    4  C   UNL     4     -10.537   5.243  69.960  1.00  0.00    -0.300 C  
HETATM    5  C   UNL     4     -10.580   5.817  71.393  1.00  0.00    -0.253 C  
ENDROOT
BRANCH   5   6
HETATM    6  N   UNL     4      -9.255   5.990  72.084  1.00  0.00    -0.146 N  
BRANCH   6   7
HETATM    7  C   UNL     4      -8.841   4.659  72.664  1.00  0.00    -0.114 C  
HETATM    8  C   UNL     4      -7.670   3.940  71.966  1.00  0.00    -0.067 C  
ENDBRANCH   6   7
BRANCH   6   9
HETATM    9  C   UNL     4      -8.252   6.491  71.081  1.00  0.00    -0.121 C  
BRANCH   9  10
HETATM   10  C   UNL     4      -8.189   8.013  70.746  1.00  0.00    -0.113 C  
BRANCH  10  11
HETATM   11  O   UNL     4      -9.054   8.480  69.772  1.00  0.00    -0.149 OA 
BRANCH  11  12
HETATM   12  C   UNL     4     -10.071   9.375  69.856  1.00  0.00    -0.218 A  
HETATM   13  C   UNL     4     -10.819   9.438  71.040  1.00  0.00    -0.406 A  
HETATM   14  C   UNL     4     -11.882  10.293  71.169  1.00  0.00    -0.455 A  
HETATM   15  C   UNL     4     -12.200  11.152  70.150  1.00  0.00    -0.417 A  
HETATM   16  C   UNL     4     -11.477  11.186  68.923  1.00  0.00    -0.295 A  
HETATM   17  C   UNL     4     -10.390  10.263  68.752  1.00  0.00    -0.195 A  
BRANCH  16  18
HETATM   18  O   UNL     4     -11.821  12.117  67.960  1.00  0.00    -0.390 OA 
BRANCH  18  19
HETATM   19  C   UNL     4     -11.610  13.475  68.227  1.00  0.00    -0.346 C  
BRANCH  19  20
HETATM   20  C   UNL     4     -10.524  13.921  69.238  1.00  0.00     0.024 C  
BRANCH  20  21
HETATM   21  N   UNL     4      -9.395  14.718  68.579  1.00  0.00    -0.194 N  
BRANCH  21  22
HETATM   22  C   UNL     4      -9.291  16.097  69.184  1.00  0.00    -0.238 C  
HETATM   23  C   UNL     4     -10.613  16.809  69.518  1.00  0.00    -0.283 C  
ENDBRANCH  21  22
BRANCH  21  24
HETATM   24  C   UNL     4      -9.680  14.886  67.106  1.00  0.00    -0.228 C  
HETATM   25  C   UNL     4      -8.974  16.050  66.376  1.00  0.00    -0.354 C  
ENDBRANCH  21  24
BRANCH  21  26
HETATM   26  C   UNL     4      -8.079  14.022  68.793  1.00  0.00    -0.065 C  
HETATM   27  C   UNL     4      -6.843  14.928  68.918  1.00  0.00    -0.104 C  
ENDBRANCH  21  26
ENDBRANCH  20  21
ENDBRANCH  19  20
ENDBRANCH  18  19
ENDBRANCH  16  18
BRANCH  17  28
HETATM   28  O   UNL     4      -9.680  10.253  67.564  1.00  0.00    -0.164 OA 
BRANCH  28  29
HETATM   29  C   UNL     4     -10.258  10.419  66.305  1.00  0.00    -0.222 C  
BRANCH  29  30
HETATM   30  C   UNL     4      -9.913  11.740  65.583  1.00  0.00    -0.240 C  
BRANCH  30  31
HETATM   31  N   UNL     4     -10.723  12.017  64.324  1.00  0.00    -0.308 N  
BRANCH  31  32
HETATM   32  C   UNL     4     -12.157  11.587  64.478  1.00  0.00     0.213 C  
HETATM   33  C   UNL     4     -13.029  11.605  63.214  1.00  0.00     0.071 C  
ENDBRANCH  31  32
BRANCH  31  34
HETATM   34  C   UNL     4     -10.111  11.252  63.183  1.00  0.00    -0.345 C  
HETATM   35  C   UNL     4      -8.576  11.349  63.041  1.00  0.00     0.114 C  
ENDBRANCH  31  34
BRANCH  31  36
HETATM   36  C   UNL     4     -10.737  13.501  64.019  1.00  0.00    -0.051 C  
HETATM   37  C   UNL     4     -11.817  14.350  64.725  1.00  0.00    -0.439 C  
ENDBRANCH  31  36
ENDBRANCH  30  31
ENDBRANCH  29  30
ENDBRANCH  28  29
ENDBRANCH  17  28
ENDBRANCH  11  12
ENDBRANCH  10  11
ENDBRANCH   9  10
ENDBRANCH   6   9
BRANCH   6  38
HETATM   38  C   UNL     4      -9.360   6.976  73.218  1.00  0.00    -0.153 C  
HETATM   39  C   UNL     4     -10.784   7.316  73.702  1.00  0.00    -0.282 C  
ENDBRANCH   6  38
ENDBRANCH   5   6
TORSDOF 21
ENDMDL
MODEL       43
REMARK 921   NORMALIZED FREE ENERGY PREDICTED BY IDOCK:   -3.06 KCAL/MOL
REMARK 922        TOTAL FREE ENERGY PREDICTED BY IDOCK:   -9.15 KCAL/MOL
REMARK 923 INTER-LIGAND FREE ENERGY PREDICTED BY IDOCK:   -5.96 KCAL/MOL
REMARK 924 INTRA-LIGAND FREE ENERGY PREDICTED BY IDOCK:   -3.19 KCAL/MOL
REMARK 927      BINDING AFFINITY PREDICTED BY RF-SCORE:    0.00 PKD
ROOT
HETATM    1  I   UNL     1     -13.174  14.103  72.324  1.00  0.00    -0.626 I  
HETATM    2  I   UNL     2     -10.762  16.322  68.230  1.00  0.00    -0.338 I  
HETATM    3  I   UNL     3     -12.326  10.913  70.018  1.00  0.00    -0.180 I  
HETATM    4  C   UNL     4      -8.690   9.722  69.769  1.00  0.00    -0.228 C  
HETATM    5  C   UNL     4      -7.546  10.012  68.773  1.00  0.00    -0.083 C  
ENDROOT
BRANCH   5   6
HETATM    6  N   UNL     4      -7.955  10.503  67.411  1.00  0.00    -0.110 N  
BRANCH   6   7
HETATM    7  C   UNL     4      -7.600  11.967  67.304  1.00  0.00    -0.154 C  
HETATM    8  C   UNL     4      -6.894  12.592  68.524  1.00  0.00    -0.090 C  
ENDBRANCH   6   7
BRANCH   6   9
HETATM    9  C   UNL     4      -7.240   9.684  66.370  1.00  0.00    -0.094 C  
BRANCH   9  10
HETATM   10  C   UNL     4      -6.250   8.564  66.815  1.00  0.00    -0.055 C  
BRANCH  10  11
HETATM   11  O   UNL     4      -6.678   7.255  66.682  1.00  0.00    -0.057 OA 
BRANCH  11  12
HETATM   12  C   UNL     4      -6.763   6.261  67.602  1.00  0.00    -0.061 A  
HETATM   13  C   UNL     4      -5.600   5.860  68.273  1.00  0.00    -0.008 A  
HETATM   14  C   UNL     4      -5.617   4.836  69.183  1.00  0.00    -0.012 A  
HETATM   15  C   UNL     4      -6.798   4.216  69.499  1.00  0.00    -0.045 A  
HETATM   16  C   UNL     4      -8.037   4.578  68.895  1.00  0.00    -0.077 A  
HETATM   17  C   UNL     4      -8.029   5.617  67.904  1.00  0.00    -0.097 A  
BRANCH  16  18
HETATM   18  O   UNL     4      -9.199   3.947  69.301  1.00  0.00    -0.126 OA 
BRANCH  18  19
HETATM   19  C   UNL     4      -9.919   4.483  70.375  1.00  0.00    -0.213 C  
BRANCH  19  20
HETATM   20  C   UNL     4      -9.377   4.372  71.823  1.00  0.00    -0.140 C  
BRANCH  20  21
HETATM   21  N   UNL     4      -9.787   5.558  72.700  1.00  0.00    -0.161 N  
BRANCH  21  22
HETATM   22  C   UNL     4     -10.909   5.170  73.633  1.00  0.00    -0.305 C  
HETATM   23  C   UNL     4     -11.092   3.668  73.909  1.00  0.00    -0.224 C  
ENDBRANCH  21  22
BRANCH  21  24
HETATM   24  C   UNL     4     -10.287   6.688  71.831  1.00  0.00    -0.198 C  
HETATM   25  C   UNL     4     -10.925   7.900  72.543  1.00  0.00    -0.412 C  
ENDBRANCH  21  24
BRANCH  21  26
HETATM   26  C   UNL     4      -8.624   6.005  73.540  1.00  0.00    -0.119 C  
HETATM   27  C   UNL     4      -7.223   5.694  72.986  1.00  0.00    -0.090 C  
ENDBRANCH  21  26
ENDBRANCH  20  21
ENDBRANCH  19  20
ENDBRANCH  18  19
ENDBRANCH  16  18
BRANCH  17  28
HETATM   28  O   UNL     4      -9.211   5.979  67.281  1.00  0.00    -0.115 OA 
BRANCH  28  29
HETATM   29  C   UNL     4      -9.554   5.616  65.977  1.00  0.00    -0.080 C  
BRANCH  29  30
HETATM   30  C   UNL     4      -9.751   4.103  65.738  1.00  0.00    -0.204 C  
BRANCH  30  31
HETATM   31  N   UNL     4      -8.631   3.421  64.964  1.00  0.00    -0.105 N  
BRANCH  31  32
HETATM   32  C   UNL     4      -9.161   2.634  63.795  1.00  0.00    -0.099 C  
HETATM   33  C   UNL     4     -10.586   2.958  63.326  1.00  0.00    -0.222 C  
ENDBRANCH  31  32
BRANCH  31  34
HETATM   34  C   UNL     4      -7.911   2.481  65.891  1.00  0.00    -0.082 C  
HETATM   35  C   UNL     4      -8.801   1.543  66.736  1.00  0.00    -0.127 C  
ENDBRANCH  31  34
BRANCH  31  36
HETATM   36  C   UNL     4      -7.672   4.451  64.405  1.00  0.00    -0.081 C  
HETATM   37  C   UNL     4      -6.497   3.924  63.552  1.00  0.00    -0.030 C  
ENDBRANCH  31  36
ENDBRANCH  30  31
ENDBRANCH  29  30
ENDBRANCH  28  29
ENDBRANCH  17  28
ENDBRANCH  11  12
ENDBRANCH  10  11
ENDBRANCH   9  10
ENDBRANCH   6   9
BRANCH   6  38
HETATM   38  C   UNL     4      -9.442  10.372  67.212  1.00  0.00    -0.154 C  
HETATM   39  C   UNL     4      -9.908   9.287  66.218  1.00  0.00    -0.361 C  
ENDBRANCH   6  38
ENDBRANCH   5   6
TORSDOF 21
ENDMDL
MODEL       44
REMARK 921   NORMALIZED FREE ENERGY PREDICTED BY IDOCK:   -3.06 KCAL/MOL
REMARK 922        TOTAL FREE ENERGY PREDICTED BY IDOCK:   -9.13 KCAL/MOL
REMARK 923 INTER-LIGAND FREE ENERGY PREDICTED BY IDOCK:   -6.76 KCAL/MOL
REMARK 924 INTRA-LIGAND FREE ENERGY PREDICTED BY IDOCK:   -2.37 KCAL/MOL
REMARK 927      BINDING AFFINITY PREDICTED BY RF-SCORE:    0.00 PKD
ROOT
HETATM    1  I   UNL     1      -5.467  20.719  66.428  1.00  0.00    -0.289 I  
HETATM    2  I   UNL     2     -10.573  20.238  65.334  1.00  0.00     1.372 I  
HETATM    3  I   UNL     3      -6.783  18.493  69.515  1.00  0.00     0.137 I  
HETATM    4  C   UNL     4      -7.704  14.823  68.893  1.00  0.00    -0.146 C  
HETATM    5  C   UNL     4      -9.031  14.105  68.568  1.00  0.00    -0.174 C  
ENDROOT
BRANCH   5   6
HETATM    6  N   UNL     4     -10.294  14.828  68.949  1.00  0.00    -0.238 N  
BRANCH   6   7
HETATM    7  C   UNL     4     -10.329  16.146  68.214  1.00  0.00    -0.266 C  
HETATM    8  C   UNL     4     -10.601  16.079  66.698  1.00  0.00    -0.297 C  
ENDBRANCH   6   7
BRANCH   6   9
HETATM    9  C   UNL     4     -11.471  13.963  68.591  1.00  0.00    -0.298 C  
BRANCH   9  10
HETATM   10  C   UNL     4     -11.983  12.897  69.607  1.00  0.00    -0.292 C  
BRANCH  10  11
HETATM   11  O   UNL     4     -11.240  11.736  69.732  1.00  0.00    -0.202 OA 
BRANCH  11  12
HETATM   12  C   UNL     4     -11.524  10.577  70.377  1.00  0.00    -0.341 A  
HETATM   13  C   UNL     4     -12.721  10.481  71.101  1.00  0.00    -0.518 A  
HETATM   14  C   UNL     4     -13.043   9.351  71.804  1.00  0.00    -0.488 A  
HETATM   15  C   UNL     4     -12.216   8.258  71.766  1.00  0.00    -0.367 A  
HETATM   16  C   UNL     4     -10.996   8.248  71.030  1.00  0.00    -0.245 A  
HETATM   17  C   UNL     4     -10.620   9.442  70.326  1.00  0.00    -0.250 A  
BRANCH  16  18
HETATM   18  O   UNL     4     -10.238   7.092  70.992  1.00  0.00    -0.197 OA 
BRANCH  18  19
HETATM   19  C   UNL     4     -10.664   6.031  70.184  1.00  0.00    -0.311 C  
BRANCH  19  20
HETATM   20  C   UNL     4      -9.907   4.679  70.194  1.00  0.00    -0.236 C  
BRANCH  20  21
HETATM   21  N   UNL     4      -9.163   4.408  68.883  1.00  0.00    -0.128 N  
BRANCH  21  22
HETATM   22  C   UNL     4      -7.681   4.641  69.051  1.00  0.00    -0.071 C  
HETATM   23  C   UNL     4      -7.201   5.062  70.451  1.00  0.00    -0.054 C  
ENDBRANCH  21  22
BRANCH  21  24
HETATM   24  C   UNL     4      -9.655   5.354  67.812  1.00  0.00    -0.128 C  
HETATM   25  C   UNL     4     -10.245   4.726  66.531  1.00  0.00    -0.294 C  
ENDBRANCH  21  24
BRANCH  21  26
HETATM   26  C   UNL     4      -9.359   2.978  68.464  1.00  0.00    -0.180 C  
HETATM   27  C   UNL     4      -8.103   2.090  68.466  1.00  0.00    -0.068 C  
ENDBRANCH  21  26
ENDBRANCH  20  21
ENDBRANCH  19  20
ENDBRANCH  18  19
ENDBRANCH  16  18
BRANCH  17  28
HETATM   28  O   UNL     4      -9.430   9.473  69.619  1.00  0.00    -0.173 OA 
BRANCH  28  29
HETATM   29  C   UNL     4      -9.170   8.699  68.487  1.00  0.00    -0.138 C  
BRANCH  29  30
HETATM   30  C   UNL     4      -9.905   9.134  67.200  1.00  0.00    -0.195 C  
BRANCH  30  31
HETATM   31  N   UNL     4      -9.080   9.984  66.244  1.00  0.00    -0.147 N  
BRANCH  31  32
HETATM   32  C   UNL     4      -9.496  11.430  66.284  1.00  0.00    -0.209 C  
HETATM   33  C   UNL     4     -10.769  11.811  65.514  1.00  0.00    -0.329 C  
ENDBRANCH  31  32
BRANCH  31  34
HETATM   34  C   UNL     4      -9.282   9.465  64.846  1.00  0.00    -0.183 C  
HETATM   35  C   UNL     4      -8.132   9.727  63.849  1.00  0.00    -0.150 C  
ENDBRANCH  31  34
BRANCH  31  36
HETATM   36  C   UNL     4      -7.614   9.935  66.621  1.00  0.00    -0.103 C  
HETATM   37  C   UNL     4      -6.959  11.264  67.056  1.00  0.00    -0.126 C  
ENDBRANCH  31  36
ENDBRANCH  30  31
ENDBRANCH  29  30
ENDBRANCH  28  29
ENDBRANCH  17  28
ENDBRANCH  11  12
ENDBRANCH  10  11
ENDBRANCH   9  10
ENDBRANCH   6   9
BRANCH   6  38
HETATM   38  C   UNL     4     -10.324  15.122  70.427  1.00  0.00     0.012 C  
HETATM   39  C   UNL     4     -11.424  16.088  70.912  1.00  0.00    -0.451 C  
ENDBRANCH   6  38
ENDBRANCH   5   6
TORSDOF 21
ENDMDL
MODEL       45
REMARK 921   NORMALIZED FREE ENERGY PREDICTED BY IDOCK:   -2.99 KCAL/MOL
REMARK 922        TOTAL FREE ENERGY PREDICTED BY IDOCK:   -8.97 KCAL/MOL
REMARK 923 INTER-LIGAND FREE ENERGY PREDICTED BY IDOCK:   -6.45 KCAL/MOL
REMARK 924 INTRA-LIGAND FREE ENERGY PREDICTED BY IDOCK:   -2.52 KCAL/MOL
REMARK 927      BINDING AFFINITY PREDICTED BY RF-SCORE:    0.00 PKD
ROOT
HETATM    1  I   UNL     1     -10.258  19.395  67.338  1.00  0.00    -0.647 I  
HETATM    2  I   UNL     2      -6.047  16.285  67.635  1.00  0.00    -0.191 I  
HETATM    3  I   UNL     3     -11.250  16.395  64.842  1.00  0.00     0.500 I  
HETATM    4  C   UNL     4     -12.178  12.982  66.325  1.00  0.00    -0.390 C  
HETATM    5  C   UNL     4     -11.372  11.697  66.611  1.00  0.00    -0.270 C  
ENDROOT
BRANCH   5   6
HETATM    6  N   UNL     4     -10.100  11.518  65.828  1.00  0.00    -0.227 N  
BRANCH   6   7
HETATM    7  C   UNL     4     -10.293  12.124  64.459  1.00  0.00    -0.304 C  
HETATM    8  C   UNL     4     -11.466  11.574  63.624  1.00  0.00    -0.374 C  
ENDBRANCH   6   7
BRANCH   6   9
HETATM    9  C   UNL     4      -8.977  12.186  66.575  1.00  0.00    -0.179 C  
BRANCH   9  10
HETATM   10  C   UNL     4      -8.042  11.334  67.487  1.00  0.00    -0.124 C  
BRANCH  10  11
HETATM   11  O   UNL     4      -8.268  11.392  68.851  1.00  0.00    -0.133 OA 
BRANCH  11  12
HETATM   12  C   UNL     4      -8.782  10.463  69.696  1.00  0.00    -0.035 A  
HETATM   13  C   UNL     4     -10.174  10.373  69.836  1.00  0.00    -0.190 A  
HETATM   14  C   UNL     4     -10.749   9.482  70.703  1.00  0.00    -0.375 A  
HETATM   15  C   UNL     4      -9.965   8.613  71.416  1.00  0.00    -0.324 A  
HETATM   16  C   UNL     4      -8.544   8.605  71.315  1.00  0.00    -0.187 A  
HETATM   17  C   UNL     4      -7.922   9.565  70.446  1.00  0.00    -0.178 A  
BRANCH  16  18
HETATM   18  O   UNL     4      -7.820   7.664  72.023  1.00  0.00    -0.088 OA 
BRANCH  18  19
HETATM   19  C   UNL     4      -8.502   6.604  72.631  1.00  0.00    -0.123 C  
BRANCH  19  20
HETATM   20  C   UNL     4      -8.085   5.137  72.357  1.00  0.00    -0.110 C  
BRANCH  20  21
HETATM   21  N   UNL     4      -9.278   4.232  72.039  1.00  0.00    -0.121 N  
BRANCH  21  22
HETATM   22  C   UNL     4     -10.558   4.828  72.574  1.00  0.00    -0.200 C  
HETATM   23  C   UNL     4     -10.778   4.746  74.094  1.00  0.00    -0.329 C  
ENDBRANCH  21  22
BRANCH  21  24
HETATM   24  C   UNL     4      -9.090   2.887  72.702  1.00  0.00    -0.087 C  
HETATM   25  C   UNL     4      -7.940   1.997  72.183  1.00  0.00    -0.049 C  
ENDBRANCH  21  24
BRANCH  21  26
HETATM   26  C   UNL     4      -9.429   4.079  70.552  1.00  0.00    -0.178 C  
HETATM   27  C   UNL     4     -10.322   5.113  69.847  1.00  0.00    -0.347 C  
ENDBRANCH  21  26
ENDBRANCH  20  21
ENDBRANCH  19  20
ENDBRANCH  18  19
ENDBRANCH  16  18
BRANCH  17  28
HETATM   28  O   UNL     4      -6.542   9.600  70.341  1.00  0.00    -0.071 OA 
BRANCH  28  29
HETATM   29  C   UNL     4      -5.786   8.663  69.634  1.00  0.00    -0.029 C  
BRANCH  29  30
HETATM   30  C   UNL     4      -6.175   8.477  68.150  1.00  0.00    -0.051 C  
BRANCH  30  31
HETATM   31  N   UNL     4      -6.869   7.162  67.826  1.00  0.00    -0.071 N  
BRANCH  31  32
HETATM   32  C   UNL     4      -6.820   6.205  68.988  1.00  0.00    -0.066 C  
HETATM   33  C   UNL     4      -6.145   4.848  68.743  1.00  0.00    -0.030 C  
ENDBRANCH  31  32
BRANCH  31  34
HETATM   34  C   UNL     4      -6.174   6.529  66.652  1.00  0.00    -0.040 C  
HETATM   35  C   UNL     4      -5.488   7.497  65.664  1.00  0.00    -0.029 C  
ENDBRANCH  31  34
BRANCH  31  36
HETATM   36  C   UNL     4      -8.332   7.399  67.511  1.00  0.00    -0.113 C  
HETATM   37  C   UNL     4      -8.976   6.483  66.448  1.00  0.00    -0.158 C  
ENDBRANCH  31  36
ENDBRANCH  30  31
ENDBRANCH  29  30
ENDBRANCH  28  29
ENDBRANCH  17  28
ENDBRANCH  11  12
ENDBRANCH  10  11
ENDBRANCH   9  10
ENDBRANCH   6   9
BRANCH   6  38
HETATM   38  C   UNL     4      -9.776  10.058  65.646  1.00  0.00    -0.272 C  
HETATM   39  C   UNL     4      -8.804   9.708  64.501  1.00  0.00    -0.257 C  
ENDBRANCH   6  38
ENDBRANCH   5   6
TORSDOF 21
ENDMDL
MODEL       46
REMARK 921   NORMALIZED FREE ENERGY PREDICTED BY IDOCK:   -2.96 KCAL/MOL
REMARK 922        TOTAL FREE ENERGY PREDICTED BY IDOCK:   -8.92 KCAL/MOL
REMARK 923 INTER-LIGAND FREE ENERGY PREDICTED BY IDOCK:   -6.37 KCAL/MOL
REMARK 924 INTRA-LIGAND FREE ENERGY PREDICTED BY IDOCK:   -2.55 KCAL/MOL
REMARK 927      BINDING AFFINITY PREDICTED BY RF-SCORE:    0.00 PKD
ROOT
HETATM    1  I   UNL     1     -11.355  16.210  64.516  1.00  0.00     0.670 I  
HETATM    2  I   UNL     2      -8.202  17.600  68.469  1.00  0.00    -0.204 I  
HETATM    3  I   UNL     3     -12.331  13.526  67.355  1.00  0.00     0.626 I  
HETATM    4  C   UNL     4     -14.375  14.694  70.383  1.00  0.00     1.466 C  
HETATM    5  C   UNL     4     -13.990  15.178  71.798  1.00  0.00    -0.529 C  
ENDROOT
BRANCH   5   6
HETATM    6  N   UNL     4     -12.635  14.759  72.301  1.00  0.00    -0.326 N  
BRANCH   6   7
HETATM    7  C   UNL     4     -12.678  14.719  73.810  1.00  0.00    -0.258 C  
HETATM    8  C   UNL     4     -12.418  16.052  74.540  1.00  0.00    -0.687 C  
ENDBRANCH   6   7
BRANCH   6   9
HETATM    9  C   UNL     4     -12.302  13.412  71.721  1.00  0.00     0.137 C  
BRANCH   9  10
HETATM   10  C   UNL     4     -13.165  12.171  72.105  1.00  0.00    -0.333 C  
BRANCH  10  11
HETATM   11  O   UNL     4     -13.284  11.169  71.158  1.00  0.00    -0.256 OA 
BRANCH  11  12
HETATM   12  C   UNL     4     -13.048   9.836  71.256  1.00  0.00    -0.381 A  
HETATM   13  C   UNL     4     -14.111   8.983  71.584  1.00  0.00    -0.343 A  
HETATM   14  C   UNL     4     -13.925   7.634  71.736  1.00  0.00    -0.471 A  
HETATM   15  C   UNL     4     -12.692   7.081  71.511  1.00  0.00    -0.425 A  
HETATM   16  C   UNL     4     -11.559   7.862  71.139  1.00  0.00    -0.280 A  
HETATM   17  C   UNL     4     -11.725   9.284  71.023  1.00  0.00    -0.311 A  
BRANCH  16  18
HETATM   18  O   UNL     4     -10.358   7.230  70.875  1.00  0.00    -0.201 OA 
BRANCH  18  19
HETATM   19  C   UNL     4      -9.412   7.121  71.902  1.00  0.00    -0.146 C  
BRANCH  19  20
HETATM   20  C   UNL     4      -8.406   5.942  71.927  1.00  0.00    -0.119 C  
BRANCH  20  21
HETATM   21  N   UNL     4      -8.978   4.692  72.599  1.00  0.00    -0.123 N  
BRANCH  21  22
HETATM   22  C   UNL     4     -10.026   5.065  73.620  1.00  0.00    -0.162 C  
HETATM   23  C   UNL     4     -11.385   4.352  73.509  1.00  0.00    -0.334 C  
ENDBRANCH  21  22
BRANCH  21  24
HETATM   24  C   UNL     4      -7.878   3.954  73.326  1.00  0.00    -0.083 C  
HETATM   25  C   UNL     4      -6.524   4.680  73.485  1.00  0.00    -0.055 C  
ENDBRANCH  21  24
BRANCH  21  26
HETATM   26  C   UNL     4      -9.630   3.806  71.575  1.00  0.00    -0.161 C  
HETATM   27  C   UNL     4      -9.051   2.388  71.433  1.00  0.00    -0.164 C  
ENDBRANCH  21  26
ENDBRANCH  20  21
ENDBRANCH  19  20
ENDBRANCH  18  19
ENDBRANCH  16  18
BRANCH  17  28
HETATM   28  O   UNL     4     -10.641  10.074  70.686  1.00  0.00    -0.295 OA 
BRANCH  28  29
HETATM   29  C   UNL     4     -10.298  10.419  69.377  1.00  0.00    -0.237 C  
BRANCH  29  30
HETATM   30  C   UNL     4      -9.010   9.763  68.832  1.00  0.00    -0.144 C  
BRANCH  30  31
HETATM   31  N   UNL     4      -9.180   8.997  67.527  1.00  0.00    -0.135 N  
BRANCH  31  32
HETATM   32  C   UNL     4      -7.941   9.068  66.674  1.00  0.00    -0.100 C  
HETATM   33  C   UNL     4      -7.108   7.785  66.547  1.00  0.00    -0.078 C  
ENDBRANCH  31  32
BRANCH  31  34
HETATM   34  C   UNL     4     -10.325   9.600  66.763  1.00  0.00    -0.222 C  
HETATM   35  C   UNL     4      -9.980  10.217  65.389  1.00  0.00    -0.377 C  
ENDBRANCH  31  34
BRANCH  31  36
HETATM   36  C   UNL     4      -9.441   7.531  67.804  1.00  0.00    -0.141 C  
HETATM   37  C   UNL     4     -10.657   6.891  67.099  1.00  0.00    -0.408 C  
ENDBRANCH  31  36
ENDBRANCH  30  31
ENDBRANCH  29  30
ENDBRANCH  28  29
ENDBRANCH  17  28
ENDBRANCH  11  12
ENDBRANCH  10  11
ENDBRANCH   9  10
ENDBRANCH   6   9
BRANCH   6  38
HETATM   38  C   UNL     4     -11.576  15.751  71.895  1.00  0.00    -0.456 C  
HETATM   39  C   UNL     4     -10.827  15.454  70.580  1.00  0.00    -0.327 C  
ENDBRANCH   6  38
ENDBRANCH   5   6
TORSDOF 21
ENDMDL
MODEL       47
REMARK 921   NORMALIZED FREE ENERGY PREDICTED BY IDOCK:   -2.95 KCAL/MOL
REMARK 922        TOTAL FREE ENERGY PREDICTED BY IDOCK:   -8.89 KCAL/MOL
REMARK 923 INTER-LIGAND FREE ENERGY PREDICTED BY IDOCK:   -6.17 KCAL/MOL
REMARK 924 INTRA-LIGAND FREE ENERGY PREDICTED BY IDOCK:   -2.72 KCAL/MOL
REMARK 927      BINDING AFFINITY PREDICTED BY RF-SCORE:    0.00 PKD
ROOT
HETATM    1  I   UNL     1     -12.700  14.760  72.471  1.00  0.00    -0.517 I  
HETATM    2  I   UNL     2     -10.531  16.909  68.208  1.00  0.00    -0.370 I  
HETATM    3  I   UNL     3     -12.207  11.561  70.074  1.00  0.00    -0.228 I  
HETATM    4  C   UNL     4      -8.667  10.198  69.511  1.00  0.00    -0.189 C  
HETATM    5  C   UNL     4      -7.598  10.444  68.426  1.00  0.00    -0.093 C  
ENDROOT
BRANCH   5   6
HETATM    6  N   UNL     4      -8.094  10.972  67.107  1.00  0.00    -0.129 N  
BRANCH   6   7
HETATM    7  C   UNL     4      -7.928  12.472  67.100  1.00  0.00    -0.140 C  
HETATM    8  C   UNL     4      -9.210  13.303  66.890  1.00  0.00    -0.242 C  
ENDBRANCH   6   7
BRANCH   6   9
HETATM    9  C   UNL     4      -7.304  10.323  66.002  1.00  0.00    -0.129 C  
BRANCH   9  10
HETATM   10  C   UNL     4      -6.187   9.293  66.354  1.00  0.00    -0.065 C  
BRANCH  10  11
HETATM   11  O   UNL     4      -6.549   7.957  66.384  1.00  0.00    -0.049 OA 
BRANCH  11  12
HETATM   12  C   UNL     4      -6.759   7.129  67.438  1.00  0.00    -0.068 A  
HETATM   13  C   UNL     4      -5.802   7.081  68.462  1.00  0.00    -0.022 A  
HETATM   14  C   UNL     4      -5.940   6.235  69.531  1.00  0.00    -0.021 A  
HETATM   15  C   UNL     4      -7.059   5.452  69.647  1.00  0.00    -0.063 A  
HETATM   16  C   UNL     4      -8.101   5.457  68.676  1.00  0.00    -0.091 A  
HETATM   17  C   UNL     4      -7.950   6.303  67.525  1.00  0.00    -0.109 A  
BRANCH  16  18
HETATM   18  O   UNL     4      -9.227   4.682  68.886  1.00  0.00    -0.112 OA 
BRANCH  18  19
HETATM   19  C   UNL     4     -10.375   5.285  69.412  1.00  0.00    -0.243 C  
BRANCH  19  20
HETATM   20  C   UNL     4     -10.260   6.483  70.389  1.00  0.00    -0.193 C  
BRANCH  20  21
HETATM   21  N   UNL     4     -10.348   6.058  71.857  1.00  0.00    -0.204 N  
BRANCH  21  22
HETATM   22  C   UNL     4      -9.302   6.770  72.682  1.00  0.00    -0.139 C  
HETATM   23  C   UNL     4      -9.642   7.022  74.162  1.00  0.00    -0.298 C  
ENDBRANCH  21  22
BRANCH  21  24
HETATM   24  C   UNL     4     -10.090   4.575  71.977  1.00  0.00    -0.196 C  
HETATM   25  C   UNL     4     -10.772   3.830  73.145  1.00  0.00    -0.267 C  
ENDBRANCH  21  24
BRANCH  21  26
HETATM   26  C   UNL     4     -11.696   6.414  72.418  1.00  0.00    -0.245 C  
HETATM   27  C   UNL     4     -12.636   7.198  71.488  1.00  0.00    -0.427 C  
ENDBRANCH  21  26
ENDBRANCH  20  21
ENDBRANCH  19  20
ENDBRANCH  18  19
ENDBRANCH  16  18
BRANCH  17  28
HETATM   28  O   UNL     4      -8.933   6.316  66.551  1.00  0.00    -0.134 OA 
BRANCH  28  29
HETATM   29  C   UNL     4      -9.237   5.229  65.729  1.00  0.00    -0.151 C  
BRANCH  29  30
HETATM   30  C   UNL     4      -8.086   4.226  65.499  1.00  0.00    -0.101 C  
BRANCH  30  31
HETATM   31  N   UNL     4      -7.492   4.236  64.097  1.00  0.00    -0.069 N  
BRANCH  31  32
HETATM   32  C   UNL     4      -7.762   2.946  63.369  1.00  0.00    -0.064 C  
HETATM   33  C   UNL     4      -9.229   2.506  63.254  1.00  0.00    -0.091 C  
ENDBRANCH  31  32
BRANCH  31  34
HETATM   34  C   UNL     4      -6.004   4.424  64.208  1.00  0.00    -0.018 C  
HETATM   35  C   UNL     4      -5.415   4.379  65.635  1.00  0.00    -0.013 C  
ENDBRANCH  31  34
BRANCH  31  36
HETATM   36  C   UNL     4      -8.106   5.347  63.271  1.00  0.00    -0.102 C  
HETATM   37  C   UNL     4      -7.216   6.574  62.976  1.00  0.00    -0.058 C  
ENDBRANCH  31  36
ENDBRANCH  30  31
ENDBRANCH  29  30
ENDBRANCH  28  29
ENDBRANCH  17  28
ENDBRANCH  11  12
ENDBRANCH  10  11
ENDBRANCH   9  10
ENDBRANCH   6   9
BRANCH   6  38
HETATM   38  C   UNL     4      -9.557  10.666  66.917  1.00  0.00    -0.171 C  
HETATM   39  C   UNL     4      -9.941   9.929  65.618  1.00  0.00    -0.353 C  
ENDBRANCH   6  38
ENDBRANCH   5   6
TORSDOF 21
ENDMDL
MODEL       48
REMARK 921   NORMALIZED FREE ENERGY PREDICTED BY IDOCK:   -2.94 KCAL/MOL
REMARK 922        TOTAL FREE ENERGY PREDICTED BY IDOCK:   -8.87 KCAL/MOL
REMARK 923 INTER-LIGAND FREE ENERGY PREDICTED BY IDOCK:   -7.54 KCAL/MOL
REMARK 924 INTRA-LIGAND FREE ENERGY PREDICTED BY IDOCK:   -1.34 KCAL/MOL
REMARK 927      BINDING AFFINITY PREDICTED BY RF-SCORE:    0.00 PKD
ROOT
HETATM    1  I   UNL     1      -7.734   6.016  63.086  1.00  0.00    -0.087 I  
HETATM    2  I   UNL     2      -8.111   1.475  65.681  1.00  0.00    -0.087 I  
HETATM    3  I   UNL     3      -9.324   7.182  66.598  1.00  0.00    -0.167 I  
HETATM    4  C   UNL     4      -7.099   7.208  69.720  1.00  0.00    -0.073 C  
HETATM    5  C   UNL     4      -6.840   6.183  70.845  1.00  0.00    -0.063 C  
ENDROOT
BRANCH   5   6
HETATM    6  N   UNL     4      -7.905   5.142  71.058  1.00  0.00    -0.094 N  
BRANCH   6   7
HETATM    7  C   UNL     4      -7.286   3.964  71.770  1.00  0.00    -0.055 C  
HETATM    8  C   UNL     4      -7.180   4.067  73.305  1.00  0.00    -0.068 C  
ENDBRANCH   6   7
BRANCH   6   9
HETATM    9  C   UNL     4      -9.019   5.752  71.865  1.00  0.00    -0.138 C  
BRANCH   9  10
HETATM   10  C   UNL     4     -10.094   6.632  71.156  1.00  0.00    -0.182 C  
BRANCH  10  11
HETATM   11  O   UNL     4     -10.227   7.938  71.591  1.00  0.00    -0.186 OA 
BRANCH  11  12
HETATM   12  C   UNL     4     -11.108   8.902  71.220  1.00  0.00    -0.297 A  
HETATM   13  C   UNL     4     -12.457   8.758  71.574  1.00  0.00    -0.374 A  
HETATM   14  C   UNL     4     -13.398   9.678  71.194  1.00  0.00    -0.344 A  
HETATM   15  C   UNL     4     -13.023  10.798  70.499  1.00  0.00    -0.258 A  
HETATM   16  C   UNL     4     -11.672  11.049  70.124  1.00  0.00    -0.356 A  
HETATM   17  C   UNL     4     -10.679  10.071  70.473  1.00  0.00    -0.285 A  
BRANCH  16  18
HETATM   18  O   UNL     4     -11.358  12.227  69.471  1.00  0.00    -0.246 OA 
BRANCH  18  19
HETATM   19  C   UNL     4     -11.714  12.368  68.125  1.00  0.00    -0.353 C  
BRANCH  19  20
HETATM   20  C   UNL     4     -11.287  13.625  67.323  1.00  0.00    -0.323 C  
BRANCH  20  21
HETATM   21  N   UNL     4     -11.279  13.387  65.811  1.00  0.00    -0.289 N  
BRANCH  21  22
HETATM   22  C   UNL     4     -10.094  12.543  65.409  1.00  0.00    -0.267 C  
HETATM   23  C   UNL     4     -10.284  11.017  65.452  1.00  0.00    -0.333 C  
ENDBRANCH  21  22
BRANCH  21  24
HETATM   24  C   UNL     4     -11.165  14.708  65.087  1.00  0.00    -0.374 C  
HETATM   25  C   UNL     4     -12.399  15.189  64.292  1.00  0.00    -0.198 C  
ENDBRANCH  21  24
BRANCH  21  26
HETATM   26  C   UNL     4     -12.526  12.656  65.396  1.00  0.00    -0.355 C  
HETATM   27  C   UNL     4     -12.555  12.125  63.954  1.00  0.00    -0.545 C  
ENDBRANCH  21  26
ENDBRANCH  20  21
ENDBRANCH  19  20
ENDBRANCH  18  19
ENDBRANCH  16  18
BRANCH  17  28
HETATM   28  O   UNL     4      -9.361  10.272  70.105  1.00  0.00    -0.039 OA 
BRANCH  28  29
HETATM   29  C   UNL     4      -8.879  10.124  68.803  1.00  0.00    -0.146 C  
BRANCH  29  30
HETATM   30  C   UNL     4      -8.082  11.326  68.248  1.00  0.00    -0.137 C  
BRANCH  30  31
HETATM   31  N   UNL     4      -6.607  11.055  67.986  1.00  0.00    -0.061 N  
BRANCH  31  32
HETATM   32  C   UNL     4      -5.885  10.643  69.242  1.00  0.00    -0.041 C  
HETATM   33  C   UNL     4      -5.524  11.757  70.235  1.00  0.00    -0.128 C  
ENDBRANCH  31  32
BRANCH  31  34
HETATM   34  C   UNL     4      -5.975  12.314  67.459  1.00  0.00    -0.136 C  
HETATM   35  C   UNL     4      -6.920  13.517  67.253  1.00  0.00     0.061 C  
ENDBRANCH  31  34
BRANCH  31  36
HETATM   36  C   UNL     4      -6.445   9.924  66.991  1.00  0.00    -0.069 C  
HETATM   37  C   UNL     4      -6.705  10.256  65.506  1.00  0.00    -0.128 C  
ENDBRANCH  31  36
ENDBRANCH  30  31
ENDBRANCH  29  30
ENDBRANCH  28  29
ENDBRANCH  17  28
ENDBRANCH  11  12
ENDBRANCH  10  11
ENDBRANCH   9  10
ENDBRANCH   6   9
BRANCH   6  38
HETATM   38  C   UNL     4      -8.455   4.652  69.744  1.00  0.00    -0.073 C  
HETATM   39  C   UNL     4      -9.357   3.402  69.800  1.00  0.00    -0.238 C  
ENDBRANCH   6  38
ENDBRANCH   5   6
TORSDOF 21
ENDMDL
MODEL       49
REMARK 921   NORMALIZED FREE ENERGY PREDICTED BY IDOCK:   -2.89 KCAL/MOL
REMARK 922        TOTAL FREE ENERGY PREDICTED BY IDOCK:   -8.77 KCAL/MOL
REMARK 923 INTER-LIGAND FREE ENERGY PREDICTED BY IDOCK:   -7.42 KCAL/MOL
REMARK 924 INTRA-LIGAND FREE ENERGY PREDICTED BY IDOCK:   -1.35 KCAL/MOL
REMARK 927      BINDING AFFINITY PREDICTED BY RF-SCORE:    0.00 PKD
ROOT
HETATM    1  I   UNL     1      -5.354  14.758  71.448  1.00  0.00     0.011 I  
HETATM    2  I   UNL     2      -6.006   9.569  71.059  1.00  0.00    -0.034 I  
HETATM    3  I   UNL     3      -8.797  14.496  69.375  1.00  0.00     0.602 I  
HETATM    4  C   UNL     4     -11.978  13.381  71.203  1.00  0.00     0.093 C  
HETATM    5  C   UNL     4     -12.667  12.012  71.391  1.00  0.00    -0.275 C  
ENDROOT
BRANCH   5   6
HETATM    6  N   UNL     4     -12.334  10.951  70.377  1.00  0.00    -0.333 N  
BRANCH   6   7
HETATM    7  C   UNL     4     -13.533  10.048  70.219  1.00  0.00     0.481 C  
HETATM    8  C   UNL     4     -13.826   9.086  71.388  1.00  0.00    -0.302 C  
ENDBRANCH   6   7
BRANCH   6   9
HETATM    9  C   UNL     4     -11.972  11.622  69.080  1.00  0.00    -0.313 C  
BRANCH   9  10
HETATM   10  C   UNL     4     -11.599  10.755  67.840  1.00  0.00    -0.128 C  
BRANCH  10  11
HETATM   11  O   UNL     4     -11.881  11.283  66.592  1.00  0.00    -0.311 OA 
BRANCH  11  12
HETATM   12  C   UNL     4     -11.622  12.513  66.081  1.00  0.00    -0.395 A  
HETATM   13  C   UNL     4     -12.646  13.193  65.405  1.00  0.00    -0.512 A  
HETATM   14  C   UNL     4     -12.433  14.420  64.834  1.00  0.00    -0.368 A  
HETATM   15  C   UNL     4     -11.216  15.036  64.963  1.00  0.00    -0.413 A  
HETATM   16  C   UNL     4     -10.126  14.440  65.661  1.00  0.00    -0.353 A  
HETATM   17  C   UNL     4     -10.317  13.133  66.225  1.00  0.00    -0.287 A  
BRANCH  16  18
HETATM   18  O   UNL     4      -8.943  15.143  65.799  1.00  0.00    -0.102 OA 
BRANCH  18  19
HETATM   19  C   UNL     4      -9.000  16.530  65.984  1.00  0.00    -0.241 C  
BRANCH  19  20
HETATM   20  C   UNL     4      -7.810  17.289  66.625  1.00  0.00    -0.260 C  
BRANCH  20  21
HETATM   21  N   UNL     4      -8.205  18.672  67.149  1.00  0.00    -0.248 N  
BRANCH  21  22
HETATM   22  C   UNL     4      -9.706  18.792  67.265  1.00  0.00    -0.302 C  
HETATM   23  C   UNL     4     -10.392  19.816  66.345  1.00  0.00    -0.619 C  
ENDBRANCH  21  22
BRANCH  21  24
HETATM   24  C   UNL     4      -7.737  19.737  66.184  1.00  0.00    -0.332 C  
HETATM   25  C   UNL     4      -6.783  20.820  66.734  1.00  0.00    -0.351 C  
ENDBRANCH  21  24
BRANCH  21  26
HETATM   26  C   UNL     4      -7.620  18.894  68.515  1.00  0.00    -0.324 C  
HETATM   27  C   UNL     4      -6.656  17.811  69.028  1.00  0.00    -0.244 C  
ENDBRANCH  21  26
ENDBRANCH  20  21
ENDBRANCH  19  20
ENDBRANCH  18  19
ENDBRANCH  16  18
BRANCH  17  28
HETATM   28  O   UNL     4      -9.273  12.515  66.891  1.00  0.00    -0.200 OA 
BRANCH  28  29
HETATM   29  C   UNL     4      -8.279  11.763  66.263  1.00  0.00     0.070 C  
BRANCH  29  30
HETATM   30  C   UNL     4      -8.776  10.537  65.466  1.00  0.00    -0.185 C  
BRANCH  30  31
HETATM   31  N   UNL     4      -8.101   9.220  65.823  1.00  0.00    -0.112 N  
BRANCH  31  32
HETATM   32  C   UNL     4      -7.167   8.760  64.734  1.00  0.00    -0.091 C  
HETATM   33  C   UNL     4      -7.646   7.597  63.852  1.00  0.00    -0.118 C  
ENDBRANCH  31  32
BRANCH  31  34
HETATM   34  C   UNL     4      -9.163   8.174  66.019  1.00  0.00    -0.147 C  
HETATM   35  C   UNL     4      -9.383   7.689  67.469  1.00  0.00    -0.159 C  
ENDBRANCH  31  34
BRANCH  31  36
HETATM   36  C   UNL     4      -7.270   9.374  67.080  1.00  0.00    -0.087 C  
HETATM   37  C   UNL     4      -5.805   8.891  67.015  1.00  0.00    -0.046 C  
ENDBRANCH  31  36
ENDBRANCH  30  31
ENDBRANCH  29  30
ENDBRANCH  28  29
ENDBRANCH  17  28
ENDBRANCH  11  12
ENDBRANCH  10  11
ENDBRANCH   9  10
ENDBRANCH   6   9
BRANCH   6  38
HETATM   38  C   UNL     4     -11.175  10.107  70.840  1.00  0.00    -0.307 C  
HETATM   39  C   UNL     4      -9.896  10.167  69.980  1.00  0.00    -0.179 C  
ENDBRANCH   6  38
ENDBRANCH   5   6
TORSDOF 21
ENDMDL
MODEL       50
REMARK 921   NORMALIZED FREE ENERGY PREDICTED BY IDOCK:   -2.89 KCAL/MOL
REMARK 922        TOTAL FREE ENERGY PREDICTED BY IDOCK:   -8.76 KCAL/MOL
REMARK 923 INTER-LIGAND FREE ENERGY PREDICTED BY IDOCK:   -6.48 KCAL/MOL
REMARK 924 INTRA-LIGAND FREE ENERGY PREDICTED BY IDOCK:   -2.29 KCAL/MOL
REMARK 927      BINDING AFFINITY PREDICTED BY RF-SCORE:    0.00 PKD
ROOT
HETATM    1  I   UNL     1     -12.455  15.587  73.702  1.00  0.00    -0.845 I  
HETATM    2  I   UNL     2      -8.760  15.238  69.997  1.00  0.00     1.269 I  
HETATM    3  I   UNL     3     -13.512  12.213  71.775  1.00  0.00     0.506 I  
HETATM    4  C   UNL     4     -11.387   9.059  72.263  1.00  0.00    -0.187 C  
HETATM    5  C   UNL     4     -10.208   8.444  71.478  1.00  0.00    -0.228 C  
ENDROOT
BRANCH   5   6
HETATM    6  N   UNL     4     -10.075   8.860  70.038  1.00  0.00    -0.186 N  
BRANCH   6   7
HETATM    7  C   UNL     4     -10.976   7.983  69.202  1.00  0.00     0.078 C  
HETATM    8  C   UNL     4     -11.038   6.493  69.592  1.00  0.00    -0.435 C  
ENDBRANCH   6   7
BRANCH   6   9
HETATM    9  C   UNL     4     -10.451  10.311  69.920  1.00  0.00    -0.256 C  
BRANCH   9  10
HETATM   10  C   UNL     4     -11.553  10.744  68.905  1.00  0.00    -0.291 C  
BRANCH  10  11
HETATM   11  O   UNL     4     -11.140  11.446  67.787  1.00  0.00    -0.227 OA 
BRANCH  11  12
HETATM   12  C   UNL     4     -11.099  12.783  67.555  1.00  0.00    -0.263 A  
HETATM   13  C   UNL     4     -11.996  13.615  68.239  1.00  0.00    -0.385 A  
HETATM   14  C   UNL     4     -12.029  14.967  68.017  1.00  0.00    -0.216 A  
HETATM   15  C   UNL     4     -11.135  15.543  67.153  1.00  0.00    -0.256 A  
HETATM   16  C   UNL     4     -10.164  14.785  66.438  1.00  0.00    -0.291 A  
HETATM   17  C   UNL     4     -10.147  13.360  66.623  1.00  0.00    -0.275 A  
BRANCH  16  18
HETATM   18  O   UNL     4      -9.258  15.439  65.624  1.00  0.00    -0.250 OA 
BRANCH  18  19
HETATM   19  C   UNL     4      -8.353  16.336  66.204  1.00  0.00    -0.225 C  
BRANCH  19  20
HETATM   20  C   UNL     4      -8.411  17.847  65.862  1.00  0.00     0.125 C  
BRANCH  20  21
HETATM   21  N   UNL     4      -8.082  18.738  67.063  1.00  0.00    -0.253 N  
BRANCH  21  22
HETATM   22  C   UNL     4      -8.034  20.190  66.654  1.00  0.00    -0.295 C  
HETATM   23  C   UNL     4      -6.666  20.889  66.737  1.00  0.00    -0.367 C  
ENDBRANCH  21  22
BRANCH  21  24
HETATM   24  C   UNL     4      -6.722  18.374  67.611  1.00  0.00    -0.198 C  
HETATM   25  C   UNL     4      -6.544  18.412  69.145  1.00  0.00    -0.280 C  
ENDBRANCH  21  24
BRANCH  21  26
HETATM   26  C   UNL     4      -9.141  18.592  68.120  1.00  0.00    -0.313 C  
HETATM   27  C   UNL     4     -10.386  19.482  67.964  1.00  0.00    -0.564 C  
ENDBRANCH  21  26
ENDBRANCH  20  21
ENDBRANCH  19  20
ENDBRANCH  18  19
ENDBRANCH  16  18
BRANCH  17  28
HETATM   28  O   UNL     4      -9.231  12.590  65.928  1.00  0.00    -0.105 OA 
BRANCH  28  29
HETATM   29  C   UNL     4      -9.543  11.393  65.281  1.00  0.00    -0.228 C  
BRANCH  29  30
HETATM   30  C   UNL     4      -8.383  10.735  64.503  1.00  0.00     0.038 C  
BRANCH  30  31
HETATM   31  N   UNL     4      -7.750   9.531  65.186  1.00  0.00    -0.108 N  
BRANCH  31  32
HETATM   32  C   UNL     4      -6.962   9.932  66.405  1.00  0.00    -0.095 C  
HETATM   33  C   UNL     4      -5.580  10.559  66.165  1.00  0.00    -0.083 C  
ENDBRANCH  31  32
BRANCH  31  34
HETATM   34  C   UNL     4      -6.821   8.860  64.212  1.00  0.00    -0.082 C  
HETATM   35  C   UNL     4      -6.850   9.394  62.763  1.00  0.00    -0.096 C  
ENDBRANCH  31  34
BRANCH  31  36
HETATM   36  C   UNL     4      -8.819   8.563  65.650  1.00  0.00    -0.173 C  
HETATM   37  C   UNL     4      -8.441   7.066  65.682  1.00  0.00    -0.144 C  
ENDBRANCH  31  36
ENDBRANCH  30  31
ENDBRANCH  29  30
ENDBRANCH  28  29
ENDBRANCH  17  28
ENDBRANCH  11  12
ENDBRANCH  10  11
ENDBRANCH   9  10
ENDBRANCH   6   9
BRANCH   6  38
HETATM   38  C   UNL     4      -8.662   8.671  69.549  1.00  0.00    -0.139 C  
HETATM   39  C   UNL     4      -7.554   9.363  70.369  1.00  0.00    -0.152 C  
ENDBRANCH   6  38
ENDBRANCH   5   6
TORSDOF 21
ENDMDL
MODEL       51
REMARK 921   NORMALIZED FREE ENERGY PREDICTED BY IDOCK:   -2.83 KCAL/MOL
REMARK 922        TOTAL FREE ENERGY PREDICTED BY IDOCK:   -8.62 KCAL/MOL
REMARK 923 INTER-LIGAND FREE ENERGY PREDICTED BY IDOCK:   -7.67 KCAL/MOL
REMARK 924 INTRA-LIGAND FREE ENERGY PREDICTED BY IDOCK:   -0.95 KCAL/MOL
REMARK 927      BINDING AFFINITY PREDICTED BY RF-SCORE:    0.00 PKD
ROOT
HETATM    1  I   UNL     1      -5.250  15.227  71.109  1.00  0.00     0.030 I  
HETATM    2  I   UNL     2      -5.644   9.998  71.095  1.00  0.00     0.031 I  
HETATM    3  I   UNL     3      -8.612  14.642  68.970  1.00  0.00     0.110 I  
HETATM    4  C   UNL     4     -11.791  13.510  70.790  1.00  0.00    -0.118 C  
HETATM    5  C   UNL     4     -12.420  12.127  71.062  1.00  0.00    -0.269 C  
ENDROOT
BRANCH   5   6
HETATM    6  N   UNL     4     -12.006  11.012  70.141  1.00  0.00    -0.328 N  
BRANCH   6   7
HETATM    7  C   UNL     4     -12.945   9.848  70.347  1.00  0.00     0.085 C  
HETATM    8  C   UNL     4     -13.643   9.764  71.719  1.00  0.00    -0.397 C  
ENDBRANCH   6   7
BRANCH   6   9
HETATM    9  C   UNL     4     -12.053  11.516  68.724  1.00  0.00    -0.170 C  
BRANCH   9  10
HETATM   10  C   UNL     4     -11.412  10.670  67.582  1.00  0.00    -0.086 C  
BRANCH  10  11
HETATM   11  O   UNL     4     -11.540  11.154  66.291  1.00  0.00    -0.171 OA 
BRANCH  11  12
HETATM   12  C   UNL     4     -11.495  12.426  65.822  1.00  0.00    -0.370 A  
HETATM   13  C   UNL     4     -12.682  13.025  65.376  1.00  0.00    -0.369 A  
HETATM   14  C   UNL     4     -12.691  14.292  64.855  1.00  0.00    -0.243 A  
HETATM   15  C   UNL     4     -11.535  15.026  64.813  1.00  0.00    -0.403 A  
HETATM   16  C   UNL     4     -10.287  14.517  65.274  1.00  0.00    -0.410 A  
HETATM   17  C   UNL     4     -10.250  13.173  65.779  1.00  0.00    -0.289 A  
BRANCH  16  18
HETATM   18  O   UNL     4      -9.172  15.334  65.251  1.00  0.00     0.120 OA 
BRANCH  18  19
HETATM   19  C   UNL     4      -9.220  16.562  65.920  1.00  0.00    -0.174 C  
BRANCH  19  20
HETATM   20  C   UNL     4      -7.914  17.274  66.358  1.00  0.00    -0.303 C  
BRANCH  20  21
HETATM   21  N   UNL     4      -8.163  18.680  66.907  1.00  0.00    -0.254 N  
BRANCH  21  22
HETATM   22  C   UNL     4      -7.202  19.671  66.296  1.00  0.00    -0.263 C  
HETATM   23  C   UNL     4      -6.468  19.227  65.019  1.00  0.00    -0.256 C  
ENDBRANCH  21  22
BRANCH  21  24
HETATM   24  C   UNL     4      -7.941  18.692  68.402  1.00  0.00    -0.324 C  
HETATM   25  C   UNL     4      -6.796  19.578  68.940  1.00  0.00    -0.376 C  
ENDBRANCH  21  24
BRANCH  21  26
HETATM   26  C   UNL     4      -9.558  19.127  66.571  1.00  0.00    -0.355 C  
HETATM   27  C   UNL     4      -9.992  20.490  67.137  1.00  0.00    -0.512 C  
ENDBRANCH  21  26
ENDBRANCH  20  21
ENDBRANCH  19  20
ENDBRANCH  18  19
ENDBRANCH  16  18
BRANCH  17  28
HETATM   28  O   UNL     4      -9.050  12.638  66.215  1.00  0.00    -0.167 OA 
BRANCH  28  29
HETATM   29  C   UNL     4      -8.654  11.318  65.996  1.00  0.00    -0.130 C  
BRANCH  29  30
HETATM   30  C   UNL     4      -7.749  10.704  67.087  1.00  0.00    -0.110 C  
BRANCH  30  31
HETATM   31  N   UNL     4      -7.716   9.183  67.116  1.00  0.00    -0.098 N  
BRANCH  31  32
HETATM   32  C   UNL     4      -8.153   8.641  68.452  1.00  0.00    -0.118 C  
HETATM   33  C   UNL     4      -7.777   7.187  68.770  1.00  0.00    -0.116 C  
ENDBRANCH  31  32
BRANCH  31  34
HETATM   34  C   UNL     4      -6.306   8.729  66.851  1.00  0.00    -0.060 C  
HETATM   35  C   UNL     4      -5.196   9.774  67.098  1.00  0.00    -0.038 C  
ENDBRANCH  31  34
BRANCH  31  36
HETATM   36  C   UNL     4      -8.660   8.613  66.078  1.00  0.00    -0.155 C  
HETATM   37  C   UNL     4      -9.912   7.875  66.600  1.00  0.00    -0.316 C  
ENDBRANCH  31  36
ENDBRANCH  30  31
ENDBRANCH  29  30
ENDBRANCH  28  29
ENDBRANCH  17  28
ENDBRANCH  11  12
ENDBRANCH  10  11
ENDBRANCH   9  10
ENDBRANCH   6   9
BRANCH   6  38
HETATM   38  C   UNL     4     -10.610  10.541  70.455  1.00  0.00     0.093 C  
HETATM   39  C   UNL     4     -10.491   9.206  71.217  1.00  0.00    -0.398 C  
ENDBRANCH   6  38
ENDBRANCH   5   6
TORSDOF 21
ENDMDL
MODEL       52
REMARK 921   NORMALIZED FREE ENERGY PREDICTED BY IDOCK:   -2.82 KCAL/MOL
REMARK 922        TOTAL FREE ENERGY PREDICTED BY IDOCK:   -8.61 KCAL/MOL
REMARK 923 INTER-LIGAND FREE ENERGY PREDICTED BY IDOCK:   -7.26 KCAL/MOL
REMARK 924 INTRA-LIGAND FREE ENERGY PREDICTED BY IDOCK:   -1.35 KCAL/MOL
REMARK 927      BINDING AFFINITY PREDICTED BY RF-SCORE:    0.00 PKD
ROOT
HETATM    1  I   UNL     1     -11.059  16.051  64.587  1.00  0.00     0.416 I  
HETATM    2  I   UNL     2      -7.828  17.354  68.506  1.00  0.00    -0.230 I  
HETATM    3  I   UNL     3     -12.185  13.497  67.491  1.00  0.00     0.317 I  
HETATM    4  C   UNL     4     -14.155  14.854  70.488  1.00  0.00     0.570 C  
HETATM    5  C   UNL     4     -13.742  15.349  71.891  1.00  0.00    -0.501 C  
ENDROOT
BRANCH   5   6
HETATM    6  N   UNL     4     -12.413  14.867  72.405  1.00  0.00    -0.337 N  
BRANCH   6   7
HETATM    7  C   UNL     4     -12.441  14.909  73.914  1.00  0.00    -0.424 C  
HETATM    8  C   UNL     4     -12.570  16.303  74.559  1.00  0.00    -0.471 C  
ENDBRANCH   6   7
BRANCH   6   9
HETATM    9  C   UNL     4     -12.178  13.471  71.895  1.00  0.00     0.365 C  
BRANCH   9  10
HETATM   10  C   UNL     4     -13.240  12.361  72.166  1.00  0.00    -0.385 C  
BRANCH  10  11
HETATM   11  O   UNL     4     -13.357  11.356  71.222  1.00  0.00    -0.155 OA 
BRANCH  11  12
HETATM   12  C   UNL     4     -13.257  10.010  71.356  1.00  0.00    -0.395 A  
HETATM   13  C   UNL     4     -14.350   9.299  71.871  1.00  0.00    -0.128 A  
HETATM   14  C   UNL     4     -14.293   7.944  72.066  1.00  0.00    -0.490 A  
HETATM   15  C   UNL     4     -13.173   7.243  71.704  1.00  0.00    -0.421 A  
HETATM   16  C   UNL     4     -12.026   7.873  71.140  1.00  0.00    -0.285 A  
HETATM   17  C   UNL     4     -12.050   9.299  70.973  1.00  0.00    -0.280 A  
BRANCH  16  18
HETATM   18  O   UNL     4     -10.951   7.096  70.747  1.00  0.00    -0.239 OA 
BRANCH  18  19
HETATM   19  C   UNL     4     -11.175   6.026  69.873  1.00  0.00    -0.368 C  
BRANCH  19  20
HETATM   20  C   UNL     4     -10.002   5.120  69.419  1.00  0.00    -0.222 C  
BRANCH  20  21
HETATM   21  N   UNL     4      -9.165   4.604  70.592  1.00  0.00    -0.128 N  
BRANCH  21  22
HETATM   22  C   UNL     4      -8.031   5.553  70.898  1.00  0.00    -0.105 C  
HETATM   23  C   UNL     4      -7.916   6.803  70.008  1.00  0.00    -0.116 C  
ENDBRANCH  21  22
BRANCH  21  24
HETATM   24  C   UNL     4      -8.556   3.267  70.236  1.00  0.00    -0.059 C  
HETATM   25  C   UNL     4      -9.250   2.446  69.128  1.00  0.00    -0.197 C  
ENDBRANCH  21  24
BRANCH  21  26
HETATM   26  C   UNL     4     -10.016   4.492  71.825  1.00  0.00    -0.194 C  
HETATM   27  C   UNL     4     -10.066   3.109  72.495  1.00  0.00    -0.231 C  
ENDBRANCH  21  26
ENDBRANCH  20  21
ENDBRANCH  19  20
ENDBRANCH  18  19
ENDBRANCH  16  18
BRANCH  17  28
HETATM   28  O   UNL     4     -10.944   9.946  70.449  1.00  0.00    -0.271 OA 
BRANCH  28  29
HETATM   29  C   UNL     4     -10.601   9.941  69.096  1.00  0.00    -0.220 C  
BRANCH  29  30
HETATM   30  C   UNL     4      -9.401  10.834  68.711  1.00  0.00    -0.182 C  
BRANCH  30  31
HETATM   31  N   UNL     4      -8.941  10.706  67.265  1.00  0.00    -0.136 N  
BRANCH  31  32
HETATM   32  C   UNL     4      -7.919   9.613  67.100  1.00  0.00    -0.106 C  
HETATM   33  C   UNL     4      -6.482  10.046  66.774  1.00  0.00    -0.070 C  
ENDBRANCH  31  32
BRANCH  31  34
HETATM   34  C   UNL     4      -8.322  12.010  66.842  1.00  0.00    -0.159 C  
HETATM   35  C   UNL     4      -8.220  13.102  67.931  1.00  0.00    -0.162 C  
ENDBRANCH  31  34
BRANCH  31  36
HETATM   36  C   UNL     4     -10.109  10.358  66.366  1.00  0.00    -0.228 C  
HETATM   37  C   UNL     4      -9.820  10.250  64.853  1.00  0.00    -0.404 C  
ENDBRANCH  31  36
ENDBRANCH  30  31
ENDBRANCH  29  30
ENDBRANCH  28  29
ENDBRANCH  17  28
ENDBRANCH  11  12
ENDBRANCH  10  11
ENDBRANCH   9  10
ENDBRANCH   6   9
BRANCH   6  38
HETATM   38  C   UNL     4     -11.294  15.761  71.938  1.00  0.00    -0.278 C  
HETATM   39  C   UNL     4     -10.802  15.546  70.492  1.00  0.00    -0.353 C  
ENDBRANCH   6  38
ENDBRANCH   5   6
TORSDOF 21
ENDMDL
MODEL       53
REMARK 921   NORMALIZED FREE ENERGY PREDICTED BY IDOCK:   -2.80 KCAL/MOL
REMARK 922        TOTAL FREE ENERGY PREDICTED BY IDOCK:   -8.55 KCAL/MOL
REMARK 923 INTER-LIGAND FREE ENERGY PREDICTED BY IDOCK:   -5.79 KCAL/MOL
REMARK 924 INTRA-LIGAND FREE ENERGY PREDICTED BY IDOCK:   -2.76 KCAL/MOL
REMARK 927      BINDING AFFINITY PREDICTED BY RF-SCORE:    0.00 PKD
ROOT
HETATM    1  I   UNL     1     -12.966  14.481  71.849  1.00  0.00    -0.533 I  
HETATM    2  I   UNL     2     -10.388  16.681  67.848  1.00  0.00    -0.335 I  
HETATM    3  I   UNL     3     -11.851  11.265  69.696  1.00  0.00    -0.458 I  
HETATM    4  C   UNL     4      -8.162  10.216  69.711  1.00  0.00    -0.161 C  
HETATM    5  C   UNL     4      -6.970  10.525  68.780  1.00  0.00    -0.070 C  
ENDROOT
BRANCH   5   6
HETATM    6  N   UNL     4      -7.309  10.961  67.381  1.00  0.00    -0.095 N  
BRANCH   6   7
HETATM    7  C   UNL     4      -6.556  12.234  67.082  1.00  0.00    -0.109 C  
HETATM    8  C   UNL     4      -5.577  12.724  68.167  1.00  0.00    -0.080 C  
ENDBRANCH   6   7
BRANCH   6   9
HETATM    9  C   UNL     4      -6.933   9.858  66.429  1.00  0.00    -0.095 C  
BRANCH   9  10
HETATM   10  C   UNL     4      -6.348   8.524  66.986  1.00  0.00    -0.057 C  
BRANCH  10  11
HETATM   11  O   UNL     4      -7.120   7.385  66.834  1.00  0.00    -0.078 OA 
BRANCH  11  12
HETATM   12  C   UNL     4      -7.038   6.181  67.453  1.00  0.00    -0.070 A  
HETATM   13  C   UNL     4      -5.785   5.729  67.892  1.00  0.00    -0.012 A  
HETATM   14  C   UNL     4      -5.635   4.505  68.488  1.00  0.00    -0.016 A  
HETATM   15  C   UNL     4      -6.730   3.714  68.719  1.00  0.00    -0.045 A  
HETATM   16  C   UNL     4      -8.048   4.102  68.341  1.00  0.00    -0.080 A  
HETATM   17  C   UNL     4      -8.217   5.362  67.672  1.00  0.00    -0.100 A  
BRANCH  16  18
HETATM   18  O   UNL     4      -9.113   3.277  68.654  1.00  0.00    -0.120 OA 
BRANCH  18  19
HETATM   19  C   UNL     4      -9.659   3.338  69.942  1.00  0.00    -0.102 C  
BRANCH  19  20
HETATM   20  C   UNL     4      -9.906   4.705  70.630  1.00  0.00    -0.226 C  
BRANCH  20  21
HETATM   21  N   UNL     4      -9.952   4.598  72.157  1.00  0.00    -0.175 N  
BRANCH  21  22
HETATM   22  C   UNL     4     -11.135   5.357  72.710  1.00  0.00    -0.294 C  
HETATM   23  C   UNL     4     -11.862   6.306  71.742  1.00  0.00    -0.342 C  
ENDBRANCH  21  22
BRANCH  21  24
HETATM   24  C   UNL     4      -8.703   5.206  72.750  1.00  0.00    -0.119 C  
HETATM   25  C   UNL     4      -7.366   4.481  72.480  1.00  0.00    -0.082 C  
ENDBRANCH  21  24
BRANCH  21  26
HETATM   26  C   UNL     4     -10.095   3.160  72.570  1.00  0.00    -0.161 C  
HETATM   27  C   UNL     4     -11.159   2.861  73.640  1.00  0.00    -0.326 C  
ENDBRANCH  21  26
ENDBRANCH  20  21
ENDBRANCH  19  20
ENDBRANCH  18  19
ENDBRANCH  16  18
BRANCH  17  28
HETATM   28  O   UNL     4      -9.481   5.759  67.271  1.00  0.00    -0.112 OA 
BRANCH  28  29
HETATM   29  C   UNL     4      -9.947   5.683  65.957  1.00  0.00     0.013 C  
BRANCH  29  30
HETATM   30  C   UNL     4      -9.819   4.298  65.286  1.00  0.00    -0.207 C  
BRANCH  30  31
HETATM   31  N   UNL     4      -8.728   4.192  64.229  1.00  0.00    -0.121 N  
BRANCH  31  32
HETATM   32  C   UNL     4      -8.149   5.539  63.889  1.00  0.00    -0.122 C  
HETATM   33  C   UNL     4      -7.986   5.871  62.399  1.00  0.00    -0.097 C  
ENDBRANCH  31  32
BRANCH  31  34
HETATM   34  C   UNL     4      -9.324   3.596  62.983  1.00  0.00    -0.103 C  
HETATM   35  C   UNL     4     -10.702   2.917  63.143  1.00  0.00    -0.220 C  
ENDBRANCH  31  34
BRANCH  31  36
HETATM   36  C   UNL     4      -7.586   3.334  64.733  1.00  0.00    -0.077 C  
HETATM   37  C   UNL     4      -7.044   2.254  63.771  1.00  0.00    -0.040 C  
ENDBRANCH  31  36
ENDBRANCH  30  31
ENDBRANCH  29  30
ENDBRANCH  28  29
ENDBRANCH  17  28
ENDBRANCH  11  12
ENDBRANCH  10  11
ENDBRANCH   9  10
ENDBRANCH   6   9
BRANCH   6  38
HETATM   38  C   UNL     4      -8.782  11.251  67.247  1.00  0.00    -0.145 C  
HETATM   39  C   UNL     4      -9.169  12.718  66.968  1.00  0.00    -0.221 C  
ENDBRANCH   6  38
ENDBRANCH   5   6
TORSDOF 21
ENDMDL
MODEL       54
REMARK 921   NORMALIZED FREE ENERGY PREDICTED BY IDOCK:   -2.69 KCAL/MOL
REMARK 922        TOTAL FREE ENERGY PREDICTED BY IDOCK:   -8.32 KCAL/MOL
REMARK 923 INTER-LIGAND FREE ENERGY PREDICTED BY IDOCK:   -6.99 KCAL/MOL
REMARK 924 INTRA-LIGAND FREE ENERGY PREDICTED BY IDOCK:   -1.33 KCAL/MOL
REMARK 927      BINDING AFFINITY PREDICTED BY RF-SCORE:    0.00 PKD
ROOT
HETATM    1  I   UNL     1      -7.478   9.214  62.640  1.00  0.00    -0.107 I  
HETATM    2  I   UNL     2      -6.785  11.225  67.433  1.00  0.00    -0.115 I  
HETATM    3  I   UNL     3      -6.920   5.906  64.868  1.00  0.00    -0.061 I  
HETATM    4  C   UNL     4      -9.716   4.776  67.236  1.00  0.00    -0.210 C  
HETATM    5  C   UNL     4     -10.003   5.027  68.732  1.00  0.00    -0.155 C  
ENDROOT
BRANCH   5   6
HETATM    6  N   UNL     4      -8.826   5.425  69.581  1.00  0.00    -0.108 N  
BRANCH   6   7
HETATM    7  C   UNL     4      -7.705   5.861  68.668  1.00  0.00    -0.094 C  
HETATM    8  C   UNL     4      -7.443   7.378  68.580  1.00  0.00    -0.105 C  
ENDBRANCH   6   7
BRANCH   6   9
HETATM    9  C   UNL     4      -9.251   6.535  70.503  1.00  0.00    -0.155 C  
BRANCH   9  10
HETATM   10  C   UNL     4     -10.721   7.054  70.460  1.00  0.00    -0.238 C  
BRANCH  10  11
HETATM   11  O   UNL     4     -10.906   8.406  70.234  1.00  0.00    -0.236 OA 
BRANCH  11  12
HETATM   12  C   UNL     4     -10.746   9.137  69.102  1.00  0.00    -0.172 A  
HETATM   13  C   UNL     4     -10.543   8.467  67.887  1.00  0.00    -0.218 A  
HETATM   14  C   UNL     4     -10.336   9.151  66.719  1.00  0.00    -0.308 A  
HETATM   15  C   UNL     4     -10.380  10.521  66.707  1.00  0.00    -0.301 A  
HETATM   16  C   UNL     4     -10.615  11.289  67.884  1.00  0.00    -0.194 A  
HETATM   17  C   UNL     4     -10.786  10.589  69.127  1.00  0.00    -0.237 A  
BRANCH  16  18
HETATM   18  O   UNL     4     -10.700  12.666  67.789  1.00  0.00    -0.213 OA 
BRANCH  18  19
HETATM   19  C   UNL     4     -11.227  13.231  66.622  1.00  0.00    -0.306 C  
BRANCH  19  20
HETATM   20  C   UNL     4     -11.749  14.690  66.618  1.00  0.00    -0.333 C  
BRANCH  20  21
HETATM   21  N   UNL     4     -10.674  15.701  66.211  1.00  0.00    -0.309 N  
BRANCH  21  22
HETATM   22  C   UNL     4     -11.054  16.398  64.927  1.00  0.00    -0.239 C  
HETATM   23  C   UNL     4     -11.986  15.631  63.972  1.00  0.00     0.074 C  
ENDBRANCH  21  22
BRANCH  21  24
HETATM   24  C   UNL     4      -9.365  14.986  65.971  1.00  0.00    -0.269 C  
HETATM   25  C   UNL     4      -8.094  15.611  66.588  1.00  0.00    -0.239 C  
ENDBRANCH  21  24
BRANCH  21  26
HETATM   26  C   UNL     4     -10.522  16.751  67.276  1.00  0.00    -0.310 C  
HETATM   27  C   UNL     4     -10.555  18.213  66.800  1.00  0.00    -0.310 C  
ENDBRANCH  21  26
ENDBRANCH  20  21
ENDBRANCH  19  20
ENDBRANCH  18  19
ENDBRANCH  16  18
BRANCH  17  28
HETATM   28  O   UNL     4     -10.994  11.304  70.293  1.00  0.00    -0.005 OA 
BRANCH  28  29
HETATM   29  C   UNL     4     -12.184  11.961  70.608  1.00  0.00    -0.331 C  
BRANCH  29  30
HETATM   30  C   UNL     4     -12.190  13.485  70.359  1.00  0.00    -0.356 C  
BRANCH  30  31
HETATM   31  N   UNL     4     -12.810  14.318  71.472  1.00  0.00    -0.327 N  
BRANCH  31  32
HETATM   32  C   UNL     4     -14.178  13.813  71.849  1.00  0.00    -0.264 C  
HETATM   33  C   UNL     4     -14.250  12.432  72.515  1.00  0.00     0.543 C  
ENDBRANCH  31  32
BRANCH  31  34
HETATM   34  C   UNL     4     -12.937  15.739  70.994  1.00  0.00    -0.320 C  
HETATM   35  C   UNL     4     -11.615  16.510  70.790  1.00  0.00     0.017 C  
ENDBRANCH  31  34
BRANCH  31  36
HETATM   36  C   UNL     4     -11.956  14.254  72.721  1.00  0.00     0.382 C  
HETATM   37  C   UNL     4     -12.295  15.247  73.853  1.00  0.00    -0.756 C  
ENDBRANCH  31  36
ENDBRANCH  30  31
ENDBRANCH  29  30
ENDBRANCH  28  29
ENDBRANCH  17  28
ENDBRANCH  11  12
ENDBRANCH  10  11
ENDBRANCH   9  10
ENDBRANCH   6   9
BRANCH   6  38
HETATM   38  C   UNL     4      -8.330   4.261  70.399  1.00  0.00    -0.065 C  
HETATM   39  C   UNL     4      -6.834   4.274  70.774  1.00  0.00    -0.036 C  
ENDBRANCH   6  38
ENDBRANCH   5   6
TORSDOF 21
ENDMDL
MODEL       55
REMARK 921   NORMALIZED FREE ENERGY PREDICTED BY IDOCK:   -2.64 KCAL/MOL
REMARK 922        TOTAL FREE ENERGY PREDICTED BY IDOCK:   -8.21 KCAL/MOL
REMARK 923 INTER-LIGAND FREE ENERGY PREDICTED BY IDOCK:   -7.07 KCAL/MOL
REMARK 924 INTRA-LIGAND FREE ENERGY PREDICTED BY IDOCK:   -1.14 KCAL/MOL
REMARK 927      BINDING AFFINITY PREDICTED BY RF-SCORE:    0.00 PKD
ROOT
HETATM    1  I   UNL     1      -9.665  18.174  66.782  1.00  0.00    -0.382 I  
HETATM    2  I   UNL     2     -11.455  13.808  64.494  1.00  0.00    -0.372 I  
HETATM    3  I   UNL     3      -8.094  15.295  69.119  1.00  0.00    -0.198 I  
HETATM    4  C   UNL     4      -5.197  13.182  67.759  1.00  0.00    -0.089 C  
HETATM    5  C   UNL     4      -5.128  11.820  67.036  1.00  0.00    -0.109 C  
ENDROOT
BRANCH   5   6
HETATM    6  N   UNL     4      -6.305  10.903  67.225  1.00  0.00    -0.064 N  
BRANCH   6   7
HETATM    7  C   UNL     4      -5.868   9.493  66.909  1.00  0.00    -0.055 C  
HETATM    8  C   UNL     4      -6.173   8.981  65.487  1.00  0.00    -0.063 C  
ENDBRANCH   6   7
BRANCH   6   9
HETATM    9  C   UNL     4      -6.790  11.028  68.643  1.00  0.00    -0.064 C  
BRANCH   9  10
HETATM   10  C   UNL     4      -6.514   9.876  69.658  1.00  0.00    -0.052 C  
BRANCH  10  11
HETATM   11  O   UNL     4      -7.499   8.914  69.802  1.00  0.00    -0.054 OA 
BRANCH  11  12
HETATM   12  C   UNL     4      -8.632   8.923  70.549  1.00  0.00    -0.184 A  
HETATM   13  C   UNL     4      -8.551   8.579  71.906  1.00  0.00    -0.254 A  
HETATM   14  C   UNL     4      -9.666   8.533  72.700  1.00  0.00    -0.285 A  
HETATM   15  C   UNL     4     -10.889   8.881  72.188  1.00  0.00    -0.339 A  
HETATM   16  C   UNL     4     -11.066   9.278  70.831  1.00  0.00    -0.306 A  
HETATM   17  C   UNL     4      -9.914   9.286  69.972  1.00  0.00    -0.209 A  
BRANCH  16  18
HETATM   18  O   UNL     4     -12.319   9.668  70.397  1.00  0.00    -0.113 OA 
BRANCH  18  19
HETATM   19  C   UNL     4     -12.586  11.033  70.242  1.00  0.00    -0.243 C  
BRANCH  19  20
HETATM   20  C   UNL     4     -12.798  11.941  71.480  1.00  0.00    -0.316 C  
BRANCH  20  21
HETATM   21  N   UNL     4     -12.653  13.430  71.153  1.00  0.00    -0.367 N  
BRANCH  21  22
HETATM   22  C   UNL     4     -11.794  13.626  69.927  1.00  0.00    -0.320 C  
HETATM   23  C   UNL     4     -12.050  14.898  69.098  1.00  0.00    -0.267 C  
ENDBRANCH  21  22
BRANCH  21  24
HETATM   24  C   UNL     4     -11.977  14.142  72.301  1.00  0.00     0.392 C  
HETATM   25  C   UNL     4     -11.544  15.606  72.070  1.00  0.00    -0.540 C  
ENDBRANCH  21  24
BRANCH  21  26
HETATM   26  C   UNL     4     -14.001  14.031  70.870  1.00  0.00     0.363 C  
HETATM   27  C   UNL     4     -14.375  15.280  71.687  1.00  0.00    -0.666 C  
ENDBRANCH  21  26
ENDBRANCH  20  21
ENDBRANCH  19  20
ENDBRANCH  18  19
ENDBRANCH  16  18
BRANCH  17  28
HETATM   28  O   UNL     4     -10.054   9.645  68.643  1.00  0.00    -0.167 OA 
BRANCH  28  29
HETATM   29  C   UNL     4     -10.432   8.763  67.628  1.00  0.00    -0.244 C  
BRANCH  29  30
HETATM   30  C   UNL     4      -9.331   7.791  67.148  1.00  0.00    -0.150 C  
BRANCH  30  31
HETATM   31  N   UNL     4      -9.521   6.342  67.575  1.00  0.00    -0.113 N  
BRANCH  31  32
HETATM   32  C   UNL     4      -8.490   5.438  66.952  1.00  0.00    -0.107 C  
HETATM   33  C   UNL     4      -7.949   5.846  65.574  1.00  0.00    -0.117 C  
ENDBRANCH  31  32
BRANCH  31  34
HETATM   34  C   UNL     4     -10.886   5.888  67.135  1.00  0.00    -0.285 C  
HETATM   35  C   UNL     4     -10.939   5.021  65.858  1.00  0.00    -0.015 C  
ENDBRANCH  31  34
BRANCH  31  36
HETATM   36  C   UNL     4      -9.377   6.208  69.076  1.00  0.00    -0.128 C  
HETATM   37  C   UNL     4     -10.636   5.789  69.866  1.00  0.00    -0.388 C  
ENDBRANCH  31  36
ENDBRANCH  30  31
ENDBRANCH  29  30
ENDBRANCH  28  29
ENDBRANCH  17  28
ENDBRANCH  11  12
ENDBRANCH  10  11
ENDBRANCH   9  10
ENDBRANCH   6   9
BRANCH   6  38
HETATM   38  C   UNL     4      -7.426  11.261  66.283  1.00  0.00    -0.010 C  
HETATM   39  C   UNL     4      -8.609  12.042  66.891  1.00  0.00    -0.189 C  
ENDBRANCH   6  38
ENDBRANCH   5   6
TORSDOF 21
ENDMDL
MODEL       56
REMARK 921   NORMALIZED FREE ENERGY PREDICTED BY IDOCK:   -2.57 KCAL/MOL
REMARK 922        TOTAL FREE ENERGY PREDICTED BY IDOCK:   -8.05 KCAL/MOL
REMARK 923 INTER-LIGAND FREE ENERGY PREDICTED BY IDOCK:   -6.64 KCAL/MOL
REMARK 924 INTRA-LIGAND FREE ENERGY PREDICTED BY IDOCK:   -1.41 KCAL/MOL
REMARK 927      BINDING AFFINITY PREDICTED BY RF-SCORE:    0.00 PKD
ROOT
HETATM    1  I   UNL     1     -12.535  14.256  71.286  1.00  0.00    -0.431 I  
HETATM    2  I   UNL     2      -8.202  13.179  68.535  1.00  0.00     0.145 I  
HETATM    3  I   UNL     3     -12.667  10.238  71.048  1.00  0.00    -0.489 I  
HETATM    4  C   UNL     4     -10.201   8.178  73.141  1.00  0.00    -0.171 C  
HETATM    5  C   UNL     4      -8.814   7.567  72.847  1.00  0.00    -0.143 C  
ENDROOT
BRANCH   5   6
HETATM    6  N   UNL     4      -8.480   7.336  71.398  1.00  0.00    -0.114 N  
BRANCH   6   7
HETATM    7  C   UNL     4      -9.588   6.520  70.777  1.00  0.00    -0.179 C  
HETATM    8  C   UNL     4     -10.710   7.309  70.073  1.00  0.00    -0.261 C  
ENDBRANCH   6   7
BRANCH   6   9
HETATM    9  C   UNL     4      -8.329   8.670  70.720  1.00  0.00    -0.152 C  
BRANCH   9  10
HETATM   10  C   UNL     4      -7.254   8.854  69.606  1.00  0.00    -0.055 C  
BRANCH  10  11
HETATM   11  O   UNL     4      -7.647   8.603  68.303  1.00  0.00    -0.094 OA 
BRANCH  11  12
HETATM   12  C   UNL     4      -8.578   9.220  67.533  1.00  0.00    -0.116 A  
HETATM   13  C   UNL     4      -9.881   9.363  68.031  1.00  0.00    -0.191 A  
HETATM   14  C   UNL     4     -10.872   9.942  67.283  1.00  0.00    -0.268 A  
HETATM   15  C   UNL     4     -10.590  10.449  66.042  1.00  0.00    -0.136 A  
HETATM   16  C   UNL     4      -9.289  10.382  65.466  1.00  0.00    -0.197 A  
HETATM   17  C   UNL     4      -8.249   9.736  66.216  1.00  0.00    -0.116 A  
BRANCH  16  18
HETATM   18  O   UNL     4      -9.064  10.963  64.231  1.00  0.00    -0.194 OA 
BRANCH  18  19
HETATM   19  C   UNL     4      -9.793  12.105  63.878  1.00  0.00    -0.214 C  
BRANCH  19  20
HETATM   20  C   UNL     4     -10.211  13.138  64.956  1.00  0.00    -0.278 C  
BRANCH  20  21
HETATM   21  N   UNL     4     -11.608  13.715  64.711  1.00  0.00    -0.341 N  
BRANCH  21  22
HETATM   22  C   UNL     4     -12.217  13.130  63.460  1.00  0.00    -0.476 C  
HETATM   23  C   UNL     4     -13.279  12.034  63.654  1.00  0.00     0.018 C  
ENDBRANCH  21  22
BRANCH  21  24
HETATM   24  C   UNL     4     -11.516  15.210  64.517  1.00  0.00    -0.316 C  
HETATM   25  C   UNL     4     -10.396  15.955  65.275  1.00  0.00    -0.354 C  
ENDBRANCH  21  24
BRANCH  21  26
HETATM   26  C   UNL     4     -12.514  13.380  65.863  1.00  0.00    -0.408 C  
HETATM   27  C   UNL     4     -12.121  13.964  67.231  1.00  0.00    -0.403 C  
ENDBRANCH  21  26
ENDBRANCH  20  21
ENDBRANCH  19  20
ENDBRANCH  18  19
ENDBRANCH  16  18
BRANCH  17  28
HETATM   28  O   UNL     4      -6.978   9.634  65.677  1.00  0.00    -0.088 OA 
BRANCH  28  29
HETATM   29  C   UNL     4      -6.580   8.631  64.791  1.00  0.00    -0.066 C  
BRANCH  29  30
HETATM   30  C   UNL     4      -5.792   7.461  65.421  1.00  0.00    -0.037 C  
BRANCH  30  31
HETATM   31  N   UNL     4      -6.433   6.090  65.256  1.00  0.00    -0.041 N  
BRANCH  31  32
HETATM   32  C   UNL     4      -6.860   5.842  63.834  1.00  0.00    -0.049 C  
HETATM   33  C   UNL     4      -5.775   5.373  62.853  1.00  0.00    -0.014 C  
ENDBRANCH  31  32
BRANCH  31  34
HETATM   34  C   UNL     4      -7.647   6.020  66.141  1.00  0.00    -0.087 C  
HETATM   35  C   UNL     4      -8.852   5.229  65.585  1.00  0.00    -0.152 C  
ENDBRANCH  31  34
BRANCH  31  36
HETATM   36  C   UNL     4      -5.449   4.998  65.619  1.00  0.00    -0.013 C  
HETATM   37  C   UNL     4      -5.704   4.236  66.938  1.00  0.00    -0.022 C  
ENDBRANCH  31  36
ENDBRANCH  30  31
ENDBRANCH  29  30
ENDBRANCH  28  29
ENDBRANCH  17  28
ENDBRANCH  11  12
ENDBRANCH  10  11
ENDBRANCH   9  10
ENDBRANCH   6   9
BRANCH   6  38
HETATM   38  C   UNL     4      -7.197   6.558  71.256  1.00  0.00    -0.079 C  
HETATM   39  C   UNL     4      -7.262   5.278  70.398  1.00  0.00    -0.062 C  
ENDBRANCH   6  38
ENDBRANCH   5   6
TORSDOF 21
ENDMDL
MODEL       57
REMARK 921   NORMALIZED FREE ENERGY PREDICTED BY IDOCK:   -2.53 KCAL/MOL
REMARK 922        TOTAL FREE ENERGY PREDICTED BY IDOCK:   -7.95 KCAL/MOL
REMARK 923 INTER-LIGAND FREE ENERGY PREDICTED BY IDOCK:   -6.69 KCAL/MOL
REMARK 924 INTRA-LIGAND FREE ENERGY PREDICTED BY IDOCK:   -1.26 KCAL/MOL
REMARK 927      BINDING AFFINITY PREDICTED BY RF-SCORE:    0.00 PKD
ROOT
HETATM    1  I   UNL     1     -11.422  16.043  64.523  1.00  0.00     0.527 I  
HETATM    2  I   UNL     2      -8.453  18.248  68.241  1.00  0.00    -0.307 I  
HETATM    3  I   UNL     3     -12.120  13.651  67.686  1.00  0.00     0.072 I  
HETATM    4  C   UNL     4     -14.290  14.968  70.560  1.00  0.00     0.787 C  
HETATM    5  C   UNL     4     -13.966  15.664  71.899  1.00  0.00    -0.391 C  
ENDROOT
BRANCH   5   6
HETATM    6  N   UNL     4     -12.577  15.460  72.440  1.00  0.00    -0.346 N  
BRANCH   6   7
HETATM    7  C   UNL     4     -12.632  15.549  73.946  1.00  0.00    -0.629 C  
HETATM    8  C   UNL     4     -12.556  16.964  74.553  1.00  0.00     0.093 C  
ENDBRANCH   6   7
BRANCH   6   9
HETATM    9  C   UNL     4     -12.077  14.116  71.983  1.00  0.00     0.087 C  
BRANCH   9  10
HETATM   10  C   UNL     4     -13.027  12.881  72.032  1.00  0.00    -0.280 C  
BRANCH  10  11
HETATM   11  O   UNL     4     -12.768  11.850  71.146  1.00  0.00    -0.371 OA 
BRANCH  11  12
HETATM   12  C   UNL     4     -12.825  10.506  71.321  1.00  0.00    -0.431 A  
HETATM   13  C   UNL     4     -14.021   9.934  71.780  1.00  0.00    -0.032 A  
HETATM   14  C   UNL     4     -14.125   8.588  72.014  1.00  0.00    -0.516 A  
HETATM   15  C   UNL     4     -13.068   7.760  71.746  1.00  0.00    -0.353 A  
HETATM   16  C   UNL     4     -11.825   8.243  71.244  1.00  0.00    -0.288 A  
HETATM   17  C   UNL     4     -11.681   9.657  71.039  1.00  0.00    -0.353 A  
BRANCH  16  18
HETATM   18  O   UNL     4     -10.819   7.343  70.945  1.00  0.00    -0.233 OA 
BRANCH  18  19
HETATM   19  C   UNL     4     -11.096   5.972  71.015  1.00  0.00    -0.282 C  
BRANCH  19  20
HETATM   20  C   UNL     4     -10.048   4.930  70.548  1.00  0.00    -0.242 C  
BRANCH  20  21
HETATM   21  N   UNL     4      -9.519   4.067  71.696  1.00  0.00    -0.139 N  
BRANCH  21  22
HETATM   22  C   UNL     4      -9.690   2.600  71.384  1.00  0.00    -0.147 C  
HETATM   23  C   UNL     4     -10.575   1.786  72.343  1.00  0.00    -0.177 C  
ENDBRANCH  21  22
BRANCH  21  24
HETATM   24  C   UNL     4     -10.301   4.358  72.956  1.00  0.00    -0.179 C  
HETATM   25  C   UNL     4      -9.501   4.818  74.195  1.00  0.00    -0.131 C  
ENDBRANCH  21  24
BRANCH  21  26
HETATM   26  C   UNL     4      -8.054   4.325  71.905  1.00  0.00    -0.093 C  
HETATM   27  C   UNL     4      -7.483   5.590  71.241  1.00  0.00    -0.097 C  
ENDBRANCH  21  26
ENDBRANCH  20  21
ENDBRANCH  19  20
ENDBRANCH  18  19
ENDBRANCH  16  18
BRANCH  17  28
HETATM   28  O   UNL     4     -10.480  10.163  70.574  1.00  0.00    -0.261 OA 
BRANCH  28  29
HETATM   29  C   UNL     4     -10.241  10.519  69.245  1.00  0.00    -0.225 C  
BRANCH  29  30
HETATM   30  C   UNL     4      -9.314   9.567  68.458  1.00  0.00    -0.137 C  
BRANCH  30  31
HETATM   31  N   UNL     4      -9.077   9.955  67.005  1.00  0.00    -0.138 N  
BRANCH  31  32
HETATM   32  C   UNL     4      -9.945  11.112  66.588  1.00  0.00    -0.207 C  
HETATM   33  C   UNL     4     -10.353  11.178  65.109  1.00  0.00    -0.354 C  
ENDBRANCH  31  32
BRANCH  31  34
HETATM   34  C   UNL     4      -9.400   8.772  66.134  1.00  0.00    -0.234 C  
HETATM   35  C   UNL     4      -8.200   7.916  65.672  1.00  0.00    -0.137 C  
ENDBRANCH  31  34
BRANCH  31  36
HETATM   36  C   UNL     4      -7.639  10.385  66.800  1.00  0.00    -0.110 C  
HETATM   37  C   UNL     4      -6.998  11.238  67.917  1.00  0.00    -0.073 C  
ENDBRANCH  31  36
ENDBRANCH  30  31
ENDBRANCH  29  30
ENDBRANCH  28  29
ENDBRANCH  17  28
ENDBRANCH  11  12
ENDBRANCH  10  11
ENDBRANCH   9  10
ENDBRANCH   6   9
BRANCH   6  38
HETATM   38  C   UNL     4     -11.640  16.532  71.947  1.00  0.00    -0.136 C  
HETATM   39  C   UNL     4     -10.990  16.295  70.569  1.00  0.00    -0.233 C  
ENDBRANCH   6  38
ENDBRANCH   5   6
TORSDOF 21
ENDMDL
MODEL       58
REMARK 921   NORMALIZED FREE ENERGY PREDICTED BY IDOCK:   -2.50 KCAL/MOL
REMARK 922        TOTAL FREE ENERGY PREDICTED BY IDOCK:   -7.88 KCAL/MOL
REMARK 923 INTER-LIGAND FREE ENERGY PREDICTED BY IDOCK:   -6.05 KCAL/MOL
REMARK 924 INTRA-LIGAND FREE ENERGY PREDICTED BY IDOCK:   -1.83 KCAL/MOL
REMARK 927      BINDING AFFINITY PREDICTED BY RF-SCORE:    0.00 PKD
ROOT
HETATM    1  I   UNL     1      -8.165   7.314  62.823  1.00  0.00     0.257 I  
HETATM    2  I   UNL     2      -5.144  10.620  65.549  1.00  0.00    -0.110 I  
HETATM    3  I   UNL     3      -6.928   4.999  65.876  1.00  0.00    -0.069 I  
HETATM    4  C   UNL     4      -8.384   5.609  69.371  1.00  0.00    -0.107 C  
HETATM    5  C   UNL     4      -7.917   6.445  70.582  1.00  0.00    -0.112 C  
ENDROOT
BRANCH   5   6
HETATM    6  N   UNL     4      -6.450   6.775  70.640  1.00  0.00    -0.050 N  
BRANCH   6   7
HETATM    7  C   UNL     4      -5.706   5.799  69.761  1.00  0.00    -0.019 C  
HETATM    8  C   UNL     4      -5.360   6.283  68.338  1.00  0.00    -0.008 C  
ENDBRANCH   6   7
BRANCH   6   9
HETATM    9  C   UNL     4      -6.258   8.193  70.178  1.00  0.00    -0.032 C  
BRANCH   9  10
HETATM   10  C   UNL     4      -7.473   9.170  70.158  1.00  0.00    -0.082 C  
BRANCH  10  11
HETATM   11  O   UNL     4      -7.726   9.837  68.972  1.00  0.00    -0.077 OA 
BRANCH  11  12
HETATM   12  C   UNL     4      -8.187  11.095  68.753  1.00  0.00    -0.135 A  
HETATM   13  C   UNL     4      -7.263  12.117  68.495  1.00  0.00    -0.102 A  
HETATM   14  C   UNL     4      -7.666  13.413  68.305  1.00  0.00    -0.141 A  
HETATM   15  C   UNL     4      -9.000  13.726  68.308  1.00  0.00    -0.186 A  
HETATM   16  C   UNL     4     -10.015  12.749  68.527  1.00  0.00    -0.164 A  
HETATM   17  C   UNL     4      -9.608  11.394  68.776  1.00  0.00    -0.129 A  
BRANCH  16  18
HETATM   18  O   UNL     4     -11.343  13.126  68.463  1.00  0.00    -0.248 OA 
BRANCH  18  19
HETATM   19  C   UNL     4     -11.941  13.286  67.208  1.00  0.00    -0.343 C  
BRANCH  19  20
HETATM   20  C   UNL     4     -11.606  12.317  66.045  1.00  0.00    -0.393 C  
BRANCH  20  21
HETATM   21  N   UNL     4     -11.075  13.042  64.806  1.00  0.00    -0.309 N  
BRANCH  21  22
HETATM   22  C   UNL     4     -10.409  14.341  65.190  1.00  0.00    -0.415 C  
HETATM   23  C   UNL     4     -11.028  15.631  64.622  1.00  0.00    -0.344 C  
ENDBRANCH  21  22
BRANCH  21  24
HETATM   24  C   UNL     4     -12.221  13.373  63.878  1.00  0.00    -0.415 C  
HETATM   25  C   UNL     4     -13.147  12.213  63.454  1.00  0.00    -0.067 C  
ENDBRANCH  21  24
BRANCH  21  26
HETATM   26  C   UNL     4     -10.052  12.190  64.108  1.00  0.00    -0.308 C  
HETATM   27  C   UNL     4      -9.281  11.192  64.988  1.00  0.00    -0.190 C  
ENDBRANCH  21  26
ENDBRANCH  20  21
ENDBRANCH  19  20
ENDBRANCH  18  19
ENDBRANCH  16  18
BRANCH  17  28
HETATM   28  O   UNL     4     -10.565  10.424  69.014  1.00  0.00    -0.194 OA 
BRANCH  28  29
HETATM   29  C   UNL     4     -10.795   9.838  70.261  1.00  0.00    -0.301 C  
BRANCH  29  30
HETATM   30  C   UNL     4     -11.469   8.449  70.229  1.00  0.00    -0.062 C  
BRANCH  30  31
HETATM   31  N   UNL     4     -12.461   8.188  71.353  1.00  0.00    -0.306 N  
BRANCH  31  32
HETATM   32  C   UNL     4     -11.858   8.467  72.704  1.00  0.00    -0.290 C  
HETATM   33  C   UNL     4     -10.667   7.595  73.128  1.00  0.00    -0.445 C  
ENDBRANCH  31  32
BRANCH  31  34
HETATM   34  C   UNL     4     -12.877   6.744  71.301  1.00  0.00    -0.198 C  
HETATM   35  C   UNL     4     -14.324   6.434  71.743  1.00  0.00     0.122 C  
ENDBRANCH  31  34
BRANCH  31  36
HETATM   36  C   UNL     4     -13.668   9.092  71.214  1.00  0.00    -0.190 C  
HETATM   37  C   UNL     4     -14.098   9.885  72.468  1.00  0.00     0.218 C  
ENDBRANCH  31  36
ENDBRANCH  30  31
ENDBRANCH  29  30
ENDBRANCH  28  29
ENDBRANCH  17  28
ENDBRANCH  11  12
ENDBRANCH  10  11
ENDBRANCH   9  10
ENDBRANCH   6   9
BRANCH   6  38
HETATM   38  C   UNL     4      -5.918   6.632  72.043  1.00  0.00    -0.038 C  
HETATM   39  C   UNL     4      -6.762   7.271  73.164  1.00  0.00    -0.065 C  
ENDBRANCH   6  38
ENDBRANCH   5   6
TORSDOF 21
ENDMDL
MODEL       59
REMARK 921   NORMALIZED FREE ENERGY PREDICTED BY IDOCK:   -2.50 KCAL/MOL
REMARK 922        TOTAL FREE ENERGY PREDICTED BY IDOCK:   -7.88 KCAL/MOL
REMARK 923 INTER-LIGAND FREE ENERGY PREDICTED BY IDOCK:   -6.94 KCAL/MOL
REMARK 924 INTRA-LIGAND FREE ENERGY PREDICTED BY IDOCK:   -0.94 KCAL/MOL
REMARK 927      BINDING AFFINITY PREDICTED BY RF-SCORE:    0.00 PKD
ROOT
HETATM    1  I   UNL     1      -7.735  20.543  68.523  1.00  0.00     0.704 I  
HETATM    2  I   UNL     2      -5.172  16.107  67.405  1.00  0.00     0.120 I  
HETATM    3  I   UNL     3     -10.488  18.487  66.422  1.00  0.00    -0.210 I  
HETATM    4  C   UNL     4     -12.199  15.473  68.064  1.00  0.00     0.432 C  
HETATM    5  C   UNL     4     -11.910  13.957  68.054  1.00  0.00    -0.375 C  
ENDROOT
BRANCH   5   6
HETATM    6  N   UNL     4     -11.092  13.439  66.903  1.00  0.00    -0.287 N  
BRANCH   6   7
HETATM    7  C   UNL     4     -10.855  14.575  65.937  1.00  0.00    -0.308 C  
HETATM    8  C   UNL     4      -9.384  14.942  65.657  1.00  0.00    -0.018 C  
ENDBRANCH   6   7
BRANCH   6   9
HETATM    9  C   UNL     4      -9.798  12.892  67.441  1.00  0.00    -0.207 C  
BRANCH   9  10
HETATM   10  C   UNL     4      -9.810  11.993  68.715  1.00  0.00    -0.044 C  
BRANCH  10  11
HETATM   11  O   UNL     4     -11.024  11.826  69.357  1.00  0.00    -0.211 OA 
BRANCH  11  12
HETATM   12  C   UNL     4     -11.417  10.896  70.265  1.00  0.00    -0.302 A  
HETATM   13  C   UNL     4     -12.700  10.995  70.822  1.00  0.00    -0.414 A  
HETATM   14  C   UNL     4     -13.137  10.109  71.771  1.00  0.00    -0.568 A  
HETATM   15  C   UNL     4     -12.338   9.065  72.157  1.00  0.00    -0.442 A  
HETATM   16  C   UNL     4     -11.033   8.862  71.622  1.00  0.00    -0.345 A  
HETATM   17  C   UNL     4     -10.540   9.809  70.661  1.00  0.00    -0.313 A  
BRANCH  16  18
HETATM   18  O   UNL     4     -10.303   7.756  72.018  1.00  0.00    -0.198 OA 
BRANCH  18  19
HETATM   19  C   UNL     4     -10.965   6.533  72.182  1.00  0.00    -0.249 C  
BRANCH  19  20
HETATM   20  C   UNL     4     -10.296   5.372  72.961  1.00  0.00    -0.197 C  
BRANCH  20  21
HETATM   21  N   UNL     4      -9.786   4.260  72.041  1.00  0.00    -0.156 N  
BRANCH  21  22
HETATM   22  C   UNL     4      -8.277   4.220  72.037  1.00  0.00    -0.095 C  
HETATM   23  C   UNL     4      -7.565   4.814  73.265  1.00  0.00    -0.091 C  
ENDBRANCH  21  22
BRANCH  21  24
HETATM   24  C   UNL     4     -10.238   4.521  70.624  1.00  0.00    -0.088 C  
HETATM   25  C   UNL     4      -9.454   3.824  69.491  1.00  0.00    -0.257 C  
ENDBRANCH  21  24
BRANCH  21  26
HETATM   26  C   UNL     4     -10.280   2.925  72.522  1.00  0.00    -0.150 C  
HETATM   27  C   UNL     4     -11.228   2.945  73.733  1.00  0.00    -0.263 C  
ENDBRANCH  21  26
ENDBRANCH  20  21
ENDBRANCH  19  20
ENDBRANCH  18  19
ENDBRANCH  16  18
BRANCH  17  28
HETATM   28  O   UNL     4      -9.268   9.654  70.137  1.00  0.00    -0.226 OA 
BRANCH  28  29
HETATM   29  C   UNL     4      -8.895   8.621  69.275  1.00  0.00    -0.137 C  
BRANCH  29  30
HETATM   30  C   UNL     4      -9.531   8.666  67.868  1.00  0.00    -0.139 C  
BRANCH  30  31
HETATM   31  N   UNL     4      -8.936   7.693  66.861  1.00  0.00    -0.132 N  
BRANCH  31  32
HETATM   32  C   UNL     4      -9.891   6.576  66.534  1.00  0.00    -0.111 C  
HETATM   33  C   UNL     4      -9.319   5.369  65.777  1.00  0.00    -0.132 C  
ENDBRANCH  31  32
BRANCH  31  34
HETATM   34  C   UNL     4      -7.686   7.099  67.449  1.00  0.00    -0.110 C  
HETATM   35  C   UNL     4      -6.359   7.797  67.079  1.00  0.00    -0.054 C  
ENDBRANCH  31  34
BRANCH  31  36
HETATM   36  C   UNL     4      -8.623   8.402  65.560  1.00  0.00    -0.176 C  
HETATM   37  C   UNL     4      -9.607   9.505  65.110  1.00  0.00    -0.270 C  
ENDBRANCH  31  36
ENDBRANCH  30  31
ENDBRANCH  29  30
ENDBRANCH  28  29
ENDBRANCH  17  28
ENDBRANCH  11  12
ENDBRANCH  10  11
ENDBRANCH   9  10
ENDBRANCH   6   9
BRANCH   6  38
HETATM   38  C   UNL     4     -11.824  12.349  66.165  1.00  0.00    -0.376 C  
HETATM   39  C   UNL     4     -12.457  12.741  64.814  1.00  0.00    -0.539 C  
ENDBRANCH   6  38
ENDBRANCH   5   6
TORSDOF 21
ENDMDL
MODEL       60
REMARK 921   NORMALIZED FREE ENERGY PREDICTED BY IDOCK:   -2.47 KCAL/MOL
REMARK 922        TOTAL FREE ENERGY PREDICTED BY IDOCK:   -7.82 KCAL/MOL
REMARK 923 INTER-LIGAND FREE ENERGY PREDICTED BY IDOCK:   -5.64 KCAL/MOL
REMARK 924 INTRA-LIGAND FREE ENERGY PREDICTED BY IDOCK:   -2.18 KCAL/MOL
REMARK 927      BINDING AFFINITY PREDICTED BY RF-SCORE:    0.00 PKD
ROOT
HETATM    1  I   UNL     1      -9.706  19.362  66.883  1.00  0.00    -0.568 I  
HETATM    2  I   UNL     2      -5.646  16.147  67.707  1.00  0.00    -0.146 I  
HETATM    3  I   UNL     3     -10.934  15.977  65.079  1.00  0.00     0.038 I  
HETATM    4  C   UNL     4     -11.976  12.995  67.253  1.00  0.00    -0.379 C  
HETATM    5  C   UNL     4     -11.225  11.751  67.776  1.00  0.00    -0.266 C  
ENDROOT
BRANCH   5   6
HETATM    6  N   UNL     4      -9.992  11.346  67.015  1.00  0.00    -0.198 N  
BRANCH   6   7
HETATM    7  C   UNL     4      -9.927  12.158  65.744  1.00  0.00    -0.249 C  
HETATM    8  C   UNL     4     -10.777  11.651  64.562  1.00  0.00    -0.378 C  
ENDBRANCH   6   7
BRANCH   6   9
HETATM    9  C   UNL     4      -8.789  11.586  67.886  1.00  0.00    -0.152 C  
BRANCH   9  10
HETATM   10  C   UNL     4      -7.922  10.378  68.355  1.00  0.00    -0.110 C  
BRANCH  10  11
HETATM   11  O   UNL     4      -7.675  10.269  69.712  1.00  0.00    -0.155 OA 
BRANCH  11  12
HETATM   12  C   UNL     4      -8.109   9.350  70.613  1.00  0.00    -0.161 A  
HETATM   13  C   UNL     4      -9.429   9.430  71.077  1.00  0.00    -0.243 A  
HETATM   14  C   UNL     4      -9.911   8.556  72.015  1.00  0.00    -0.383 A  
HETATM   15  C   UNL     4      -9.117   7.540  72.480  1.00  0.00    -0.189 A  
HETATM   16  C   UNL     4      -7.774   7.357  72.041  1.00  0.00    -0.089 A  
HETATM   17  C   UNL     4      -7.237   8.293  71.094  1.00  0.00    -0.065 A  
BRANCH  16  18
HETATM   18  O   UNL     4      -7.049   6.277  72.512  1.00  0.00    -0.080 OA 
BRANCH  18  19
HETATM   19  C   UNL     4      -7.715   5.277  73.230  1.00  0.00    -0.100 C  
BRANCH  19  20
HETATM   20  C   UNL     4      -7.646   3.798  72.772  1.00  0.00    -0.068 C  
BRANCH  20  21
HETATM   21  N   UNL     4      -9.030   3.169  72.592  1.00  0.00    -0.087 N  
BRANCH  21  22
HETATM   22  C   UNL     4      -8.910   1.743  72.110  1.00  0.00    -0.068 C  
HETATM   23  C   UNL     4      -9.118   1.502  70.604  1.00  0.00    -0.140 C  
ENDBRANCH  21  22
BRANCH  21  24
HETATM   24  C   UNL     4      -9.809   3.938  71.552  1.00  0.00    -0.177 C  
HETATM   25  C   UNL     4     -10.887   4.922  72.059  1.00  0.00    -0.099 C  
ENDBRANCH  21  24
BRANCH  21  26
HETATM   26  C   UNL     4      -9.763   3.150  73.904  1.00  0.00    -0.097 C  
HETATM   27  C   UNL     4     -11.078   2.353  73.937  1.00  0.00    -0.274 C  
ENDBRANCH  21  26
ENDBRANCH  20  21
ENDBRANCH  19  20
ENDBRANCH  18  19
ENDBRANCH  16  18
BRANCH  17  28
HETATM   28  O   UNL     4      -5.929   8.158  70.663  1.00  0.00    -0.032 OA 
BRANCH  28  29
HETATM   29  C   UNL     4      -5.488   7.155  69.799  1.00  0.00    -0.022 C  
BRANCH  29  30
HETATM   30  C   UNL     4      -6.076   7.200  68.371  1.00  0.00    -0.034 C  
BRANCH  30  31
HETATM   31  N   UNL     4      -6.934   6.002  67.990  1.00  0.00    -0.073 N  
BRANCH  31  32
HETATM   32  C   UNL     4      -7.109   5.051  69.145  1.00  0.00    -0.056 C  
HETATM   33  C   UNL     4      -6.509   3.647  68.987  1.00  0.00    -0.033 C  
ENDBRANCH  31  32
BRANCH  31  34
HETATM   34  C   UNL     4      -6.261   5.270  66.862  1.00  0.00    -0.031 C  
HETATM   35  C   UNL     4      -5.243   6.083  66.032  1.00  0.00    -0.012 C  
ENDBRANCH  31  34
BRANCH  31  36
HETATM   36  C   UNL     4      -8.319   6.453  67.576  1.00  0.00    -0.117 C  
HETATM   37  C   UNL     4      -8.840   5.953  66.211  1.00  0.00    -0.143 C  
ENDBRANCH  31  36
ENDBRANCH  30  31
ENDBRANCH  29  30
ENDBRANCH  28  29
ENDBRANCH  17  28
ENDBRANCH  11  12
ENDBRANCH  10  11
ENDBRANCH   9  10
ENDBRANCH   6   9
BRANCH   6  38
HETATM   38  C   UNL     4     -10.046   9.890  66.632  1.00  0.00    -0.233 C  
HETATM   39  C   UNL     4     -10.983   8.995  67.469  1.00  0.00     0.027 C  
ENDBRANCH   6  38
ENDBRANCH   5   6
TORSDOF 21
ENDMDL
MODEL       61
REMARK 921   NORMALIZED FREE ENERGY PREDICTED BY IDOCK:   -2.39 KCAL/MOL
REMARK 922        TOTAL FREE ENERGY PREDICTED BY IDOCK:   -7.64 KCAL/MOL
REMARK 923 INTER-LIGAND FREE ENERGY PREDICTED BY IDOCK:   -5.77 KCAL/MOL
REMARK 924 INTRA-LIGAND FREE ENERGY PREDICTED BY IDOCK:   -1.88 KCAL/MOL
REMARK 927      BINDING AFFINITY PREDICTED BY RF-SCORE:    0.00 PKD
ROOT
HETATM    1  I   UNL     1      -6.154   9.707  64.855  1.00  0.00    -0.105 I  
HETATM    2  I   UNL     2      -5.176  13.060  68.767  1.00  0.00    -0.080 I  
HETATM    3  I   UNL     3      -9.635   9.678  66.878  1.00  0.00    -0.265 I  
HETATM    4  C   UNL     4     -11.933  12.740  66.655  1.00  0.00    -0.411 C  
HETATM    5  C   UNL     4     -12.107  13.999  67.531  1.00  0.00    -0.326 C  
ENDROOT
BRANCH   5   6
HETATM    6  N   UNL     4     -11.632  13.894  68.954  1.00  0.00    -0.292 N  
BRANCH   6   7
HETATM    7  C   UNL     4     -11.957  15.187  69.663  1.00  0.00    -0.329 C  
HETATM    8  C   UNL     4     -11.033  15.579  70.833  1.00  0.00    -0.333 C  
ENDBRANCH   6   7
BRANCH   6   9
HETATM    9  C   UNL     4     -12.315  12.721  69.603  1.00  0.00     0.001 C  
BRANCH   9  10
HETATM   10  C   UNL     4     -11.458  11.570  70.214  1.00  0.00    -0.099 C  
BRANCH  10  11
HETATM   11  O   UNL     4     -11.984  10.904  71.307  1.00  0.00    -0.279 OA 
BRANCH  11  12
HETATM   12  C   UNL     4     -12.330   9.600  71.458  1.00  0.00    -0.390 A  
HETATM   13  C   UNL     4     -13.552   9.159  70.931  1.00  0.00     0.066 A  
HETATM   14  C   UNL     4     -13.971   7.864  71.086  1.00  0.00    -0.192 A  
HETATM   15  C   UNL     4     -13.168   6.952  71.719  1.00  0.00    -0.281 A  
HETATM   16  C   UNL     4     -11.894   7.298  72.257  1.00  0.00    -0.248 A  
HETATM   17  C   UNL     4     -11.460   8.662  72.145  1.00  0.00    -0.373 A  
BRANCH  16  18
HETATM   18  O   UNL     4     -11.113   6.314  72.835  1.00  0.00    -0.254 OA 
BRANCH  18  19
HETATM   19  C   UNL     4     -10.896   5.124  72.132  1.00  0.00    -0.151 C  
BRANCH  19  20
HETATM   20  C   UNL     4      -9.469   4.726  71.675  1.00  0.00    -0.151 C  
BRANCH  20  21
HETATM   21  N   UNL     4      -8.936   3.492  72.408  1.00  0.00    -0.094 N  
BRANCH  21  22
HETATM   22  C   UNL     4      -9.746   3.219  73.653  1.00  0.00    -0.107 C  
HETATM   23  C   UNL     4     -10.712   2.023  73.601  1.00  0.00    -0.240 C  
ENDBRANCH  21  22
BRANCH  21  24
HETATM   24  C   UNL     4      -7.507   3.730  72.837  1.00  0.00    -0.064 C  
HETATM   25  C   UNL     4      -7.283   4.444  74.188  1.00  0.00    -0.072 C  
ENDBRANCH  21  24
BRANCH  21  26
HETATM   26  C   UNL     4      -9.033   2.283  71.522  1.00  0.00    -0.080 C  
HETATM   27  C   UNL     4      -7.723   1.520  71.264  1.00  0.00    -0.036 C  
ENDBRANCH  21  26
ENDBRANCH  20  21
ENDBRANCH  19  20
ENDBRANCH  18  19
ENDBRANCH  16  18
BRANCH  17  28
HETATM   28  O   UNL     4     -10.238   9.038  72.676  1.00  0.00     0.080 OA 
BRANCH  28  29
HETATM   29  C   UNL     4      -9.018   8.460  72.321  1.00  0.00    -0.233 C  
BRANCH  29  30
HETATM   30  C   UNL     4      -8.613   8.620  70.838  1.00  0.00    -0.172 C  
BRANCH  30  31
HETATM   31  N   UNL     4      -7.117   8.754  70.590  1.00  0.00    -0.055 N  
BRANCH  31  32
HETATM   32  C   UNL     4      -6.746   8.346  69.189  1.00  0.00    -0.047 C  
HETATM   33  C   UNL     4      -5.383   8.819  68.664  1.00  0.00    -0.037 C  
ENDBRANCH  31  32
BRANCH  31  34
HETATM   34  C   UNL     4      -6.388   7.864  71.559  1.00  0.00    -0.039 C  
HETATM   35  C   UNL     4      -6.386   6.355  71.229  1.00  0.00    -0.049 C  
ENDBRANCH  31  34
BRANCH  31  36
HETATM   36  C   UNL     4      -6.680  10.194  70.761  1.00  0.00     0.040 C  
HETATM   37  C   UNL     4      -5.450  10.450  71.660  1.00  0.00     0.073 C  
ENDBRANCH  31  36
ENDBRANCH  30  31
ENDBRANCH  29  30
ENDBRANCH  28  29
ENDBRANCH  17  28
ENDBRANCH  11  12
ENDBRANCH  10  11
ENDBRANCH   9  10
ENDBRANCH   6   9
BRANCH   6  38
HETATM   38  C   UNL     4     -10.140  13.696  69.014  1.00  0.00     0.054 C  
HETATM   39  C   UNL     4      -9.322  14.286  67.846  1.00  0.00    -0.198 C  
ENDBRANCH   6  38
ENDBRANCH   5   6
TORSDOF 21
ENDMDL
MODEL       62
REMARK 921   NORMALIZED FREE ENERGY PREDICTED BY IDOCK:   -2.38 KCAL/MOL
REMARK 922        TOTAL FREE ENERGY PREDICTED BY IDOCK:   -7.63 KCAL/MOL
REMARK 923 INTER-LIGAND FREE ENERGY PREDICTED BY IDOCK:   -5.20 KCAL/MOL
REMARK 924 INTRA-LIGAND FREE ENERGY PREDICTED BY IDOCK:   -2.43 KCAL/MOL
REMARK 927      BINDING AFFINITY PREDICTED BY RF-SCORE:    0.00 PKD
ROOT
HETATM    1  I   UNL     1      -9.418  20.021  66.547  1.00  0.00    -0.464 I  
HETATM    2  I   UNL     2      -5.583  16.599  67.586  1.00  0.00    -0.201 I  
HETATM    3  I   UNL     3     -10.938  16.587  65.093  1.00  0.00     0.308 I  
HETATM    4  C   UNL     4     -12.137  13.903  67.557  1.00  0.00    -0.366 C  
HETATM    5  C   UNL     4     -11.464  12.660  68.179  1.00  0.00    -0.313 C  
ENDROOT
BRANCH   5   6
HETATM    6  N   UNL     4     -10.285  12.096  67.434  1.00  0.00    -0.198 N  
BRANCH   6   7
HETATM    7  C   UNL     4     -10.288  12.662  66.035  1.00  0.00    -0.270 C  
HETATM    8  C   UNL     4     -11.088  11.876  64.977  1.00  0.00    -0.360 C  
ENDBRANCH   6   7
BRANCH   6   9
HETATM    9  C   UNL     4      -9.029  12.461  68.176  1.00  0.00    -0.196 C  
BRANCH   9  10
HETATM   10  C   UNL     4      -7.791  11.514  68.112  1.00  0.00    -0.128 C  
BRANCH  10  11
HETATM   11  O   UNL     4      -7.439  10.857  69.277  1.00  0.00    -0.123 OA 
BRANCH  11  12
HETATM   12  C   UNL     4      -7.599   9.557  69.636  1.00  0.00    -0.103 A  
HETATM   13  C   UNL     4      -8.585   9.233  70.578  1.00  0.00    -0.271 A  
HETATM   14  C   UNL     4      -8.766   7.944  71.008  1.00  0.00    -0.138 A  
HETATM   15  C   UNL     4      -8.015   6.930  70.475  1.00  0.00    -0.114 A  
HETATM   16  C   UNL     4      -7.014   7.157  69.487  1.00  0.00    -0.058 A  
HETATM   17  C   UNL     4      -6.777   8.508  69.060  1.00  0.00    -0.052 A  
BRANCH  16  18
HETATM   18  O   UNL     4      -6.331   6.079  68.954  1.00  0.00    -0.037 OA 
BRANCH  18  19
HETATM   19  C   UNL     4      -7.034   4.897  68.691  1.00  0.00    -0.053 C  
BRANCH  19  20
HETATM   20  C   UNL     4      -7.348   4.473  67.233  1.00  0.00    -0.074 C  
BRANCH  20  21
HETATM   21  N   UNL     4      -8.840   4.227  66.997  1.00  0.00    -0.113 N  
BRANCH  21  22
HETATM   22  C   UNL     4      -9.165   2.757  67.114  1.00  0.00    -0.146 C  
HETATM   23  C   UNL     4      -8.057   1.769  66.709  1.00  0.00    -0.074 C  
ENDBRANCH  21  22
BRANCH  21  24
HETATM   24  C   UNL     4      -9.216   4.667  65.602  1.00  0.00    -0.151 C  
HETATM   25  C   UNL     4     -10.260   3.815  64.848  1.00  0.00    -0.121 C  
ENDBRANCH  21  24
BRANCH  21  26
HETATM   26  C   UNL     4      -9.654   4.961  68.026  1.00  0.00    -0.146 C  
HETATM   27  C   UNL     4     -10.435   6.189  67.528  1.00  0.00    -0.301 C  
ENDBRANCH  21  26
ENDBRANCH  20  21
ENDBRANCH  19  20
ENDBRANCH  18  19
ENDBRANCH  16  18
BRANCH  17  28
HETATM   28  O   UNL     4      -5.797   8.767  68.118  1.00  0.00    -0.041 OA 
BRANCH  28  29
HETATM   29  C   UNL     4      -5.744   8.170  66.857  1.00  0.00    -0.041 C  
BRANCH  29  30
HETATM   30  C   UNL     4      -6.981   8.399  65.961  1.00  0.00    -0.065 C  
BRANCH  30  31
HETATM   31  N   UNL     4      -6.684   9.002  64.595  1.00  0.00    -0.076 N  
BRANCH  31  32
HETATM   32  C   UNL     4      -7.742   9.990  64.179  1.00  0.00    -0.144 C  
HETATM   33  C   UNL     4      -8.893   9.455  63.314  1.00  0.00    -0.202 C  
ENDBRANCH  31  32
BRANCH  31  34
HETATM   34  C   UNL     4      -6.638   7.892  63.581  1.00  0.00    -0.063 C  
HETATM   35  C   UNL     4      -7.167   6.518  64.049  1.00  0.00    -0.067 C  
ENDBRANCH  31  34
BRANCH  31  36
HETATM   36  C   UNL     4      -5.367   9.750  64.621  1.00  0.00    -0.066 C  
HETATM   37  C   UNL     4      -5.354  11.118  65.337  1.00  0.00     0.092 C  
ENDBRANCH  31  36
ENDBRANCH  30  31
ENDBRANCH  29  30
ENDBRANCH  28  29
ENDBRANCH  17  28
ENDBRANCH  11  12
ENDBRANCH  10  11
ENDBRANCH   9  10
ENDBRANCH   6   9
BRANCH   6  38
HETATM   38  C   UNL     4     -10.381  10.596  67.326  1.00  0.00    -0.220 C  
HETATM   39  C   UNL     4     -11.290   9.891  68.354  1.00  0.00    -0.049 C  
ENDBRANCH   6  38
ENDBRANCH   5   6
TORSDOF 21
ENDMDL
MODEL       63
REMARK 921   NORMALIZED FREE ENERGY PREDICTED BY IDOCK:   -2.31 KCAL/MOL
REMARK 922        TOTAL FREE ENERGY PREDICTED BY IDOCK:   -7.46 KCAL/MOL
REMARK 923 INTER-LIGAND FREE ENERGY PREDICTED BY IDOCK:   -5.87 KCAL/MOL
REMARK 924 INTRA-LIGAND FREE ENERGY PREDICTED BY IDOCK:   -1.59 KCAL/MOL
REMARK 927      BINDING AFFINITY PREDICTED BY RF-SCORE:    0.00 PKD
ROOT
HETATM    1  I   UNL     1      -8.484   6.964  62.387  1.00  0.00     0.395 I  
HETATM    2  I   UNL     2      -5.184   9.647  65.454  1.00  0.00    -0.050 I  
HETATM    3  I   UNL     3      -7.241   4.131  64.966  1.00  0.00    -0.073 I  
HETATM    4  C   UNL     4      -8.517   4.231  68.580  1.00  0.00    -0.096 C  
HETATM    5  C   UNL     4      -7.957   4.837  69.885  1.00  0.00    -0.069 C  
ENDROOT
BRANCH   5   6
HETATM    6  N   UNL     4      -6.474   5.088  69.923  1.00  0.00    -0.034 N  
BRANCH   6   7
HETATM    7  C   UNL     4      -5.799   4.095  69.007  1.00  0.00    -0.022 C  
HETATM    8  C   UNL     4      -5.819   2.621  69.458  1.00  0.00    -0.023 C  
ENDBRANCH   6   7
BRANCH   6   9
HETATM    9  C   UNL     4      -6.215   6.505  69.489  1.00  0.00    -0.034 C  
BRANCH   9  10
HETATM   10  C   UNL     4      -7.303   7.596  69.725  1.00  0.00    -0.081 C  
BRANCH  10  11
HETATM   11  O   UNL     4      -7.708   8.331  68.625  1.00  0.00    -0.109 OA 
BRANCH  11  12
HETATM   12  C   UNL     4      -8.244   9.576  68.550  1.00  0.00    -0.113 A  
HETATM   13  C   UNL     4      -7.387  10.672  68.379  1.00  0.00    -0.091 A  
HETATM   14  C   UNL     4      -7.867  11.955  68.335  1.00  0.00    -0.141 A  
HETATM   15  C   UNL     4      -9.215  12.187  68.403  1.00  0.00    -0.154 A  
HETATM   16  C   UNL     4     -10.167  11.135  68.542  1.00  0.00    -0.198 A  
HETATM   17  C   UNL     4      -9.678   9.788  68.637  1.00  0.00    -0.155 A  
BRANCH  16  18
HETATM   18  O   UNL     4     -11.516  11.439  68.549  1.00  0.00    -0.243 OA 
BRANCH  18  19
HETATM   19  C   UNL     4     -11.994  12.411  67.662  1.00  0.00    -0.180 C  
BRANCH  19  20
HETATM   20  C   UNL     4     -11.968  12.164  66.132  1.00  0.00    -0.147 C  
BRANCH  20  21
HETATM   21  N   UNL     4     -11.228  13.265  65.369  1.00  0.00    -0.286 N  
BRANCH  21  22
HETATM   22  C   UNL     4      -9.917  12.750  64.824  1.00  0.00    -0.135 C  
HETATM   23  C   UNL     4      -9.736  11.223  64.786  1.00  0.00    -0.298 C  
ENDBRANCH  21  22
BRANCH  21  24
HETATM   24  C   UNL     4     -10.914  14.412  66.301  1.00  0.00    -0.318 C  
HETATM   25  C   UNL     4      -9.632  15.225  66.017  1.00  0.00    -0.372 C  
ENDBRANCH  21  24
BRANCH  21  26
HETATM   26  C   UNL     4     -12.056  13.734  64.206  1.00  0.00    -0.440 C  
HETATM   27  C   UNL     4     -12.784  12.642  63.403  1.00  0.00    -0.241 C  
ENDBRANCH  21  26
ENDBRANCH  20  21
ENDBRANCH  19  20
ENDBRANCH  18  19
ENDBRANCH  16  18
BRANCH  17  28
HETATM   28  O   UNL     4     -10.573   8.744  68.795  1.00  0.00    -0.211 OA 
BRANCH  28  29
HETATM   29  C   UNL     4     -11.423   8.600  69.893  1.00  0.00     0.152 C  
BRANCH  29  30
HETATM   30  C   UNL     4     -10.725   8.513  71.268  1.00  0.00    -0.240 C  
BRANCH  30  31
HETATM   31  N   UNL     4     -11.484   7.727  72.328  1.00  0.00    -0.309 N  
BRANCH  31  32
HETATM   32  C   UNL     4     -10.578   7.277  73.443  1.00  0.00    -0.389 C  
HETATM   33  C   UNL     4      -9.097   7.670  73.339  1.00  0.00    -0.296 C  
ENDBRANCH  31  32
BRANCH  31  34
HETATM   34  C   UNL     4     -12.091   6.513  71.681  1.00  0.00    -0.328 C  
HETATM   35  C   UNL     4     -11.098   5.472  71.118  1.00  0.00    -0.125 C  
ENDBRANCH  31  34
BRANCH  31  36
HETATM   36  C   UNL     4     -12.561   8.588  72.954  1.00  0.00     0.174 C  
HETATM   37  C   UNL     4     -13.356   9.514  72.008  1.00  0.00    -0.535 C  
ENDBRANCH  31  36
ENDBRANCH  30  31
ENDBRANCH  29  30
ENDBRANCH  28  29
ENDBRANCH  17  28
ENDBRANCH  11  12
ENDBRANCH  10  11
ENDBRANCH   9  10
ENDBRANCH   6   9
BRANCH   6  38
HETATM   38  C   UNL     4      -5.925   4.884  71.311  1.00  0.00    -0.017 C  
HETATM   39  C   UNL     4      -5.800   6.145  72.191  1.00  0.00    -0.036 C  
ENDBRANCH   6  38
ENDBRANCH   5   6
TORSDOF 21
ENDMDL
MODEL       64
REMARK 921   NORMALIZED FREE ENERGY PREDICTED BY IDOCK:   -2.29 KCAL/MOL
REMARK 922        TOTAL FREE ENERGY PREDICTED BY IDOCK:   -7.41 KCAL/MOL
REMARK 923 INTER-LIGAND FREE ENERGY PREDICTED BY IDOCK:   -6.37 KCAL/MOL
REMARK 924 INTRA-LIGAND FREE ENERGY PREDICTED BY IDOCK:   -1.04 KCAL/MOL
REMARK 927      BINDING AFFINITY PREDICTED BY RF-SCORE:    0.00 PKD
ROOT
HETATM    1  I   UNL     1     -12.306  15.252  73.360  1.00  0.00    -0.703 I  
HETATM    2  I   UNL     2      -8.539  14.883  69.731  1.00  0.00     0.807 I  
HETATM    3  I   UNL     3     -13.282  11.827  71.479  1.00  0.00     0.305 I  
HETATM    4  C   UNL     4     -11.125   8.712  72.066  1.00  0.00    -0.437 C  
HETATM    5  C   UNL     4      -9.924   8.099  71.315  1.00  0.00    -0.181 C  
ENDROOT
BRANCH   5   6
HETATM    6  N   UNL     4      -9.769   8.489  69.870  1.00  0.00    -0.177 N  
BRANCH   6   7
HETATM    7  C   UNL     4     -10.459   7.451  69.018  1.00  0.00    -0.210 C  
HETATM    8  C   UNL     4     -10.891   6.154  69.732  1.00  0.00    -0.421 C  
ENDBRANCH   6   7
BRANCH   6   9
HETATM    9  C   UNL     4     -10.372   9.854  69.674  1.00  0.00    -0.241 C  
BRANCH   9  10
HETATM   10  C   UNL     4     -11.381  10.092  68.509  1.00  0.00    -0.052 C  
BRANCH  10  11
HETATM   11  O   UNL     4     -10.942  10.851  67.439  1.00  0.00    -0.260 OA 
BRANCH  11  12
HETATM   12  C   UNL     4     -11.018  12.188  67.221  1.00  0.00    -0.260 A  
HETATM   13  C   UNL     4     -12.122  12.893  67.722  1.00  0.00    -0.218 A  
HETATM   14  C   UNL     4     -12.273  14.236  67.499  1.00  0.00    -0.237 A  
HETATM   15  C   UNL     4     -11.307  14.934  66.823  1.00  0.00    -0.328 A  
HETATM   16  C   UNL     4     -10.134  14.312  66.307  1.00  0.00    -0.298 A  
HETATM   17  C   UNL     4      -9.982  12.895  66.490  1.00  0.00    -0.259 A  
BRANCH  16  18
HETATM   18  O   UNL     4      -9.175  15.088  65.682  1.00  0.00    -0.170 OA 
BRANCH  18  19
HETATM   19  C   UNL     4      -8.293  15.837  66.470  1.00  0.00    -0.278 C  
BRANCH  19  20
HETATM   20  C   UNL     4      -7.877  17.268  66.046  1.00  0.00    -0.175 C  
BRANCH  20  21
HETATM   21  N   UNL     4      -7.717  18.215  67.238  1.00  0.00    -0.215 N  
BRANCH  21  22
HETATM   22  C   UNL     4      -8.925  18.148  68.141  1.00  0.00    -0.290 C  
HETATM   23  C   UNL     4      -9.274  19.423  68.927  1.00  0.00    -0.391 C  
ENDBRANCH  21  22
BRANCH  21  24
HETATM   24  C   UNL     4      -7.594  19.639  66.747  1.00  0.00    -0.253 C  
HETATM   25  C   UNL     4      -7.640  19.867  65.220  1.00  0.00     0.144 C  
ENDBRANCH  21  24
BRANCH  21  26
HETATM   26  C   UNL     4      -6.514  17.825  68.050  1.00  0.00    -0.183 C  
HETATM   27  C   UNL     4      -5.655  16.679  67.488  1.00  0.00    -0.172 C  
ENDBRANCH  21  26
ENDBRANCH  20  21
ENDBRANCH  19  20
ENDBRANCH  18  19
ENDBRANCH  16  18
BRANCH  17  28
HETATM   28  O   UNL     4      -8.865  12.255  65.982  1.00  0.00    -0.029 OA 
BRANCH  28  29
HETATM   29  C   UNL     4      -8.788  10.881  65.747  1.00  0.00    -0.191 C  
BRANCH  29  30
HETATM   30  C   UNL     4      -7.369  10.274  65.813  1.00  0.00    -0.140 C  
BRANCH  30  31
HETATM   31  N   UNL     4      -7.177   8.996  65.008  1.00  0.00    -0.090 N  
BRANCH  31  32
HETATM   32  C   UNL     4      -8.415   8.139  65.020  1.00  0.00    -0.099 C  
HETATM   33  C   UNL     4      -8.322   6.791  65.751  1.00  0.00    -0.143 C  
ENDBRANCH  31  32
BRANCH  31  34
HETATM   34  C   UNL     4      -6.045   8.214  65.614  1.00  0.00    -0.041 C  
HETATM   35  C   UNL     4      -5.286   8.897  66.772  1.00  0.00    -0.039 C  
ENDBRANCH  31  34
BRANCH  31  36
HETATM   36  C   UNL     4      -6.881   9.323  63.559  1.00  0.00    -0.091 C  
HETATM   37  C   UNL     4      -5.685  10.261  63.284  1.00  0.00    -0.143 C  
ENDBRANCH  31  36
ENDBRANCH  30  31
ENDBRANCH  29  30
ENDBRANCH  28  29
ENDBRANCH  17  28
ENDBRANCH  11  12
ENDBRANCH  10  11
ENDBRANCH   9  10
ENDBRANCH   6   9
BRANCH   6  38
HETATM   38  C   UNL     4      -8.317   8.525  69.471  1.00  0.00    -0.118 C  
HETATM   39  C   UNL     4      -7.496   7.250  69.756  1.00  0.00    -0.093 C  
ENDBRANCH   6  38
ENDBRANCH   5   6
TORSDOF 21
ENDMDL
MODEL       65
REMARK 921   NORMALIZED FREE ENERGY PREDICTED BY IDOCK:   -2.10 KCAL/MOL
REMARK 922        TOTAL FREE ENERGY PREDICTED BY IDOCK:   -7.01 KCAL/MOL
REMARK 923 INTER-LIGAND FREE ENERGY PREDICTED BY IDOCK:   -5.41 KCAL/MOL
REMARK 924 INTRA-LIGAND FREE ENERGY PREDICTED BY IDOCK:   -1.60 KCAL/MOL
REMARK 927      BINDING AFFINITY PREDICTED BY RF-SCORE:    0.00 PKD
ROOT
HETATM    1  I   UNL     1      -5.610  17.288  66.154  1.00  0.00     0.510 I  
HETATM    2  I   UNL     2     -10.740  16.509  65.401  1.00  0.00     0.126 I  
HETATM    3  I   UNL     3      -6.209  13.768  68.017  1.00  0.00    -0.138 I  
HETATM    4  C   UNL     4      -6.814  10.631  65.897  1.00  0.00    -0.115 C  
HETATM    5  C   UNL     4      -8.090   9.919  65.399  1.00  0.00    -0.137 C  
ENDROOT
BRANCH   5   6
HETATM    6  N   UNL     4      -9.353  10.193  66.171  1.00  0.00    -0.165 N  
BRANCH   6   7
HETATM    7  C   UNL     4     -10.267  11.031  65.310  1.00  0.00    -0.284 C  
HETATM    8  C   UNL     4     -10.172  12.559  65.492  1.00  0.00    -0.295 C  
ENDBRANCH   6   7
BRANCH   6   9
HETATM    9  C   UNL     4      -9.988   8.879  66.535  1.00  0.00    -0.288 C  
BRANCH   9  10
HETATM   10  C   UNL     4      -9.183   7.555  66.353  1.00  0.00    -0.167 C  
BRANCH  10  11
HETATM   11  O   UNL     4      -9.043   6.744  67.465  1.00  0.00    -0.118 OA 
BRANCH  11  12
HETATM   12  C   UNL     4      -8.057   6.695  68.397  1.00  0.00    -0.115 A  
HETATM   13  C   UNL     4      -6.724   6.802  67.978  1.00  0.00    -0.068 A  
HETATM   14  C   UNL     4      -5.686   6.720  68.868  1.00  0.00    -0.018 A  
HETATM   15  C   UNL     4      -5.938   6.586  70.208  1.00  0.00    -0.023 A  
HETATM   16  C   UNL     4      -7.260   6.504  70.733  1.00  0.00    -0.071 A  
HETATM   17  C   UNL     4      -8.359   6.540  69.809  1.00  0.00    -0.127 A  
BRANCH  16  18
HETATM   18  O   UNL     4      -7.442   6.424  72.102  1.00  0.00    -0.091 OA 
BRANCH  18  19
HETATM   19  C   UNL     4      -6.939   5.311  72.786  1.00  0.00    -0.086 C  
BRANCH  19  20
HETATM   20  C   UNL     4      -7.881   4.403  73.617  1.00  0.00    -0.086 C  
BRANCH  20  21
HETATM   21  N   UNL     4      -8.419   3.217  72.813  1.00  0.00    -0.079 N  
BRANCH  21  22
HETATM   22  C   UNL     4      -8.414   1.959  73.650  1.00  0.00    -0.058 C  
HETATM   23  C   UNL     4      -9.777   1.469  74.170  1.00  0.00    -0.091 C  
ENDBRANCH  21  22
BRANCH  21  24
HETATM   24  C   UNL     4      -7.534   2.969  71.614  1.00  0.00    -0.041 C  
HETATM   25  C   UNL     4      -7.549   1.550  71.004  1.00  0.00    -0.032 C  
ENDBRANCH  21  24
BRANCH  21  26
HETATM   26  C   UNL     4      -9.836   3.480  72.387  1.00  0.00    -0.161 C  
HETATM   27  C   UNL     4     -10.571   4.609  73.129  1.00  0.00    -0.283 C  
ENDBRANCH  21  26
ENDBRANCH  20  21
ENDBRANCH  19  20
ENDBRANCH  18  19
ENDBRANCH  16  18
BRANCH  17  28
HETATM   28  O   UNL     4      -9.656   6.440  70.283  1.00  0.00    -0.163 OA 
BRANCH  28  29
HETATM   29  C   UNL     4     -10.791   6.747  69.531  1.00  0.00    -0.273 C  
BRANCH  29  30
HETATM   30  C   UNL     4     -11.267   8.215  69.613  1.00  0.00     0.095 C  
BRANCH  30  31
HETATM   31  N   UNL     4     -11.743   8.662  70.988  1.00  0.00    -0.283 N  
BRANCH  31  32
HETATM   32  C   UNL     4     -12.378   7.530  71.753  1.00  0.00    -0.326 C  
HETATM   33  C   UNL     4     -13.836   7.192  71.413  1.00  0.00    -0.368 C  
ENDBRANCH  31  32
BRANCH  31  34
HETATM   34  C   UNL     4     -12.763   9.753  70.811  1.00  0.00    -0.175 C  
HETATM   35  C   UNL     4     -13.052  10.625  72.053  1.00  0.00    -0.501 C  
ENDBRANCH  31  34
BRANCH  31  36
HETATM   36  C   UNL     4     -10.577   9.156  71.818  1.00  0.00    -0.313 C  
HETATM   37  C   UNL     4     -10.000   8.180  72.866  1.00  0.00    -0.336 C  
ENDBRANCH  31  36
ENDBRANCH  30  31
ENDBRANCH  29  30
ENDBRANCH  28  29
ENDBRANCH  17  28
ENDBRANCH  11  12
ENDBRANCH  10  11
ENDBRANCH   9  10
ENDBRANCH   6   9
BRANCH   6  38
HETATM   38  C   UNL     4      -9.060  10.970  67.428  1.00  0.00    -0.141 C  
HETATM   39  C   UNL     4      -8.488  10.166  68.613  1.00  0.00    -0.122 C  
ENDBRANCH   6  38
ENDBRANCH   5   6
TORSDOF 21
ENDMDL
MODEL       66
REMARK 921   NORMALIZED FREE ENERGY PREDICTED BY IDOCK:   -2.03 KCAL/MOL
REMARK 922        TOTAL FREE ENERGY PREDICTED BY IDOCK:   -6.84 KCAL/MOL
REMARK 923 INTER-LIGAND FREE ENERGY PREDICTED BY IDOCK:   -6.63 KCAL/MOL
REMARK 924 INTRA-LIGAND FREE ENERGY PREDICTED BY IDOCK:   -0.21 KCAL/MOL
REMARK 927      BINDING AFFINITY PREDICTED BY RF-SCORE:    0.00 PKD
ROOT
HETATM    1  I   UNL     1      -7.561   6.598  63.267  1.00  0.00    -0.068 I  
HETATM    2  I   UNL     2      -6.778  10.034  67.150  1.00  0.00    -0.077 I  
HETATM    3  I   UNL     3      -6.802   4.176  66.394  1.00  0.00    -0.056 I  
HETATM    4  C   UNL     4      -9.470   3.782  69.120  1.00  0.00    -0.242 C  
HETATM    5  C   UNL     4      -9.713   4.485  70.473  1.00  0.00    -0.220 C  
ENDROOT
BRANCH   5   6
HETATM    6  N   UNL     4      -8.523   5.159  71.100  1.00  0.00    -0.120 N  
BRANCH   6   7
HETATM    7  C   UNL     4      -7.438   5.278  70.057  1.00  0.00    -0.064 C  
HETATM    8  C   UNL     4      -6.951   6.704  69.732  1.00  0.00    -0.066 C  
ENDBRANCH   6   7
BRANCH   6   9
HETATM    9  C   UNL     4      -8.949   6.508  71.611  1.00  0.00    -0.143 C  
BRANCH   9  10
HETATM   10  C   UNL     4     -10.394   7.021  71.328  1.00  0.00    -0.202 C  
BRANCH  10  11
HETATM   11  O   UNL     4     -10.516   8.236  70.678  1.00  0.00    -0.198 OA 
BRANCH  11  12
HETATM   12  C   UNL     4     -10.510   8.529  69.353  1.00  0.00    -0.218 A  
HETATM   13  C   UNL     4     -10.333   7.486  68.432  1.00  0.00    -0.226 A  
HETATM   14  C   UNL     4     -10.278   7.726  67.084  1.00  0.00    -0.365 A  
HETATM   15  C   UNL     4     -10.454   8.997  66.604  1.00  0.00    -0.235 A  
HETATM   16  C   UNL     4     -10.674  10.114  67.459  1.00  0.00    -0.290 A  
HETATM   17  C   UNL     4     -10.687   9.889  68.878  1.00  0.00    -0.221 A  
BRANCH  16  18
HETATM   18  O   UNL     4     -10.898  11.360  66.903  1.00  0.00    -0.258 OA 
BRANCH  18  19
HETATM   19  C   UNL     4     -10.891  11.488  65.509  1.00  0.00    -0.254 C  
BRANCH  19  20
HETATM   20  C   UNL     4     -10.287  12.746  64.835  1.00  0.00    -0.309 C  
BRANCH  20  21
HETATM   21  N   UNL     4     -10.739  14.049  65.499  1.00  0.00    -0.300 N  
BRANCH  21  22
HETATM   22  C   UNL     4      -9.549  14.857  65.957  1.00  0.00    -0.313 C  
HETATM   23  C   UNL     4      -8.590  14.177  66.949  1.00  0.00    -0.157 C  
ENDBRANCH  21  22
BRANCH  21  24
HETATM   24  C   UNL     4     -11.574  13.737  66.719  1.00  0.00    -0.370 C  
HETATM   25  C   UNL     4     -11.896  14.907  67.674  1.00  0.00    -0.268 C  
ENDBRANCH  21  24
BRANCH  21  26
HETATM   26  C   UNL     4     -11.515  14.886  64.521  1.00  0.00    -0.325 C  
HETATM   27  C   UNL     4     -11.213  16.394  64.525  1.00  0.00    -0.136 C  
ENDBRANCH  21  26
ENDBRANCH  20  21
ENDBRANCH  19  20
ENDBRANCH  18  19
ENDBRANCH  16  18
BRANCH  17  28
HETATM   28  O   UNL     4     -10.877  10.956  69.739  1.00  0.00    -0.246 OA 
BRANCH  28  29
HETATM   29  C   UNL     4     -12.128  11.415  70.155  1.00  0.00    -0.357 C  
BRANCH  29  30
HETATM   30  C   UNL     4     -12.269  12.949  70.270  1.00  0.00    -0.289 C  
BRANCH  30  31
HETATM   31  N   UNL     4     -12.813  13.448  71.601  1.00  0.00    -0.344 N  
BRANCH  31  32
HETATM   32  C   UNL     4     -12.869  12.348  72.627  1.00  0.00     1.079 C  
HETATM   33  C   UNL     4     -13.604  11.060  72.228  1.00  0.00     0.056 C  
ENDBRANCH  31  32
BRANCH  31  34
HETATM   34  C   UNL     4     -14.205  13.974  71.383  1.00  0.00    -0.025 C  
HETATM   35  C   UNL     4     -14.325  15.482  71.074  1.00  0.00     0.033 C  
ENDBRANCH  31  34
BRANCH  31  36
HETATM   36  C   UNL     4     -11.919  14.534  72.164  1.00  0.00    -0.088 C  
HETATM   37  C   UNL     4     -12.259  15.057  73.577  1.00  0.00    -0.554 C  
ENDBRANCH  31  36
ENDBRANCH  30  31
ENDBRANCH  29  30
ENDBRANCH  28  29
ENDBRANCH  17  28
ENDBRANCH  11  12
ENDBRANCH  10  11
ENDBRANCH   9  10
ENDBRANCH   6   9
BRANCH   6  38
HETATM   38  C   UNL     4      -7.979   4.343  72.243  1.00  0.00    -0.096 C  
HETATM   39  C   UNL     4      -8.858   3.173  72.730  1.00  0.00    -0.096 C  
ENDBRANCH   6  38
ENDBRANCH   5   6
TORSDOF 21
ENDMDL
MODEL       67
REMARK 921   NORMALIZED FREE ENERGY PREDICTED BY IDOCK:   -2.00 KCAL/MOL
REMARK 922        TOTAL FREE ENERGY PREDICTED BY IDOCK:   -6.78 KCAL/MOL
REMARK 923 INTER-LIGAND FREE ENERGY PREDICTED BY IDOCK:   -6.34 KCAL/MOL
REMARK 924 INTRA-LIGAND FREE ENERGY PREDICTED BY IDOCK:   -0.45 KCAL/MOL
REMARK 927      BINDING AFFINITY PREDICTED BY RF-SCORE:    0.00 PKD
ROOT
HETATM    1  I   UNL     1      -6.809   7.295  72.618  1.00  0.00    -0.075 I  
HETATM    2  I   UNL     2     -10.978   6.153  69.649  1.00  0.00    -0.370 I  
HETATM    3  I   UNL     3      -5.129   6.675  69.012  1.00  0.00    -0.014 I  
HETATM    4  C   UNL     4      -5.610   9.310  66.267  1.00  0.00    -0.052 C  
HETATM    5  C   UNL     4      -6.627   9.467  65.117  1.00  0.00    -0.079 C  
ENDROOT
BRANCH   5   6
HETATM    6  N   UNL     4      -7.326   8.212  64.666  1.00  0.00    -0.082 N  
BRANCH   6   7
HETATM    7  C   UNL     4      -6.345   7.067  64.741  1.00  0.00    -0.037 C  
HETATM    8  C   UNL     4      -6.924   5.654  64.529  1.00  0.00    -0.052 C  
ENDBRANCH   6   7
BRANCH   6   9
HETATM    9  C   UNL     4      -8.517   7.980  65.554  1.00  0.00    -0.144 C  
BRANCH   9  10
HETATM   10  C   UNL     4      -8.348   8.038  67.104  1.00  0.00    -0.121 C  
BRANCH  10  11
HETATM   11  O   UNL     4      -9.099   8.981  67.785  1.00  0.00    -0.134 OA 
BRANCH  11  12
HETATM   12  C   UNL     4      -8.894  10.312  67.953  1.00  0.00    -0.122 A  
HETATM   13  C   UNL     4      -7.582  10.778  68.120  1.00  0.00    -0.093 A  
HETATM   14  C   UNL     4      -7.317  12.105  68.333  1.00  0.00    -0.108 A  
HETATM   15  C   UNL     4      -8.338  13.019  68.330  1.00  0.00    -0.158 A  
HETATM   16  C   UNL     4      -9.699  12.645  68.133  1.00  0.00    -0.219 A  
HETATM   17  C   UNL     4     -10.000  11.252  67.956  1.00  0.00    -0.179 A  
BRANCH  16  18
HETATM   18  O   UNL     4     -10.671  13.628  68.088  1.00  0.00    -0.236 OA 
BRANCH  18  19
HETATM   19  C   UNL     4     -10.871  14.326  66.891  1.00  0.00    -0.298 C  
BRANCH  19  20
HETATM   20  C   UNL     4     -10.122  15.655  66.619  1.00  0.00    -0.273 C  
BRANCH  20  21
HETATM   21  N   UNL     4     -10.161  16.611  67.814  1.00  0.00    -0.266 N  
BRANCH  21  22
HETATM   22  C   UNL     4      -8.845  16.594  68.554  1.00  0.00    -0.235 C  
HETATM   23  C   UNL     4      -8.256  17.959  68.952  1.00  0.00    -0.150 C  
ENDBRANCH  21  22
BRANCH  21  24
HETATM   24  C   UNL     4     -11.234  16.175  68.783  1.00  0.00    -0.365 C  
HETATM   25  C   UNL     4     -10.803  15.898  70.240  1.00  0.00    -0.349 C  
ENDBRANCH  21  24
BRANCH  21  26
HETATM   26  C   UNL     4     -10.405  18.018  67.343  1.00  0.00    -0.382 C  
HETATM   27  C   UNL     4      -9.991  18.333  65.896  1.00  0.00    -0.100 C  
ENDBRANCH  21  26
ENDBRANCH  20  21
ENDBRANCH  19  20
ENDBRANCH  18  19
ENDBRANCH  16  18
BRANCH  17  28
HETATM   28  O   UNL     4     -11.314  10.852  67.785  1.00  0.00    -0.340 OA 
BRANCH  28  29
HETATM   29  C   UNL     4     -12.369  11.254  68.605  1.00  0.00     0.277 C  
BRANCH  29  30
HETATM   30  C   UNL     4     -12.792  10.240  69.690  1.00  0.00     0.608 C  
BRANCH  30  31
HETATM   31  N   UNL     4     -12.131  10.435  71.047  1.00  0.00    -0.357 N  
BRANCH  31  32
HETATM   32  C   UNL     4     -12.837   9.660  72.128  1.00  0.00    -0.375 C  
HETATM   33  C   UNL     4     -14.259   9.171  71.818  1.00  0.00    -0.248 C  
ENDBRANCH  31  32
BRANCH  31  34
HETATM   34  C   UNL     4     -12.175  11.897  71.397  1.00  0.00     0.179 C  
HETATM   35  C   UNL     4     -13.509  12.420  71.975  1.00  0.00    -0.460 C  
ENDBRANCH  31  34
BRANCH  31  36
HETATM   36  C   UNL     4     -10.699   9.942  71.014  1.00  0.00    -0.171 C  
HETATM   37  C   UNL     4     -10.299   8.883  72.065  1.00  0.00    -0.378 C  
ENDBRANCH  31  36
ENDBRANCH  30  31
ENDBRANCH  29  30
ENDBRANCH  28  29
ENDBRANCH  17  28
ENDBRANCH  11  12
ENDBRANCH  10  11
ENDBRANCH   9  10
ENDBRANCH   6   9
BRANCH   6  38
HETATM   38  C   UNL     4      -7.787   8.333  63.237  1.00  0.00    -0.149 C  
HETATM   39  C   UNL     4      -8.700   9.533  62.910  1.00  0.00    -0.233 C  
ENDBRANCH   6  38
ENDBRANCH   5   6
TORSDOF 21
ENDMDL
MODEL       68
REMARK 921   NORMALIZED FREE ENERGY PREDICTED BY IDOCK:   -1.90 KCAL/MOL
REMARK 922        TOTAL FREE ENERGY PREDICTED BY IDOCK:   -6.55 KCAL/MOL
REMARK 923 INTER-LIGAND FREE ENERGY PREDICTED BY IDOCK:   -4.68 KCAL/MOL
REMARK 924 INTRA-LIGAND FREE ENERGY PREDICTED BY IDOCK:   -1.86 KCAL/MOL
REMARK 927      BINDING AFFINITY PREDICTED BY RF-SCORE:    0.00 PKD
ROOT
HETATM    1  I   UNL     1      -6.514   7.380  72.454  1.00  0.00    -0.055 I  
HETATM    2  I   UNL     2     -10.829   5.852  69.896  1.00  0.00    -0.272 I  
HETATM    3  I   UNL     3      -5.126   6.835  68.713  1.00  0.00    -0.014 I  
HETATM    4  C   UNL     4      -6.072   9.373  65.999  1.00  0.00    -0.063 C  
HETATM    5  C   UNL     4      -7.200   9.427  64.947  1.00  0.00    -0.106 C  
ENDROOT
BRANCH   5   6
HETATM    6  N   UNL     4      -7.831   8.113  64.575  1.00  0.00    -0.131 N  
BRANCH   6   7
HETATM    7  C   UNL     4      -6.800   7.024  64.745  1.00  0.00    -0.047 C  
HETATM    8  C   UNL     4      -6.441   6.215  63.482  1.00  0.00    -0.029 C  
ENDBRANCH   6   7
BRANCH   6   9
HETATM    9  C   UNL     4      -9.026   7.886  65.461  1.00  0.00     0.032 C  
BRANCH   9  10
HETATM   10  C   UNL     4      -8.835   7.792  67.006  1.00  0.00    -0.127 C  
BRANCH  10  11
HETATM   11  O   UNL     4      -9.501   8.726  67.781  1.00  0.00    -0.139 OA 
BRANCH  11  12
HETATM   12  C   UNL     4      -9.096   9.939  68.235  1.00  0.00    -0.122 A  
HETATM   13  C   UNL     4      -7.750  10.113  68.590  1.00  0.00    -0.092 A  
HETATM   14  C   UNL     4      -7.292  11.302  69.092  1.00  0.00    -0.104 A  
HETATM   15  C   UNL     4      -8.139  12.373  69.204  1.00  0.00     0.450 A  
HETATM   16  C   UNL     4      -9.514  12.303  68.836  1.00  0.00     0.215 A  
HETATM   17  C   UNL     4     -10.023  11.050  68.353  1.00  0.00    -0.186 A  
BRANCH  16  18
HETATM   18  O   UNL     4     -10.298  13.439  68.925  1.00  0.00    -0.185 OA 
BRANCH  18  19
HETATM   19  C   UNL     4     -10.404  14.276  67.808  1.00  0.00    -0.238 C  
BRANCH  19  20
HETATM   20  C   UNL     4     -11.704  14.306  66.965  1.00  0.00    -0.403 C  
BRANCH  20  21
HETATM   21  N   UNL     4     -11.494  13.801  65.535  1.00  0.00    -0.307 N  
BRANCH  21  22
HETATM   22  C   UNL     4     -10.635  12.560  65.527  1.00  0.00    -0.275 C  
HETATM   23  C   UNL     4      -9.411  12.570  64.595  1.00  0.00     0.503 C  
ENDBRANCH  21  22
BRANCH  21  24
HETATM   24  C   UNL     4     -10.779  14.855  64.722  1.00  0.00    -0.341 C  
HETATM   25  C   UNL     4     -11.629  16.022  64.173  1.00  0.00    -0.007 C  
ENDBRANCH  21  24
BRANCH  21  26
HETATM   26  C   UNL     4     -12.816  13.450  64.912  1.00  0.00    -0.227 C  
HETATM   27  C   UNL     4     -12.760  12.795  63.521  1.00  0.00    -0.223 C  
ENDBRANCH  21  26
ENDBRANCH  20  21
ENDBRANCH  19  20
ENDBRANCH  18  19
ENDBRANCH  16  18
BRANCH  17  28
HETATM   28  O   UNL     4     -11.358  10.941  68.008  1.00  0.00    -0.291 OA 
BRANCH  28  29
HETATM   29  C   UNL     4     -12.417  11.250  68.863  1.00  0.00     0.355 C  
BRANCH  29  30
HETATM   30  C   UNL     4     -12.904  10.093  69.764  1.00  0.00     0.529 C  
BRANCH  30  31
HETATM   31  N   UNL     4     -12.473  10.186  71.222  1.00  0.00    -0.371 N  
BRANCH  31  32
HETATM   32  C   UNL     4     -13.496   9.579  72.145  1.00  0.00    -0.456 C  
HETATM   33  C   UNL     4     -14.260   8.352  71.626  1.00  0.00    -0.516 C  
ENDBRANCH  31  32
BRANCH  31  34
HETATM   34  C   UNL     4     -12.305  11.638  71.579  1.00  0.00     0.010 C  
HETATM   35  C   UNL     4     -13.524  12.325  72.232  1.00  0.00    -0.365 C  
ENDBRANCH  31  34
BRANCH  31  36
HETATM   36  C   UNL     4     -11.178   9.433  71.440  1.00  0.00    -0.381 C  
HETATM   37  C   UNL     4     -11.164   8.377  72.567  1.00  0.00    -0.406 C  
ENDBRANCH  31  36
ENDBRANCH  30  31
ENDBRANCH  29  30
ENDBRANCH  28  29
ENDBRANCH  17  28
ENDBRANCH  11  12
ENDBRANCH  10  11
ENDBRANCH   9  10
ENDBRANCH   6   9
BRANCH   6  38
HETATM   38  C   UNL     4      -8.272   8.112  63.135  1.00  0.00    -0.083 C  
HETATM   39  C   UNL     4      -9.001   9.378  62.640  1.00  0.00    -0.215 C  
ENDBRANCH   6  38
ENDBRANCH   5   6
TORSDOF 21
ENDMDL
MODEL       69
REMARK 921   NORMALIZED FREE ENERGY PREDICTED BY IDOCK:   -1.89 KCAL/MOL
REMARK 922        TOTAL FREE ENERGY PREDICTED BY IDOCK:   -6.54 KCAL/MOL
REMARK 923 INTER-LIGAND FREE ENERGY PREDICTED BY IDOCK:   -4.29 KCAL/MOL
REMARK 924 INTRA-LIGAND FREE ENERGY PREDICTED BY IDOCK:   -2.25 KCAL/MOL
REMARK 927      BINDING AFFINITY PREDICTED BY RF-SCORE:    0.00 PKD
ROOT
HETATM    1  I   UNL     1     -14.325   8.006  71.791  1.00  0.00    -0.517 I  
HETATM    2  I   UNL     2     -10.948   6.327  68.148  1.00  0.00    -0.029 I  
HETATM    3  I   UNL     3     -12.077  11.286  71.152  1.00  0.00     0.336 I  
HETATM    4  C   UNL     4     -12.527  13.230  67.878  1.00  0.00     0.334 C  
HETATM    5  C   UNL     4     -11.808  13.185  66.512  1.00  0.00    -0.400 C  
ENDROOT
BRANCH   5   6
HETATM    6  N   UNL     4     -10.419  12.607  66.507  1.00  0.00    -0.245 N  
BRANCH   6   7
HETATM    7  C   UNL     4      -9.991  12.379  67.937  1.00  0.00    -0.204 C  
HETATM    8  C   UNL     4      -8.836  13.258  68.456  1.00  0.00    -0.055 C  
ENDBRANCH   6   7
BRANCH   6   9
HETATM    9  C   UNL     4     -10.436  11.323  65.723  1.00  0.00    -0.254 C  
BRANCH   9  10
HETATM   10  C   UNL     4      -9.090  10.634  65.341  1.00  0.00    -0.189 C  
BRANCH  10  11
HETATM   11  O   UNL     4      -9.165   9.366  64.791  1.00  0.00    -0.228 OA 
BRANCH  11  12
HETATM   12  C   UNL     4      -8.180   8.532  64.370  1.00  0.00    -0.151 A  
HETATM   13  C   UNL     4      -7.747   8.615  63.039  1.00  0.00    -0.126 A  
HETATM   14  C   UNL     4      -6.785   7.773  62.547  1.00  0.00    -0.080 A  
HETATM   15  C   UNL     4      -6.181   6.861  63.374  1.00  0.00    -0.043 A  
HETATM   16  C   UNL     4      -6.529   6.727  64.749  1.00  0.00    -0.042 A  
HETATM   17  C   UNL     4      -7.570   7.569  65.269  1.00  0.00    -0.097 A  
BRANCH  16  18
HETATM   18  O   UNL     4      -5.841   5.823  65.537  1.00  0.00    -0.020 OA 
BRANCH  18  19
HETATM   19  C   UNL     4      -5.672   4.513  65.072  1.00  0.00    -0.014 C  
BRANCH  19  20
HETATM   20  C   UNL     4      -6.387   3.329  65.771  1.00  0.00    -0.032 C  
BRANCH  20  21
HETATM   21  N   UNL     4      -7.765   3.036  65.175  1.00  0.00    -0.080 N  
BRANCH  21  22
HETATM   22  C   UNL     4      -8.737   4.144  65.502  1.00  0.00    -0.120 C  
HETATM   23  C   UNL     4     -10.150   4.026  64.904  1.00  0.00    -0.214 C  
ENDBRANCH  21  22
BRANCH  21  24
HETATM   24  C   UNL     4      -8.316   1.758  65.764  1.00  0.00    -0.094 C  
HETATM   25  C   UNL     4      -8.028   1.486  67.257  1.00  0.00    -0.065 C  
ENDBRANCH  21  24
BRANCH  21  26
HETATM   26  C   UNL     4      -7.670   2.936  63.678  1.00  0.00    -0.068 C  
HETATM   27  C   UNL     4      -7.343   1.546  63.107  1.00  0.00    -0.040 C  
ENDBRANCH  21  26
ENDBRANCH  20  21
ENDBRANCH  19  20
ENDBRANCH  18  19
ENDBRANCH  16  18
BRANCH  17  28
HETATM   28  O   UNL     4      -7.949   7.450  66.595  1.00  0.00    -0.115 OA 
BRANCH  28  29
HETATM   29  C   UNL     4      -7.241   8.000  67.665  1.00  0.00    -0.091 C  
BRANCH  29  30
HETATM   30  C   UNL     4      -8.028   9.005  68.536  1.00  0.00    -0.103 C  
BRANCH  30  31
HETATM   31  N   UNL     4      -7.812   8.865  70.036  1.00  0.00    -0.087 N  
BRANCH  31  32
HETATM   32  C   UNL     4      -7.007   7.637  70.371  1.00  0.00    -0.047 C  
HETATM   33  C   UNL     4      -7.764   6.303  70.430  1.00  0.00    -0.098 C  
ENDBRANCH  31  32
BRANCH  31  34
HETATM   34  C   UNL     4      -9.154   8.757  70.705  1.00  0.00    -0.192 C  
HETATM   35  C   UNL     4      -9.142   8.668  72.247  1.00  0.00    -0.267 C  
ENDBRANCH  31  34
BRANCH  31  36
HETATM   36  C   UNL     4      -7.046  10.056  70.574  1.00  0.00    -0.068 C  
HETATM   37  C   UNL     4      -6.186  10.849  69.566  1.00  0.00    -0.073 C  
ENDBRANCH  31  36
ENDBRANCH  30  31
ENDBRANCH  29  30
ENDBRANCH  28  29
ENDBRANCH  17  28
ENDBRANCH  11  12
ENDBRANCH  10  11
ENDBRANCH   9  10
ENDBRANCH   6   9
BRANCH   6  38
HETATM   38  C   UNL     4      -9.438  13.561  65.877  1.00  0.00    -0.025 C  
HETATM   39  C   UNL     4      -9.937  15.002  65.641  1.00  0.00    -0.387 C  
ENDBRANCH   6  38
ENDBRANCH   5   6
TORSDOF 21
ENDMDL
MODEL       70
REMARK 921   NORMALIZED FREE ENERGY PREDICTED BY IDOCK:   -1.69 KCAL/MOL
REMARK 922        TOTAL FREE ENERGY PREDICTED BY IDOCK:   -6.07 KCAL/MOL
REMARK 923 INTER-LIGAND FREE ENERGY PREDICTED BY IDOCK:   -5.43 KCAL/MOL
REMARK 924 INTRA-LIGAND FREE ENERGY PREDICTED BY IDOCK:   -0.64 KCAL/MOL
REMARK 927      BINDING AFFINITY PREDICTED BY RF-SCORE:    0.00 PKD
ROOT
HETATM    1  I   UNL     1     -12.951  15.109  71.299  1.00  0.00    -0.601 I  
HETATM    2  I   UNL     2      -9.731  18.054  68.392  1.00  0.00    -0.389 I  
HETATM    3  I   UNL     3     -11.039  12.337  69.090  1.00  0.00    -0.115 I  
HETATM    4  C   UNL     4      -7.374  11.541  69.886  1.00  0.00     0.582 C  
HETATM    5  C   UNL     4      -6.031  12.064  69.331  1.00  0.00    -0.093 C  
ENDROOT
BRANCH   5   6
HETATM    6  N   UNL     4      -6.071  12.684  67.961  1.00  0.00    -0.078 N  
BRANCH   6   7
HETATM    7  C   UNL     4      -5.363  14.016  68.019  1.00  0.00    -0.104 C  
HETATM    8  C   UNL     4      -5.280  14.690  69.403  1.00  0.00    -0.086 C  
ENDBRANCH   6   7
BRANCH   6   9
HETATM    9  C   UNL     4      -5.408  11.747  66.989  1.00  0.00    -0.122 C  
BRANCH   9  10
HETATM   10  C   UNL     4      -5.329  10.224  67.316  1.00  0.00    -0.041 C  
BRANCH  10  11
HETATM   11  O   UNL     4      -6.507   9.502  67.242  1.00  0.00    -0.068 OA 
BRANCH  11  12
HETATM   12  C   UNL     4      -6.730   8.170  67.379  1.00  0.00    -0.066 A  
HETATM   13  C   UNL     4      -5.633   7.296  67.368  1.00  0.00    -0.029 A  
HETATM   14  C   UNL     4      -5.800   5.940  67.464  1.00  0.00    -0.017 A  
HETATM   15  C   UNL     4      -7.053   5.411  67.630  1.00  0.00    -0.067 A  
HETATM   16  C   UNL     4      -8.224   6.221  67.688  1.00  0.00    -0.117 A  
HETATM   17  C   UNL     4      -8.072   7.641  67.542  1.00  0.00    -0.120 A  
BRANCH  16  18
HETATM   18  O   UNL     4      -9.450   5.623  67.912  1.00  0.00    -0.110 OA 
BRANCH  18  19
HETATM   19  C   UNL     4      -9.904   5.485  69.229  1.00  0.00    -0.172 C  
BRANCH  19  20
HETATM   20  C   UNL     4      -9.988   6.716  70.168  1.00  0.00    -0.173 C  
BRANCH  20  21
HETATM   21  N   UNL     4      -9.877   6.340  71.647  1.00  0.00    -0.165 N  
BRANCH  21  22
HETATM   22  C   UNL     4      -8.592   5.595  71.915  1.00  0.00    -0.131 C  
HETATM   23  C   UNL     4      -7.306   6.198  71.323  1.00  0.00    -0.081 C  
ENDBRANCH  21  22
BRANCH  21  24
HETATM   24  C   UNL     4     -11.020   5.429  72.030  1.00  0.00    -0.178 C  
HETATM   25  C   UNL     4     -10.962   4.769  73.426  1.00  0.00    -0.396 C  
ENDBRANCH  21  24
BRANCH  21  26
HETATM   26  C   UNL     4      -9.875   7.580  72.497  1.00  0.00    -0.176 C  
HETATM   27  C   UNL     4      -9.995   8.918  71.749  1.00  0.00    -0.397 C  
ENDBRANCH  21  26
ENDBRANCH  20  21
ENDBRANCH  19  20
ENDBRANCH  18  19
ENDBRANCH  16  18
BRANCH  17  28
HETATM   28  O   UNL     4      -9.191   8.456  67.571  1.00  0.00    -0.138 OA 
BRANCH  28  29
HETATM   29  C   UNL     4      -9.830   8.951  66.433  1.00  0.00    -0.283 C  
BRANCH  29  30
HETATM   30  C   UNL     4      -9.142   8.626  65.089  1.00  0.00     0.017 C  
BRANCH  30  31
HETATM   31  N   UNL     4      -8.628   9.835  64.320  1.00  0.00    -0.172 N  
BRANCH  31  32
HETATM   32  C   UNL     4      -7.141   9.763  64.097  1.00  0.00    -0.126 C  
HETATM   33  C   UNL     4      -6.663   9.070  62.813  1.00  0.00    -0.093 C  
ENDBRANCH  31  32
BRANCH  31  34
HETATM   34  C   UNL     4      -8.936  11.075  65.115  1.00  0.00    -0.145 C  
HETATM   35  C   UNL     4     -10.326  11.706  64.884  1.00  0.00    -0.331 C  
ENDBRANCH  31  34
BRANCH  31  36
HETATM   36  C   UNL     4      -9.277   9.908  62.953  1.00  0.00    -0.261 C  
HETATM   37  C   UNL     4      -9.753  11.298  62.478  1.00  0.00    -0.046 C  
ENDBRANCH  31  36
ENDBRANCH  30  31
ENDBRANCH  29  30
ENDBRANCH  28  29
ENDBRANCH  17  28
ENDBRANCH  11  12
ENDBRANCH  10  11
ENDBRANCH   9  10
ENDBRANCH   6   9
BRANCH   6  38
HETATM   38  C   UNL     4      -7.491  12.934  67.521  1.00  0.00    -0.155 C  
HETATM   39  C   UNL     4      -7.888  14.406  67.287  1.00  0.00    -0.188 C  
ENDBRANCH   6  38
ENDBRANCH   5   6
TORSDOF 21
ENDMDL
MODEL       71
REMARK 921   NORMALIZED FREE ENERGY PREDICTED BY IDOCK:   -1.68 KCAL/MOL
REMARK 922        TOTAL FREE ENERGY PREDICTED BY IDOCK:   -6.07 KCAL/MOL
REMARK 923 INTER-LIGAND FREE ENERGY PREDICTED BY IDOCK:   -7.33 KCAL/MOL
REMARK 924 INTRA-LIGAND FREE ENERGY PREDICTED BY IDOCK:    1.26 KCAL/MOL
REMARK 927      BINDING AFFINITY PREDICTED BY RF-SCORE:    0.00 PKD
ROOT
HETATM    1  I   UNL     1      -8.504  10.704  63.926  1.00  0.00     0.164 I  
HETATM    2  I   UNL     2      -6.686  12.149  68.628  1.00  0.00    -0.097 I  
HETATM    3  I   UNL     3      -7.122   7.221  65.400  1.00  0.00    -0.067 I  
HETATM    4  C   UNL     4      -9.079   5.492  68.208  1.00  0.00    -0.113 C  
HETATM    5  C   UNL     4      -8.967   5.516  69.748  1.00  0.00    -0.125 C  
ENDROOT
BRANCH   5   6
HETATM    6  N   UNL     4      -7.636   5.931  70.314  1.00  0.00    -0.092 N  
BRANCH   6   7
HETATM    7  C   UNL     4      -6.748   4.712  70.387  1.00  0.00    -0.036 C  
HETATM    8  C   UNL     4      -7.459   3.353  70.543  1.00  0.00    -0.040 C  
ENDBRANCH   6   7
BRANCH   6   9
HETATM    9  C   UNL     4      -7.046   6.993  69.427  1.00  0.00    -0.079 C  
BRANCH   9  10
HETATM   10  C   UNL     4      -7.587   8.453  69.506  1.00  0.00    -0.090 C  
BRANCH  10  11
HETATM   11  O   UNL     4      -8.823   8.699  68.936  1.00  0.00    -0.136 OA 
BRANCH  11  12
HETATM   12  C   UNL     4      -9.921   9.311  69.450  1.00  0.00    -0.181 A  
HETATM   13  C   UNL     4     -10.343   8.968  70.742  1.00  0.00    -0.305 A  
HETATM   14  C   UNL     4     -11.465   9.523  71.298  1.00  0.00    -0.447 A  
HETATM   15  C   UNL     4     -12.172  10.476  70.613  1.00  0.00    -0.446 A  
HETATM   16  C   UNL     4     -11.801  10.914  69.309  1.00  0.00    -0.324 A  
HETATM   17  C   UNL     4     -10.655  10.309  68.692  1.00  0.00    -0.208 A  
BRANCH  16  18
HETATM   18  O   UNL     4     -12.530  11.919  68.699  1.00  0.00    -0.153 OA 
BRANCH  18  19
HETATM   19  C   UNL     4     -12.522  13.199  69.267  1.00  0.00     0.213 C  
BRANCH  19  20
HETATM   20  C   UNL     4     -12.081  13.407  70.737  1.00  0.00    -0.250 C  
BRANCH  20  21
HETATM   21  N   UNL     4     -11.837  14.879  71.079  1.00  0.00    -0.309 N  
BRANCH  21  22
HETATM   22  C   UNL     4     -11.592  15.052  72.559  1.00  0.00    -0.249 C  
HETATM   23  C   UNL     4     -11.695  16.482  73.116  1.00  0.00    -0.198 C  
ENDBRANCH  21  22
BRANCH  21  24
HETATM   24  C   UNL     4     -13.057  15.696  70.721  1.00  0.00    -0.292 C  
HETATM   25  C   UNL     4     -14.307  15.529  71.613  1.00  0.00    -0.510 C  
ENDBRANCH  21  24
BRANCH  21  26
HETATM   26  C   UNL     4     -10.624  15.385  70.350  1.00  0.00    -0.248 C  
HETATM   27  C   UNL     4     -10.817  16.654  69.503  1.00  0.00    -0.285 C  
ENDBRANCH  21  26
ENDBRANCH  20  21
ENDBRANCH  19  20
ENDBRANCH  18  19
ENDBRANCH  16  18
BRANCH  17  28
HETATM   28  O   UNL     4     -10.280  10.695  67.417  1.00  0.00    -0.187 OA 
BRANCH  28  29
HETATM   29  C   UNL     4     -10.867  11.746  66.711  1.00  0.00    -0.270 C  
BRANCH  29  30
HETATM   30  C   UNL     4     -10.109  13.091  66.768  1.00  0.00    -0.247 C  
BRANCH  30  31
HETATM   31  N   UNL     4     -10.439  14.065  65.646  1.00  0.00    -0.305 N  
BRANCH  31  32
HETATM   32  C   UNL     4     -11.728  14.798  65.905  1.00  0.00    -0.248 C  
HETATM   33  C   UNL     4     -13.022  13.973  65.847  1.00  0.00    -0.223 C  
ENDBRANCH  31  32
BRANCH  31  34
HETATM   34  C   UNL     4     -10.576  13.289  64.364  1.00  0.00    -0.419 C  
HETATM   35  C   UNL     4     -11.844  13.572  63.528  1.00  0.00    -0.313 C  
ENDBRANCH  31  34
BRANCH  31  36
HETATM   36  C   UNL     4      -9.353  15.113  65.518  1.00  0.00     0.074 C  
HETATM   37  C   UNL     4      -9.803  16.590  65.509  1.00  0.00    -0.059 C  
ENDBRANCH  31  36
ENDBRANCH  30  31
ENDBRANCH  29  30
ENDBRANCH  28  29
ENDBRANCH  17  28
ENDBRANCH  11  12
ENDBRANCH  10  11
ENDBRANCH   9  10
ENDBRANCH   6   9
BRANCH   6  38
HETATM   38  C   UNL     4      -7.789   6.477  71.710  1.00  0.00    -0.103 C  
HETATM   39  C   UNL     4      -8.845   5.794  72.602  1.00  0.00    -0.125 C  
ENDBRANCH   6  38
ENDBRANCH   5   6
TORSDOF 21
ENDMDL
MODEL       72
REMARK 921   NORMALIZED FREE ENERGY PREDICTED BY IDOCK:   -1.67 KCAL/MOL
REMARK 922        TOTAL FREE ENERGY PREDICTED BY IDOCK:   -6.05 KCAL/MOL
REMARK 923 INTER-LIGAND FREE ENERGY PREDICTED BY IDOCK:   -7.28 KCAL/MOL
REMARK 924 INTRA-LIGAND FREE ENERGY PREDICTED BY IDOCK:    1.24 KCAL/MOL
REMARK 927      BINDING AFFINITY PREDICTED BY RF-SCORE:    0.00 PKD
ROOT
HETATM    1  I   UNL     1      -7.713  19.199  68.917  1.00  0.00    -0.165 I  
HETATM    2  I   UNL     2      -5.133  14.666  68.379  1.00  0.00    -0.118 I  
HETATM    3  I   UNL     3      -9.893  17.320  66.102  1.00  0.00    -0.114 I  
HETATM    4  C   UNL     4     -12.103  14.363  67.139  1.00  0.00    -0.367 C  
HETATM    5  C   UNL     4     -11.887  12.834  67.159  1.00  0.00    -0.350 C  
ENDROOT
BRANCH   5   6
HETATM    6  N   UNL     4     -10.814  12.299  66.250  1.00  0.00    -0.268 N  
BRANCH   6   7
HETATM    7  C   UNL     4     -10.734  13.188  65.032  1.00  0.00    -0.323 C  
HETATM    8  C   UNL     4     -11.262  12.592  63.712  1.00  0.00    -0.519 C  
ENDBRANCH   6   7
BRANCH   6   9
HETATM    9  C   UNL     4      -9.513  12.275  67.003  1.00  0.00    -0.204 C  
BRANCH   9  10
HETATM   10  C   UNL     4      -9.502  11.893  68.515  1.00  0.00    -0.148 C  
BRANCH  10  11
HETATM   11  O   UNL     4     -10.727  11.814  69.154  1.00  0.00    -0.202 OA 
BRANCH  11  12
HETATM   12  C   UNL     4     -11.179  10.931  70.081  1.00  0.00    -0.237 A  
HETATM   13  C   UNL     4     -12.514  11.017  70.501  1.00  0.00    -0.432 A  
HETATM   14  C   UNL     4     -13.015  10.179  71.463  1.00  0.00    -0.547 A  
HETATM   15  C   UNL     4     -12.225   9.194  71.996  1.00  0.00    -0.443 A  
HETATM   16  C   UNL     4     -10.868   9.007  71.606  1.00  0.00    -0.366 A  
HETATM   17  C   UNL     4     -10.312   9.907  70.634  1.00  0.00    -0.187 A  
BRANCH  16  18
HETATM   18  O   UNL     4     -10.146   7.958  72.146  1.00  0.00    -0.192 OA 
BRANCH  18  19
HETATM   19  C   UNL     4     -10.785   6.727  72.338  1.00  0.00    -0.226 C  
BRANCH  19  20
HETATM   20  C   UNL     4     -10.293   5.745  73.431  1.00  0.00    -0.225 C  
BRANCH  20  21
HETATM   21  N   UNL     4      -9.688   4.465  72.847  1.00  0.00    -0.135 N  
BRANCH  21  22
HETATM   22  C   UNL     4      -9.775   3.332  73.841  1.00  0.00    -0.101 C  
HETATM   23  C   UNL     4      -9.503   1.916  73.302  1.00  0.00    -0.095 C  
ENDBRANCH  21  22
BRANCH  21  24
HETATM   24  C   UNL     4      -8.227   4.687  72.535  1.00  0.00    -0.114 C  
HETATM   25  C   UNL     4      -7.252   4.770  73.730  1.00  0.00    -0.078 C  
ENDBRANCH  21  24
BRANCH  21  26
HETATM   26  C   UNL     4     -10.442   4.053  71.614  1.00  0.00     0.178 C  
HETATM   27  C   UNL     4      -9.592   3.581  70.423  1.00  0.00    -0.241 C  
ENDBRANCH  21  26
ENDBRANCH  20  21
ENDBRANCH  19  20
ENDBRANCH  18  19
ENDBRANCH  16  18
BRANCH  17  28
HETATM   28  O   UNL     4      -8.990   9.767  70.250  1.00  0.00    -0.232 OA 
BRANCH  28  29
HETATM   29  C   UNL     4      -8.381   8.544  69.965  1.00  0.00    -0.123 C  
BRANCH  29  30
HETATM   30  C   UNL     4      -8.471   8.082  68.493  1.00  0.00    -0.128 C  
BRANCH  30  31
HETATM   31  N   UNL     4      -7.287   7.262  68.001  1.00  0.00    -0.094 N  
BRANCH  31  32
HETATM   32  C   UNL     4      -6.330   8.096  67.192  1.00  0.00    -0.056 C  
HETATM   33  C   UNL     4      -5.627   7.403  66.015  1.00  0.00    -0.032 C  
ENDBRANCH  31  32
BRANCH  31  34
HETATM   34  C   UNL     4      -7.804   6.146  67.136  1.00  0.00    -0.102 C  
HETATM   35  C   UNL     4      -9.305   5.811  67.278  1.00  0.00    -0.113 C  
ENDBRANCH  31  34
BRANCH  31  36
HETATM   36  C   UNL     4      -6.506   6.705  69.173  1.00  0.00    -0.040 C  
HETATM   37  C   UNL     4      -5.916   7.726  70.170  1.00  0.00    -0.023 C  
ENDBRANCH  31  36
ENDBRANCH  30  31
ENDBRANCH  29  30
ENDBRANCH  28  29
ENDBRANCH  17  28
ENDBRANCH  11  12
ENDBRANCH  10  11
ENDBRANCH   9  10
ENDBRANCH   6   9
BRANCH   6  38
HETATM   38  C   UNL     4     -11.146  10.905  65.784  1.00  0.00     0.122 C  
HETATM   39  C   UNL     4     -10.338   9.758  66.425  1.00  0.00    -0.247 C  
ENDBRANCH   6  38
ENDBRANCH   5   6
TORSDOF 21
ENDMDL
MODEL       73
REMARK 921   NORMALIZED FREE ENERGY PREDICTED BY IDOCK:   -1.65 KCAL/MOL
REMARK 922        TOTAL FREE ENERGY PREDICTED BY IDOCK:   -5.99 KCAL/MOL
REMARK 923 INTER-LIGAND FREE ENERGY PREDICTED BY IDOCK:   -8.73 KCAL/MOL
REMARK 924 INTRA-LIGAND FREE ENERGY PREDICTED BY IDOCK:    2.74 KCAL/MOL
REMARK 927      BINDING AFFINITY PREDICTED BY RF-SCORE:    0.00 PKD
ROOT
HETATM    1  I   UNL     1      -5.745  17.400  69.782  1.00  0.00    -0.201 I  
HETATM    2  I   UNL     2      -5.364  12.205  69.183  1.00  0.00    -0.066 I  
HETATM    3  I   UNL     3      -7.754  16.800  66.344  1.00  0.00    -0.058 I  
HETATM    4  C   UNL     4     -11.215  15.155  66.486  1.00  0.00    -0.283 C  
HETATM    5  C   UNL     4     -11.702  13.697  66.344  1.00  0.00    -0.373 C  
ENDROOT
BRANCH   5   6
HETATM    6  N   UNL     4     -10.783  12.754  65.613  1.00  0.00    -0.269 N  
BRANCH   6   7
HETATM    7  C   UNL     4     -10.763  13.142  64.155  1.00  0.00    -0.374 C  
HETATM    8  C   UNL     4     -12.120  13.136  63.424  1.00  0.00    -0.558 C  
ENDBRANCH   6   7
BRANCH   6   9
HETATM    9  C   UNL     4      -9.414  12.845  66.229  1.00  0.00    -0.200 C  
BRANCH   9  10
HETATM   10  C   UNL     4      -9.271  13.075  67.765  1.00  0.00    -0.200 C  
BRANCH  10  11
HETATM   11  O   UNL     4      -9.997  12.242  68.597  1.00  0.00    -0.200 OA 
BRANCH  11  12
HETATM   12  C   UNL     4      -9.754  10.967  68.994  1.00  0.00    -0.134 A  
HETATM   13  C   UNL     4      -8.474  10.430  68.795  1.00  0.00    -0.132 A  
HETATM   14  C   UNL     4      -8.181   9.137  69.139  1.00  0.00    -0.117 A  
HETATM   15  C   UNL     4      -9.130   8.354  69.743  1.00  0.00    -0.153 A  
HETATM   16  C   UNL     4     -10.447   8.823  70.019  1.00  0.00    -0.212 A  
HETATM   17  C   UNL     4     -10.786  10.161  69.621  1.00  0.00    -0.263 A  
BRANCH  16  18
HETATM   18  O   UNL     4     -11.336   7.996  70.680  1.00  0.00    -0.269 OA 
BRANCH  18  19
HETATM   19  C   UNL     4     -11.439   8.091  72.073  1.00  0.00    -0.309 C  
BRANCH  19  20
HETATM   20  C   UNL     4     -10.357   7.466  72.989  1.00  0.00    -0.306 C  
BRANCH  20  21
HETATM   21  N   UNL     4     -10.165   5.968  72.741  1.00  0.00    -0.183 N  
BRANCH  21  22
HETATM   22  C   UNL     4     -10.622   5.593  71.352  1.00  0.00    -0.253 C  
HETATM   23  C   UNL     4      -9.561   4.991  70.413  1.00  0.00    -0.260 C  
ENDBRANCH  21  22
BRANCH  21  24
HETATM   24  C   UNL     4     -10.997   5.177  73.723  1.00  0.00    -0.234 C  
HETATM   25  C   UNL     4     -11.248   3.688  73.399  1.00  0.00    -0.264 C  
ENDBRANCH  21  24
BRANCH  21  26
HETATM   26  C   UNL     4      -8.711   5.607  72.860  1.00  0.00    -0.121 C  
HETATM   27  C   UNL     4      -8.344   4.613  73.975  1.00  0.00    -0.103 C  
ENDBRANCH  21  26
ENDBRANCH  20  21
ENDBRANCH  19  20
ENDBRANCH  18  19
ENDBRANCH  16  18
BRANCH  17  28
HETATM   28  O   UNL     4     -12.063  10.641  69.853  1.00  0.00    -0.303 OA 
BRANCH  28  29
HETATM   29  C   UNL     4     -12.384  11.566  70.847  1.00  0.00    -0.359 C  
BRANCH  29  30
HETATM   30  C   UNL     4     -12.002  13.031  70.540  1.00  0.00    -0.212 C  
BRANCH  30  31
HETATM   31  N   UNL     4     -12.668  14.071  71.431  1.00  0.00    -0.347 N  
BRANCH  31  32
HETATM   32  C   UNL     4     -13.305  15.171  70.624  1.00  0.00    -0.261 C  
HETATM   33  C   UNL     4     -12.462  15.786  69.498  1.00  0.00     0.046 C  
ENDBRANCH  31  32
BRANCH  31  34
HETATM   34  C   UNL     4     -11.622  14.676  72.326  1.00  0.00     0.174 C  
HETATM   35  C   UNL     4     -11.971  16.041  72.959  1.00  0.00    -0.597 C  
ENDBRANCH  31  34
BRANCH  31  36
HETATM   36  C   UNL     4     -13.768  13.435  72.256  1.00  0.00    -0.607 C  
HETATM   37  C   UNL     4     -13.759  11.894  72.364  1.00  0.00     0.154 C  
ENDBRANCH  31  36
ENDBRANCH  30  31
ENDBRANCH  29  30
ENDBRANCH  28  29
ENDBRANCH  17  28
ENDBRANCH  11  12
ENDBRANCH  10  11
ENDBRANCH   9  10
ENDBRANCH   6   9
BRANCH   6  38
HETATM   38  C   UNL     4     -11.278  11.335  65.708  1.00  0.00    -0.014 C  
HETATM   39  C   UNL     4     -10.228  10.226  65.487  1.00  0.00    -0.308 C  
ENDBRANCH   6  38
ENDBRANCH   5   6
TORSDOF 21
ENDMDL
MODEL       74
REMARK 921   NORMALIZED FREE ENERGY PREDICTED BY IDOCK:   -1.50 KCAL/MOL
REMARK 922        TOTAL FREE ENERGY PREDICTED BY IDOCK:   -5.65 KCAL/MOL
REMARK 923 INTER-LIGAND FREE ENERGY PREDICTED BY IDOCK:   -6.24 KCAL/MOL
REMARK 924 INTRA-LIGAND FREE ENERGY PREDICTED BY IDOCK:    0.59 KCAL/MOL
REMARK 927      BINDING AFFINITY PREDICTED BY RF-SCORE:    0.00 PKD
ROOT
HETATM    1  I   UNL     1      -8.483   9.983  63.699  1.00  0.00    -0.239 I  
HETATM    2  I   UNL     2      -8.009   4.891  62.539  1.00  0.00    -0.096 I  
HETATM    3  I   UNL     3     -10.161   8.229  66.912  1.00  0.00    -0.310 I  
HETATM    4  C   UNL     4      -7.895   6.458  69.449  1.00  0.00    -0.105 C  
HETATM    5  C   UNL     4      -7.436   4.994  69.618  1.00  0.00    -0.057 C  
ENDROOT
BRANCH   5   6
HETATM    6  N   UNL     4      -8.301   3.944  68.975  1.00  0.00    -0.072 N  
BRANCH   6   7
HETATM    7  C   UNL     4      -7.791   2.585  69.391  1.00  0.00    -0.042 C  
HETATM    8  C   UNL     4      -7.839   1.477  68.320  1.00  0.00    -0.050 C  
ENDBRANCH   6   7
BRANCH   6   9
HETATM    9  C   UNL     4      -9.724   4.159  69.415  1.00  0.00    -0.163 C  
BRANCH   9  10
HETATM   10  C   UNL     4     -10.300   5.606  69.486  1.00  0.00    -0.275 C  
BRANCH  10  11
HETATM   11  O   UNL     4     -10.923   5.980  70.663  1.00  0.00    -0.283 OA 
BRANCH  11  12
HETATM   12  C   UNL     4     -11.741   7.029  70.929  1.00  0.00    -0.343 A  
HETATM   13  C   UNL     4     -13.120   6.800  71.042  1.00  0.00    -0.004 A  
HETATM   14  C   UNL     4     -13.999   7.825  71.270  1.00  0.00    -0.330 A  
HETATM   15  C   UNL     4     -13.534   9.102  71.449  1.00  0.00    -0.358 A  
HETATM   16  C   UNL     4     -12.149   9.428  71.387  1.00  0.00    -0.363 A  
HETATM   17  C   UNL     4     -11.217   8.373  71.101  1.00  0.00    -0.263 A  
BRANCH  16  18
HETATM   18  O   UNL     4     -11.747  10.728  71.631  1.00  0.00     0.101 OA 
BRANCH  18  19
HETATM   19  C   UNL     4     -12.210  11.748  70.791  1.00  0.00    -0.326 C  
BRANCH  19  20
HETATM   20  C   UNL     4     -11.494  12.053  69.451  1.00  0.00    -0.296 C  
BRANCH  20  21
HETATM   21  N   UNL     4     -11.531  13.539  69.086  1.00  0.00    -0.278 N  
BRANCH  21  22
HETATM   22  C   UNL     4     -12.570  14.265  69.905  1.00  0.00    -0.165 C  
HETATM   23  C   UNL     4     -12.177  15.648  70.453  1.00  0.00    -0.429 C  
ENDBRANCH  21  22
BRANCH  21  24
HETATM   24  C   UNL     4     -11.905  13.698  67.631  1.00  0.00    -0.369 C  
HETATM   25  C   UNL     4     -11.851  12.435  66.743  1.00  0.00    -0.385 C  
ENDBRANCH  21  24
BRANCH  21  26
HETATM   26  C   UNL     4     -10.198  14.174  69.367  1.00  0.00     0.141 C  
HETATM   27  C   UNL     4      -9.088  13.914  68.334  1.00  0.00    -0.184 C  
ENDBRANCH  21  26
ENDBRANCH  20  21
ENDBRANCH  19  20
ENDBRANCH  18  19
ENDBRANCH  16  18
BRANCH  17  28
HETATM   28  O   UNL     4      -9.866   8.658  71.011  1.00  0.00    -0.182 OA 
BRANCH  28  29
HETATM   29  C   UNL     4      -9.287   9.393  69.976  1.00  0.00    -0.226 C  
BRANCH  29  30
HETATM   30  C   UNL     4      -8.034  10.211  70.360  1.00  0.00     0.281 C  
BRANCH  30  31
HETATM   31  N   UNL     4      -6.853  10.063  69.410  1.00  0.00    -0.058 N  
BRANCH  31  32
HETATM   32  C   UNL     4      -6.241  11.397  69.072  1.00  0.00    -0.058 C  
HETATM   33  C   UNL     4      -5.234  11.976  70.077  1.00  0.00    -0.088 C  
ENDBRANCH  31  32
BRANCH  31  34
HETATM   34  C   UNL     4      -7.337   9.420  68.140  1.00  0.00    -0.078 C  
HETATM   35  C   UNL     4      -6.274   9.198  67.041  1.00  0.00    -0.058 C  
ENDBRANCH  31  34
BRANCH  31  36
HETATM   36  C   UNL     4      -5.763   9.226  70.047  1.00  0.00    -0.035 C  
HETATM   37  C   UNL     4      -5.954   8.838  71.530  1.00  0.00    -0.056 C  
ENDBRANCH  31  36
ENDBRANCH  30  31
ENDBRANCH  29  30
ENDBRANCH  28  29
ENDBRANCH  17  28
ENDBRANCH  11  12
ENDBRANCH  10  11
ENDBRANCH   9  10
ENDBRANCH   6   9
BRANCH   6  38
HETATM   38  C   UNL     4      -8.227   4.027  67.473  1.00  0.00    -0.094 C  
HETATM   39  C   UNL     4      -6.821   3.918  66.848  1.00  0.00    -0.051 C  
ENDBRANCH   6  38
ENDBRANCH   5   6
TORSDOF 21
ENDMDL
MODEL       75
REMARK 921   NORMALIZED FREE ENERGY PREDICTED BY IDOCK:   -1.46 KCAL/MOL
REMARK 922        TOTAL FREE ENERGY PREDICTED BY IDOCK:   -5.58 KCAL/MOL
REMARK 923 INTER-LIGAND FREE ENERGY PREDICTED BY IDOCK:   -4.56 KCAL/MOL
REMARK 924 INTRA-LIGAND FREE ENERGY PREDICTED BY IDOCK:   -1.02 KCAL/MOL
REMARK 927      BINDING AFFINITY PREDICTED BY RF-SCORE:    0.00 PKD
ROOT
HETATM    1  I   UNL     1      -9.312  19.994  66.617  1.00  0.00    -0.477 I  
HETATM    2  I   UNL     2      -5.368  16.730  67.756  1.00  0.00    -0.179 I  
HETATM    3  I   UNL     3     -10.784  16.443  65.415  1.00  0.00     0.053 I  
HETATM    4  C   UNL     4     -11.852  13.888  68.067  1.00  0.00    -0.411 C  
HETATM    5  C   UNL     4     -11.134  12.701  68.744  1.00  0.00    -0.263 C  
ENDROOT
BRANCH   5   6
HETATM    6  N   UNL     4      -9.961  12.119  68.003  1.00  0.00    -0.197 N  
BRANCH   6   7
HETATM    7  C   UNL     4     -10.042  12.557  66.561  1.00  0.00    -0.238 C  
HETATM    8  C   UNL     4     -11.171  11.933  65.717  1.00  0.00    -0.365 C  
ENDBRANCH   6   7
BRANCH   6   9
HETATM    9  C   UNL     4      -8.694  12.599  68.657  1.00  0.00     0.050 C  
BRANCH   9  10
HETATM   10  C   UNL     4      -7.420  11.700  68.626  1.00  0.00    -0.117 C  
BRANCH  10  11
HETATM   11  O   UNL     4      -7.146  10.956  69.761  1.00  0.00    -0.141 OA 
BRANCH  11  12
HETATM   12  C   UNL     4      -7.011   9.615  69.920  1.00  0.00    -0.081 A  
HETATM   13  C   UNL     4      -7.703   8.984  70.963  1.00  0.00    -0.153 A  
HETATM   14  C   UNL     4      -7.575   7.641  71.197  1.00  0.00    -0.080 A  
HETATM   15  C   UNL     4      -6.802   6.870  70.369  1.00  0.00    -0.058 A  
HETATM   16  C   UNL     4      -6.088   7.414  69.262  1.00  0.00    -0.031 A  
HETATM   17  C   UNL     4      -6.173   8.829  69.031  1.00  0.00    -0.044 A  
BRANCH  16  18
HETATM   18  O   UNL     4      -5.370   6.568  68.437  1.00  0.00    -0.010 OA 
BRANCH  18  19
HETATM   19  C   UNL     4      -5.998   5.423  67.933  1.00  0.00    -0.018 C  
BRANCH  19  20
HETATM   20  C   UNL     4      -5.743   4.959  66.476  1.00  0.00    -0.018 C  
BRANCH  20  21
HETATM   21  N   UNL     4      -6.539   3.705  66.106  1.00  0.00    -0.037 N  
BRANCH  21  22
HETATM   22  C   UNL     4      -7.279   3.906  64.806  1.00  0.00    -0.067 C  
HETATM   23  C   UNL     4      -6.748   3.141  63.581  1.00  0.00    -0.035 C  
ENDBRANCH  21  22
BRANCH  21  24
HETATM   24  C   UNL     4      -7.567   3.419  67.176  1.00  0.00    -0.078 C  
HETATM   25  C   UNL     4      -8.964   2.956  66.708  1.00  0.00    -0.174 C  
ENDBRANCH  21  24
BRANCH  21  26
HETATM   26  C   UNL     4      -5.610   2.537  65.930  1.00  0.00    -0.017 C  
HETATM   27  C   UNL     4      -5.613   1.489  67.056  1.00  0.00    -0.018 C  
ENDBRANCH  21  26
ENDBRANCH  20  21
ENDBRANCH  19  20
ENDBRANCH  18  19
ENDBRANCH  16  18
BRANCH  17  28
HETATM   28  O   UNL     4      -5.475   9.394  67.978  1.00  0.00    -0.037 OA 
BRANCH  28  29
HETATM   29  C   UNL     4      -5.649   9.036  66.640  1.00  0.00    -0.039 C  
BRANCH  29  30
HETATM   30  C   UNL     4      -6.908   9.611  65.956  1.00  0.00    -0.088 C  
BRANCH  30  31
HETATM   31  N   UNL     4      -7.852   8.573  65.365  1.00  0.00    -0.101 N  
BRANCH  31  32
HETATM   32  C   UNL     4      -9.004   9.216  64.639  1.00  0.00    -0.110 C  
HETATM   33  C   UNL     4      -8.745   9.681  63.198  1.00  0.00    -0.236 C  
ENDBRANCH  31  32
BRANCH  31  34
HETATM   34  C   UNL     4      -8.400   7.732  66.485  1.00  0.00    -0.128 C  
HETATM   35  C   UNL     4      -9.256   6.515  66.068  1.00  0.00    -0.077 C  
ENDBRANCH  31  34
BRANCH  31  36
HETATM   36  C   UNL     4      -7.123   7.707  64.359  1.00  0.00    -0.066 C  
HETATM   37  C   UNL     4      -7.986   6.987  63.300  1.00  0.00    -0.064 C  
ENDBRANCH  31  36
ENDBRANCH  30  31
ENDBRANCH  29  30
ENDBRANCH  28  29
ENDBRANCH  17  28
ENDBRANCH  11  12
ENDBRANCH  10  11
ENDBRANCH   9  10
ENDBRANCH   6   9
BRANCH   6  38
HETATM   38  C   UNL     4      -9.995  10.613  68.032  1.00  0.00    -0.160 C  
HETATM   39  C   UNL     4     -10.968   9.969  69.041  1.00  0.00    -0.249 C  
ENDBRANCH   6  38
ENDBRANCH   5   6
TORSDOF 21
ENDMDL
MODEL       76
REMARK 921   NORMALIZED FREE ENERGY PREDICTED BY IDOCK:   -1.45 KCAL/MOL
REMARK 922        TOTAL FREE ENERGY PREDICTED BY IDOCK:   -5.55 KCAL/MOL
REMARK 923 INTER-LIGAND FREE ENERGY PREDICTED BY IDOCK:   -5.33 KCAL/MOL
REMARK 924 INTRA-LIGAND FREE ENERGY PREDICTED BY IDOCK:   -0.22 KCAL/MOL
REMARK 927      BINDING AFFINITY PREDICTED BY RF-SCORE:    0.00 PKD
ROOT
HETATM    1  I   UNL     1      -9.238  10.104  62.517  1.00  0.00    -0.185 I  
HETATM    2  I   UNL     2     -10.393  10.062  67.631  1.00  0.00    -0.330 I  
HETATM    3  I   UNL     3      -6.933   7.094  63.875  1.00  0.00    -0.071 I  
HETATM    4  C   UNL     4      -8.601   3.788  64.869  1.00  0.00    -0.113 C  
HETATM    5  C   UNL     4      -9.114   3.221  66.210  1.00  0.00    -0.155 C  
ENDROOT
BRANCH   5   6
HETATM    6  N   UNL     4      -8.529   3.825  67.458  1.00  0.00    -0.094 N  
BRANCH   6   7
HETATM    7  C   UNL     4      -7.264   3.076  67.802  1.00  0.00    -0.053 C  
HETATM    8  C   UNL     4      -7.401   1.555  68.011  1.00  0.00    -0.046 C  
ENDBRANCH   6   7
BRANCH   6   9
HETATM    9  C   UNL     4      -8.258   5.283  67.205  1.00  0.00    -0.104 C  
BRANCH   9  10
HETATM   10  C   UNL     4      -7.866   6.212  68.394  1.00  0.00    -0.104 C  
BRANCH  10  11
HETATM   11  O   UNL     4      -6.832   7.107  68.181  1.00  0.00    -0.068 OA 
BRANCH  11  12
HETATM   12  C   UNL     4      -6.857   8.453  68.009  1.00  0.00    -0.070 A  
HETATM   13  C   UNL     4      -6.861   8.968  66.705  1.00  0.00    -0.080 A  
HETATM   14  C   UNL     4      -6.846  10.317  66.469  1.00  0.00    -0.101 A  
HETATM   15  C   UNL     4      -6.884  11.199  67.518  1.00  0.00    -0.086 A  
HETATM   16  C   UNL     4      -6.916  10.771  68.876  1.00  0.00    -0.077 A  
HETATM   17  C   UNL     4      -6.884   9.360  69.143  1.00  0.00    -0.050 A  
BRANCH  16  18
HETATM   18  O   UNL     4      -7.009  11.715  69.882  1.00  0.00     0.020 OA 
BRANCH  18  19
HETATM   19  C   UNL     4      -6.116  12.793  69.881  1.00  0.00    -0.122 C  
BRANCH  19  20
HETATM   20  C   UNL     4      -5.923  13.656  68.608  1.00  0.00    -0.086 C  
BRANCH  20  21
HETATM   21  N   UNL     4      -6.178  15.145  68.859  1.00  0.00    -0.091 N  
BRANCH  21  22
HETATM   22  C   UNL     4      -7.657  15.444  68.843  1.00  0.00    -0.164 C  
HETATM   23  C   UNL     4      -8.547  14.495  68.022  1.00  0.00    -0.162 C  
ENDBRANCH  21  22
BRANCH  21  24
HETATM   24  C   UNL     4      -5.535  15.965  67.765  1.00  0.00    -0.140 C  
HETATM   25  C   UNL     4      -6.352  17.143  67.190  1.00  0.00    -0.207 C  
ENDBRANCH  21  24
BRANCH  21  26
HETATM   26  C   UNL     4      -5.643  15.541  70.207  1.00  0.00    -0.147 C  
HETATM   27  C   UNL     4      -5.469  17.048  70.454  1.00  0.00    -0.217 C  
ENDBRANCH  21  26
ENDBRANCH  20  21
ENDBRANCH  19  20
ENDBRANCH  18  19
ENDBRANCH  16  18
BRANCH  17  28
HETATM   28  O   UNL     4      -6.893   8.910  70.452  1.00  0.00    -0.040 OA 
BRANCH  28  29
HETATM   29  C   UNL     4      -7.962   9.079  71.332  1.00  0.00    -0.043 C  
BRANCH  29  30
HETATM   30  C   UNL     4      -9.137   8.093  71.149  1.00  0.00    -0.154 C  
BRANCH  30  31
HETATM   31  N   UNL     4      -9.843   7.685  72.435  1.00  0.00    -0.169 N  
BRANCH  31  32
HETATM   32  C   UNL     4     -10.182   6.218  72.443  1.00  0.00    -0.187 C  
HETATM   33  C   UNL     4     -11.670   5.847  72.369  1.00  0.00    -0.307 C  
ENDBRANCH  31  32
BRANCH  31  34
HETATM   34  C   UNL     4     -11.118   8.474  72.553  1.00  0.00    -0.258 C  
HETATM   35  C   UNL     4     -11.504   9.333  71.329  1.00  0.00    -0.418 C  
ENDBRANCH  31  34
BRANCH  31  36
HETATM   36  C   UNL     4      -8.950   7.939  73.632  1.00  0.00    -0.275 C  
HETATM   37  C   UNL     4      -8.464   6.701  74.417  1.00  0.00    -0.163 C  
ENDBRANCH  31  36
ENDBRANCH  30  31
ENDBRANCH  29  30
ENDBRANCH  28  29
ENDBRANCH  17  28
ENDBRANCH  11  12
ENDBRANCH  10  11
ENDBRANCH   9  10
ENDBRANCH   6   9
BRANCH   6  38
HETATM   38  C   UNL     4      -9.477   3.689  68.621  1.00  0.00    -0.140 C  
HETATM   39  C   UNL     4     -10.386   4.902  68.909  1.00  0.00    -0.069 C  
ENDBRANCH   6  38
ENDBRANCH   5   6
TORSDOF 21
ENDMDL
MODEL       77
REMARK 921   NORMALIZED FREE ENERGY PREDICTED BY IDOCK:   -1.43 KCAL/MOL
REMARK 922        TOTAL FREE ENERGY PREDICTED BY IDOCK:   -5.51 KCAL/MOL
REMARK 923 INTER-LIGAND FREE ENERGY PREDICTED BY IDOCK:   -7.19 KCAL/MOL
REMARK 924 INTRA-LIGAND FREE ENERGY PREDICTED BY IDOCK:    1.69 KCAL/MOL
REMARK 927      BINDING AFFINITY PREDICTED BY RF-SCORE:    0.00 PKD
ROOT
HETATM    1  I   UNL     1      -5.620   7.209  68.327  1.00  0.00    -0.024 I  
HETATM    2  I   UNL     2     -10.769   6.843  67.404  1.00  0.00    -0.360 I  
HETATM    3  I   UNL     3      -6.413  10.746  66.573  1.00  0.00    -0.127 I  
HETATM    4  C   UNL     4      -8.345  13.402  68.553  1.00  0.00    -0.085 C  
HETATM    5  C   UNL     4      -9.840  13.775  68.646  1.00  0.00    -0.157 C  
ENDROOT
BRANCH   5   6
HETATM    6  N   UNL     4     -10.706  13.355  67.490  1.00  0.00    -0.253 N  
BRANCH   6   7
HETATM    7  C   UNL     4     -11.604  14.511  67.121  1.00  0.00    -0.388 C  
HETATM    8  C   UNL     4     -11.440  15.800  67.951  1.00  0.00    -0.221 C  
ENDBRANCH   6   7
BRANCH   6   9
HETATM    9  C   UNL     4      -9.818  12.957  66.343  1.00  0.00    -0.268 C  
BRANCH   9  10
HETATM   10  C   UNL     4     -10.433  12.751  64.925  1.00  0.00    -0.321 C  
BRANCH  10  11
HETATM   11  O   UNL     4     -10.689  11.449  64.532  1.00  0.00    -0.312 OA 
BRANCH  11  12
HETATM   12  C   UNL     4      -9.840  10.470  64.127  1.00  0.00    -0.337 A  
HETATM   13  C   UNL     4      -9.368  10.488  62.807  1.00  0.00    -0.342 A  
HETATM   14  C   UNL     4      -8.541   9.505  62.331  1.00  0.00    -0.216 A  
HETATM   15  C   UNL     4      -8.109   8.507  63.163  1.00  0.00    -0.165 A  
HETATM   16  C   UNL     4      -8.506   8.424  64.529  1.00  0.00    -0.060 A  
HETATM   17  C   UNL     4      -9.411   9.419  65.033  1.00  0.00    -0.134 A  
BRANCH  16  18
HETATM   18  O   UNL     4      -7.988   7.420  65.326  1.00  0.00    -0.113 OA 
BRANCH  18  19
HETATM   19  C   UNL     4      -8.004   6.103  64.849  1.00  0.00    -0.123 C  
BRANCH  19  20
HETATM   20  C   UNL     4      -7.386   4.954  65.685  1.00  0.00    -0.077 C  
BRANCH  20  21
HETATM   21  N   UNL     4      -8.257   3.695  65.694  1.00  0.00    -0.097 N  
BRANCH  21  22
HETATM   22  C   UNL     4      -9.636   3.995  65.157  1.00  0.00    -0.181 C  
HETATM   23  C   UNL     4     -10.050   3.269  63.865  1.00  0.00    -0.189 C  
ENDBRANCH  21  22
BRANCH  21  24
HETATM   24  C   UNL     4      -8.419   3.195  67.110  1.00  0.00    -0.098 C  
HETATM   25  C   UNL     4      -7.133   2.819  67.879  1.00  0.00    -0.049 C  
ENDBRANCH  21  24
BRANCH  21  26
HETATM   26  C   UNL     4      -7.645   2.637  64.820  1.00  0.00    -0.072 C  
HETATM   27  C   UNL     4      -6.177   2.853  64.415  1.00  0.00    -0.023 C  
ENDBRANCH  21  26
ENDBRANCH  20  21
ENDBRANCH  19  20
ENDBRANCH  18  19
ENDBRANCH  16  18
BRANCH  17  28
HETATM   28  O   UNL     4      -9.834   9.357  66.349  1.00  0.00    -0.226 OA 
BRANCH  28  29
HETATM   29  C   UNL     4      -9.002   9.561  67.451  1.00  0.00    -0.131 C  
BRANCH  29  30
HETATM   30  C   UNL     4      -9.721   9.688  68.812  1.00  0.00    -0.163 C  
BRANCH  30  31
HETATM   31  N   UNL     4      -8.931   9.172  70.008  1.00  0.00    -0.171 N  
BRANCH  31  32
HETATM   32  C   UNL     4      -9.732   9.251  71.280  1.00  0.00    -0.229 C  
HETATM   33  C   UNL     4     -11.253   9.402  71.137  1.00  0.00    -0.427 C  
ENDBRANCH  31  32
BRANCH  31  34
HETATM   34  C   UNL     4      -7.695  10.013  70.165  1.00  0.00    -0.143 C  
HETATM   35  C   UNL     4      -6.605   9.456  71.107  1.00  0.00    -0.058 C  
ENDBRANCH  31  34
BRANCH  31  36
HETATM   36  C   UNL     4      -8.560   7.717  69.809  1.00  0.00    -0.135 C  
HETATM   37  C   UNL     4      -8.816   6.761  70.994  1.00  0.00    -0.141 C  
ENDBRANCH  31  36
ENDBRANCH  30  31
ENDBRANCH  29  30
ENDBRANCH  28  29
ENDBRANCH  17  28
ENDBRANCH  11  12
ENDBRANCH  10  11
ENDBRANCH   9  10
ENDBRANCH   6   9
BRANCH   6  38
HETATM   38  C   UNL     4     -11.584  12.189  67.866  1.00  0.00    -0.347 C  
HETATM   39  C   UNL     4     -12.109  12.166  69.316  1.00  0.00    -0.234 C  
ENDBRANCH   6  38
ENDBRANCH   5   6
TORSDOF 21
ENDMDL
MODEL       78
REMARK 921   NORMALIZED FREE ENERGY PREDICTED BY IDOCK:   -1.27 KCAL/MOL
REMARK 922        TOTAL FREE ENERGY PREDICTED BY IDOCK:   -5.15 KCAL/MOL
REMARK 923 INTER-LIGAND FREE ENERGY PREDICTED BY IDOCK:   -4.80 KCAL/MOL
REMARK 924 INTRA-LIGAND FREE ENERGY PREDICTED BY IDOCK:   -0.36 KCAL/MOL
REMARK 927      BINDING AFFINITY PREDICTED BY RF-SCORE:    0.00 PKD
ROOT
HETATM    1  I   UNL     1      -8.919   2.208  68.906  1.00  0.00    -0.211 I  
HETATM    2  I   UNL     2      -8.499   3.112  63.758  1.00  0.00    -0.089 I  
HETATM    3  I   UNL     3      -7.375   5.926  68.828  1.00  0.00    -0.088 I  
HETATM    4  C   UNL     4      -9.627   8.844  67.769  1.00  0.00    -0.176 C  
HETATM    5  C   UNL     4      -9.880   9.551  66.420  1.00  0.00    -0.253 C  
ENDROOT
BRANCH   5   6
HETATM    6  N   UNL     4      -8.802   9.412  65.380  1.00  0.00    -0.171 N  
BRANCH   6   7
HETATM    7  C   UNL     4      -8.946   8.062  64.720  1.00  0.00     0.476 C  
HETATM    8  C   UNL     4      -7.971   6.963  65.188  1.00  0.00    -0.125 C  
ENDBRANCH   6   7
BRANCH   6   9
HETATM    9  C   UNL     4      -8.946  10.532  64.386  1.00  0.00    -0.211 C  
BRANCH   9  10
HETATM   10  C   UNL     4     -10.142  11.525  64.509  1.00  0.00    -0.278 C  
BRANCH  10  11
HETATM   11  O   UNL     4      -9.894  12.735  65.133  1.00  0.00    -0.198 OA 
BRANCH  11  12
HETATM   12  C   UNL     4     -10.141  13.133  66.407  1.00  0.00    -0.281 A  
HETATM   13  C   UNL     4     -10.856  12.276  67.256  1.00  0.00    -0.283 A  
HETATM   14  C   UNL     4     -11.169  12.640  68.540  1.00  0.00    -0.315 A  
HETATM   15  C   UNL     4     -10.735  13.840  69.039  1.00  0.00    -0.209 A  
HETATM   16  C   UNL     4      -9.973  14.761  68.264  1.00  0.00    -0.222 A  
HETATM   17  C   UNL     4      -9.677  14.417  66.901  1.00  0.00    -0.262 A  
BRANCH  16  18
HETATM   18  O   UNL     4      -9.523  15.930  68.850  1.00  0.00    -0.207 OA 
BRANCH  18  19
HETATM   19  C   UNL     4      -8.616  15.846  69.914  1.00  0.00     0.424 C  
BRANCH  19  20
HETATM   20  C   UNL     4      -7.890  14.513  70.229  1.00  0.00     0.954 C  
BRANCH  20  21
HETATM   21  N   UNL     4      -6.574  14.361  69.463  1.00  0.00    -0.133 N  
BRANCH  21  22
HETATM   22  C   UNL     4      -6.554  15.259  68.250  1.00  0.00    -0.112 C  
HETATM   23  C   UNL     4      -5.171  15.677  67.720  1.00  0.00    -0.124 C  
ENDBRANCH  21  22
BRANCH  21  24
HETATM   24  C   UNL     4      -6.426  12.938  68.979  1.00  0.00    -0.103 C  
HETATM   25  C   UNL     4      -6.616  12.681  67.468  1.00  0.00    -0.156 C  
ENDBRANCH  21  24
BRANCH  21  26
HETATM   26  C   UNL     4      -5.418  14.750  70.341  1.00  0.00    -0.127 C  
HETATM   27  C   UNL     4      -5.661  15.918  71.312  1.00  0.00     0.403 C  
ENDBRANCH  21  26
ENDBRANCH  20  21
ENDBRANCH  19  20
ENDBRANCH  18  19
ENDBRANCH  16  18
BRANCH  17  28
HETATM   28  O   UNL     4      -8.959  15.299  66.113  1.00  0.00    -0.301 OA 
BRANCH  28  29
HETATM   29  C   UNL     4      -9.134  16.684  66.126  1.00  0.00    -0.283 C  
BRANCH  29  30
HETATM   30  C   UNL     4      -7.878  17.516  65.786  1.00  0.00     0.137 C  
BRANCH  30  31
HETATM   31  N   UNL     4      -7.804  18.878  66.463  1.00  0.00    -0.257 N  
BRANCH  31  32
HETATM   32  C   UNL     4      -8.753  19.864  65.837  1.00  0.00    -0.131 C  
HETATM   33  C   UNL     4     -10.254  19.611  66.039  1.00  0.00    -0.587 C  
ENDBRANCH  31  32
BRANCH  31  34
HETATM   34  C   UNL     4      -6.402  19.405  66.327  1.00  0.00    -0.178 C  
HETATM   35  C   UNL     4      -6.269  20.896  65.943  1.00  0.00    -0.276 C  
ENDBRANCH  31  34
BRANCH  31  36
HETATM   36  C   UNL     4      -8.187  18.763  67.924  1.00  0.00    -0.269 C  
HETATM   37  C   UNL     4      -7.072  19.018  68.962  1.00  0.00    -0.361 C  
ENDBRANCH  31  36
ENDBRANCH  30  31
ENDBRANCH  29  30
ENDBRANCH  28  29
ENDBRANCH  17  28
ENDBRANCH  11  12
ENDBRANCH  10  11
ENDBRANCH   9  10
ENDBRANCH   6   9
BRANCH   6  38
HETATM   38  C   UNL     4      -7.433   9.477  66.007  1.00  0.00    -0.100 C  
HETATM   39  C   UNL     4      -6.298  10.027  65.120  1.00  0.00    -0.114 C  
ENDBRANCH   6  38
ENDBRANCH   5   6
TORSDOF 21
ENDMDL
MODEL       79
REMARK 921   NORMALIZED FREE ENERGY PREDICTED BY IDOCK:   -1.27 KCAL/MOL
REMARK 922        TOTAL FREE ENERGY PREDICTED BY IDOCK:   -5.15 KCAL/MOL
REMARK 923 INTER-LIGAND FREE ENERGY PREDICTED BY IDOCK:   -5.36 KCAL/MOL
REMARK 924 INTRA-LIGAND FREE ENERGY PREDICTED BY IDOCK:    0.21 KCAL/MOL
REMARK 927      BINDING AFFINITY PREDICTED BY RF-SCORE:    0.00 PKD
ROOT
HETATM    1  I   UNL     1      -7.291   7.898  72.917  1.00  0.00    -0.158 I  
HETATM    2  I   UNL     2     -10.940   6.272  69.521  1.00  0.00    -0.424 I  
HETATM    3  I   UNL     3      -5.136   7.366  69.557  1.00  0.00    -0.015 I  
HETATM    4  C   UNL     4      -5.537   9.874  66.684  1.00  0.00    -0.046 C  
HETATM    5  C   UNL     4      -6.419   9.901  65.417  1.00  0.00    -0.094 C  
ENDROOT
BRANCH   5   6
HETATM    6  N   UNL     4      -6.932   8.572  64.932  1.00  0.00    -0.072 N  
BRANCH   6   7
HETATM    7  C   UNL     4      -5.963   7.499  65.365  1.00  0.00    -0.038 C  
HETATM    8  C   UNL     4      -6.437   6.041  65.202  1.00  0.00    -0.038 C  
ENDBRANCH   6   7
BRANCH   6   9
HETATM    9  C   UNL     4      -8.303   8.346  65.510  1.00  0.00    -0.154 C  
BRANCH   9  10
HETATM   10  C   UNL     4      -8.503   8.379  67.056  1.00  0.00    -0.122 C  
BRANCH  10  11
HETATM   11  O   UNL     4      -9.332   9.365  67.564  1.00  0.00    -0.126 OA 
BRANCH  11  12
HETATM   12  C   UNL     4      -9.049  10.633  67.955  1.00  0.00    -0.145 A  
HETATM   13  C   UNL     4      -7.714  10.984  68.198  1.00  0.00    -0.105 A  
HETATM   14  C   UNL     4      -7.372  12.238  68.633  1.00  0.00    -0.106 A  
HETATM   15  C   UNL     4      -8.337  13.199  68.785  1.00  0.00     0.120 A  
HETATM   16  C   UNL     4      -9.715  12.948  68.528  1.00  0.00    -0.127 A  
HETATM   17  C   UNL     4     -10.097  11.625  68.118  1.00  0.00    -0.196 A  
BRANCH  16  18
HETATM   18  O   UNL     4     -10.627  13.980  68.651  1.00  0.00    -0.246 OA 
BRANCH  18  19
HETATM   19  C   UNL     4     -10.816  14.846  67.567  1.00  0.00    -0.292 C  
BRANCH  19  20
HETATM   20  C   UNL     4     -12.019  14.659  66.608  1.00  0.00    -0.275 C  
BRANCH  20  21
HETATM   21  N   UNL     4     -11.603  14.122  65.236  1.00  0.00    -0.329 N  
BRANCH  21  22
HETATM   22  C   UNL     4     -12.719  13.314  64.618  1.00  0.00    -0.218 C  
HETATM   23  C   UNL     4     -12.493  11.796  64.502  1.00  0.00     0.042 C  
ENDBRANCH  21  22
BRANCH  21  24
HETATM   24  C   UNL     4     -10.409  13.209  65.385  1.00  0.00    -0.301 C  
HETATM   25  C   UNL     4      -9.799  12.625  64.092  1.00  0.00    -0.074 C  
ENDBRANCH  21  24
BRANCH  21  26
HETATM   26  C   UNL     4     -11.293  15.262  64.307  1.00  0.00    -0.103 C  
HETATM   27  C   UNL     4     -10.418  16.389  64.881  1.00  0.00     0.039 C  
ENDBRANCH  21  26
ENDBRANCH  20  21
ENDBRANCH  19  20
ENDBRANCH  18  19
ENDBRANCH  16  18
BRANCH  17  28
HETATM   28  O   UNL     4     -11.431  11.340  67.882  1.00  0.00    -0.340 OA 
BRANCH  28  29
HETATM   29  C   UNL     4     -12.409  11.288  68.876  1.00  0.00     0.104 C  
BRANCH  29  30
HETATM   30  C   UNL     4     -12.533   9.939  69.618  1.00  0.00     0.610 C  
BRANCH  30  31
HETATM   31  N   UNL     4     -12.726  10.047  71.124  1.00  0.00    -0.360 N  
BRANCH  31  32
HETATM   32  C   UNL     4     -11.789   9.137  71.873  1.00  0.00    -0.369 C  
HETATM   33  C   UNL     4     -10.292   9.262  71.552  1.00  0.00    -0.364 C  
ENDBRANCH  31  32
BRANCH  31  34
HETATM   34  C   UNL     4     -14.140   9.659  71.456  1.00  0.00     0.064 C  
HETATM   35  C   UNL     4     -14.355   8.207  71.936  1.00  0.00    -0.566 C  
ENDBRANCH  31  34
BRANCH  31  36
HETATM   36  C   UNL     4     -12.439  11.458  71.594  1.00  0.00    -0.114 C  
HETATM   37  C   UNL     4     -13.659  12.368  71.862  1.00  0.00    -0.230 C  
ENDBRANCH  31  36
ENDBRANCH  30  31
ENDBRANCH  29  30
ENDBRANCH  28  29
ENDBRANCH  17  28
ENDBRANCH  11  12
ENDBRANCH  10  11
ENDBRANCH   9  10
ENDBRANCH   6   9
BRANCH   6  38
HETATM   38  C   UNL     4      -7.016   8.541  63.428  1.00  0.00    -0.089 C  
HETATM   39  C   UNL     4      -6.313   9.691  62.678  1.00  0.00    -0.100 C  
ENDBRANCH   6  38
ENDBRANCH   5   6
TORSDOF 21
ENDMDL
MODEL       80
REMARK 921   NORMALIZED FREE ENERGY PREDICTED BY IDOCK:   -1.24 KCAL/MOL
REMARK 922        TOTAL FREE ENERGY PREDICTED BY IDOCK:   -5.07 KCAL/MOL
REMARK 923 INTER-LIGAND FREE ENERGY PREDICTED BY IDOCK:   -4.15 KCAL/MOL
REMARK 924 INTRA-LIGAND FREE ENERGY PREDICTED BY IDOCK:   -0.93 KCAL/MOL
REMARK 927      BINDING AFFINITY PREDICTED BY RF-SCORE:    0.00 PKD
ROOT
HETATM    1  I   UNL     1      -6.778   5.391  62.451  1.00  0.00    -0.030 I  
HETATM    2  I   UNL     2      -6.345  10.323  64.179  1.00  0.00     0.088 I  
HETATM    3  I   UNL     3      -7.528   4.973  66.385  1.00  0.00    -0.088 I  
HETATM    4  C   UNL     4     -10.874   6.228  67.776  1.00  0.00    -0.424 C  
HETATM    5  C   UNL     4     -11.319   7.555  68.427  1.00  0.00     0.621 C  
ENDROOT
BRANCH   5   6
HETATM    6  N   UNL     4     -10.232   8.398  69.037  1.00  0.00    -0.204 N  
BRANCH   6   7
HETATM    7  C   UNL     4      -8.897   7.826  68.626  1.00  0.00    -0.131 C  
HETATM    8  C   UNL     4      -7.743   8.833  68.450  1.00  0.00    -0.096 C  
ENDBRANCH   6   7
BRANCH   6   9
HETATM    9  C   UNL     4     -10.397   9.815  68.558  1.00  0.00    -0.202 C  
BRANCH   9  10
HETATM   10  C   UNL     4     -11.546  10.165  67.563  1.00  0.00     0.772 C  
BRANCH  10  11
HETATM   11  O   UNL     4     -11.919  11.494  67.473  1.00  0.00    -0.629 OA 
BRANCH  11  12
HETATM   12  C   UNL     4     -11.413  12.499  66.714  1.00  0.00    -0.362 A  
HETATM   13  C   UNL     4     -11.959  12.728  65.444  1.00  0.00    -0.482 A  
HETATM   14  C   UNL     4     -11.464  13.701  64.617  1.00  0.00    -0.383 A  
HETATM   15  C   UNL     4     -10.449  14.516  65.046  1.00  0.00    -0.454 A  
HETATM   16  C   UNL     4      -9.853  14.383  66.333  1.00  0.00    -0.295 A  
HETATM   17  C   UNL     4     -10.328  13.336  67.194  1.00  0.00    -0.248 A  
BRANCH  16  18
HETATM   18  O   UNL     4      -8.869  15.275  66.720  1.00  0.00    -0.232 OA 
BRANCH  18  19
HETATM   19  C   UNL     4      -9.201  16.628  66.860  1.00  0.00    -0.227 C  
BRANCH  19  20
HETATM   20  C   UNL     4      -9.053  17.604  65.665  1.00  0.00     0.567 C  
BRANCH  20  21
HETATM   21  N   UNL     4      -8.698  19.026  66.104  1.00  0.00    -0.260 N  
BRANCH  21  22
HETATM   22  C   UNL     4      -7.394  19.468  65.483  1.00  0.00    -0.129 C  
HETATM   23  C   UNL     4      -6.273  18.417  65.405  1.00  0.00    -0.286 C  
ENDBRANCH  21  22
BRANCH  21  24
HETATM   24  C   UNL     4      -8.525  19.070  67.605  1.00  0.00    -0.288 C  
HETATM   25  C   UNL     4      -7.088  19.230  68.148  1.00  0.00    -0.299 C  
ENDBRANCH  21  24
BRANCH  21  26
HETATM   26  C   UNL     4      -9.766  19.986  65.661  1.00  0.00    -0.041 C  
HETATM   27  C   UNL     4     -11.073  19.973  66.472  1.00  0.00     0.159 C  
ENDBRANCH  21  26
ENDBRANCH  20  21
ENDBRANCH  19  20
ENDBRANCH  18  19
ENDBRANCH  16  18
BRANCH  17  28
HETATM   28  O   UNL     4      -9.756  13.165  68.443  1.00  0.00    -0.227 OA 
BRANCH  28  29
HETATM   29  C   UNL     4     -10.031  13.971  69.549  1.00  0.00     0.475 C  
BRANCH  29  30
HETATM   30  C   UNL     4     -11.285  13.580  70.362  1.00  0.00     0.522 C  
BRANCH  30  31
HETATM   31  N   UNL     4     -11.942  14.723  71.123  1.00  0.00    -0.319 N  
BRANCH  31  32
HETATM   32  C   UNL     4     -13.273  14.317  71.699  1.00  0.00    -0.356 C  
HETATM   33  C   UNL     4     -14.322  15.424  71.875  1.00  0.00    -0.649 C  
ENDBRANCH  31  32
BRANCH  31  34
HETATM   34  C   UNL     4     -12.159  15.869  70.173  1.00  0.00    -0.255 C  
HETATM   35  C   UNL     4     -12.485  15.491  68.711  1.00  0.00     0.331 C  
ENDBRANCH  31  34
BRANCH  31  36
HETATM   36  C   UNL     4     -11.071  15.155  72.284  1.00  0.00     0.154 C  
HETATM   37  C   UNL     4     -11.623  14.903  73.705  1.00  0.00     0.116 C  
ENDBRANCH  31  36
ENDBRANCH  30  31
ENDBRANCH  29  30
ENDBRANCH  28  29
ENDBRANCH  17  28
ENDBRANCH  11  12
ENDBRANCH  10  11
ENDBRANCH   9  10
ENDBRANCH   6   9
BRANCH   6  38
HETATM   38  C   UNL     4     -10.305   8.371  70.541  1.00  0.00    -0.199 C  
HETATM   39  C   UNL     4      -9.453   7.297  71.250  1.00  0.00    -0.156 C  
ENDBRANCH   6  38
ENDBRANCH   5   6
TORSDOF 21
ENDMDL
MODEL       81
REMARK 921   NORMALIZED FREE ENERGY PREDICTED BY IDOCK:   -1.23 KCAL/MOL
REMARK 922        TOTAL FREE ENERGY PREDICTED BY IDOCK:   -5.05 KCAL/MOL
REMARK 923 INTER-LIGAND FREE ENERGY PREDICTED BY IDOCK:   -7.13 KCAL/MOL
REMARK 924 INTRA-LIGAND FREE ENERGY PREDICTED BY IDOCK:    2.08 KCAL/MOL
REMARK 927      BINDING AFFINITY PREDICTED BY RF-SCORE:    0.00 PKD
ROOT
HETATM    1  I   UNL     1      -8.702   2.210  68.072  1.00  0.00    -0.191 I  
HETATM    2  I   UNL     2      -7.026   2.596  63.119  1.00  0.00    -0.038 I  
HETATM    3  I   UNL     3      -7.193   5.942  67.983  1.00  0.00    -0.079 I  
HETATM    4  C   UNL     4      -9.118   8.674  66.102  1.00  0.00    -0.250 C  
HETATM    5  C   UNL     4      -9.032   9.232  64.665  1.00  0.00    -0.154 C  
ENDROOT
BRANCH   5   6
HETATM    6  N   UNL     4      -7.730   9.017  63.942  1.00  0.00    -0.119 N  
BRANCH   6   7
HETATM    7  C   UNL     4      -7.824   7.730  63.160  1.00  0.00    -0.135 C  
HETATM    8  C   UNL     4      -6.550   6.863  63.109  1.00  0.00    -0.043 C  
ENDBRANCH   6   7
BRANCH   6   9
HETATM    9  C   UNL     4      -7.482  10.195  63.039  1.00  0.00    -0.144 C  
BRANCH   9  10
HETATM   10  C   UNL     4      -8.683  11.066  62.558  1.00  0.00    -0.287 C  
BRANCH  10  11
HETATM   11  O   UNL     4      -9.072  12.111  63.378  1.00  0.00     0.075 OA 
BRANCH  11  12
HETATM   12  C   UNL     4     -10.312  12.534  63.732  1.00  0.00    -0.388 A  
HETATM   13  C   UNL     4     -11.429  11.888  63.183  1.00  0.00    -0.230 A  
HETATM   14  C   UNL     4     -12.704  12.296  63.472  1.00  0.00    -0.512 A  
HETATM   15  C   UNL     4     -12.914  13.321  64.358  1.00  0.00     0.101 A  
HETATM   16  C   UNL     4     -11.844  14.015  64.992  1.00  0.00    -0.378 A  
HETATM   17  C   UNL     4     -10.499  13.632  64.664  1.00  0.00    -0.423 A  
BRANCH  16  18
HETATM   18  O   UNL     4     -12.130  15.003  65.916  1.00  0.00    -0.068 OA 
BRANCH  18  19
HETATM   19  C   UNL     4     -12.398  14.633  67.240  1.00  0.00     0.120 C  
BRANCH  19  20
HETATM   20  C   UNL     4     -12.159  13.178  67.716  1.00  0.00    -0.215 C  
BRANCH  20  21
HETATM   21  N   UNL     4     -11.344  13.104  69.009  1.00  0.00    -0.268 N  
BRANCH  21  22
HETATM   22  C   UNL     4     -10.657  14.421  69.283  1.00  0.00    -0.175 C  
HETATM   23  C   UNL     4     -11.383  15.399  70.223  1.00  0.00    -0.332 C  
ENDBRANCH  21  22
BRANCH  21  24
HETATM   24  C   UNL     4     -10.271  12.049  68.877  1.00  0.00    -0.058 C  
HETATM   25  C   UNL     4     -10.258  11.210  67.581  1.00  0.00    -0.208 C  
ENDBRANCH  21  24
BRANCH  21  26
HETATM   26  C   UNL     4     -12.246  12.806  70.173  1.00  0.00    -0.249 C  
HETATM   27  C   UNL     4     -12.394  13.920  71.223  1.00  0.00    -0.419 C  
ENDBRANCH  21  26
ENDBRANCH  20  21
ENDBRANCH  19  20
ENDBRANCH  18  19
ENDBRANCH  16  18
BRANCH  17  28
HETATM   28  O   UNL     4      -9.435  14.300  65.245  1.00  0.00     0.004 OA 
BRANCH  28  29
HETATM   29  C   UNL     4      -9.409  15.675  65.483  1.00  0.00    -0.037 C  
BRANCH  29  30
HETATM   30  C   UNL     4      -8.503  16.131  66.648  1.00  0.00    -0.280 C  
BRANCH  30  31
HETATM   31  N   UNL     4      -8.921  17.433  67.318  1.00  0.00    -0.233 N  
BRANCH  31  32
HETATM   32  C   UNL     4      -8.441  18.634  66.548  1.00  0.00    -0.291 C  
HETATM   33  C   UNL     4      -9.328  19.887  66.589  1.00  0.00    -0.500 C  
ENDBRANCH  31  32
BRANCH  31  34
HETATM   34  C   UNL     4      -8.323  17.475  68.697  1.00  0.00    -0.258 C  
HETATM   35  C   UNL     4      -7.447  16.268  69.099  1.00  0.00    -0.218 C  
ENDBRANCH  31  34
BRANCH  31  36
HETATM   36  C   UNL     4     -10.430  17.529  67.391  1.00  0.00    -0.342 C  
HETATM   37  C   UNL     4     -11.018  18.608  68.328  1.00  0.00     0.267 C  
ENDBRANCH  31  36
ENDBRANCH  30  31
ENDBRANCH  29  30
ENDBRANCH  28  29
ENDBRANCH  17  28
ENDBRANCH  11  12
ENDBRANCH  10  11
ENDBRANCH   9  10
ENDBRANCH   6   9
BRANCH   6  38
HETATM   38  C   UNL     4      -6.586   8.886  64.914  1.00  0.00    -0.069 C  
HETATM   39  C   UNL     4      -5.639  10.098  65.026  1.00  0.00    -0.107 C  
ENDBRANCH   6  38
ENDBRANCH   5   6
TORSDOF 21
ENDMDL
MODEL       82
REMARK 921   NORMALIZED FREE ENERGY PREDICTED BY IDOCK:   -1.10 KCAL/MOL
REMARK 922        TOTAL FREE ENERGY PREDICTED BY IDOCK:   -4.77 KCAL/MOL
REMARK 923 INTER-LIGAND FREE ENERGY PREDICTED BY IDOCK:   -3.41 KCAL/MOL
REMARK 924 INTRA-LIGAND FREE ENERGY PREDICTED BY IDOCK:   -1.35 KCAL/MOL
REMARK 927      BINDING AFFINITY PREDICTED BY RF-SCORE:    0.00 PKD
ROOT
HETATM    1  I   UNL     1     -13.795   9.550  71.889  1.00  0.00    -0.108 I  
HETATM    2  I   UNL     2      -8.826   8.208  72.891  1.00  0.00    -0.218 I  
HETATM    3  I   UNL     3     -11.742  12.159  69.608  1.00  0.00    -0.214 I  
HETATM    4  C   UNL     4     -10.010  10.880  66.435  1.00  0.00    -0.266 C  
HETATM    5  C   UNL     4      -8.577  10.388  66.136  1.00  0.00    -0.144 C  
ENDROOT
BRANCH   5   6
HETATM    6  N   UNL     4      -7.502  10.844  67.085  1.00  0.00    -0.103 N  
BRANCH   6   7
HETATM    7  C   UNL     4      -8.083  11.902  67.992  1.00  0.00    -0.151 C  
HETATM    8  C   UNL     4      -7.574  13.342  67.779  1.00  0.00    -0.161 C  
ENDBRANCH   6   7
BRANCH   6   9
HETATM    9  C   UNL     4      -7.014   9.654  67.865  1.00  0.00    -0.079 C  
BRANCH   9  10
HETATM   10  C   UNL     4      -7.468   8.220  67.452  1.00  0.00    -0.094 C  
BRANCH  10  11
HETATM   11  O   UNL     4      -6.506   7.385  66.913  1.00  0.00    -0.052 OA 
BRANCH  11  12
HETATM   12  C   UNL     4      -6.438   6.795  65.692  1.00  0.00    -0.050 A  
HETATM   13  C   UNL     4      -6.946   7.483  64.580  1.00  0.00    -0.052 A  
HETATM   14  C   UNL     4      -6.941   6.923  63.330  1.00  0.00    -0.056 A  
HETATM   15  C   UNL     4      -6.382   5.687  63.133  1.00  0.00    -0.024 A  
HETATM   16  C   UNL     4      -5.811   4.927  64.194  1.00  0.00    -0.017 A  
HETATM   17  C   UNL     4      -5.850   5.479  65.520  1.00  0.00    -0.021 A  
BRANCH  16  18
HETATM   18  O   UNL     4      -5.216   3.711  63.912  1.00  0.00    -0.008 OA 
BRANCH  18  19
HETATM   19  C   UNL     4      -6.031   2.612  63.619  1.00  0.00    -0.010 C  
BRANCH  19  20
HETATM   20  C   UNL     4      -7.306   2.783  62.754  1.00  0.00    -0.048 C  
BRANCH  20  21
HETATM   21  N   UNL     4      -8.586   2.411  63.505  1.00  0.00    -0.085 N  
BRANCH  21  22
HETATM   22  C   UNL     4      -8.260   1.685  64.789  1.00  0.00    -0.075 C  
HETATM   23  C   UNL     4      -9.083   2.071  66.030  1.00  0.00    -0.050 C  
ENDBRANCH  21  22
BRANCH  21  24
HETATM   24  C   UNL     4      -9.425   1.483  62.658  1.00  0.00    -0.088 C  
HETATM   25  C   UNL     4     -10.955   1.531  62.859  1.00  0.00    -0.196 C  
ENDBRANCH  21  24
BRANCH  21  26
HETATM   26  C   UNL     4      -9.356   3.652  63.862  1.00  0.00    -0.134 C  
HETATM   27  C   UNL     4      -9.582   4.663  62.725  1.00  0.00     0.037 C  
ENDBRANCH  21  26
ENDBRANCH  20  21
ENDBRANCH  19  20
ENDBRANCH  18  19
ENDBRANCH  16  18
BRANCH  17  28
HETATM   28  O   UNL     4      -5.324   4.758  66.577  1.00  0.00    -0.008 OA 
BRANCH  28  29
HETATM   29  C   UNL     4      -5.796   4.833  67.889  1.00  0.00    -0.022 C  
BRANCH  29  30
HETATM   30  C   UNL     4      -7.263   4.395  68.094  1.00  0.00    -0.064 C  
BRANCH  30  31
HETATM   31  N   UNL     4      -7.797   4.575  69.508  1.00  0.00    -0.058 N  
BRANCH  31  32
HETATM   32  C   UNL     4      -6.712   4.991  70.465  1.00  0.00    -0.040 C  
HETATM   33  C   UNL     4      -6.749   6.440  70.972  1.00  0.00    -0.055 C  
ENDBRANCH  31  32
BRANCH  31  34
HETATM   34  C   UNL     4      -8.372   3.265  69.973  1.00  0.00    -0.048 C  
HETATM   35  C   UNL     4      -7.499   2.013  69.735  1.00  0.00    -0.043 C  
ENDBRANCH  31  34
BRANCH  31  36
HETATM   36  C   UNL     4      -8.855   5.659  69.541  1.00  0.00    -0.112 C  
HETATM   37  C   UNL     4     -10.158   5.342  70.306  1.00  0.00    -0.318 C  
ENDBRANCH  31  36
ENDBRANCH  30  31
ENDBRANCH  29  30
ENDBRANCH  28  29
ENDBRANCH  17  28
ENDBRANCH  11  12
ENDBRANCH  10  11
ENDBRANCH   9  10
ENDBRANCH   6   9
BRANCH   6  38
HETATM   38  C   UNL     4      -6.346  11.457  66.339  1.00  0.00    -0.047 C  
HETATM   39  C   UNL     4      -5.559  10.519  65.401  1.00  0.00    -0.132 C  
ENDBRANCH   6  38
ENDBRANCH   5   6
TORSDOF 21
ENDMDL
MODEL       83
REMARK 921   NORMALIZED FREE ENERGY PREDICTED BY IDOCK:   -0.99 KCAL/MOL
REMARK 922        TOTAL FREE ENERGY PREDICTED BY IDOCK:   -4.53 KCAL/MOL
REMARK 923 INTER-LIGAND FREE ENERGY PREDICTED BY IDOCK:   -4.03 KCAL/MOL
REMARK 924 INTRA-LIGAND FREE ENERGY PREDICTED BY IDOCK:   -0.50 KCAL/MOL
REMARK 927      BINDING AFFINITY PREDICTED BY RF-SCORE:    0.00 PKD
ROOT
HETATM    1  I   UNL     1      -6.635   9.060  65.827  1.00  0.00    -0.065 I  
HETATM    2  I   UNL     2      -5.588  12.335  69.786  1.00  0.00    -0.142 I  
HETATM    3  I   UNL     3     -10.192   9.279  67.701  1.00  0.00    -0.322 I  
HETATM    4  C   UNL     4     -12.254  12.497  67.389  1.00  0.00     0.119 C  
HETATM    5  C   UNL     4     -12.376  13.766  68.260  1.00  0.00     0.063 C  
ENDROOT
BRANCH   5   6
HETATM    6  N   UNL     4     -11.970  13.628  69.703  1.00  0.00    -0.329 N  
BRANCH   6   7
HETATM    7  C   UNL     4     -12.246  14.936  70.404  1.00  0.00    -0.336 C  
HETATM    8  C   UNL     4     -11.174  16.034  70.255  1.00  0.00    -0.397 C  
ENDBRANCH   6   7
BRANCH   6   9
HETATM    9  C   UNL     4     -12.750  12.496  70.315  1.00  0.00     0.185 C  
BRANCH   9  10
HETATM   10  C   UNL     4     -12.119  11.658  71.468  1.00  0.00     0.469 C  
BRANCH  10  11
HETATM   11  O   UNL     4     -12.845  10.575  71.931  1.00  0.00    -0.444 OA 
BRANCH  11  12
HETATM   12  C   UNL     4     -12.711   9.250  71.667  1.00  0.00    -0.364 A  
HETATM   13  C   UNL     4     -13.855   8.506  71.347  1.00  0.00    -0.303 A  
HETATM   14  C   UNL     4     -13.787   7.158  71.110  1.00  0.00    -0.177 A  
HETATM   15  C   UNL     4     -12.576   6.517  71.126  1.00  0.00    -0.043 A  
HETATM   16  C   UNL     4     -11.355   7.195  71.408  1.00  0.00    -0.259 A  
HETATM   17  C   UNL     4     -11.414   8.599  71.706  1.00  0.00    -0.324 A  
BRANCH  16  18
HETATM   18  O   UNL     4     -10.164   6.496  71.354  1.00  0.00    -0.195 OA 
BRANCH  18  19
HETATM   19  C   UNL     4      -9.856   5.772  70.196  1.00  0.00    -0.184 C  
BRANCH  19  20
HETATM   20  C   UNL     4      -8.501   5.032  70.064  1.00  0.00    -0.091 C  
BRANCH  20  21
HETATM   21  N   UNL     4      -8.668   3.556  69.692  1.00  0.00    -0.068 N  
BRANCH  21  22
HETATM   22  C   UNL     4      -7.325   2.872  69.604  1.00  0.00    -0.044 C  
HETATM   23  C   UNL     4      -6.117   3.761  69.258  1.00  0.00    -0.027 C  
ENDBRANCH  21  22
BRANCH  21  24
HETATM   24  C   UNL     4      -9.327   3.442  68.338  1.00  0.00    -0.177 C  
HETATM   25  C   UNL     4      -9.229   2.081  67.615  1.00  0.00    -0.190 C  
ENDBRANCH  21  24
BRANCH  21  26
HETATM   26  C   UNL     4      -9.476   2.846  70.741  1.00  0.00    -0.153 C  
HETATM   27  C   UNL     4      -8.891   2.838  72.163  1.00  0.00    -0.112 C  
ENDBRANCH  21  26
ENDBRANCH  20  21
ENDBRANCH  19  20
ENDBRANCH  18  19
ENDBRANCH  16  18
BRANCH  17  28
HETATM   28  O   UNL     4     -10.249   9.285  72.005  1.00  0.00    -0.191 OA 
BRANCH  28  29
HETATM   29  C   UNL     4      -8.985   8.695  72.065  1.00  0.00    -0.216 C  
BRANCH  29  30
HETATM   30  C   UNL     4      -8.394   8.531  73.482  1.00  0.00     0.012 C  
BRANCH  30  31
HETATM   31  N   UNL     4      -6.967   8.003  73.528  1.00  0.00    -0.116 N  
BRANCH  31  32
HETATM   32  C   UNL     4      -6.429   7.732  72.148  1.00  0.00    -0.052 C  
HETATM   33  C   UNL     4      -5.798   6.354  71.905  1.00  0.00    -0.037 C  
ENDBRANCH  31  32
BRANCH  31  34
HETATM   34  C   UNL     4      -6.955   6.718  74.309  1.00  0.00    -0.090 C  
HETATM   35  C   UNL     4      -8.154   5.770  74.081  1.00  0.00    -0.104 C  
ENDBRANCH  31  34
BRANCH  31  36
HETATM   36  C   UNL     4      -6.046   9.021  74.169  1.00  0.00    -0.023 C  
HETATM   37  C   UNL     4      -5.130   9.829  73.224  1.00  0.00    -0.044 C  
ENDBRANCH  31  36
ENDBRANCH  30  31
ENDBRANCH  29  30
ENDBRANCH  28  29
ENDBRANCH  17  28
ENDBRANCH  11  12
ENDBRANCH  10  11
ENDBRANCH   9  10
ENDBRANCH   6   9
BRANCH   6  38
HETATM   38  C   UNL     4     -10.497  13.339  69.825  1.00  0.00     0.874 C  
HETATM   39  C   UNL     4      -9.768  12.929  68.529  1.00  0.00    -0.129 C  
ENDBRANCH   6  38
ENDBRANCH   5   6
TORSDOF 21
ENDMDL
MODEL       84
REMARK 921   NORMALIZED FREE ENERGY PREDICTED BY IDOCK:   -0.98 KCAL/MOL
REMARK 922        TOTAL FREE ENERGY PREDICTED BY IDOCK:   -4.50 KCAL/MOL
REMARK 923 INTER-LIGAND FREE ENERGY PREDICTED BY IDOCK:   -3.68 KCAL/MOL
REMARK 924 INTRA-LIGAND FREE ENERGY PREDICTED BY IDOCK:   -0.82 KCAL/MOL
REMARK 927      BINDING AFFINITY PREDICTED BY RF-SCORE:    0.00 PKD
ROOT
HETATM    1  I   UNL     1      -5.306  14.448  71.259  1.00  0.00    -0.154 I  
HETATM    2  I   UNL     2      -5.973   9.247  71.171  1.00  0.00    -0.052 I  
HETATM    3  I   UNL     3      -8.744  14.075  69.194  1.00  0.00     0.708 I  
HETATM    4  C   UNL     4     -11.934  13.078  71.074  1.00  0.00     0.129 C  
HETATM    5  C   UNL     4     -12.628  11.725  71.339  1.00  0.00    -0.262 C  
ENDROOT
BRANCH   5   6
HETATM    6  N   UNL     4     -12.295  10.606  70.390  1.00  0.00    -0.323 N  
BRANCH   6   7
HETATM    7  C   UNL     4     -13.169   9.421  70.723  1.00  0.00     0.090 C  
HETATM    8  C   UNL     4     -13.628   9.298  72.190  1.00  0.00    -0.536 C  
ENDBRANCH   6   7
BRANCH   6   9
HETATM    9  C   UNL     4     -12.525  11.085  68.983  1.00  0.00     0.281 C  
BRANCH   9  10
HETATM   10  C   UNL     4     -11.452  10.804  67.886  1.00  0.00    -0.227 C  
BRANCH  10  11
HETATM   11  O   UNL     4     -11.650  11.385  66.646  1.00  0.00    -0.432 OA 
BRANCH  11  12
HETATM   12  C   UNL     4     -11.583  12.686  66.266  1.00  0.00    -0.386 A  
HETATM   13  C   UNL     4     -12.736  13.478  66.358  1.00  0.00    -0.068 A  
HETATM   14  C   UNL     4     -12.739  14.787  65.952  1.00  0.00     0.247 A  
HETATM   15  C   UNL     4     -11.585  15.367  65.495  1.00  0.00     0.017 A  
HETATM   16  C   UNL     4     -10.356  14.653  65.398  1.00  0.00    -0.383 A  
HETATM   17  C   UNL     4     -10.346  13.267  65.775  1.00  0.00    -0.288 A  
BRANCH  16  18
HETATM   18  O   UNL     4      -9.218  15.318  64.979  1.00  0.00     0.463 OA 
BRANCH  18  19
HETATM   19  C   UNL     4      -8.535  16.130  65.893  1.00  0.00     0.103 C  
BRANCH  19  20
HETATM   20  C   UNL     4      -8.792  17.658  65.936  1.00  0.00     0.123 C  
BRANCH  20  21
HETATM   21  N   UNL     4      -9.241  18.143  67.316  1.00  0.00    -0.250 N  
BRANCH  21  22
HETATM   22  C   UNL     4      -9.557  16.974  68.217  1.00  0.00    -0.273 C  
HETATM   23  C   UNL     4     -10.400  17.273  69.470  1.00  0.00    -0.068 C  
ENDBRANCH  21  22
BRANCH  21  24
HETATM   24  C   UNL     4     -10.500  18.969  67.183  1.00  0.00    -0.441 C  
HETATM   25  C   UNL     4     -10.994  19.281  65.753  1.00  0.00    -0.174 C  
ENDBRANCH  21  24
BRANCH  21  26
HETATM   26  C   UNL     4      -8.145  18.941  67.965  1.00  0.00    -0.292 C  
HETATM   27  C   UNL     4      -6.844  18.182  68.278  1.00  0.00    -0.229 C  
ENDBRANCH  21  26
ENDBRANCH  20  21
ENDBRANCH  19  20
ENDBRANCH  18  19
ENDBRANCH  16  18
BRANCH  17  28
HETATM   28  O   UNL     4      -9.174  12.538  65.672  1.00  0.00     0.003 OA 
BRANCH  28  29
HETATM   29  C   UNL     4      -9.071  11.308  65.019  1.00  0.00    -0.070 C  
BRANCH  29  30
HETATM   30  C   UNL     4      -7.636  10.760  64.857  1.00  0.00     0.200 C  
BRANCH  30  31
HETATM   31  N   UNL     4      -7.147   9.886  66.004  1.00  0.00    -0.100 N  
BRANCH  31  32
HETATM   32  C   UNL     4      -6.594  10.711  67.135  1.00  0.00    -0.076 C  
HETATM   33  C   UNL     4      -7.401  10.730  68.442  1.00  0.00    -0.092 C  
ENDBRANCH  31  32
BRANCH  31  34
HETATM   34  C   UNL     4      -6.059   8.985  65.489  1.00  0.00    -0.055 C  
HETATM   35  C   UNL     4      -5.545   9.281  64.063  1.00  0.00    -0.069 C  
ENDBRANCH  31  34
BRANCH  31  36
HETATM   36  C   UNL     4      -8.289   9.068  66.570  1.00  0.00    -0.115 C  
HETATM   37  C   UNL     4      -8.880   7.969  65.661  1.00  0.00    -0.133 C  
ENDBRANCH  31  36
ENDBRANCH  30  31
ENDBRANCH  29  30
ENDBRANCH  28  29
ENDBRANCH  17  28
ENDBRANCH  11  12
ENDBRANCH  10  11
ENDBRANCH   9  10
ENDBRANCH   6   9
BRANCH   6  38
HETATM   38  C   UNL     4     -10.858  10.178  70.541  1.00  0.00    -0.273 C  
HETATM   39  C   UNL     4     -10.448   8.881  69.815  1.00  0.00    -0.217 C  
ENDBRANCH   6  38
ENDBRANCH   5   6
TORSDOF 21
ENDMDL
MODEL       85
REMARK 921   NORMALIZED FREE ENERGY PREDICTED BY IDOCK:   -0.84 KCAL/MOL
REMARK 922        TOTAL FREE ENERGY PREDICTED BY IDOCK:   -4.19 KCAL/MOL
REMARK 923 INTER-LIGAND FREE ENERGY PREDICTED BY IDOCK:   -6.19 KCAL/MOL
REMARK 924 INTRA-LIGAND FREE ENERGY PREDICTED BY IDOCK:    2.01 KCAL/MOL
REMARK 927      BINDING AFFINITY PREDICTED BY RF-SCORE:    0.00 PKD
ROOT
HETATM    1  I   UNL     1      -5.901  15.303  71.019  1.00  0.00     0.461 I  
HETATM    2  I   UNL     2      -5.893  10.113  70.269  1.00  0.00    -0.104 I  
HETATM    3  I   UNL     3      -9.567  14.670  69.476  1.00  0.00     0.506 I  
HETATM    4  C   UNL     4     -12.226  12.974  71.657  1.00  0.00     0.332 C  
HETATM    5  C   UNL     4     -12.682  11.509  71.823  1.00  0.00    -0.235 C  
ENDROOT
BRANCH   5   6
HETATM    6  N   UNL     4     -12.376  10.580  70.680  1.00  0.00    -0.328 N  
BRANCH   6   7
HETATM    7  C   UNL     4     -13.380   9.452  70.699  1.00  0.00     0.253 C  
HETATM    8  C   UNL     4     -13.983   9.093  72.072  1.00  0.00    -0.434 C  
ENDBRANCH   6   7
BRANCH   6   9
HETATM    9  C   UNL     4     -12.444  11.359  69.395  1.00  0.00     0.024 C  
BRANCH   9  10
HETATM   10  C   UNL     4     -11.454  11.029  68.238  1.00  0.00    -0.304 C  
BRANCH  10  11
HETATM   11  O   UNL     4     -11.820  11.422  66.962  1.00  0.00    -0.530 OA 
BRANCH  11  12
HETATM   12  C   UNL     4     -11.564  12.573  66.291  1.00  0.00    -0.394 A  
HETATM   13  C   UNL     4     -12.600  13.176  65.564  1.00  0.00    -0.468 A  
HETATM   14  C   UNL     4     -12.391  14.317  64.834  1.00  0.00    -0.435 A  
HETATM   15  C   UNL     4     -11.164  14.927  64.849  1.00  0.00    -0.415 A  
HETATM   16  C   UNL     4     -10.060  14.408  65.585  1.00  0.00    -0.353 A  
HETATM   17  C   UNL     4     -10.248  13.187  66.317  1.00  0.00    -0.293 A  
BRANCH  16  18
HETATM   18  O   UNL     4      -8.866  15.106  65.597  1.00  0.00     0.197 OA 
BRANCH  18  19
HETATM   19  C   UNL     4      -8.900  16.501  65.707  1.00  0.00     0.069 C  
BRANCH  19  20
HETATM   20  C   UNL     4      -9.956  17.196  66.604  1.00  0.00    -0.295 C  
BRANCH  20  21
HETATM   21  N   UNL     4      -9.419  18.461  67.279  1.00  0.00    -0.274 N  
BRANCH  21  22
HETATM   22  C   UNL     4      -7.956  18.304  67.619  1.00  0.00    -0.241 C  
HETATM   23  C   UNL     4      -7.614  18.032  69.094  1.00  0.00    -0.052 C  
ENDBRANCH  21  22
BRANCH  21  24
HETATM   24  C   UNL     4     -10.163  18.707  68.570  1.00  0.00    -0.353 C  
HETATM   25  C   UNL     4     -10.277  20.169  69.054  1.00  0.00    -0.214 C  
ENDBRANCH  21  24
BRANCH  21  26
HETATM   26  C   UNL     4      -9.551  19.637  66.353  1.00  0.00    -0.401 C  
HETATM   27  C   UNL     4     -10.874  19.746  65.575  1.00  0.00    -0.254 C  
ENDBRANCH  21  26
ENDBRANCH  20  21
ENDBRANCH  19  20
ENDBRANCH  18  19
ENDBRANCH  16  18
BRANCH  17  28
HETATM   28  O   UNL     4      -9.191  12.643  67.025  1.00  0.00    -0.199 OA 
BRANCH  28  29
HETATM   29  C   UNL     4      -8.358  11.634  66.539  1.00  0.00    -0.122 C  
BRANCH  29  30
HETATM   30  C   UNL     4      -8.801  10.990  65.206  1.00  0.00    -0.129 C  
BRANCH  30  31
HETATM   31  N   UNL     4      -7.761  10.096  64.546  1.00  0.00    -0.145 N  
BRANCH  31  32
HETATM   32  C   UNL     4      -7.371  10.606  63.184  1.00  0.00     0.089 C  
HETATM   33  C   UNL     4      -5.874  10.830  62.927  1.00  0.00    -0.081 C  
ENDBRANCH  31  32
BRANCH  31  34
HETATM   34  C   UNL     4      -8.341   8.717  64.395  1.00  0.00    -0.139 C  
HETATM   35  C   UNL     4      -8.200   8.066  63.001  1.00  0.00    -0.073 C  
ENDBRANCH  31  34
BRANCH  31  36
HETATM   36  C   UNL     4      -6.497  10.050  65.379  1.00  0.00    -0.106 C  
HETATM   37  C   UNL     4      -6.349  11.116  66.486  1.00  0.00    -0.132 C  
ENDBRANCH  31  36
ENDBRANCH  30  31
ENDBRANCH  29  30
ENDBRANCH  28  29
ENDBRANCH  17  28
ENDBRANCH  11  12
ENDBRANCH  10  11
ENDBRANCH   9  10
ENDBRANCH   6   9
BRANCH   6  38
HETATM   38  C   UNL     4     -11.002   9.979  70.824  1.00  0.00    -0.305 C  
HETATM   39  C   UNL     4     -10.940   8.522  71.328  1.00  0.00    -0.316 C  
ENDBRANCH   6  38
ENDBRANCH   5   6
TORSDOF 21
ENDMDL
MODEL       86
REMARK 921   NORMALIZED FREE ENERGY PREDICTED BY IDOCK:   -0.82 KCAL/MOL
REMARK 922        TOTAL FREE ENERGY PREDICTED BY IDOCK:   -4.15 KCAL/MOL
REMARK 923 INTER-LIGAND FREE ENERGY PREDICTED BY IDOCK:   -4.36 KCAL/MOL
REMARK 924 INTRA-LIGAND FREE ENERGY PREDICTED BY IDOCK:    0.21 KCAL/MOL
REMARK 927      BINDING AFFINITY PREDICTED BY RF-SCORE:    0.00 PKD
ROOT
HETATM    1  I   UNL     1      -9.034   2.756  68.999  1.00  0.00    -0.212 I  
HETATM    2  I   UNL     2      -7.160   3.179  64.120  1.00  0.00    -0.059 I  
HETATM    3  I   UNL     3      -7.856   6.605  68.881  1.00  0.00    -0.113 I  
HETATM    4  C   UNL     4      -9.921   9.111  66.841  1.00  0.00    -0.304 C  
HETATM    5  C   UNL     4      -9.814   9.643  65.395  1.00  0.00    -0.252 C  
ENDROOT
BRANCH   5   6
HETATM    6  N   UNL     4      -8.465   9.529  64.739  1.00  0.00    -0.147 N  
BRANCH   6   7
HETATM    7  C   UNL     4      -8.368   8.176  64.077  1.00  0.00    -0.001 C  
HETATM    8  C   UNL     4      -7.584   7.092  64.843  1.00  0.00    -0.103 C  
ENDBRANCH   6   7
BRANCH   6   9
HETATM    9  C   UNL     4      -8.321  10.645  63.740  1.00  0.00    -0.033 C  
BRANCH   9  10
HETATM   10  C   UNL     4      -9.386  11.784  63.695  1.00  0.00     0.020 C  
BRANCH  10  11
HETATM   11  O   UNL     4      -9.300  12.766  64.666  1.00  0.00     0.350 OA 
BRANCH  11  12
HETATM   12  C   UNL     4     -10.278  13.425  65.337  1.00  0.00    -0.298 A  
HETATM   13  C   UNL     4     -11.616  13.095  65.077  1.00  0.00    -0.354 A  
HETATM   14  C   UNL     4     -12.647  13.753  65.695  1.00  0.00    -0.551 A  
HETATM   15  C   UNL     4     -12.384  14.718  66.632  1.00  0.00     0.120 A  
HETATM   16  C   UNL     4     -11.057  15.097  66.988  1.00  0.00    -0.328 A  
HETATM   17  C   UNL     4      -9.965  14.451  66.315  1.00  0.00    -0.306 A  
BRANCH  16  18
HETATM   18  O   UNL     4     -10.866  16.040  67.981  1.00  0.00    -0.312 OA 
BRANCH  18  19
HETATM   19  C   UNL     4     -10.933  15.635  69.319  1.00  0.00    -0.267 C  
BRANCH  19  20
HETATM   20  C   UNL     4     -10.961  14.130  69.688  1.00  0.00    -0.081 C  
BRANCH  20  21
HETATM   21  N   UNL     4     -12.294  13.697  70.304  1.00  0.00    -0.336 N  
BRANCH  21  22
HETATM   22  C   UNL     4     -13.272  14.848  70.325  1.00  0.00     0.042 C  
HETATM   23  C   UNL     4     -14.391  14.786  71.379  1.00  0.00    -0.516 C  
ENDBRANCH  21  22
BRANCH  21  24
HETATM   24  C   UNL     4     -12.078  13.256  71.732  1.00  0.00     0.723 C  
HETATM   25  C   UNL     4     -13.275  13.381  72.700  1.00  0.00    -0.436 C  
ENDBRANCH  21  24
BRANCH  21  26
HETATM   26  C   UNL     4     -12.904  12.591  69.489  1.00  0.00     1.001 C  
HETATM   27  C   UNL     4     -11.928  11.734  68.666  1.00  0.00    -0.299 C  
ENDBRANCH  21  26
ENDBRANCH  20  21
ENDBRANCH  19  20
ENDBRANCH  18  19
ENDBRANCH  16  18
BRANCH  17  28
HETATM   28  O   UNL     4      -8.664  14.811  66.621  1.00  0.00    -0.249 OA 
BRANCH  28  29
HETATM   29  C   UNL     4      -8.071  16.013  66.233  1.00  0.00    -0.102 C  
BRANCH  29  30
HETATM   30  C   UNL     4      -7.938  17.078  67.343  1.00  0.00    -0.178 C  
BRANCH  30  31
HETATM   31  N   UNL     4      -7.237  18.363  66.923  1.00  0.00    -0.201 N  
BRANCH  31  32
HETATM   32  C   UNL     4      -5.807  18.112  66.524  1.00  0.00    -0.158 C  
HETATM   33  C   UNL     4      -5.230  16.724  66.835  1.00  0.00    -0.118 C  
ENDBRANCH  31  32
BRANCH  31  34
HETATM   34  C   UNL     4      -7.251  19.318  68.085  1.00  0.00    -0.269 C  
HETATM   35  C   UNL     4      -6.842  18.733  69.454  1.00  0.00    -0.217 C  
ENDBRANCH  31  34
BRANCH  31  36
HETATM   36  C   UNL     4      -7.930  18.976  65.724  1.00  0.00     0.081 C  
HETATM   37  C   UNL     4      -8.073  20.514  65.709  1.00  0.00     0.229 C  
ENDBRANCH  31  36
ENDBRANCH  30  31
ENDBRANCH  29  30
ENDBRANCH  28  29
ENDBRANCH  17  28
ENDBRANCH  11  12
ENDBRANCH  10  11
ENDBRANCH   9  10
ENDBRANCH   6   9
BRANCH   6  38
HETATM   38  C   UNL     4      -7.359   9.627  65.757  1.00  0.00    -0.100 C  
HETATM   39  C   UNL     4      -6.317  10.743  65.533  1.00  0.00    -0.026 C  
ENDBRANCH   6  38
ENDBRANCH   5   6
TORSDOF 21
ENDMDL
MODEL       87
REMARK 921   NORMALIZED FREE ENERGY PREDICTED BY IDOCK:   -0.82 KCAL/MOL
REMARK 922        TOTAL FREE ENERGY PREDICTED BY IDOCK:   -4.15 KCAL/MOL
REMARK 923 INTER-LIGAND FREE ENERGY PREDICTED BY IDOCK:   -3.51 KCAL/MOL
REMARK 924 INTRA-LIGAND FREE ENERGY PREDICTED BY IDOCK:   -0.64 KCAL/MOL
REMARK 927      BINDING AFFINITY PREDICTED BY RF-SCORE:    0.00 PKD
ROOT
HETATM    1  I   UNL     1     -14.224   7.495  71.481  1.00  0.00    -0.274 I  
HETATM    2  I   UNL     2     -10.873   6.347  67.615  1.00  0.00    -0.303 I  
HETATM    3  I   UNL     3     -12.197  10.951  71.070  1.00  0.00    -0.309 I  
HETATM    4  C   UNL     4     -12.869  13.136  67.991  1.00  0.00     1.704 C  
HETATM    5  C   UNL     4     -12.194  13.253  66.608  1.00  0.00    -0.298 C  
ENDROOT
BRANCH   5   6
HETATM    6  N   UNL     4     -10.774  12.765  66.514  1.00  0.00    -0.256 N  
BRANCH   6   7
HETATM    7  C   UNL     4     -10.204  12.684  67.909  1.00  0.00    -0.220 C  
HETATM    8  C   UNL     4     -10.172  13.997  68.715  1.00  0.00    -0.200 C  
ENDBRANCH   6   7
BRANCH   6   9
HETATM    9  C   UNL     4     -10.771  11.422  65.836  1.00  0.00    -0.255 C  
BRANCH   9  10
HETATM   10  C   UNL     4      -9.425  10.659  65.639  1.00  0.00    -0.212 C  
BRANCH  10  11
HETATM   11  O   UNL     4      -9.411   9.312  65.955  1.00  0.00    -0.220 OA 
BRANCH  11  12
HETATM   12  C   UNL     4      -8.374   8.492  66.260  1.00  0.00    -0.116 A  
HETATM   13  C   UNL     4      -7.837   7.677  65.252  1.00  0.00    -0.122 A  
HETATM   14  C   UNL     4      -6.816   6.801  65.510  1.00  0.00    -0.052 A  
HETATM   15  C   UNL     4      -6.257   6.746  66.760  1.00  0.00    -0.040 A  
HETATM   16  C   UNL     4      -6.711   7.559  67.838  1.00  0.00    -0.066 A  
HETATM   17  C   UNL     4      -7.812   8.449  67.598  1.00  0.00    -0.107 A  
BRANCH  16  18
HETATM   18  O   UNL     4      -6.064   7.489  69.058  1.00  0.00    -0.032 OA 
BRANCH  18  19
HETATM   19  C   UNL     4      -6.467   6.518  69.982  1.00  0.00    -0.040 C  
BRANCH  19  20
HETATM   20  C   UNL     4      -7.225   6.922  71.272  1.00  0.00    -0.076 C  
BRANCH  20  21
HETATM   21  N   UNL     4      -7.868   5.727  71.979  1.00  0.00    -0.105 N  
BRANCH  21  22
HETATM   22  C   UNL     4      -8.254   6.086  73.394  1.00  0.00    -0.114 C  
HETATM   23  C   UNL     4      -7.780   7.455  73.914  1.00  0.00    -0.140 C  
ENDBRANCH  21  22
BRANCH  21  24
HETATM   24  C   UNL     4      -6.882   4.584  72.053  1.00  0.00    -0.053 C  
HETATM   25  C   UNL     4      -5.466   4.905  72.579  1.00  0.00    -0.008 C  
ENDBRANCH  21  24
BRANCH  21  26
HETATM   26  C   UNL     4      -9.117   5.309  71.255  1.00  0.00    -0.144 C  
HETATM   27  C   UNL     4      -9.135   3.874  70.701  1.00  0.00    -0.181 C  
ENDBRANCH  21  26
ENDBRANCH  20  21
ENDBRANCH  19  20
ENDBRANCH  18  19
ENDBRANCH  16  18
BRANCH  17  28
HETATM   28  O   UNL     4      -8.293   9.237  68.629  1.00  0.00    -0.115 OA 
BRANCH  28  29
HETATM   29  C   UNL     4      -7.807  10.509  68.936  1.00  0.00    -0.124 C  
BRANCH  29  30
HETATM   30  C   UNL     4      -6.312  10.742  68.624  1.00  0.00    -0.050 C  
BRANCH  30  31
HETATM   31  N   UNL     4      -5.952  12.167  68.227  1.00  0.00    -0.050 N  
BRANCH  31  32
HETATM   32  C   UNL     4      -7.179  13.010  68.002  1.00  0.00    -0.119 C  
HETATM   33  C   UNL     4      -6.988  14.326  67.235  1.00  0.00     0.099 C  
ENDBRANCH  31  32
BRANCH  31  34
HETATM   34  C   UNL     4      -5.158  12.123  66.951  1.00  0.00     0.022 C  
HETATM   35  C   UNL     4      -5.713  11.213  65.833  1.00  0.00    -0.059 C  
ENDBRANCH  31  34
BRANCH  31  36
HETATM   36  C   UNL     4      -5.152  12.836  69.326  1.00  0.00    -0.069 C  
HETATM   37  C   UNL     4      -5.950  13.484  70.478  1.00  0.00    -0.133 C  
ENDBRANCH  31  36
ENDBRANCH  30  31
ENDBRANCH  29  30
ENDBRANCH  28  29
ENDBRANCH  17  28
ENDBRANCH  11  12
ENDBRANCH  10  11
ENDBRANCH   9  10
ENDBRANCH   6   9
BRANCH   6  38
HETATM   38  C   UNL     4      -9.923  13.723  65.721  1.00  0.00    -0.275 C  
HETATM   39  C   UNL     4     -10.673  14.698  64.791  1.00  0.00    -0.399 C  
ENDBRANCH   6  38
ENDBRANCH   5   6
TORSDOF 21
ENDMDL
MODEL       88
REMARK 921   NORMALIZED FREE ENERGY PREDICTED BY IDOCK:   -0.79 KCAL/MOL
REMARK 922        TOTAL FREE ENERGY PREDICTED BY IDOCK:   -4.07 KCAL/MOL
REMARK 923 INTER-LIGAND FREE ENERGY PREDICTED BY IDOCK:   -4.13 KCAL/MOL
REMARK 924 INTRA-LIGAND FREE ENERGY PREDICTED BY IDOCK:    0.06 KCAL/MOL
REMARK 927      BINDING AFFINITY PREDICTED BY RF-SCORE:    0.00 PKD
ROOT
HETATM    1  I   UNL     1      -5.267   3.882  65.004  1.00  0.00    -0.010 I  
HETATM    2  I   UNL     2      -9.467   1.920  67.455  1.00  0.00     0.398 I  
HETATM    3  I   UNL     3      -5.950   6.649  67.849  1.00  0.00    -0.027 I  
HETATM    4  C   UNL     4      -5.125   5.797  71.496  1.00  0.00    -0.009 C  
HETATM    5  C   UNL     4      -5.960   5.234  72.667  1.00  0.00    -0.027 C  
ENDROOT
BRANCH   5   6
HETATM    6  N   UNL     4      -7.451   5.410  72.570  1.00  0.00    -0.095 N  
BRANCH   6   7
HETATM    7  C   UNL     4      -7.789   6.833  72.946  1.00  0.00    -0.098 C  
HETATM    8  C   UNL     4      -6.898   7.490  74.019  1.00  0.00    -0.097 C  
ENDBRANCH   6   7
BRANCH   6   9
HETATM    9  C   UNL     4      -7.882   5.091  71.165  1.00  0.00    -0.093 C  
BRANCH   9  10
HETATM   10  C   UNL     4      -8.980   5.960  70.478  1.00  0.00    -0.144 C  
BRANCH  10  11
HETATM   11  O   UNL     4      -8.693   6.460  69.220  1.00  0.00    -0.124 OA 
BRANCH  11  12
HETATM   12  C   UNL     4      -9.323   7.415  68.490  1.00  0.00    -0.141 A  
HETATM   13  C   UNL     4      -9.903   7.057  67.264  1.00  0.00    -0.214 A  
HETATM   14  C   UNL     4     -10.517   7.985  66.466  1.00  0.00    -0.022 A  
HETATM   15  C   UNL     4     -10.627   9.286  66.883  1.00  0.00    -0.239 A  
HETATM   16  C   UNL     4     -10.101   9.737  68.128  1.00  0.00    -0.165 A  
HETATM   17  C   UNL     4      -9.411   8.787  68.956  1.00  0.00    -0.160 A  
BRANCH  16  18
HETATM   18  O   UNL     4     -10.295  11.052  68.509  1.00  0.00    -0.174 OA 
BRANCH  18  19
HETATM   19  C   UNL     4     -10.777  11.965  67.563  1.00  0.00    -0.225 C  
BRANCH  19  20
HETATM   20  C   UNL     4     -11.413  13.305  68.013  1.00  0.00    -0.309 C  
BRANCH  20  21
HETATM   21  N   UNL     4     -10.526  14.514  67.704  1.00  0.00    -0.245 N  
BRANCH  21  22
HETATM   22  C   UNL     4      -9.539  14.752  68.821  1.00  0.00    -0.215 C  
HETATM   23  C   UNL     4     -10.062  15.502  70.059  1.00  0.00    -0.241 C  
ENDBRANCH  21  22
BRANCH  21  24
HETATM   24  C   UNL     4     -11.379  15.754  67.577  1.00  0.00    -0.150 C  
HETATM   25  C   UNL     4     -10.648  17.114  67.532  1.00  0.00    -0.323 C  
ENDBRANCH  21  24
BRANCH  21  26
HETATM   26  C   UNL     4      -9.744  14.272  66.444  1.00  0.00    -0.299 C  
HETATM   27  C   UNL     4      -8.425  15.049  66.301  1.00  0.00     0.196 C  
ENDBRANCH  21  26
ENDBRANCH  20  21
ENDBRANCH  19  20
ENDBRANCH  18  19
ENDBRANCH  16  18
BRANCH  17  28
HETATM   28  O   UNL     4      -8.868   9.197  70.161  1.00  0.00    -0.161 OA 
BRANCH  28  29
HETATM   29  C   UNL     4      -7.624   9.817  70.290  1.00  0.00    -0.172 C  
BRANCH  29  30
HETATM   30  C   UNL     4      -7.519  11.232  69.678  1.00  0.00     0.178 C  
BRANCH  30  31
HETATM   31  N   UNL     4      -6.138  11.609  69.161  1.00  0.00    -0.060 N  
BRANCH  31  32
HETATM   32  C   UNL     4      -6.153  12.937  68.452  1.00  0.00    -0.074 C  
HETATM   33  C   UNL     4      -5.821  14.179  69.292  1.00  0.00    -0.089 C  
ENDBRANCH  31  32
BRANCH  31  34
HETATM   34  C   UNL     4      -5.684  10.552  68.193  1.00  0.00    -0.043 C  
HETATM   35  C   UNL     4      -6.315  10.600  66.784  1.00  0.00    -0.084 C  
ENDBRANCH  31  34
BRANCH  31  36
HETATM   36  C   UNL     4      -5.158  11.732  70.310  1.00  0.00    -0.088 C  
HETATM   37  C   UNL     4      -5.287  10.702  71.453  1.00  0.00    -0.025 C  
ENDBRANCH  31  36
ENDBRANCH  30  31
ENDBRANCH  29  30
ENDBRANCH  28  29
ENDBRANCH  17  28
ENDBRANCH  11  12
ENDBRANCH  10  11
ENDBRANCH   9  10
ENDBRANCH   6   9
BRANCH   6  38
HETATM   38  C   UNL     4      -8.167   4.495  73.530  1.00  0.00    -0.102 C  
HETATM   39  C   UNL     4      -9.681   4.733  73.703  1.00  0.00    -0.154 C  
ENDBRANCH   6  38
ENDBRANCH   5   6
TORSDOF 21
ENDMDL
MODEL       89
REMARK 921   NORMALIZED FREE ENERGY PREDICTED BY IDOCK:   -0.77 KCAL/MOL
REMARK 922        TOTAL FREE ENERGY PREDICTED BY IDOCK:   -4.03 KCAL/MOL
REMARK 923 INTER-LIGAND FREE ENERGY PREDICTED BY IDOCK:   -5.78 KCAL/MOL
REMARK 924 INTRA-LIGAND FREE ENERGY PREDICTED BY IDOCK:    1.74 KCAL/MOL
REMARK 927      BINDING AFFINITY PREDICTED BY RF-SCORE:    0.00 PKD
ROOT
HETATM    1  I   UNL     1      -5.544  17.525  69.673  1.00  0.00    -0.249 I  
HETATM    2  I   UNL     2      -5.214  12.546  68.060  1.00  0.00    -0.105 I  
HETATM    3  I   UNL     3      -8.405  17.365  66.844  1.00  0.00    -0.318 I  
HETATM    4  C   UNL     4     -11.652  15.470  67.599  1.00  0.00    -0.147 C  
HETATM    5  C   UNL     4     -12.122  14.025  67.328  1.00  0.00    -0.370 C  
ENDROOT
BRANCH   5   6
HETATM    6  N   UNL     4     -11.417  13.289  66.222  1.00  0.00    -0.313 N  
BRANCH   6   7
HETATM    7  C   UNL     4     -11.618  14.053  64.936  1.00  0.00    -0.367 C  
HETATM    8  C   UNL     4     -12.933  13.785  64.176  1.00  0.00     0.514 C  
ENDBRANCH   6   7
BRANCH   6   9
HETATM    9  C   UNL     4      -9.959  13.174  66.574  1.00  0.00    -0.268 C  
BRANCH   9  10
HETATM   10  C   UNL     4      -9.543  12.828  68.037  1.00  0.00    -0.217 C  
BRANCH  10  11
HETATM   11  O   UNL     4     -10.543  12.400  68.892  1.00  0.00    -0.207 OA 
BRANCH  11  12
HETATM   12  C   UNL     4     -10.723  11.201  69.502  1.00  0.00    -0.143 A  
HETATM   13  C   UNL     4     -11.977  10.905  70.054  1.00  0.00    -0.429 A  
HETATM   14  C   UNL     4     -12.208   9.728  70.716  1.00  0.00    -0.342 A  
HETATM   15  C   UNL     4     -11.219   8.782  70.800  1.00  0.00    -0.309 A  
HETATM   16  C   UNL     4      -9.924   8.977  70.240  1.00  0.00    -0.195 A  
HETATM   17  C   UNL     4      -9.650  10.226  69.584  1.00  0.00    -0.162 A  
BRANCH  16  18
HETATM   18  O   UNL     4      -8.992   7.958  70.316  1.00  0.00    -0.148 OA 
BRANCH  18  19
HETATM   19  C   UNL     4      -9.409   6.643  70.080  1.00  0.00    -0.158 C  
BRANCH  19  20
HETATM   20  C   UNL     4     -10.352   5.923  71.078  1.00  0.00    -0.223 C  
BRANCH  20  21
HETATM   21  N   UNL     4      -9.601   4.998  72.039  1.00  0.00    -0.152 N  
BRANCH  21  22
HETATM   22  C   UNL     4      -9.113   3.763  71.321  1.00  0.00    -0.116 C  
HETATM   23  C   UNL     4      -7.900   3.040  71.933  1.00  0.00    -0.054 C  
ENDBRANCH  21  22
BRANCH  21  24
HETATM   24  C   UNL     4     -10.529   4.546  73.142  1.00  0.00    -0.195 C  
HETATM   25  C   UNL     4     -11.081   3.106  73.057  1.00  0.00    -0.081 C  
ENDBRANCH  21  24
BRANCH  21  26
HETATM   26  C   UNL     4      -8.402   5.705  72.605  1.00  0.00    -0.117 C  
HETATM   27  C   UNL     4      -8.496   6.132  74.080  1.00  0.00    -0.116 C  
ENDBRANCH  21  26
ENDBRANCH  20  21
ENDBRANCH  19  20
ENDBRANCH  18  19
ENDBRANCH  16  18
BRANCH  17  28
HETATM   28  O   UNL     4      -8.396  10.457  69.048  1.00  0.00    -0.130 OA 
BRANCH  28  29
HETATM   29  C   UNL     4      -7.743   9.585  68.176  1.00  0.00    -0.083 C  
BRANCH  29  30
HETATM   30  C   UNL     4      -8.171   9.681  66.695  1.00  0.00    -0.120 C  
BRANCH  30  31
HETATM   31  N   UNL     4      -7.305   8.893  65.721  1.00  0.00    -0.088 N  
BRANCH  31  32
HETATM   32  C   UNL     4      -6.783   9.764  64.610  1.00  0.00    -0.113 C  
HETATM   33  C   UNL     4      -6.723   9.142  63.207  1.00  0.00    -0.090 C  
ENDBRANCH  31  32
BRANCH  31  34
HETATM   34  C   UNL     4      -8.138   7.794  65.120  1.00  0.00    -0.137 C  
HETATM   35  C   UNL     4      -7.364   6.670  64.397  1.00  0.00    -0.087 C  
ENDBRANCH  31  34
BRANCH  31  36
HETATM   36  C   UNL     4      -6.100   8.315  66.433  1.00  0.00    -0.049 C  
HETATM   37  C   UNL     4      -6.334   7.058  67.298  1.00  0.00    -0.052 C  
ENDBRANCH  31  36
ENDBRANCH  30  31
ENDBRANCH  29  30
ENDBRANCH  28  29
ENDBRANCH  17  28
ENDBRANCH  11  12
ENDBRANCH  10  11
ENDBRANCH   9  10
ENDBRANCH   6   9
BRANCH   6  38
HETATM   38  C   UNL     4     -11.994  11.910  66.035  1.00  0.00     0.122 C  
HETATM   39  C   UNL     4     -11.010  10.810  65.585  1.00  0.00     0.033 C  
ENDBRANCH   6  38
ENDBRANCH   5   6
TORSDOF 21
ENDMDL
MODEL       90
REMARK 921   NORMALIZED FREE ENERGY PREDICTED BY IDOCK:   -0.65 KCAL/MOL
REMARK 922        TOTAL FREE ENERGY PREDICTED BY IDOCK:   -3.77 KCAL/MOL
REMARK 923 INTER-LIGAND FREE ENERGY PREDICTED BY IDOCK:   -3.26 KCAL/MOL
REMARK 924 INTRA-LIGAND FREE ENERGY PREDICTED BY IDOCK:   -0.51 KCAL/MOL
REMARK 927      BINDING AFFINITY PREDICTED BY RF-SCORE:    0.00 PKD
ROOT
HETATM    1  I   UNL     1      -8.845  19.956  66.581  1.00  0.00    -0.419 I  
HETATM    2  I   UNL     2     -11.019  15.551  64.746  1.00  0.00     0.026 I  
HETATM    3  I   UNL     3      -7.825  17.273  69.406  1.00  0.00     0.893 I  
HETATM    4  C   UNL     4      -5.136  14.662  68.595  1.00  0.00    -0.096 C  
HETATM    5  C   UNL     4      -5.193  13.212  68.067  1.00  0.00    -0.104 C  
ENDROOT
BRANCH   5   6
HETATM    6  N   UNL     4      -6.489  12.477  68.272  1.00  0.00    -0.061 N  
BRANCH   6   7
HETATM    7  C   UNL     4      -6.578  11.371  67.249  1.00  0.00    -0.104 C  
HETATM    8  C   UNL     4      -5.483  11.350  66.164  1.00  0.00    -0.038 C  
ENDBRANCH   6   7
BRANCH   6   9
HETATM    9  C   UNL     4      -6.518  11.935  69.676  1.00  0.00    -0.101 C  
BRANCH   9  10
HETATM   10  C   UNL     4      -5.692  10.660  70.028  1.00  0.00    -0.067 C  
BRANCH  10  11
HETATM   11  O   UNL     4      -6.365   9.451  70.018  1.00  0.00    -0.040 OA 
BRANCH  11  12
HETATM   12  C   UNL     4      -7.694   9.186  69.933  1.00  0.00    -0.087 A  
HETATM   13  C   UNL     4      -8.520   9.513  71.017  1.00  0.00     0.136 A  
HETATM   14  C   UNL     4      -9.861   9.234  71.004  1.00  0.00    -0.355 A  
HETATM   15  C   UNL     4     -10.435   8.673  69.893  1.00  0.00    -0.221 A  
HETATM   16  C   UNL     4      -9.684   8.337  68.730  1.00  0.00    -0.157 A  
HETATM   17  C   UNL     4      -8.268   8.579  68.745  1.00  0.00    -0.122 A  
BRANCH  16  18
HETATM   18  O   UNL     4     -10.339   7.823  67.626  1.00  0.00    -0.206 OA 
BRANCH  18  19
HETATM   19  C   UNL     4     -10.268   8.521  66.414  1.00  0.00    -0.123 C  
BRANCH  19  20
HETATM   20  C   UNL     4     -10.970   9.892  66.250  1.00  0.00     0.381 C  
BRANCH  20  21
HETATM   21  N   UNL     4     -10.223  10.830  65.298  1.00  0.00    -0.284 N  
BRANCH  21  22
HETATM   22  C   UNL     4     -10.069  12.201  65.910  1.00  0.00    -0.245 C  
HETATM   23  C   UNL     4     -11.031  12.560  67.057  1.00  0.00    -0.306 C  
ENDBRANCH  21  22
BRANCH  21  24
HETATM   24  C   UNL     4     -11.007  10.988  64.017  1.00  0.00    -0.046 C  
HETATM   25  C   UNL     4     -12.364  11.719  64.103  1.00  0.00    -0.268 C  
ENDBRANCH  21  24
BRANCH  21  26
HETATM   26  C   UNL     4      -8.846  10.294  65.020  1.00  0.00    -0.187 C  
HETATM   27  C   UNL     4      -8.227  10.677  63.666  1.00  0.00    -0.006 C  
ENDBRANCH  21  26
ENDBRANCH  20  21
ENDBRANCH  19  20
ENDBRANCH  18  19
ENDBRANCH  16  18
BRANCH  17  28
HETATM   28  O   UNL     4      -7.505   8.244  67.641  1.00  0.00    -0.091 OA 
BRANCH  28  29
HETATM   29  C   UNL     4      -7.569   7.012  66.987  1.00  0.00    -0.102 C  
BRANCH  29  30
HETATM   30  C   UNL     4      -7.536   5.770  67.905  1.00  0.00    -0.078 C  
BRANCH  30  31
HETATM   31  N   UNL     4      -8.030   4.481  67.263  1.00  0.00    -0.100 N  
BRANCH  31  32
HETATM   32  C   UNL     4      -8.811   4.750  66.004  1.00  0.00    -0.123 C  
HETATM   33  C   UNL     4     -10.305   4.395  66.023  1.00  0.00    -0.210 C  
ENDBRANCH  31  32
BRANCH  31  34
HETATM   34  C   UNL     4      -8.925   3.771  68.241  1.00  0.00    -0.125 C  
HETATM   35  C   UNL     4      -9.199   4.505  69.572  1.00  0.00    -0.192 C  
ENDBRANCH  31  34
BRANCH  31  36
HETATM   36  C   UNL     4      -6.861   3.599  66.877  1.00  0.00    -0.054 C  
HETATM   37  C   UNL     4      -5.703   4.270  66.107  1.00  0.00    -0.022 C  
ENDBRANCH  31  36
ENDBRANCH  30  31
ENDBRANCH  29  30
ENDBRANCH  28  29
ENDBRANCH  17  28
ENDBRANCH  11  12
ENDBRANCH  10  11
ENDBRANCH   9  10
ENDBRANCH   6   9
BRANCH   6  38
HETATM   38  C   UNL     4      -7.669  13.392  68.068  1.00  0.00    -0.147 C  
HETATM   39  C   UNL     4      -7.510  14.487  66.995  1.00  0.00     0.187 C  
ENDBRANCH   6  38
ENDBRANCH   5   6
TORSDOF 21
ENDMDL
MODEL       91
REMARK 921   NORMALIZED FREE ENERGY PREDICTED BY IDOCK:   -0.50 KCAL/MOL
REMARK 922        TOTAL FREE ENERGY PREDICTED BY IDOCK:   -3.44 KCAL/MOL
REMARK 923 INTER-LIGAND FREE ENERGY PREDICTED BY IDOCK:   -4.00 KCAL/MOL
REMARK 924 INTRA-LIGAND FREE ENERGY PREDICTED BY IDOCK:    0.56 KCAL/MOL
REMARK 927      BINDING AFFINITY PREDICTED BY RF-SCORE:    0.00 PKD
ROOT
HETATM    1  I   UNL     1     -12.744  15.699  71.955  1.00  0.00    -0.532 I  
HETATM    2  I   UNL     2      -9.806  18.827  68.942  1.00  0.00    -0.112 I  
HETATM    3  I   UNL     3     -11.002  13.065  69.456  1.00  0.00     0.434 I  
HETATM    4  C   UNL     4      -7.276  12.277  69.900  1.00  0.00     0.850 C  
HETATM    5  C   UNL     4      -5.990  12.845  69.261  1.00  0.00    -0.093 C  
ENDROOT
BRANCH   5   6
HETATM    6  N   UNL     4      -6.151  13.532  67.933  1.00  0.00    -0.139 N  
BRANCH   6   7
HETATM    7  C   UNL     4      -5.225  14.724  67.897  1.00  0.00    -0.071 C  
HETATM    8  C   UNL     4      -5.127  15.556  69.191  1.00  0.00    -0.096 C  
ENDBRANCH   6   7
BRANCH   6   9
HETATM    9  C   UNL     4      -5.829  12.549  66.841  1.00  0.00     0.313 C  
BRANCH   9  10
HETATM   10  C   UNL     4      -5.902  11.019  67.133  1.00  0.00    -0.064 C  
BRANCH  10  11
HETATM   11  O   UNL     4      -7.131  10.404  66.967  1.00  0.00    -0.087 OA 
BRANCH  11  12
HETATM   12  C   UNL     4      -7.503   9.116  67.179  1.00  0.00    -0.087 A  
HETATM   13  C   UNL     4      -6.534   8.107  67.087  1.00  0.00    -0.057 A  
HETATM   14  C   UNL     4      -6.858   6.787  67.252  1.00  0.00    -0.072 A  
HETATM   15  C   UNL     4      -8.142   6.429  67.570  1.00  0.00    -0.117 A  
HETATM   16  C   UNL     4      -9.188   7.385  67.719  1.00  0.00    -0.131 A  
HETATM   17  C   UNL     4      -8.876   8.770  67.503  1.00  0.00    -0.134 A  
BRANCH  16  18
HETATM   18  O   UNL     4     -10.449   6.957  68.094  1.00  0.00    -0.179 OA 
BRANCH  18  19
HETATM   19  C   UNL     4     -10.608   6.335  69.338  1.00  0.00    -0.271 C  
BRANCH  19  20
HETATM   20  C   UNL     4      -9.375   5.862  70.149  1.00  0.00    -0.156 C  
BRANCH  20  21
HETATM   21  N   UNL     4      -9.398   6.348  71.600  1.00  0.00    -0.145 N  
BRANCH  21  22
HETATM   22  C   UNL     4     -10.816   6.440  72.110  1.00  0.00    -0.237 C  
HETATM   23  C   UNL     4     -11.285   5.322  73.057  1.00  0.00    -0.387 C  
ENDBRANCH  21  22
BRANCH  21  24
HETATM   24  C   UNL     4      -8.793   7.730  71.685  1.00  0.00    -0.118 C  
HETATM   25  C   UNL     4      -7.398   7.932  71.054  1.00  0.00    -0.062 C  
ENDBRANCH  21  24
BRANCH  21  26
HETATM   26  C   UNL     4      -8.655   5.384  72.480  1.00  0.00    -0.118 C  
HETATM   27  C   UNL     4      -8.016   4.174  71.778  1.00  0.00    -0.083 C  
ENDBRANCH  21  26
ENDBRANCH  20  21
ENDBRANCH  19  20
ENDBRANCH  18  19
ENDBRANCH  16  18
BRANCH  17  28
HETATM   28  O   UNL     4      -9.873   9.723  67.618  1.00  0.00    -0.155 OA 
BRANCH  28  29
HETATM   29  C   UNL     4     -10.911   9.886  66.699  1.00  0.00     0.149 C  
BRANCH  29  30
HETATM   30  C   UNL     4     -10.493   9.868  65.212  1.00  0.00     0.349 C  
BRANCH  30  31
HETATM   31  N   UNL     4     -10.233  11.237  64.599  1.00  0.00    -0.279 N  
BRANCH  31  32
HETATM   32  C   UNL     4      -9.344  11.146  63.388  1.00  0.00    -0.268 C  
HETATM   33  C   UNL     4      -9.484   9.890  62.515  1.00  0.00    -0.166 C  
ENDBRANCH  31  32
BRANCH  31  34
HETATM   34  C   UNL     4      -9.557  12.102  65.627  1.00  0.00    -0.165 C  
HETATM   35  C   UNL     4     -10.391  13.276  66.186  1.00  0.00    -0.290 C  
ENDBRANCH  31  34
BRANCH  31  36
HETATM   36  C   UNL     4     -11.533  11.870  64.147  1.00  0.00    -0.370 C  
HETATM   37  C   UNL     4     -11.575  13.412  64.080  1.00  0.00    -0.440 C  
ENDBRANCH  31  36
ENDBRANCH  30  31
ENDBRANCH  29  30
ENDBRANCH  28  29
ENDBRANCH  17  28
ENDBRANCH  11  12
ENDBRANCH  10  11
ENDBRANCH   9  10
ENDBRANCH   6   9
BRANCH   6  38
HETATM   38  C   UNL     4      -7.559  14.034  67.750  1.00  0.00    -0.170 C  
HETATM   39  C   UNL     4      -7.711  15.460  67.180  1.00  0.00    -0.246 C  
ENDBRANCH   6  38
ENDBRANCH   5   6
TORSDOF 21
ENDMDL
MODEL       92
REMARK 921   NORMALIZED FREE ENERGY PREDICTED BY IDOCK:   -0.43 KCAL/MOL
REMARK 922        TOTAL FREE ENERGY PREDICTED BY IDOCK:   -3.28 KCAL/MOL
REMARK 923 INTER-LIGAND FREE ENERGY PREDICTED BY IDOCK:   -2.09 KCAL/MOL
REMARK 924 INTRA-LIGAND FREE ENERGY PREDICTED BY IDOCK:   -1.19 KCAL/MOL
REMARK 927      BINDING AFFINITY PREDICTED BY RF-SCORE:    0.00 PKD
ROOT
HETATM    1  I   UNL     1      -9.849  11.224  62.968  1.00  0.00    -0.153 I  
HETATM    2  I   UNL     2     -10.455  15.663  65.695  1.00  0.00    -0.421 I  
HETATM    3  I   UNL     3      -9.492   9.934  66.766  1.00  0.00    -0.253 I  
HETATM    4  C   UNL     4     -12.628   9.764  68.967  1.00  0.00     2.212 C  
HETATM    5  C   UNL     4     -13.268  10.742  69.976  1.00  0.00     0.431 C  
ENDROOT
BRANCH   5   6
HETATM    6  N   UNL     4     -12.357  11.783  70.568  1.00  0.00    -0.325 N  
BRANCH   6   7
HETATM    7  C   UNL     4     -12.840  12.104  71.961  1.00  0.00    -0.151 C  
HETATM    8  C   UNL     4     -13.435  13.509  72.175  1.00  0.00    -0.631 C  
ENDBRANCH   6   7
BRANCH   6   9
HETATM    9  C   UNL     4     -10.953  11.242  70.580  1.00  0.00     0.796 C  
BRANCH   9  10
HETATM   10  C   UNL     4     -10.706   9.741  70.921  1.00  0.00    -0.305 C  
BRANCH  10  11
HETATM   11  O   UNL     4      -9.869   9.466  71.988  1.00  0.00    -0.079 OA 
BRANCH  11  12
HETATM   12  C   UNL     4      -9.663   8.309  72.668  1.00  0.00    -0.287 A  
HETATM   13  C   UNL     4     -10.750   7.451  72.885  1.00  0.00    -0.387 A  
HETATM   14  C   UNL     4     -10.612   6.289  73.598  1.00  0.00    -0.280 A  
HETATM   15  C   UNL     4      -9.381   5.914  74.069  1.00  0.00    -0.135 A  
HETATM   16  C   UNL     4      -8.212   6.703  73.868  1.00  0.00    -0.117 A  
HETATM   17  C   UNL     4      -8.348   7.948  73.164  1.00  0.00    -0.179 A  
BRANCH  16  18
HETATM   18  O   UNL     4      -6.993   6.236  74.325  1.00  0.00    -0.085 OA 
BRANCH  18  19
HETATM   19  C   UNL     4      -6.204   5.459  73.469  1.00  0.00    -0.056 C  
BRANCH  19  20
HETATM   20  C   UNL     4      -6.746   4.129  72.887  1.00  0.00    -0.046 C  
BRANCH  20  21
HETATM   21  N   UNL     4      -6.740   4.107  71.357  1.00  0.00    -0.029 N  
BRANCH  21  22
HETATM   22  C   UNL     4      -6.999   5.487  70.801  1.00  0.00    -0.053 C  
HETATM   23  C   UNL     4      -8.384   5.734  70.179  1.00  0.00    -0.117 C  
ENDBRANCH  21  22
BRANCH  21  24
HETATM   24  C   UNL     4      -7.839   3.200  70.854  1.00  0.00    -0.046 C  
HETATM   25  C   UNL     4      -9.133   3.123  71.695  1.00  0.00    -0.169 C  
ENDBRANCH  21  24
BRANCH  21  26
HETATM   26  C   UNL     4      -5.400   3.652  70.852  1.00  0.00    -0.004 C  
HETATM   27  C   UNL     4      -5.409   2.480  69.855  1.00  0.00    -0.012 C  
ENDBRANCH  21  26
ENDBRANCH  20  21
ENDBRANCH  19  20
ENDBRANCH  18  19
ENDBRANCH  16  18
BRANCH  17  28
HETATM   28  O   UNL     4      -7.236   8.749  72.970  1.00  0.00    -0.341 OA 
BRANCH  28  29
HETATM   29  C   UNL     4      -6.417   8.694  71.842  1.00  0.00    -0.074 C  
BRANCH  29  30
HETATM   30  C   UNL     4      -6.924   9.479  70.612  1.00  0.00    -0.118 C  
BRANCH  30  31
HETATM   31  N   UNL     4      -6.009  10.600  70.141  1.00  0.00    -0.084 N  
BRANCH  31  32
HETATM   32  C   UNL     4      -6.792  11.795  69.665  1.00  0.00     0.026 C  
HETATM   33  C   UNL     4      -6.978  11.946  68.148  1.00  0.00    -0.078 C  
ENDBRANCH  31  32
BRANCH  31  34
HETATM   34  C   UNL     4      -5.172  10.089  69.001  1.00  0.00    -0.035 C  
HETATM   35  C   UNL     4      -5.191   8.561  68.772  1.00  0.00    -0.033 C  
ENDBRANCH  31  34
BRANCH  31  36
HETATM   36  C   UNL     4      -5.125  11.074  71.276  1.00  0.00    -0.098 C  
HETATM   37  C   UNL     4      -5.283  12.546  71.718  1.00  0.00     0.025 C  
ENDBRANCH  31  36
ENDBRANCH  30  31
ENDBRANCH  29  30
ENDBRANCH  28  29
ENDBRANCH  17  28
ENDBRANCH  11  12
ENDBRANCH  10  11
ENDBRANCH   9  10
ENDBRANCH   6   9
BRANCH   6  38
HETATM   38  C   UNL     4     -12.392  13.055  69.761  1.00  0.00    -0.078 C  
HETATM   39  C   UNL     4     -11.187  13.314  68.834  1.00  0.00    -0.322 C  
ENDBRANCH   6  38
ENDBRANCH   5   6
TORSDOF 21
ENDMDL
MODEL       93
REMARK 921   NORMALIZED FREE ENERGY PREDICTED BY IDOCK:   -0.36 KCAL/MOL
REMARK 922        TOTAL FREE ENERGY PREDICTED BY IDOCK:   -3.13 KCAL/MOL
REMARK 923 INTER-LIGAND FREE ENERGY PREDICTED BY IDOCK:   -6.07 KCAL/MOL
REMARK 924 INTRA-LIGAND FREE ENERGY PREDICTED BY IDOCK:    2.94 KCAL/MOL
REMARK 927      BINDING AFFINITY PREDICTED BY RF-SCORE:    0.00 PKD
ROOT
HETATM    1  I   UNL     1      -5.436   7.357  68.643  1.00  0.00    -0.024 I  
HETATM    2  I   UNL     2     -10.325   6.840  66.816  1.00  0.00    -0.114 I  
HETATM    3  I   UNL     3      -6.051  10.918  66.865  1.00  0.00    -0.118 I  
HETATM    4  C   UNL     4      -8.405  13.441  68.539  1.00  0.00    -0.085 C  
HETATM    5  C   UNL     4      -9.907  13.758  68.375  1.00  0.00    -0.227 C  
ENDROOT
BRANCH   5   6
HETATM    6  N   UNL     4     -10.539  13.344  67.074  1.00  0.00    -0.263 N  
BRANCH   6   7
HETATM    7  C   UNL     4     -11.341  14.507  66.541  1.00  0.00    -0.352 C  
HETATM    8  C   UNL     4     -12.608  14.157  65.737  1.00  0.00    -0.475 C  
ENDBRANCH   6   7
BRANCH   6   9
HETATM    9  C   UNL     4      -9.451  12.939  66.118  1.00  0.00    -0.154 C  
BRANCH   9  10
HETATM   10  C   UNL     4      -9.807  12.615  64.634  1.00  0.00    -0.038 C  
BRANCH  10  11
HETATM   11  O   UNL     4     -10.203  11.320  64.349  1.00  0.00    -0.270 OA 
BRANCH  11  12
HETATM   12  C   UNL     4      -9.465  10.223  64.043  1.00  0.00    -0.300 A  
HETATM   13  C   UNL     4      -9.411   9.796  62.709  1.00  0.00    -0.156 A  
HETATM   14  C   UNL     4      -8.714   8.673  62.346  1.00  0.00    -0.112 A  
HETATM   15  C   UNL     4      -8.003   7.972  63.284  1.00  0.00    -0.143 A  
HETATM   16  C   UNL     4      -7.969   8.349  64.658  1.00  0.00    -0.147 A  
HETATM   17  C   UNL     4      -8.733   9.496  65.064  1.00  0.00    -0.177 A  
BRANCH  16  18
HETATM   18  O   UNL     4      -7.187   7.626  65.540  1.00  0.00    -0.065 OA 
BRANCH  18  19
HETATM   19  C   UNL     4      -6.575   6.450  65.091  1.00  0.00    -0.039 C  
BRANCH  19  20
HETATM   20  C   UNL     4      -6.931   5.082  65.729  1.00  0.00    -0.066 C  
BRANCH  20  21
HETATM   21  N   UNL     4      -7.073   3.965  64.692  1.00  0.00    -0.060 N  
BRANCH  21  22
HETATM   22  C   UNL     4      -5.731   3.619  64.092  1.00  0.00    -0.014 C  
HETATM   23  C   UNL     4      -5.744   2.754  62.820  1.00  0.00    -0.009 C  
ENDBRANCH  21  22
BRANCH  21  24
HETATM   24  C   UNL     4      -7.971   4.424  63.566  1.00  0.00    -0.086 C  
HETATM   25  C   UNL     4      -9.395   3.829  63.510  1.00  0.00    -0.129 C  
ENDBRANCH  21  24
BRANCH  21  26
HETATM   26  C   UNL     4      -7.620   2.725  65.340  1.00  0.00    -0.076 C  
HETATM   27  C   UNL     4      -6.867   2.216  66.581  1.00  0.00    -0.043 C  
ENDBRANCH  21  26
ENDBRANCH  20  21
ENDBRANCH  19  20
ENDBRANCH  18  19
ENDBRANCH  16  18
BRANCH  17  28
HETATM   28  O   UNL     4      -8.740   9.877  66.395  1.00  0.00    -0.130 OA 
BRANCH  28  29
HETATM   29  C   UNL     4      -9.375   9.162  67.412  1.00  0.00    -0.134 C  
BRANCH  29  30
HETATM   30  C   UNL     4      -8.978   9.558  68.851  1.00  0.00    -0.141 C  
BRANCH  30  31
HETATM   31  N   UNL     4      -9.528   8.651  69.943  1.00  0.00    -0.165 N  
BRANCH  31  32
HETATM   32  C   UNL     4      -9.276   7.198  69.640  1.00  0.00    -0.146 C  
HETATM   33  C   UNL     4      -9.253   6.232  70.834  1.00  0.00    -0.163 C  
ENDBRANCH  31  32
BRANCH  31  34
HETATM   34  C   UNL     4     -11.012   8.870  70.046  1.00  0.00    -0.206 C  
HETATM   35  C   UNL     4     -11.469  10.032  70.957  1.00  0.00    -0.463 C  
ENDBRANCH  31  34
BRANCH  31  36
HETATM   36  C   UNL     4      -8.855   8.949  71.267  1.00  0.00    -0.231 C  
HETATM   37  C   UNL     4      -7.330   9.189  71.239  1.00  0.00    -0.054 C  
ENDBRANCH  31  36
ENDBRANCH  30  31
ENDBRANCH  29  30
ENDBRANCH  28  29
ENDBRANCH  17  28
ENDBRANCH  11  12
ENDBRANCH  10  11
ENDBRANCH   9  10
ENDBRANCH   6   9
BRANCH   6  38
HETATM   38  C   UNL     4     -11.482  12.186  67.274  1.00  0.00    -0.345 C  
HETATM   39  C   UNL     4     -12.064  12.012  68.692  1.00  0.00    -0.145 C  
ENDBRANCH   6  38
ENDBRANCH   5   6
TORSDOF 21
ENDMDL
MODEL       94
REMARK 921   NORMALIZED FREE ENERGY PREDICTED BY IDOCK:   -0.36 KCAL/MOL
REMARK 922        TOTAL FREE ENERGY PREDICTED BY IDOCK:   -3.12 KCAL/MOL
REMARK 923 INTER-LIGAND FREE ENERGY PREDICTED BY IDOCK:   -3.86 KCAL/MOL
REMARK 924 INTRA-LIGAND FREE ENERGY PREDICTED BY IDOCK:    0.74 KCAL/MOL
REMARK 927      BINDING AFFINITY PREDICTED BY RF-SCORE:    0.00 PKD
ROOT
HETATM    1  I   UNL     1      -8.637  11.188  62.353  1.00  0.00     0.161 I  
HETATM    2  I   UNL     2     -10.813  10.203  67.021  1.00  0.00     0.101 I  
HETATM    3  I   UNL     3      -6.175   8.376  63.852  1.00  0.00    -0.072 I  
HETATM    4  C   UNL     4      -7.406   4.749  64.044  1.00  0.00    -0.058 C  
HETATM    5  C   UNL     4      -8.081   3.918  65.156  1.00  0.00    -0.097 C  
ENDROOT
BRANCH   5   6
HETATM    6  N   UNL     4      -7.886   4.403  66.566  1.00  0.00    -0.098 N  
BRANCH   6   7
HETATM    7  C   UNL     4      -6.404   4.478  66.845  1.00  0.00    -0.037 C  
HETATM    8  C   UNL     4      -5.968   4.256  68.307  1.00  0.00    -0.027 C  
ENDBRANCH   6   7
BRANCH   6   9
HETATM    9  C   UNL     4      -8.543   5.750  66.706  1.00  0.00    -0.112 C  
BRANCH   9  10
HETATM   10  C   UNL     4      -8.150   6.681  67.894  1.00  0.00    -0.113 C  
BRANCH  10  11
HETATM   11  O   UNL     4      -7.075   7.531  67.700  1.00  0.00    -0.080 OA 
BRANCH  11  12
HETATM   12  C   UNL     4      -7.012   8.886  67.724  1.00  0.00    -0.075 A  
HETATM   13  C   UNL     4      -7.346   9.600  66.564  1.00  0.00    -0.090 A  
HETATM   14  C   UNL     4      -7.264  10.966  66.517  1.00  0.00    -0.142 A  
HETATM   15  C   UNL     4      -6.902  11.672  67.635  1.00  0.00    -0.094 A  
HETATM   16  C   UNL     4      -6.577  11.038  68.869  1.00  0.00    -0.058 A  
HETATM   17  C   UNL     4      -6.612   9.603  68.922  1.00  0.00    -0.046 A  
BRANCH  16  18
HETATM   18  O   UNL     4      -6.272  11.816  69.971  1.00  0.00    -0.151 OA 
BRANCH  18  19
HETATM   19  C   UNL     4      -5.451  12.936  69.801  1.00  0.00    -0.095 C  
BRANCH  19  20
HETATM   20  C   UNL     4      -5.549  13.799  68.517  1.00  0.00    -0.093 C  
BRANCH  20  21
HETATM   21  N   UNL     4      -6.136  15.187  68.781  1.00  0.00    -0.086 N  
BRANCH  21  22
HETATM   22  C   UNL     4      -7.409  15.085  69.587  1.00  0.00    -0.181 C  
HETATM   23  C   UNL     4      -8.562  16.019  69.183  1.00  0.00    -0.247 C  
ENDBRANCH  21  22
BRANCH  21  24
HETATM   24  C   UNL     4      -6.481  15.854  67.470  1.00  0.00    -0.175 C  
HETATM   25  C   UNL     4      -5.858  17.241  67.196  1.00  0.00    -0.181 C  
ENDBRANCH  21  24
BRANCH  21  26
HETATM   26  C   UNL     4      -5.162  16.021  69.564  1.00  0.00    -0.111 C  
HETATM   27  C   UNL     4      -5.733  16.780  70.774  1.00  0.00     0.153 C  
ENDBRANCH  21  26
ENDBRANCH  20  21
ENDBRANCH  19  20
ENDBRANCH  18  19
ENDBRANCH  16  18
BRANCH  17  28
HETATM   28  O   UNL     4      -6.281   8.953  70.098  1.00  0.00    -0.035 OA 
BRANCH  28  29
HETATM   29  C   UNL     4      -7.161   8.767  71.166  1.00  0.00    -0.093 C  
BRANCH  29  30
HETATM   30  C   UNL     4      -8.048   7.505  71.085  1.00  0.00    -0.100 C  
BRANCH  30  31
HETATM   31  N   UNL     4      -8.980   7.295  72.270  1.00  0.00    -0.130 N  
BRANCH  31  32
HETATM   32  C   UNL     4      -8.638   8.209  73.416  1.00  0.00    -0.247 C  
HETATM   33  C   UNL     4      -7.201   8.142  73.955  1.00  0.00    -0.194 C  
ENDBRANCH  31  32
BRANCH  31  34
HETATM   34  C   UNL     4      -8.850   5.871  72.735  1.00  0.00    -0.124 C  
HETATM   35  C   UNL     4      -8.890   4.787  71.635  1.00  0.00    -0.145 C  
ENDBRANCH  31  34
BRANCH  31  36
HETATM   36  C   UNL     4     -10.411   7.595  71.877  1.00  0.00    -0.215 C  
HETATM   37  C   UNL     4     -10.725   7.653  70.366  1.00  0.00    -0.241 C  
ENDBRANCH  31  36
ENDBRANCH  30  31
ENDBRANCH  29  30
ENDBRANCH  28  29
ENDBRANCH  17  28
ENDBRANCH  11  12
ENDBRANCH  10  11
ENDBRANCH   9  10
ENDBRANCH   6   9
BRANCH   6  38
HETATM   38  C   UNL     4      -8.496   3.447  67.558  1.00  0.00    -0.097 C  
HETATM   39  C   UNL     4      -8.668   1.988  67.087  1.00  0.00    -0.135 C  
ENDBRANCH   6  38
ENDBRANCH   5   6
TORSDOF 21
ENDMDL
MODEL       95
REMARK 921   NORMALIZED FREE ENERGY PREDICTED BY IDOCK:   -0.18 KCAL/MOL
REMARK 922        TOTAL FREE ENERGY PREDICTED BY IDOCK:   -2.72 KCAL/MOL
REMARK 923 INTER-LIGAND FREE ENERGY PREDICTED BY IDOCK:   -1.87 KCAL/MOL
REMARK 924 INTRA-LIGAND FREE ENERGY PREDICTED BY IDOCK:   -0.85 KCAL/MOL
REMARK 927      BINDING AFFINITY PREDICTED BY RF-SCORE:    0.00 PKD
ROOT
HETATM    1  I   UNL     1     -12.949  11.081  70.187  1.00  0.00     0.736 I  
HETATM    2  I   UNL     2     -12.344  13.958  65.845  1.00  0.00    -0.405 I  
HETATM    3  I   UNL     3      -8.979  10.835  69.560  1.00  0.00     0.646 I  
HETATM    4  C   UNL     4      -6.800  13.912  70.257  1.00  0.00     0.313 C  
HETATM    5  C   UNL     4      -6.278  15.063  69.370  1.00  0.00    -0.115 C  
ENDROOT
BRANCH   5   6
HETATM    6  N   UNL     4      -6.219  14.793  67.891  1.00  0.00    -0.150 N  
BRANCH   6   7
HETATM    7  C   UNL     4      -5.131  15.653  67.293  1.00  0.00     0.221 C  
HETATM    8  C   UNL     4      -5.416  17.166  67.217  1.00  0.00    -0.168 C  
ENDBRANCH   6   7
BRANCH   6   9
HETATM    9  C   UNL     4      -5.945  13.329  67.681  1.00  0.00    -0.120 C  
BRANCH   9  10
HETATM   10  C   UNL     4      -5.452  12.456  68.875  1.00  0.00    -0.058 C  
BRANCH  10  11
HETATM   11  O   UNL     4      -5.163  11.129  68.609  1.00  0.00    -0.041 OA 
BRANCH  11  12
HETATM   12  C   UNL     4      -5.255  10.034  69.405  1.00  0.00    -0.035 A  
HETATM   13  C   UNL     4      -5.234  10.206  70.796  1.00  0.00    -0.062 A  
HETATM   14  C   UNL     4      -5.284   9.135  71.649  1.00  0.00    -0.049 A  
HETATM   15  C   UNL     4      -5.413   7.865  71.152  1.00  0.00    -0.034 A  
HETATM   16  C   UNL     4      -5.478   7.593  69.754  1.00  0.00    -0.023 A  
HETATM   17  C   UNL     4      -5.379   8.700  68.844  1.00  0.00    -0.036 A  
BRANCH  16  18
HETATM   18  O   UNL     4      -5.663   6.292  69.325  1.00  0.00    -0.018 OA 
BRANCH  18  19
HETATM   19  C   UNL     4      -6.954   5.750  69.347  1.00  0.00    -0.063 C  
BRANCH  19  20
HETATM   20  C   UNL     4      -7.266   4.488  70.190  1.00  0.00    -0.049 C  
BRANCH  20  21
HETATM   21  N   UNL     4      -8.563   3.797  69.762  1.00  0.00    -0.063 N  
BRANCH  21  22
HETATM   22  C   UNL     4      -9.426   4.734  68.952  1.00  0.00    -0.146 C  
HETATM   23  C   UNL     4     -10.585   5.423  69.693  1.00  0.00    -0.328 C  
ENDBRANCH  21  22
BRANCH  21  24
HETATM   24  C   UNL     4      -9.353   3.392  70.984  1.00  0.00    -0.142 C  
HETATM   25  C   UNL     4      -8.555   2.916  72.218  1.00  0.00    -0.089 C  
ENDBRANCH  21  24
BRANCH  21  26
HETATM   26  C   UNL     4      -8.253   2.601  68.906  1.00  0.00    -0.055 C  
HETATM   27  C   UNL     4      -8.534   2.750  67.401  1.00  0.00    -0.106 C  
ENDBRANCH  21  26
ENDBRANCH  20  21
ENDBRANCH  19  20
ENDBRANCH  18  19
ENDBRANCH  16  18
BRANCH  17  28
HETATM   28  O   UNL     4      -5.416   8.470  67.480  1.00  0.00    -0.037 OA 
BRANCH  28  29
HETATM   29  C   UNL     4      -6.209   9.190  66.585  1.00  0.00    -0.065 C  
BRANCH  29  30
HETATM   30  C   UNL     4      -6.365   8.563  65.182  1.00  0.00    -0.056 C  
BRANCH  30  31
HETATM   31  N   UNL     4      -7.802   8.344  64.730  1.00  0.00    -0.120 N  
BRANCH  31  32
HETATM   32  C   UNL     4      -8.232   6.912  64.914  1.00  0.00    -0.074 C  
HETATM   33  C   UNL     4      -7.205   5.951  65.529  1.00  0.00    -0.074 C  
ENDBRANCH  31  32
BRANCH  31  34
HETATM   34  C   UNL     4      -7.905   8.693  63.271  1.00  0.00    -0.151 C  
HETATM   35  C   UNL     4      -8.626   7.665  62.372  1.00  0.00     0.106 C  
ENDBRANCH  31  34
BRANCH  31  36
HETATM   36  C   UNL     4      -8.750   9.198  65.547  1.00  0.00    -0.181 C  
HETATM   37  C   UNL     4      -9.747  10.081  64.766  1.00  0.00    -0.363 C  
ENDBRANCH  31  36
ENDBRANCH  30  31
ENDBRANCH  29  30
ENDBRANCH  28  29
ENDBRANCH  17  28
ENDBRANCH  11  12
ENDBRANCH  10  11
ENDBRANCH   9  10
ENDBRANCH   6   9
BRANCH   6  38
HETATM   38  C   UNL     4      -7.518  15.158  67.222  1.00  0.00    -0.194 C  
HETATM   39  C   UNL     4      -8.597  14.057  67.173  1.00  0.00    -0.220 C  
ENDBRANCH   6  38
ENDBRANCH   5   6
TORSDOF 21
ENDMDL
MODEL       96
REMARK 921   NORMALIZED FREE ENERGY PREDICTED BY IDOCK:   -0.15 KCAL/MOL
REMARK 922        TOTAL FREE ENERGY PREDICTED BY IDOCK:   -2.65 KCAL/MOL
REMARK 923 INTER-LIGAND FREE ENERGY PREDICTED BY IDOCK:   -3.31 KCAL/MOL
REMARK 924 INTRA-LIGAND FREE ENERGY PREDICTED BY IDOCK:    0.66 KCAL/MOL
REMARK 927      BINDING AFFINITY PREDICTED BY RF-SCORE:    0.00 PKD
ROOT
HETATM    1  I   UNL     1      -5.548  20.938  66.495  1.00  0.00    -0.334 I  
HETATM    2  I   UNL     2     -10.709  20.188  65.942  1.00  0.00     0.596 I  
HETATM    3  I   UNL     3      -6.239  17.912  69.062  1.00  0.00    -0.241 I  
HETATM    4  C   UNL     4      -6.965  14.420  67.654  1.00  0.00    -0.203 C  
HETATM    5  C   UNL     4      -8.269  13.662  67.323  1.00  0.00    -0.152 C  
ENDROOT
BRANCH   5   6
HETATM    6  N   UNL     4      -9.513  14.134  68.024  1.00  0.00    -0.207 N  
BRANCH   6   7
HETATM    7  C   UNL     4     -10.061  15.325  67.275  1.00  0.00    -0.236 C  
HETATM    8  C   UNL     4     -11.263  15.058  66.346  1.00  0.00    -0.310 C  
ENDBRANCH   6   7
BRANCH   6   9
HETATM    9  C   UNL     4     -10.503  13.001  68.062  1.00  0.00    -0.228 C  
BRANCH   9  10
HETATM   10  C   UNL     4     -10.086  11.632  68.680  1.00  0.00    -0.198 C  
BRANCH  10  11
HETATM   11  O   UNL     4      -8.936  11.041  68.186  1.00  0.00    -0.140 OA 
BRANCH  11  12
HETATM   12  C   UNL     4      -8.284   9.919  68.585  1.00  0.00    -0.108 A  
HETATM   13  C   UNL     4      -8.169   9.657  69.958  1.00  0.00    -0.197 A  
HETATM   14  C   UNL     4      -7.489   8.562  70.421  1.00  0.00    -0.069 A  
HETATM   15  C   UNL     4      -6.951   7.662  69.538  1.00  0.00    -0.056 A  
HETATM   16  C   UNL     4      -7.047   7.825  68.126  1.00  0.00    -0.085 A  
HETATM   17  C   UNL     4      -7.715   8.993  67.623  1.00  0.00    -0.097 A  
BRANCH  16  18
HETATM   18  O   UNL     4      -6.527   6.850  67.295  1.00  0.00    -0.045 OA 
BRANCH  18  19
HETATM   19  C   UNL     4      -7.409   6.008  66.607  1.00  0.00    -0.078 C  
BRANCH  19  20
HETATM   20  C   UNL     4      -6.882   5.013  65.542  1.00  0.00    -0.061 C  
BRANCH  20  21
HETATM   21  N   UNL     4      -7.969   4.565  64.562  1.00  0.00    -0.089 N  
BRANCH  21  22
HETATM   22  C   UNL     4      -7.608   4.954  63.149  1.00  0.00    -0.063 C  
HETATM   23  C   UNL     4      -6.417   5.913  62.977  1.00  0.00    -0.028 C  
ENDBRANCH  21  22
BRANCH  21  24
HETATM   24  C   UNL     4      -9.275   5.243  64.903  1.00  0.00     0.087 C  
HETATM   25  C   UNL     4     -10.181   4.552  65.945  1.00  0.00    -0.289 C  
ENDBRANCH  21  24
BRANCH  21  26
HETATM   26  C   UNL     4      -8.116   3.069  64.604  1.00  0.00    -0.086 C  
HETATM   27  C   UNL     4      -7.192   2.320  65.578  1.00  0.00    -0.057 C  
ENDBRANCH  21  26
ENDBRANCH  20  21
ENDBRANCH  19  20
ENDBRANCH  18  19
ENDBRANCH  16  18
BRANCH  17  28
HETATM   28  O   UNL     4      -7.807   9.194  66.257  1.00  0.00    -0.101 OA 
BRANCH  28  29
HETATM   29  C   UNL     4      -8.948   8.923  65.500  1.00  0.00    -0.197 C  
BRANCH  29  30
HETATM   30  C   UNL     4      -9.904  10.118  65.286  1.00  0.00    -0.319 C  
BRANCH  30  31
HETATM   31  N   UNL     4      -9.845  10.751  63.903  1.00  0.00    -0.305 N  
BRANCH  31  32
HETATM   32  C   UNL     4      -9.186  12.105  63.938  1.00  0.00     0.486 C  
HETATM   33  C   UNL     4     -10.014  13.267  64.505  1.00  0.00    -0.117 C  
ENDBRANCH  31  32
BRANCH  31  34
HETATM   34  C   UNL     4     -11.249  10.913  63.390  1.00  0.00     0.664 C  
HETATM   35  C   UNL     4     -12.175  11.834  64.214  1.00  0.00    -0.224 C  
ENDBRANCH  31  34
BRANCH  31  36
HETATM   36  C   UNL     4      -9.032   9.888  62.960  1.00  0.00    -0.259 C  
HETATM   37  C   UNL     4      -7.670  10.449  62.497  1.00  0.00    -0.167 C  
ENDBRANCH  31  36
ENDBRANCH  30  31
ENDBRANCH  29  30
ENDBRANCH  28  29
ENDBRANCH  17  28
ENDBRANCH  11  12
ENDBRANCH  10  11
ENDBRANCH   9  10
ENDBRANCH   6   9
BRANCH   6  38
HETATM   38  C   UNL     4      -9.207  14.574  69.432  1.00  0.00     0.212 C  
HETATM   39  C   UNL     4      -9.786  15.937  69.866  1.00  0.00    -0.011 C  
ENDBRANCH   6  38
ENDBRANCH   5   6
TORSDOF 21
ENDMDL
MODEL       97
REMARK 921   NORMALIZED FREE ENERGY PREDICTED BY IDOCK:   -0.06 KCAL/MOL
REMARK 922        TOTAL FREE ENERGY PREDICTED BY IDOCK:   -2.45 KCAL/MOL
REMARK 923 INTER-LIGAND FREE ENERGY PREDICTED BY IDOCK:   -4.28 KCAL/MOL
REMARK 924 INTRA-LIGAND FREE ENERGY PREDICTED BY IDOCK:    1.83 KCAL/MOL
REMARK 927      BINDING AFFINITY PREDICTED BY RF-SCORE:    0.00 PKD
ROOT
HETATM    1  I   UNL     1     -11.931  15.832  72.994  1.00  0.00    -0.459 I  
HETATM    2  I   UNL     2      -7.775  15.059  69.891  1.00  0.00     0.645 I  
HETATM    3  I   UNL     3     -12.865  12.357  71.186  1.00  0.00     0.135 I  
HETATM    4  C   UNL     4     -10.979   9.176  72.201  1.00  0.00    -0.119 C  
HETATM    5  C   UNL     4      -9.732   8.459  71.639  1.00  0.00    -0.219 C  
ENDROOT
BRANCH   5   6
HETATM    6  N   UNL     4      -9.379   8.756  70.207  1.00  0.00    -0.165 N  
BRANCH   6   7
HETATM    7  C   UNL     4     -10.472   8.206  69.323  1.00  0.00    -0.214 C  
HETATM    8  C   UNL     4     -10.052   7.762  67.908  1.00  0.00    -0.232 C  
ENDBRANCH   6   7
BRANCH   6   9
HETATM    9  C   UNL     4      -9.233  10.244  70.046  1.00  0.00     0.130 C  
BRANCH   9  10
HETATM   10  C   UNL     4     -10.339  11.052  69.301  1.00  0.00    -0.154 C  
BRANCH  10  11
HETATM   11  O   UNL     4      -9.920  12.064  68.455  1.00  0.00    -0.209 OA 
BRANCH  11  12
HETATM   12  C   UNL     4     -10.382  13.331  68.304  1.00  0.00    -0.249 A  
HETATM   13  C   UNL     4     -11.401  13.785  69.154  1.00  0.00    -0.329 A  
HETATM   14  C   UNL     4     -11.935  15.039  69.023  1.00  0.00    -0.298 A  
HETATM   15  C   UNL     4     -11.438  15.903  68.083  1.00  0.00    -0.281 A  
HETATM   16  C   UNL     4     -10.381  15.545  67.197  1.00  0.00    -0.272 A  
HETATM   17  C   UNL     4      -9.841  14.217  67.289  1.00  0.00    -0.244 A  
BRANCH  16  18
HETATM   18  O   UNL     4      -9.892  16.486  66.310  1.00  0.00    -0.280 OA 
BRANCH  18  19
HETATM   19  C   UNL     4      -8.788  17.260  66.686  1.00  0.00    -0.255 C  
BRANCH  19  20
HETATM   20  C   UNL     4      -8.824  18.804  66.550  1.00  0.00    -0.312 C  
BRANCH  20  21
HETATM   21  N   UNL     4      -8.026  19.513  67.648  1.00  0.00    -0.278 N  
BRANCH  21  22
HETATM   22  C   UNL     4      -7.544  20.862  67.172  1.00  0.00    -0.235 C  
HETATM   23  C   UNL     4      -6.752  20.889  65.853  1.00  0.00    -0.134 C  
ENDBRANCH  21  22
BRANCH  21  24
HETATM   24  C   UNL     4      -6.808  18.693  68.004  1.00  0.00    -0.225 C  
HETATM   25  C   UNL     4      -5.922  18.199  66.839  1.00  0.00    -0.172 C  
ENDBRANCH  21  24
BRANCH  21  26
HETATM   26  C   UNL     4      -8.893  19.734  68.856  1.00  0.00    -0.105 C  
HETATM   27  C   UNL     4     -10.410  19.611  68.637  1.00  0.00    -0.404 C  
ENDBRANCH  21  26
ENDBRANCH  20  21
ENDBRANCH  19  20
ENDBRANCH  18  19
ENDBRANCH  16  18
BRANCH  17  28
HETATM   28  O   UNL     4      -8.829  13.828  66.429  1.00  0.00    -0.064 OA 
BRANCH  28  29
HETATM   29  C   UNL     4      -9.040  13.176  65.213  1.00  0.00     0.980 C  
BRANCH  29  30
HETATM   30  C   UNL     4     -10.446  13.355  64.597  1.00  0.00    -0.411 C  
BRANCH  30  31
HETATM   31  N   UNL     4     -11.319  12.109  64.612  1.00  0.00    -0.318 N  
BRANCH  31  32
HETATM   32  C   UNL     4     -11.787  11.740  63.230  1.00  0.00    -0.240 C  
HETATM   33  C   UNL     4     -13.269  11.369  63.072  1.00  0.00     1.269 C  
ENDBRANCH  31  32
BRANCH  31  34
HETATM   34  C   UNL     4     -12.524  12.378  65.471  1.00  0.00    -0.009 C  
HETATM   35  C   UNL     4     -12.950  13.857  65.605  1.00  0.00    -0.361 C  
ENDBRANCH  31  34
BRANCH  31  36
HETATM   36  C   UNL     4     -10.542  10.924  65.147  1.00  0.00    -0.198 C  
HETATM   37  C   UNL     4     -11.081  10.254  66.429  1.00  0.00     0.223 C  
ENDBRANCH  31  36
ENDBRANCH  30  31
ENDBRANCH  29  30
ENDBRANCH  28  29
ENDBRANCH  17  28
ENDBRANCH  11  12
ENDBRANCH  10  11
ENDBRANCH   9  10
ENDBRANCH   6   9
BRANCH   6  38
HETATM   38  C   UNL     4      -8.088   8.085  69.818  1.00  0.00    -0.115 C  
HETATM   39  C   UNL     4      -7.806   6.712  70.463  1.00  0.00    -0.106 C  
ENDBRANCH   6  38
ENDBRANCH   5   6
TORSDOF 21
ENDMDL
MODEL       98
REMARK 921   NORMALIZED FREE ENERGY PREDICTED BY IDOCK:   -0.06 KCAL/MOL
REMARK 922        TOTAL FREE ENERGY PREDICTED BY IDOCK:   -2.45 KCAL/MOL
REMARK 923 INTER-LIGAND FREE ENERGY PREDICTED BY IDOCK:   -1.46 KCAL/MOL
REMARK 924 INTRA-LIGAND FREE ENERGY PREDICTED BY IDOCK:   -0.99 KCAL/MOL
REMARK 927      BINDING AFFINITY PREDICTED BY RF-SCORE:    0.00 PKD
ROOT
HETATM    1  I   UNL     1     -12.757  16.274  72.337  1.00  0.00     0.625 I  
HETATM    2  I   UNL     2     -10.367  19.937  69.446  1.00  0.00     1.032 I  
HETATM    3  I   UNL     3     -10.553  14.045  69.810  1.00  0.00     0.770 I  
HETATM    4  C   UNL     4      -6.752  13.902  70.301  1.00  0.00     0.189 C  
HETATM    5  C   UNL     4      -5.576  14.699  69.697  1.00  0.00    -0.095 C  
ENDROOT
BRANCH   5   6
HETATM    6  N   UNL     4      -5.836  15.381  68.382  1.00  0.00    -0.100 N  
BRANCH   6   7
HETATM    7  C   UNL     4      -5.164  16.733  68.404  1.00  0.00    -0.117 C  
HETATM    8  C   UNL     4      -6.019  17.932  67.944  1.00  0.00    -0.156 C  
ENDBRANCH   6   7
BRANCH   6   9
HETATM    9  C   UNL     4      -5.298  14.515  67.276  1.00  0.00     0.646 C  
BRANCH   9  10
HETATM   10  C   UNL     4      -5.129  12.982  67.509  1.00  0.00    -0.002 C  
BRANCH  10  11
HETATM   11  O   UNL     4      -6.224  12.179  67.240  1.00  0.00    -0.128 OA 
BRANCH  11  12
HETATM   12  C   UNL     4      -6.423  10.858  67.479  1.00  0.00    -0.058 A  
HETATM   13  C   UNL     4      -5.328   9.985  67.405  1.00  0.00    -0.041 A  
HETATM   14  C   UNL     4      -5.476   8.636  67.597  1.00  0.00    -0.035 A  
HETATM   15  C   UNL     4      -6.701   8.118  67.924  1.00  0.00    -0.065 A  
HETATM   16  C   UNL     4      -7.865   8.930  68.056  1.00  0.00    -0.102 A  
HETATM   17  C   UNL     4      -7.738  10.340  67.811  1.00  0.00    -0.090 A  
BRANCH  16  18
HETATM   18  O   UNL     4      -9.058   8.347  68.441  1.00  0.00    -0.136 OA 
BRANCH  18  19
HETATM   19  C   UNL     4      -9.149   6.950  68.470  1.00  0.00    -0.127 C  
BRANCH  19  20
HETATM   20  C   UNL     4      -8.312   6.126  69.481  1.00  0.00    -0.120 C  
BRANCH  20  21
HETATM   21  N   UNL     4      -9.180   5.365  70.486  1.00  0.00    -0.144 N  
BRANCH  21  22
HETATM   22  C   UNL     4      -8.325   4.517  71.397  1.00  0.00    -0.101 C  
HETATM   23  C   UNL     4      -6.819   4.832  71.425  1.00  0.00    -0.039 C  
ENDBRANCH  21  22
BRANCH  21  24
HETATM   24  C   UNL     4     -10.120   4.439  69.751  1.00  0.00    -0.030 C  
HETATM   25  C   UNL     4      -9.585   3.040  69.374  1.00  0.00    -0.076 C  
ENDBRANCH  21  24
BRANCH  21  26
HETATM   26  C   UNL     4      -9.946   6.333  71.345  1.00  0.00    -0.186 C  
HETATM   27  C   UNL     4     -11.358   5.897  71.768  1.00  0.00    -0.289 C  
ENDBRANCH  21  26
ENDBRANCH  20  21
ENDBRANCH  19  20
ENDBRANCH  18  19
ENDBRANCH  16  18
BRANCH  17  28
HETATM   28  O   UNL     4      -8.853  11.154  67.908  1.00  0.00    -0.130 OA 
BRANCH  28  29
HETATM   29  C   UNL     4     -10.050  10.930  67.226  1.00  0.00    -0.191 C  
BRANCH  29  30
HETATM   30  C   UNL     4      -9.919  10.732  65.700  1.00  0.00    -0.260 C  
BRANCH  30  31
HETATM   31  N   UNL     4     -10.613  11.790  64.852  1.00  0.00    -0.282 N  
BRANCH  31  32
HETATM   32  C   UNL     4      -9.909  11.999  63.537  1.00  0.00    -0.289 C  
HETATM   33  C   UNL     4      -8.894  10.928  63.112  1.00  0.00    -0.186 C  
ENDBRANCH  31  32
BRANCH  31  34
HETATM   34  C   UNL     4     -10.612  13.088  65.610  1.00  0.00    -0.282 C  
HETATM   35  C   UNL     4     -10.360  14.364  64.776  1.00  0.00    -0.352 C  
ENDBRANCH  31  34
BRANCH  31  36
HETATM   36  C   UNL     4     -12.031  11.364  64.531  1.00  0.00     0.302 C  
HETATM   37  C   UNL     4     -12.731  12.089  63.361  1.00  0.00    -0.527 C  
ENDBRANCH  31  36
ENDBRANCH  30  31
ENDBRANCH  29  30
ENDBRANCH  28  29
ENDBRANCH  17  28
ENDBRANCH  11  12
ENDBRANCH  10  11
ENDBRANCH   9  10
ENDBRANCH   6   9
BRANCH   6  38
HETATM   38  C   UNL     4      -7.311  15.601  68.168  1.00  0.00    -0.118 C  
HETATM   39  C   UNL     4      -7.953  14.846  66.987  1.00  0.00    -0.170 C  
ENDBRANCH   6  38
ENDBRANCH   5   6
TORSDOF 21
ENDMDL
MODEL       99
REMARK 921   NORMALIZED FREE ENERGY PREDICTED BY IDOCK:    0.01 KCAL/MOL
REMARK 922        TOTAL FREE ENERGY PREDICTED BY IDOCK:   -2.29 KCAL/MOL
REMARK 923 INTER-LIGAND FREE ENERGY PREDICTED BY IDOCK:   -2.78 KCAL/MOL
REMARK 924 INTRA-LIGAND FREE ENERGY PREDICTED BY IDOCK:    0.49 KCAL/MOL
REMARK 927      BINDING AFFINITY PREDICTED BY RF-SCORE:    0.00 PKD
ROOT
HETATM    1  I   UNL     1     -13.815   8.882  71.036  1.00  0.00     0.549 I  
HETATM    2  I   UNL     2      -8.891   8.328  72.752  1.00  0.00    -0.127 I  
HETATM    3  I   UNL     3     -12.122  12.344  69.866  1.00  0.00    -0.046 I  
HETATM    4  C   UNL     4      -9.653  12.298  66.932  1.00  0.00    -0.214 C  
HETATM    5  C   UNL     4      -8.115  12.193  66.844  1.00  0.00    -0.112 C  
ENDROOT
BRANCH   5   6
HETATM    6  N   UNL     4      -7.346  12.588  68.075  1.00  0.00    -0.099 N  
BRANCH   6   7
HETATM    7  C   UNL     4      -8.201  13.527  68.891  1.00  0.00     0.149 C  
HETATM    8  C   UNL     4      -8.787  14.743  68.148  1.00  0.00    -0.170 C  
ENDBRANCH   6   7
BRANCH   6   9
HETATM    9  C   UNL     4      -7.000  11.343  68.846  1.00  0.00    -0.098 C  
BRANCH   9  10
HETATM   10  C   UNL     4      -7.459   9.952  68.312  1.00  0.00    -0.080 C  
BRANCH  10  11
HETATM   11  O   UNL     4      -6.521   9.199  67.627  1.00  0.00    -0.062 OA 
BRANCH  11  12
HETATM   12  C   UNL     4      -6.486   8.812  66.327  1.00  0.00    -0.065 A  
HETATM   13  C   UNL     4      -6.826   9.742  65.335  1.00  0.00    -0.101 A  
HETATM   14  C   UNL     4      -6.847   9.398  64.009  1.00  0.00    -0.096 A  
HETATM   15  C   UNL     4      -6.476   8.137  63.620  1.00  0.00    -0.072 A  
HETATM   16  C   UNL     4      -6.082   7.134  64.552  1.00  0.00    -0.037 A  
HETATM   17  C   UNL     4      -6.101   7.463  65.949  1.00  0.00    -0.038 A  
BRANCH  16  18
HETATM   18  O   UNL     4      -5.669   5.900  64.084  1.00  0.00    -0.020 OA 
BRANCH  18  19
HETATM   19  C   UNL     4      -6.491   4.787  64.297  1.00  0.00    -0.038 C  
BRANCH  19  20
HETATM   20  C   UNL     4      -8.020   4.878  64.057  1.00  0.00    -0.101 C  
BRANCH  20  21
HETATM   21  N   UNL     4      -8.707   3.511  64.100  1.00  0.00    -0.096 N  
BRANCH  21  22
HETATM   22  C   UNL     4      -7.706   2.418  64.389  1.00  0.00    -0.072 C  
HETATM   23  C   UNL     4      -7.361   1.469  63.228  1.00  0.00    -0.040 C  
ENDBRANCH  21  22
BRANCH  21  24
HETATM   24  C   UNL     4      -9.334   3.211  62.758  1.00  0.00    -0.090 C  
HETATM   25  C   UNL     4     -10.596   4.012  62.371  1.00  0.00    -0.188 C  
ENDBRANCH  21  24
BRANCH  21  26
HETATM   26  C   UNL     4      -9.742   3.486  65.190  1.00  0.00    -0.129 C  
HETATM   27  C   UNL     4     -10.442   4.821  65.494  1.00  0.00    -0.168 C  
ENDBRANCH  21  26
ENDBRANCH  20  21
ENDBRANCH  19  20
ENDBRANCH  18  19
ENDBRANCH  16  18
BRANCH  17  28
HETATM   28  O   UNL     4      -5.745   6.506  66.883  1.00  0.00    -0.013 OA 
BRANCH  28  29
HETATM   29  C   UNL     4      -6.646   5.629  67.489  1.00  0.00    -0.053 C  
BRANCH  29  30
HETATM   30  C   UNL     4      -7.417   6.198  68.701  1.00  0.00    -0.087 C  
BRANCH  30  31
HETATM   31  N   UNL     4      -7.885   5.161  69.712  1.00  0.00    -0.071 N  
BRANCH  31  32
HETATM   32  C   UNL     4      -9.210   5.535  70.321  1.00  0.00    -0.149 C  
HETATM   33  C   UNL     4      -9.900   4.475  71.191  1.00  0.00    -0.263 C  
ENDBRANCH  31  32
BRANCH  31  34
HETATM   34  C   UNL     4      -6.860   5.066  70.809  1.00  0.00    -0.040 C  
HETATM   35  C   UNL     4      -5.911   6.275  70.963  1.00  0.00    -0.031 C  
ENDBRANCH  31  34
BRANCH  31  36
HETATM   36  C   UNL     4      -8.070   3.815  69.043  1.00  0.00    -0.057 C  
HETATM   37  C   UNL     4      -6.870   2.844  69.079  1.00  0.00    -0.037 C  
ENDBRANCH  31  36
ENDBRANCH  30  31
ENDBRANCH  29  30
ENDBRANCH  28  29
ENDBRANCH  17  28
ENDBRANCH  11  12
ENDBRANCH  10  11
ENDBRANCH   9  10
ENDBRANCH   6   9
BRANCH   6  38
HETATM   38  C   UNL     4      -6.078  13.316  67.711  1.00  0.00    -0.153 C  
HETATM   39  C   UNL     4      -6.044  14.828  68.011  1.00  0.00    -0.164 C  
ENDBRANCH   6  38
ENDBRANCH   5   6
TORSDOF 21
ENDMDL
MODEL      100
REMARK 921   NORMALIZED FREE ENERGY PREDICTED BY IDOCK:    0.03 KCAL/MOL
REMARK 922        TOTAL FREE ENERGY PREDICTED BY IDOCK:   -2.26 KCAL/MOL
REMARK 923 INTER-LIGAND FREE ENERGY PREDICTED BY IDOCK:   -4.05 KCAL/MOL
REMARK 924 INTRA-LIGAND FREE ENERGY PREDICTED BY IDOCK:    1.79 KCAL/MOL
REMARK 927      BINDING AFFINITY PREDICTED BY RF-SCORE:    0.00 PKD
ROOT
HETATM    1  I   UNL     1      -9.037   2.757  68.999  1.00  0.00    -0.193 I  
HETATM    2  I   UNL     2      -7.288   3.172  64.073  1.00  0.00    -0.069 I  
HETATM    3  I   UNL     3      -7.986   6.639  68.804  1.00  0.00    -0.120 I  
HETATM    4  C   UNL     4     -10.176   9.050  66.779  1.00  0.00    -0.341 C  
HETATM    5  C   UNL     4     -10.119   9.565  65.325  1.00  0.00     0.199 C  
ENDROOT
BRANCH   5   6
HETATM    6  N   UNL     4      -8.782   9.485  64.639  1.00  0.00    -0.193 N  
BRANCH   6   7
HETATM    7  C   UNL     4      -8.629   8.104  64.049  1.00  0.00     0.219 C  
HETATM    8  C   UNL     4      -7.271   7.784  63.395  1.00  0.00    -0.087 C  
ENDBRANCH   6   7
BRANCH   6   9
HETATM    9  C   UNL     4      -8.722  10.550  63.578  1.00  0.00    -0.185 C  
BRANCH   9  10
HETATM   10  C   UNL     4      -9.847  11.626  63.499  1.00  0.00    -0.370 C  
BRANCH  10  11
HETATM   11  O   UNL     4      -9.746  12.709  64.355  1.00  0.00    -0.082 OA 
BRANCH  11  12
HETATM   12  C   UNL     4     -10.706  13.377  65.043  1.00  0.00    -0.343 A  
HETATM   13  C   UNL     4     -12.016  12.878  65.033  1.00  0.00    -0.445 A  
HETATM   14  C   UNL     4     -13.034  13.531  65.677  1.00  0.00    -0.231 A  
HETATM   15  C   UNL     4     -12.775  14.667  66.398  1.00  0.00     0.400 A  
HETATM   16  C   UNL     4     -11.470  15.230  66.495  1.00  0.00    -0.095 A  
HETATM   17  C   UNL     4     -10.399  14.586  65.787  1.00  0.00    -0.331 A  
BRANCH  16  18
HETATM   18  O   UNL     4     -11.272  16.348  67.285  1.00  0.00    -0.097 OA 
BRANCH  18  19
HETATM   19  C   UNL     4     -11.138  16.184  68.668  1.00  0.00    -0.356 C  
BRANCH  19  20
HETATM   20  C   UNL     4     -10.958  14.771  69.281  1.00  0.00    -0.261 C  
BRANCH  20  21
HETATM   21  N   UNL     4     -12.158  14.336  70.126  1.00  0.00    -0.318 N  
BRANCH  21  22
HETATM   22  C   UNL     4     -13.253  15.374  70.075  1.00  0.00     0.302 C  
HETATM   23  C   UNL     4     -14.237  15.400  71.257  1.00  0.00    -0.428 C  
ENDBRANCH  21  22
BRANCH  21  24
HETATM   24  C   UNL     4     -11.738  14.186  71.570  1.00  0.00     0.290 C  
HETATM   25  C   UNL     4     -12.790  14.520  72.650  1.00  0.00    -0.498 C  
ENDBRANCH  21  24
BRANCH  21  26
HETATM   26  C   UNL     4     -12.721  13.047  69.597  1.00  0.00     0.508 C  
HETATM   27  C   UNL     4     -11.749  12.147  68.817  1.00  0.00    -0.374 C  
ENDBRANCH  21  26
ENDBRANCH  20  21
ENDBRANCH  19  20
ENDBRANCH  18  19
ENDBRANCH  16  18
BRANCH  17  28
HETATM   28  O   UNL     4      -9.123  15.119  65.842  1.00  0.00    -0.259 OA 
BRANCH  28  29
HETATM   29  C   UNL     4      -8.292  15.049  66.962  1.00  0.00    -0.222 C  
BRANCH  29  30
HETATM   30  C   UNL     4      -7.165  13.995  66.888  1.00  0.00     0.822 C  
BRANCH  30  31
HETATM   31  N   UNL     4      -7.059  13.079  68.099  1.00  0.00    -0.093 N  
BRANCH  31  32
HETATM   32  C   UNL     4      -6.703  13.842  69.347  1.00  0.00    -0.095 C  
HETATM   33  C   UNL     4      -6.261  15.302  69.167  1.00  0.00    -0.108 C  
ENDBRANCH  31  32
BRANCH  31  34
HETATM   34  C   UNL     4      -5.986  12.059  67.836  1.00  0.00    -0.062 C  
HETATM   35  C   UNL     4      -5.566  11.185  69.038  1.00  0.00    -0.040 C  
ENDBRANCH  31  34
BRANCH  31  36
HETATM   36  C   UNL     4      -8.385  12.396  68.362  1.00  0.00    -0.137 C  
HETATM   37  C   UNL     4      -8.335  10.917  68.806  1.00  0.00    -0.151 C  
ENDBRANCH  31  36
ENDBRANCH  30  31
ENDBRANCH  29  30
ENDBRANCH  28  29
ENDBRANCH  17  28
ENDBRANCH  11  12
ENDBRANCH  10  11
ENDBRANCH   9  10
ENDBRANCH   6   9
BRANCH   6  38
HETATM   38  C   UNL     4      -7.658   9.697  65.620  1.00  0.00    -0.107 C  
HETATM   39  C   UNL     4      -6.238   9.789  65.025  1.00  0.00    -0.094 C  
ENDBRANCH   6  38
ENDBRANCH   5   6
TORSDOF 21
ENDMDL
MODEL      101
REMARK 921   NORMALIZED FREE ENERGY PREDICTED BY IDOCK:    0.21 KCAL/MOL
REMARK 922        TOTAL FREE ENERGY PREDICTED BY IDOCK:   -1.86 KCAL/MOL
REMARK 923 INTER-LIGAND FREE ENERGY PREDICTED BY IDOCK:   -3.13 KCAL/MOL
REMARK 924 INTRA-LIGAND FREE ENERGY PREDICTED BY IDOCK:    1.28 KCAL/MOL
REMARK 927      BINDING AFFINITY PREDICTED BY RF-SCORE:    0.00 PKD
ROOT
HETATM    1  I   UNL     1     -12.856  11.336  70.286  1.00  0.00     0.365 I  
HETATM    2  I   UNL     2     -12.512  14.023  65.796  1.00  0.00    -0.294 I  
HETATM    3  I   UNL     3      -8.894  11.269  69.568  1.00  0.00     1.383 I  
HETATM    4  C   UNL     4      -6.869  14.488  70.058  1.00  0.00    -0.070 C  
HETATM    5  C   UNL     4      -6.432  15.620  69.104  1.00  0.00    -0.131 C  
ENDROOT
BRANCH   5   6
HETATM    6  N   UNL     4      -6.393  15.281  67.638  1.00  0.00    -0.157 N  
BRANCH   6   7
HETATM    7  C   UNL     4      -5.303  16.098  66.988  1.00  0.00     0.179 C  
HETATM    8  C   UNL     4      -5.714  17.477  66.436  1.00  0.00    -0.243 C  
ENDBRANCH   6   7
BRANCH   6   9
HETATM    9  C   UNL     4      -6.140  13.805  67.493  1.00  0.00     0.015 C  
BRANCH   9  10
HETATM   10  C   UNL     4      -5.709  12.970  68.737  1.00  0.00    -0.072 C  
BRANCH  10  11
HETATM   11  O   UNL     4      -5.501  11.615  68.546  1.00  0.00    -0.043 OA 
BRANCH  11  12
HETATM   12  C   UNL     4      -5.535  10.588  69.432  1.00  0.00    -0.037 A  
HETATM   13  C   UNL     4      -5.151  10.827  70.759  1.00  0.00    -0.084 A  
HETATM   14  C   UNL     4      -5.127   9.820  71.689  1.00  0.00    -0.074 A  
HETATM   15  C   UNL     4      -5.538   8.559  71.346  1.00  0.00    -0.036 A  
HETATM   16  C   UNL     4      -5.978   8.228  70.032  1.00  0.00    -0.025 A  
HETATM   17  C   UNL     4      -5.964   9.259  69.033  1.00  0.00    -0.042 A  
BRANCH  16  18
HETATM   18  O   UNL     4      -6.430   6.947  69.772  1.00  0.00    -0.041 OA 
BRANCH  18  19
HETATM   19  C   UNL     4      -7.636   6.526  70.344  1.00  0.00    -0.096 C  
BRANCH  19  20
HETATM   20  C   UNL     4      -8.512   7.515  71.155  1.00  0.00    -0.117 C  
BRANCH  20  21
HETATM   21  N   UNL     4      -9.919   6.976  71.424  1.00  0.00    -0.185 N  
BRANCH  21  22
HETATM   22  C   UNL     4     -10.270   5.885  70.440  1.00  0.00    -0.213 C  
HETATM   23  C   UNL     4     -10.974   6.323  69.144  1.00  0.00    -0.442 C  
ENDBRANCH  21  22
BRANCH  21  24
HETATM   24  C   UNL     4     -10.932   8.084  71.257  1.00  0.00    -0.236 C  
HETATM   25  C   UNL     4     -11.704   8.533  72.516  1.00  0.00    -0.390 C  
ENDBRANCH  21  24
BRANCH  21  26
HETATM   26  C   UNL     4      -9.992   6.389  72.806  1.00  0.00    -0.172 C  
HETATM   27  C   UNL     4     -10.688   5.023  72.930  1.00  0.00    -0.299 C  
ENDBRANCH  21  26
ENDBRANCH  20  21
ENDBRANCH  19  20
ENDBRANCH  18  19
ENDBRANCH  16  18
BRANCH  17  28
HETATM   28  O   UNL     4      -6.364   8.967  67.741  1.00  0.00    -0.055 OA 
BRANCH  28  29
HETATM   29  C   UNL     4      -6.809   9.920  66.823  1.00  0.00    -0.084 C  
BRANCH  29  30
HETATM   30  C   UNL     4      -7.253   9.366  65.451  1.00  0.00    -0.092 C  
BRANCH  30  31
HETATM   31  N   UNL     4      -8.619   8.693  65.439  1.00  0.00    -0.174 N  
BRANCH  31  32
HETATM   32  C   UNL     4      -9.185   8.557  66.828  1.00  0.00    -0.172 C  
HETATM   33  C   UNL     4     -10.616   9.069  67.049  1.00  0.00    -0.270 C  
ENDBRANCH  31  32
BRANCH  31  34
HETATM   34  C   UNL     4      -8.472   7.321  64.843  1.00  0.00     0.068 C  
HETATM   35  C   UNL     4      -8.903   6.138  65.739  1.00  0.00    -0.133 C  
ENDBRANCH  31  34
BRANCH  31  36
HETATM   36  C   UNL     4      -9.607   9.516  64.638  1.00  0.00     0.044 C  
HETATM   37  C   UNL     4      -9.501  11.052  64.761  1.00  0.00    -0.267 C  
ENDBRANCH  31  36
ENDBRANCH  30  31
ENDBRANCH  29  30
ENDBRANCH  28  29
ENDBRANCH  17  28
ENDBRANCH  11  12
ENDBRANCH  10  11
ENDBRANCH   9  10
ENDBRANCH   6   9
BRANCH   6  38
HETATM   38  C   UNL     4      -7.696  15.631  66.967  1.00  0.00    -0.222 C  
HETATM   39  C   UNL     4      -8.894  14.708  67.272  1.00  0.00    -0.220 C  
ENDBRANCH   6  38
ENDBRANCH   5   6
TORSDOF 21
ENDMDL
MODEL      102
REMARK 921   NORMALIZED FREE ENERGY PREDICTED BY IDOCK:    0.23 KCAL/MOL
REMARK 922        TOTAL FREE ENERGY PREDICTED BY IDOCK:   -1.80 KCAL/MOL
REMARK 923 INTER-LIGAND FREE ENERGY PREDICTED BY IDOCK:   -3.09 KCAL/MOL
REMARK 924 INTRA-LIGAND FREE ENERGY PREDICTED BY IDOCK:    1.29 KCAL/MOL
REMARK 927      BINDING AFFINITY PREDICTED BY RF-SCORE:    0.00 PKD
ROOT
HETATM    1  I   UNL     1      -9.293   7.922  62.331  1.00  0.00     2.853 I  
HETATM    2  I   UNL     2      -5.152  10.277  64.522  1.00  0.00    -0.155 I  
HETATM    3  I   UNL     3      -7.857   5.031  64.739  1.00  0.00    -0.108 I  
HETATM    4  C   UNL     4      -8.332   5.373  68.529  1.00  0.00    -0.097 C  
HETATM    5  C   UNL     4      -7.449   5.944  69.660  1.00  0.00    -0.076 C  
ENDROOT
BRANCH   5   6
HETATM    6  N   UNL     4      -5.972   6.019  69.381  1.00  0.00    -0.026 N  
BRANCH   6   7
HETATM    7  C   UNL     4      -5.590   4.848  68.508  1.00  0.00    -0.016 C  
HETATM    8  C   UNL     4      -6.085   3.461  68.966  1.00  0.00    -0.028 C  
ENDBRANCH   6   7
BRANCH   6   9
HETATM    9  C   UNL     4      -5.677   7.331  68.705  1.00  0.00    -0.022 C  
BRANCH   9  10
HETATM   10  C   UNL     4      -6.760   8.453  68.692  1.00  0.00    -0.059 C  
BRANCH  10  11
HETATM   11  O   UNL     4      -6.524   9.547  67.877  1.00  0.00    -0.060 OA 
BRANCH  11  12
HETATM   12  C   UNL     4      -6.907  10.842  68.014  1.00  0.00    -0.068 A  
HETATM   13  C   UNL     4      -5.944  11.850  67.865  1.00  0.00    -0.054 A  
HETATM   14  C   UNL     4      -6.263  13.172  68.030  1.00  0.00    -0.117 A  
HETATM   15  C   UNL     4      -7.556  13.540  68.292  1.00  0.00    -0.135 A  
HETATM   16  C   UNL     4      -8.610  12.590  68.427  1.00  0.00    -0.123 A  
HETATM   17  C   UNL     4      -8.284  11.197  68.304  1.00  0.00    -0.134 A  
BRANCH  16  18
HETATM   18  O   UNL     4      -9.901  13.036  68.638  1.00  0.00    -0.177 OA 
BRANCH  18  19
HETATM   19  C   UNL     4     -10.885  12.729  67.691  1.00  0.00    -0.228 C  
BRANCH  19  20
HETATM   20  C   UNL     4     -10.493  12.329  66.246  1.00  0.00    -0.238 C  
BRANCH  20  21
HETATM   21  N   UNL     4     -10.858  13.400  65.216  1.00  0.00    -0.299 N  
BRANCH  21  22
HETATM   22  C   UNL     4     -10.018  14.639  65.412  1.00  0.00    -0.330 C  
HETATM   23  C   UNL     4     -10.723  15.865  66.020  1.00  0.00    -0.289 C  
ENDBRANCH  21  22
BRANCH  21  24
HETATM   24  C   UNL     4     -12.305  13.799  65.385  1.00  0.00    -0.475 C  
HETATM   25  C   UNL     4     -13.377  12.781  64.938  1.00  0.00     0.664 C  
ENDBRANCH  21  24
BRANCH  21  26
HETATM   26  C   UNL     4     -10.604  12.888  63.826  1.00  0.00    -0.251 C  
HETATM   27  C   UNL     4     -11.046  11.443  63.540  1.00  0.00    -0.373 C  
ENDBRANCH  21  26
ENDBRANCH  20  21
ENDBRANCH  19  20
ENDBRANCH  18  19
ENDBRANCH  16  18
BRANCH  17  28
HETATM   28  O   UNL     4      -9.279  10.246  68.451  1.00  0.00    -0.129 OA 
BRANCH  28  29
HETATM   29  C   UNL     4      -9.232   9.198  69.372  1.00  0.00    -0.156 C  
BRANCH  29  30
HETATM   30  C   UNL     4     -10.540   8.392  69.531  1.00  0.00    -0.213 C  
BRANCH  30  31
HETATM   31  N   UNL     4     -10.958   8.120  70.970  1.00  0.00    -0.239 N  
BRANCH  31  32
HETATM   32  C   UNL     4     -11.903   6.952  71.064  1.00  0.00    -0.364 C  
HETATM   33  C   UNL     4     -13.367   7.266  71.407  1.00  0.00    -0.399 C  
ENDBRANCH  31  32
BRANCH  31  34
HETATM   34  C   UNL     4     -11.650   9.343  71.507  1.00  0.00    -0.397 C  
HETATM   35  C   UNL     4     -11.465  10.644  70.695  1.00  0.00    -0.374 C  
ENDBRANCH  31  34
BRANCH  31  36
HETATM   36  C   UNL     4      -9.750   7.780  71.817  1.00  0.00    -0.164 C  
HETATM   37  C   UNL     4      -9.980   6.837  73.018  1.00  0.00    -0.199 C  
ENDBRANCH  31  36
ENDBRANCH  30  31
ENDBRANCH  29  30
ENDBRANCH  28  29
ENDBRANCH  17  28
ENDBRANCH  11  12
ENDBRANCH  10  11
ENDBRANCH   9  10
ENDBRANCH   6   9
BRANCH   6  38
HETATM   38  C   UNL     4      -5.175   5.926  70.656  1.00  0.00    -0.013 C  
HETATM   39  C   UNL     4      -5.862   5.222  71.844  1.00  0.00    -0.021 C  
ENDBRANCH   6  38
ENDBRANCH   5   6
TORSDOF 21
ENDMDL
MODEL      103
REMARK 921   NORMALIZED FREE ENERGY PREDICTED BY IDOCK:    0.28 KCAL/MOL
REMARK 922        TOTAL FREE ENERGY PREDICTED BY IDOCK:   -1.69 KCAL/MOL
REMARK 923 INTER-LIGAND FREE ENERGY PREDICTED BY IDOCK:   -3.03 KCAL/MOL
REMARK 924 INTRA-LIGAND FREE ENERGY PREDICTED BY IDOCK:    1.34 KCAL/MOL
REMARK 927      BINDING AFFINITY PREDICTED BY RF-SCORE:    0.00 PKD
ROOT
HETATM    1  I   UNL     1      -9.077   2.715  68.992  1.00  0.00    -0.183 I  
HETATM    2  I   UNL     2      -6.434   2.444  64.471  1.00  0.00    -0.024 I  
HETATM    3  I   UNL     3      -7.868   6.524  68.494  1.00  0.00    -0.107 I  
HETATM    4  C   UNL     4      -9.556   8.665  65.797  1.00  0.00    -0.134 C  
HETATM    5  C   UNL     4      -9.213   8.979  64.325  1.00  0.00     0.333 C  
ENDROOT
BRANCH   5   6
HETATM    6  N   UNL     4      -7.776   8.792  63.920  1.00  0.00    -0.125 N  
BRANCH   6   7
HETATM    7  C   UNL     4      -7.728   7.826  62.761  1.00  0.00    -0.131 C  
HETATM    8  C   UNL     4      -7.204   6.409  63.070  1.00  0.00    -0.057 C  
ENDBRANCH   6   7
BRANCH   6   9
HETATM    9  C   UNL     4      -7.205  10.133  63.546  1.00  0.00    -0.120 C  
BRANCH   9  10
HETATM   10  C   UNL     4      -8.079  11.415  63.700  1.00  0.00     0.944 C  
BRANCH  10  11
HETATM   11  O   UNL     4      -8.575  11.692  64.962  1.00  0.00     0.306 OA 
BRANCH  11  12
HETATM   12  C   UNL     4      -9.699  12.353  65.338  1.00  0.00    -0.113 A  
HETATM   13  C   UNL     4     -10.846  12.244  64.538  1.00  0.00    -0.355 A  
HETATM   14  C   UNL     4     -11.998  12.919  64.846  1.00  0.00    -0.437 A  
HETATM   15  C   UNL     4     -12.067  13.677  65.986  1.00  0.00    -0.480 A  
HETATM   16  C   UNL     4     -10.966  13.819  66.878  1.00  0.00    -0.290 A  
HETATM   17  C   UNL     4      -9.735  13.157  66.546  1.00  0.00    -0.268 A  
BRANCH  16  18
HETATM   18  O   UNL     4     -11.124  14.556  68.037  1.00  0.00    -0.259 OA 
BRANCH  18  19
HETATM   19  C   UNL     4     -10.456  14.144  69.196  1.00  0.00    -0.129 C  
BRANCH  19  20
HETATM   20  C   UNL     4     -10.465  12.654  69.624  1.00  0.00     0.774 C  
BRANCH  20  21
HETATM   21  N   UNL     4     -11.861  12.158  70.008  1.00  0.00    -0.330 N  
BRANCH  21  22
HETATM   22  C   UNL     4     -12.742  13.310  70.425  1.00  0.00    -0.033 C  
HETATM   23  C   UNL     4     -13.384  13.221  71.821  1.00  0.00    -0.479 C  
ENDBRANCH  21  22
BRANCH  21  24
HETATM   24  C   UNL     4     -11.762  11.211  71.182  1.00  0.00     0.309 C  
HETATM   25  C   UNL     4     -12.812  10.082  71.271  1.00  0.00    -0.500 C  
ENDBRANCH  21  24
BRANCH  21  26
HETATM   26  C   UNL     4     -12.511  11.484  68.832  1.00  0.00     0.382 C  
HETATM   27  C   UNL     4     -11.642  10.482  68.055  1.00  0.00    -0.107 C  
ENDBRANCH  21  26
ENDBRANCH  20  21
ENDBRANCH  19  20
ENDBRANCH  18  19
ENDBRANCH  16  18
BRANCH  17  28
HETATM   28  O   UNL     4      -8.638  13.293  67.379  1.00  0.00    -0.183 OA 
BRANCH  28  29
HETATM   29  C   UNL     4      -7.538  14.106  67.101  1.00  0.00     0.053 C  
BRANCH  29  30
HETATM   30  C   UNL     4      -7.199  15.159  68.179  1.00  0.00    -0.115 C  
BRANCH  30  31
HETATM   31  N   UNL     4      -7.627  16.582  67.847  1.00  0.00    -0.149 N  
BRANCH  31  32
HETATM   32  C   UNL     4      -8.856  16.988  68.616  1.00  0.00    -0.267 C  
HETATM   33  C   UNL     4      -8.940  18.452  69.072  1.00  0.00    -0.065 C  
ENDBRANCH  31  32
BRANCH  31  34
HETATM   34  C   UNL     4      -7.934  16.659  66.376  1.00  0.00    -0.325 C  
HETATM   35  C   UNL     4      -8.590  17.968  65.884  1.00  0.00     0.136 C  
ENDBRANCH  31  34
BRANCH  31  36
HETATM   36  C   UNL     4      -6.533  17.563  68.212  1.00  0.00    -0.182 C  
HETATM   37  C   UNL     4      -6.440  18.854  67.369  1.00  0.00    -0.195 C  
ENDBRANCH  31  36
ENDBRANCH  30  31
ENDBRANCH  29  30
ENDBRANCH  28  29
ENDBRANCH  17  28
ENDBRANCH  11  12
ENDBRANCH  10  11
ENDBRANCH   9  10
ENDBRANCH   6   9
BRANCH   6  38
HETATM   38  C   UNL     4      -6.968   8.204  65.047  1.00  0.00    -0.070 C  
HETATM   39  C   UNL     4      -5.807   9.068  65.582  1.00  0.00    -0.050 C  
ENDBRANCH   6  38
ENDBRANCH   5   6
TORSDOF 21
ENDMDL
MODEL      104
REMARK 921   NORMALIZED FREE ENERGY PREDICTED BY IDOCK:    0.31 KCAL/MOL
REMARK 922        TOTAL FREE ENERGY PREDICTED BY IDOCK:   -1.63 KCAL/MOL
REMARK 923 INTER-LIGAND FREE ENERGY PREDICTED BY IDOCK:   -1.39 KCAL/MOL
REMARK 924 INTRA-LIGAND FREE ENERGY PREDICTED BY IDOCK:   -0.23 KCAL/MOL
REMARK 927      BINDING AFFINITY PREDICTED BY RF-SCORE:    0.00 PKD
ROOT
HETATM    1  I   UNL     1     -10.001   2.044  72.565  1.00  0.00    -0.229 I  
HETATM    2  I   UNL     2      -9.072   3.102  67.514  1.00  0.00    -0.206 I  
HETATM    3  I   UNL     3      -7.049   4.773  72.806  1.00  0.00    -0.083 I  
HETATM    4  C   UNL     4      -7.848   8.439  72.012  1.00  0.00    -0.171 C  
HETATM    5  C   UNL     4      -7.739   9.293  70.730  1.00  0.00    -0.139 C  
ENDROOT
BRANCH   5   6
HETATM    6  N   UNL     4      -6.782   8.801  69.679  1.00  0.00    -0.039 N  
BRANCH   6   7
HETATM    7  C   UNL     4      -6.929   7.303  69.563  1.00  0.00    -0.057 C  
HETATM    8  C   UNL     4      -6.644   6.691  68.177  1.00  0.00    -0.059 C  
ENDBRANCH   6   7
BRANCH   6   9
HETATM    9  C   UNL     4      -7.100   9.490  68.379  1.00  0.00    -0.071 C  
BRANCH   9  10
HETATM   10  C   UNL     4      -6.753  11.000  68.201  1.00  0.00    -0.062 C  
BRANCH  10  11
HETATM   11  O   UNL     4      -7.169  11.865  69.197  1.00  0.00    -0.096 OA 
BRANCH  11  12
HETATM   12  C   UNL     4      -7.323  13.213  69.181  1.00  0.00     0.131 A  
HETATM   13  C   UNL     4      -6.326  14.015  69.755  1.00  0.00    -0.134 A  
HETATM   14  C   UNL     4      -6.446  15.379  69.804  1.00  0.00    -0.171 A  
HETATM   15  C   UNL     4      -7.529  15.995  69.234  1.00  0.00    -0.228 A  
HETATM   16  C   UNL     4      -8.576  15.267  68.597  1.00  0.00    -0.173 A  
HETATM   17  C   UNL     4      -8.490  13.834  68.579  1.00  0.00    -0.117 A  
BRANCH  16  18
HETATM   18  O   UNL     4      -9.612  15.958  67.996  1.00  0.00    -0.209 OA 
BRANCH  18  19
HETATM   19  C   UNL     4      -9.318  17.112  67.260  1.00  0.00    -0.242 C  
BRANCH  19  20
HETATM   20  C   UNL     4      -7.932  17.287  66.588  1.00  0.00    -0.261 C  
BRANCH  20  21
HETATM   21  N   UNL     4      -7.553  18.757  66.390  1.00  0.00    -0.249 N  
BRANCH  21  22
HETATM   22  C   UNL     4      -6.073  18.896  66.126  1.00  0.00    -0.178 C  
HETATM   23  C   UNL     4      -5.574  18.462  64.736  1.00  0.00    -0.135 C  
ENDBRANCH  21  22
BRANCH  21  24
HETATM   24  C   UNL     4      -7.868  19.540  67.643  1.00  0.00    -0.279 C  
HETATM   25  C   UNL     4      -6.674  20.107  68.442  1.00  0.00    -0.337 C  
ENDBRANCH  21  24
BRANCH  21  26
HETATM   26  C   UNL     4      -8.286  19.325  65.207  1.00  0.00     1.272 C  
HETATM   27  C   UNL     4      -8.634  20.821  65.274  1.00  0.00     1.275 C  
ENDBRANCH  21  26
ENDBRANCH  20  21
ENDBRANCH  19  20
ENDBRANCH  18  19
ENDBRANCH  16  18
BRANCH  17  28
HETATM   28  O   UNL     4      -9.501  13.095  67.989  1.00  0.00    -0.207 OA 
BRANCH  28  29
HETATM   29  C   UNL     4     -10.840  13.486  67.954  1.00  0.00    -0.247 C  
BRANCH  29  30
HETATM   30  C   UNL     4     -11.757  12.640  67.042  1.00  0.00    -0.369 C  
BRANCH  30  31
HETATM   31  N   UNL     4     -11.348  12.602  65.576  1.00  0.00    -0.309 N  
BRANCH  31  32
HETATM   32  C   UNL     4     -10.651  11.314  65.226  1.00  0.00    -0.261 C  
HETATM   33  C   UNL     4     -10.206  11.138  63.767  1.00  0.00    -0.434 C  
ENDBRANCH  31  32
BRANCH  31  34
HETATM   34  C   UNL     4     -10.408  13.745  65.310  1.00  0.00    -0.361 C  
HETATM   35  C   UNL     4     -11.031  15.006  64.671  1.00  0.00    -0.320 C  
ENDBRANCH  31  34
BRANCH  31  36
HETATM   36  C   UNL     4     -12.568  12.701  64.684  1.00  0.00    -0.440 C  
HETATM   37  C   UNL     4     -13.506  11.474  64.641  1.00  0.00     2.894 C  
ENDBRANCH  31  36
ENDBRANCH  30  31
ENDBRANCH  29  30
ENDBRANCH  28  29
ENDBRANCH  17  28
ENDBRANCH  11  12
ENDBRANCH  10  11
ENDBRANCH   9  10
ENDBRANCH   6   9
BRANCH   6  38
HETATM   38  C   UNL     4      -5.356   9.099  70.063  1.00  0.00    -0.028 C  
HETATM   39  C   UNL     4      -5.153  10.018  71.285  1.00  0.00    -0.067 C  
ENDBRANCH   6  38
ENDBRANCH   5   6
TORSDOF 21
ENDMDL
MODEL      105
REMARK 921   NORMALIZED FREE ENERGY PREDICTED BY IDOCK:    0.37 KCAL/MOL
REMARK 922        TOTAL FREE ENERGY PREDICTED BY IDOCK:   -1.50 KCAL/MOL
REMARK 923 INTER-LIGAND FREE ENERGY PREDICTED BY IDOCK:   -3.68 KCAL/MOL
REMARK 924 INTRA-LIGAND FREE ENERGY PREDICTED BY IDOCK:    2.18 KCAL/MOL
REMARK 927      BINDING AFFINITY PREDICTED BY RF-SCORE:    0.00 PKD
ROOT
HETATM    1  I   UNL     1      -5.126  13.619  66.842  1.00  0.00     2.523 I  
HETATM    2  I   UNL     2      -5.375  10.335  62.761  1.00  0.00    -0.161 I  
HETATM    3  I   UNL     3      -8.424  11.470  67.692  1.00  0.00    -0.160 I  
HETATM    4  C   UNL     4      -8.019   7.834  68.842  1.00  0.00    -0.124 C  
HETATM    5  C   UNL     4      -8.038   6.480  68.100  1.00  0.00    -0.113 C  
ENDROOT
BRANCH   5   6
HETATM    6  N   UNL     4      -8.739   6.458  66.769  1.00  0.00    -0.116 N  
BRANCH   6   7
HETATM    7  C   UNL     4      -8.671   5.054  66.217  1.00  0.00    -0.117 C  
HETATM    8  C   UNL     4      -9.033   3.915  67.192  1.00  0.00    -0.152 C  
ENDBRANCH   6   7
BRANCH   6   9
HETATM    9  C   UNL     4     -10.161   6.906  66.967  1.00  0.00    -0.248 C  
BRANCH   9  10
HETATM   10  C   UNL     4     -10.476   8.052  67.977  1.00  0.00    -0.184 C  
BRANCH  10  11
HETATM   11  O   UNL     4     -10.920   9.252  67.450  1.00  0.00    -0.188 OA 
BRANCH  11  12
HETATM   12  C   UNL     4     -11.431  10.347  68.068  1.00  0.00    -0.082 A  
HETATM   13  C   UNL     4     -11.538  11.543  67.345  1.00  0.00    -0.307 A  
HETATM   14  C   UNL     4     -12.008  12.691  67.928  1.00  0.00    -0.307 A  
HETATM   15  C   UNL     4     -12.440  12.674  69.228  1.00  0.00     0.294 A  
HETATM   16  C   UNL     4     -12.404  11.499  70.032  1.00  0.00    -0.213 A  
HETATM   17  C   UNL     4     -11.869  10.298  69.452  1.00  0.00    -0.038 A  
BRANCH  16  18
HETATM   18  O   UNL     4     -12.907  11.542  71.319  1.00  0.00    -0.404 OA 
BRANCH  18  19
HETATM   19  C   UNL     4     -13.219  12.786  71.881  1.00  0.00    -0.412 C  
BRANCH  19  20
HETATM   20  C   UNL     4     -12.104  13.819  72.180  1.00  0.00     0.553 C  
BRANCH  20  21
HETATM   21  N   UNL     4     -12.658  15.195  72.559  1.00  0.00    -0.331 N  
BRANCH  21  22
HETATM   22  C   UNL     4     -14.095  15.332  72.116  1.00  0.00    -0.560 C  
HETATM   23  C   UNL     4     -14.360  15.289  70.601  1.00  0.00     0.442 C  
ENDBRANCH  21  22
BRANCH  21  24
HETATM   24  C   UNL     4     -11.862  16.275  71.865  1.00  0.00    -0.462 C  
HETATM   25  C   UNL     4     -10.890  15.832  70.749  1.00  0.00    -0.229 C  
ENDBRANCH  21  24
BRANCH  21  26
HETATM   26  C   UNL     4     -12.617  15.376  74.050  1.00  0.00    -0.598 C  
HETATM   27  C   UNL     4     -12.228  16.775  74.556  1.00  0.00    -0.262 C  
ENDBRANCH  21  26
ENDBRANCH  20  21
ENDBRANCH  19  20
ENDBRANCH  18  19
ENDBRANCH  16  18
BRANCH  17  28
HETATM   28  O   UNL     4     -11.797   9.144  70.212  1.00  0.00    -0.113 OA 
BRANCH  28  29
HETATM   29  C   UNL     4     -10.839   8.914  71.201  1.00  0.00    -0.281 C  
BRANCH  29  30
HETATM   30  C   UNL     4     -11.347   8.178  72.461  1.00  0.00    -0.401 C  
BRANCH  30  31
HETATM   31  N   UNL     4     -10.654   6.856  72.758  1.00  0.00    -0.224 N  
BRANCH  31  32
HETATM   32  C   UNL     4     -11.620   5.826  73.280  1.00  0.00     0.190 C  
HETATM   33  C   UNL     4     -11.045   4.445  73.626  1.00  0.00    -0.361 C  
ENDBRANCH  31  32
BRANCH  31  34
HETATM   34  C   UNL     4      -9.595   7.093  73.800  1.00  0.00    -0.267 C  
HETATM   35  C   UNL     4      -8.946   8.495  73.805  1.00  0.00     0.240 C  
ENDBRANCH  31  34
BRANCH  31  36
HETATM   36  C   UNL     4     -10.038   6.286  71.497  1.00  0.00    -0.190 C  
HETATM   37  C   UNL     4      -8.655   5.614  71.636  1.00  0.00    -0.132 C  
ENDBRANCH  31  36
ENDBRANCH  30  31
ENDBRANCH  29  30
ENDBRANCH  28  29
ENDBRANCH  17  28
ENDBRANCH  11  12
ENDBRANCH  10  11
ENDBRANCH   9  10
ENDBRANCH   6   9
BRANCH   6  38
HETATM   38  C   UNL     4      -8.061   7.375  65.784  1.00  0.00    -0.129 C  
HETATM   39  C   UNL     4      -6.954   6.748  64.913  1.00  0.00    -0.055 C  
ENDBRANCH   6  38
ENDBRANCH   5   6
TORSDOF 21
ENDMDL
MODEL      106
REMARK 921   NORMALIZED FREE ENERGY PREDICTED BY IDOCK:    0.52 KCAL/MOL
REMARK 922        TOTAL FREE ENERGY PREDICTED BY IDOCK:   -1.17 KCAL/MOL
REMARK 923 INTER-LIGAND FREE ENERGY PREDICTED BY IDOCK:   -0.45 KCAL/MOL
REMARK 924 INTRA-LIGAND FREE ENERGY PREDICTED BY IDOCK:   -0.72 KCAL/MOL
REMARK 927      BINDING AFFINITY PREDICTED BY RF-SCORE:    0.00 PKD
ROOT
HETATM    1  I   UNL     1     -12.017  18.897  67.322  1.00  0.00     4.553 I  
HETATM    2  I   UNL     2     -12.721  15.044  70.809  1.00  0.00    -0.457 I  
HETATM    3  I   UNL     3      -9.400  16.115  66.043  1.00  0.00    -0.144 I  
HETATM    4  C   UNL     4     -10.744  12.957  64.332  1.00  0.00    -0.407 C  
HETATM    5  C   UNL     4     -11.099  11.545  64.844  1.00  0.00    -0.215 C  
ENDROOT
BRANCH   5   6
HETATM    6  N   UNL     4     -10.452  11.119  66.134  1.00  0.00    -0.250 N  
BRANCH   6   7
HETATM    7  C   UNL     4      -9.945   9.707  65.970  1.00  0.00    -0.274 C  
HETATM    8  C   UNL     4     -10.704   8.611  66.745  1.00  0.00    -0.086 C  
ENDBRANCH   6   7
BRANCH   6   9
HETATM    9  C   UNL     4      -9.333  12.075  66.448  1.00  0.00    -0.228 C  
BRANCH   9  10
HETATM   10  C   UNL     4      -8.198  11.640  67.426  1.00  0.00    -0.153 C  
BRANCH  10  11
HETATM   11  O   UNL     4      -8.548  11.442  68.750  1.00  0.00    -0.153 OA 
BRANCH  11  12
HETATM   12  C   UNL     4      -8.452  10.334  69.527  1.00  0.00    -0.142 A  
HETATM   13  C   UNL     4      -9.629   9.722  69.980  1.00  0.00    -0.282 A  
HETATM   14  C   UNL     4      -9.595   8.624  70.799  1.00  0.00    -0.231 A  
HETATM   15  C   UNL     4      -8.394   8.065  71.149  1.00  0.00    -0.122 A  
HETATM   16  C   UNL     4      -7.146   8.595  70.709  1.00  0.00    -0.061 A  
HETATM   17  C   UNL     4      -7.162   9.774  69.889  1.00  0.00    -0.116 A  
BRANCH  16  18
HETATM   18  O   UNL     4      -5.975   7.947  71.057  1.00  0.00    -0.034 OA 
BRANCH  18  19
HETATM   19  C   UNL     4      -6.014   6.572  71.314  1.00  0.00    -0.036 C  
BRANCH  19  20
HETATM   20  C   UNL     4      -6.105   5.553  70.150  1.00  0.00    -0.025 C  
BRANCH  20  21
HETATM   21  N   UNL     4      -7.376   4.702  70.206  1.00  0.00    -0.049 N  
BRANCH  21  22
HETATM   22  C   UNL     4      -8.272   5.002  69.029  1.00  0.00    -0.087 C  
HETATM   23  C   UNL     4      -8.051   4.163  67.758  1.00  0.00    -0.094 C  
ENDBRANCH  21  22
BRANCH  21  24
HETATM   24  C   UNL     4      -8.151   5.023  71.462  1.00  0.00    -0.113 C  
HETATM   25  C   UNL     4      -9.484   4.275  71.682  1.00  0.00    -0.211 C  
ENDBRANCH  21  24
BRANCH  21  26
HETATM   26  C   UNL     4      -7.023   3.242  70.154  1.00  0.00    -0.034 C  
HETATM   27  C   UNL     4      -5.948   2.765  71.145  1.00  0.00    -0.014 C  
ENDBRANCH  21  26
ENDBRANCH  20  21
ENDBRANCH  19  20
ENDBRANCH  18  19
ENDBRANCH  16  18
BRANCH  17  28
HETATM   28  O   UNL     4      -5.968  10.328  69.463  1.00  0.00    -0.040 OA 
BRANCH  28  29
HETATM   29  C   UNL     4      -5.383  11.462  70.030  1.00  0.00    -0.075 C  
BRANCH  29  30
HETATM   30  C   UNL     4      -5.498  12.757  69.196  1.00  0.00    -0.070 C  
BRANCH  30  31
HETATM   31  N   UNL     4      -5.782  14.018  70.000  1.00  0.00    -0.115 N  
BRANCH  31  32
HETATM   32  C   UNL     4      -5.228  13.925  71.397  1.00  0.00    -0.171 C  
HETATM   33  C   UNL     4      -5.274  15.200  72.251  1.00  0.00     0.013 C  
ENDBRANCH  31  32
BRANCH  31  34
HETATM   34  C   UNL     4      -7.272  14.207  70.085  1.00  0.00     0.437 C  
HETATM   35  C   UNL     4      -7.841  15.461  69.386  1.00  0.00    -0.232 C  
ENDBRANCH  31  34
BRANCH  31  36
HETATM   36  C   UNL     4      -5.132  15.220  69.346  1.00  0.00    -0.092 C  
HETATM   37  C   UNL     4      -5.705  15.671  67.985  1.00  0.00    -0.140 C  
ENDBRANCH  31  36
ENDBRANCH  30  31
ENDBRANCH  29  30
ENDBRANCH  28  29
ENDBRANCH  17  28
ENDBRANCH  11  12
ENDBRANCH  10  11
ENDBRANCH   9  10
ENDBRANCH   6   9
BRANCH   6  38
HETATM   38  C   UNL     4     -11.445  11.126  67.267  1.00  0.00    -0.136 C  
HETATM   39  C   UNL     4     -11.425  12.362  68.189  1.00  0.00    -0.370 C  
ENDBRANCH   6  38
ENDBRANCH   5   6
TORSDOF 21
ENDMDL
MODEL      107
REMARK 921   NORMALIZED FREE ENERGY PREDICTED BY IDOCK:    0.60 KCAL/MOL
REMARK 922        TOTAL FREE ENERGY PREDICTED BY IDOCK:   -0.97 KCAL/MOL
REMARK 923 INTER-LIGAND FREE ENERGY PREDICTED BY IDOCK:   -1.01 KCAL/MOL
REMARK 924 INTRA-LIGAND FREE ENERGY PREDICTED BY IDOCK:    0.03 KCAL/MOL
REMARK 927      BINDING AFFINITY PREDICTED BY RF-SCORE:    0.00 PKD
ROOT
HETATM    1  I   UNL     1     -10.047  11.822  62.959  1.00  0.00     0.460 I  
HETATM    2  I   UNL     2     -10.245  16.089  66.001  1.00  0.00    -0.395 I  
HETATM    3  I   UNL     3      -9.659  10.247  66.645  1.00  0.00    -0.254 I  
HETATM    4  C   UNL     4     -12.726  10.139  68.945  1.00  0.00     2.104 C  
HETATM    5  C   UNL     4     -13.262  11.086  70.041  1.00  0.00     0.534 C  
ENDROOT
BRANCH   5   6
HETATM    6  N   UNL     4     -12.260  12.017  70.667  1.00  0.00    -0.371 N  
BRANCH   6   7
HETATM    7  C   UNL     4     -12.797  12.467  72.005  1.00  0.00    -0.158 C  
HETATM    8  C   UNL     4     -13.816  13.624  71.981  1.00  0.00    -0.565 C  
ENDBRANCH   6   7
BRANCH   6   9
HETATM    9  C   UNL     4     -10.952  11.288  70.813  1.00  0.00     1.351 C  
BRANCH   9  10
HETATM   10  C   UNL     4     -10.935   9.729  70.836  1.00  0.00    -0.341 C  
BRANCH  10  11
HETATM   11  O   UNL     4     -10.648   9.120  72.045  1.00  0.00    -0.333 OA 
BRANCH  11  12
HETATM   12  C   UNL     4     -10.770   7.822  72.425  1.00  0.00    -0.290 A  
HETATM   13  C   UNL     4     -11.874   7.087  71.973  1.00  0.00    -0.336 A  
HETATM   14  C   UNL     4     -12.071   5.786  72.355  1.00  0.00    -0.088 A  
HETATM   15  C   UNL     4     -11.150   5.156  73.150  1.00  0.00    -0.391 A  
HETATM   16  C   UNL     4      -9.979   5.810  73.630  1.00  0.00    -0.188 A  
HETATM   17  C   UNL     4      -9.781   7.188  73.279  1.00  0.00    -0.210 A  
BRANCH  16  18
HETATM   18  O   UNL     4      -9.066   5.096  74.384  1.00  0.00    -0.114 OA 
BRANCH  18  19
HETATM   19  C   UNL     4      -8.481   3.951  73.831  1.00  0.00    -0.091 C  
BRANCH  19  20
HETATM   20  C   UNL     4      -9.255   3.090  72.801  1.00  0.00    -0.088 C  
BRANCH  20  21
HETATM   21  N   UNL     4      -8.351   2.533  71.698  1.00  0.00    -0.059 N  
BRANCH  21  22
HETATM   22  C   UNL     4      -9.090   1.516  70.863  1.00  0.00    -0.076 C  
HETATM   23  C   UNL     4      -8.977   1.660  69.335  1.00  0.00    -0.140 C  
ENDBRANCH  21  22
BRANCH  21  24
HETATM   24  C   UNL     4      -7.161   1.837  72.315  1.00  0.00    -0.026 C  
HETATM   25  C   UNL     4      -5.830   2.619  72.364  1.00  0.00    -0.009 C  
ENDBRANCH  21  24
BRANCH  21  26
HETATM   26  C   UNL     4      -7.907   3.642  70.785  1.00  0.00    -0.050 C  
HETATM   27  C   UNL     4      -8.961   4.709  70.447  1.00  0.00    -0.147 C  
ENDBRANCH  21  26
ENDBRANCH  20  21
ENDBRANCH  19  20
ENDBRANCH  18  19
ENDBRANCH  16  18
BRANCH  17  28
HETATM   28  O   UNL     4      -8.665   7.861  73.746  1.00  0.00    -0.232 OA 
BRANCH  28  29
HETATM   29  C   UNL     4      -7.502   8.062  73.001  1.00  0.00    -0.127 C  
BRANCH  29  30
HETATM   30  C   UNL     4      -7.448   7.331  71.642  1.00  0.00    -0.085 C  
BRANCH  30  31
HETATM   31  N   UNL     4      -6.872   8.148  70.494  1.00  0.00    -0.037 N  
BRANCH  31  32
HETATM   32  C   UNL     4      -7.656   7.953  69.223  1.00  0.00    -0.097 C  
HETATM   33  C   UNL     4      -6.965   8.351  67.911  1.00  0.00    -0.078 C  
ENDBRANCH  31  32
BRANCH  31  34
HETATM   34  C   UNL     4      -5.454   7.708  70.256  1.00  0.00    -0.023 C  
HETATM   35  C   UNL     4      -5.252   6.216  69.911  1.00  0.00    -0.012 C  
ENDBRANCH  31  34
BRANCH  31  36
HETATM   36  C   UNL     4      -6.920   9.627  70.820  1.00  0.00    -0.079 C  
HETATM   37  C   UNL     4      -5.642  10.447  70.539  1.00  0.00    -0.083 C  
ENDBRANCH  31  36
ENDBRANCH  30  31
ENDBRANCH  29  30
ENDBRANCH  28  29
ENDBRANCH  17  28
ENDBRANCH  11  12
ENDBRANCH  10  11
ENDBRANCH   9  10
ENDBRANCH   6   9
BRANCH   6  38
HETATM   38  C   UNL     4     -12.054  13.243  69.816  1.00  0.00    -0.290 C  
HETATM   39  C   UNL     4     -10.628  13.830  69.792  1.00  0.00     0.406 C  
ENDBRANCH   6  38
ENDBRANCH   5   6
TORSDOF 21
ENDMDL
MODEL      108
REMARK 921   NORMALIZED FREE ENERGY PREDICTED BY IDOCK:    0.64 KCAL/MOL
REMARK 922        TOTAL FREE ENERGY PREDICTED BY IDOCK:   -0.88 KCAL/MOL
REMARK 923 INTER-LIGAND FREE ENERGY PREDICTED BY IDOCK:   -1.90 KCAL/MOL
REMARK 924 INTRA-LIGAND FREE ENERGY PREDICTED BY IDOCK:    1.02 KCAL/MOL
REMARK 927      BINDING AFFINITY PREDICTED BY RF-SCORE:    0.00 PKD
ROOT
HETATM    1  I   UNL     1      -5.648   4.128  64.585  1.00  0.00    -0.014 I  
HETATM    2  I   UNL     2      -9.824   2.479  67.293  1.00  0.00     1.736 I  
HETATM    3  I   UNL     3      -6.078   7.046  67.328  1.00  0.00    -0.044 I  
HETATM    4  C   UNL     4      -5.137   6.314  70.972  1.00  0.00    -0.017 C  
HETATM    5  C   UNL     4      -5.945   5.843  72.201  1.00  0.00    -0.039 C  
ENDROOT
BRANCH   5   6
HETATM    6  N   UNL     4      -7.429   6.086  72.158  1.00  0.00    -0.094 N  
BRANCH   6   7
HETATM    7  C   UNL     4      -7.687   7.532  72.507  1.00  0.00    -0.094 C  
HETATM    8  C   UNL     4      -7.917   7.848  73.998  1.00  0.00    -0.262 C  
ENDBRANCH   6   7
BRANCH   6   9
HETATM    9  C   UNL     4      -7.931   5.752  70.780  1.00  0.00    -0.113 C  
BRANCH   9  10
HETATM   10  C   UNL     4      -9.010   6.658  70.110  1.00  0.00    -0.152 C  
BRANCH  10  11
HETATM   11  O   UNL     4      -8.737   7.127  68.837  1.00  0.00    -0.128 OA 
BRANCH  11  12
HETATM   12  C   UNL     4      -9.359   8.084  68.102  1.00  0.00    -0.139 A  
HETATM   13  C   UNL     4      -9.955   7.722  66.886  1.00  0.00    -0.331 A  
HETATM   14  C   UNL     4     -10.562   8.651  66.083  1.00  0.00     0.732 A  
HETATM   15  C   UNL     4     -10.648   9.958  66.487  1.00  0.00    -0.156 A  
HETATM   16  C   UNL     4     -10.103  10.414  67.721  1.00  0.00    -0.181 A  
HETATM   17  C   UNL     4      -9.421   9.463  68.554  1.00  0.00    -0.145 A  
BRANCH  16  18
HETATM   18  O   UNL     4     -10.273  11.736  68.089  1.00  0.00    -0.190 OA 
BRANCH  18  19
HETATM   19  C   UNL     4     -10.762  12.644  67.142  1.00  0.00    -0.241 C  
BRANCH  19  20
HETATM   20  C   UNL     4     -11.318  14.022  67.582  1.00  0.00    -0.312 C  
BRANCH  20  21
HETATM   21  N   UNL     4     -10.422  15.186  67.151  1.00  0.00    -0.275 N  
BRANCH  21  22
HETATM   22  C   UNL     4     -10.318  15.251  65.646  1.00  0.00    -0.366 C  
HETATM   23  C   UNL     4     -10.677  16.593  64.984  1.00  0.00    -0.171 C  
ENDBRANCH  21  22
BRANCH  21  24
HETATM   24  C   UNL     4      -9.028  14.988  67.697  1.00  0.00    -0.178 C  
HETATM   25  C   UNL     4      -8.863  14.975  69.232  1.00  0.00    -0.157 C  
ENDBRANCH  21  24
BRANCH  21  26
HETATM   26  C   UNL     4     -11.003  16.488  67.628  1.00  0.00    -0.207 C  
HETATM   27  C   UNL     4     -11.522  16.513  69.075  1.00  0.00    -0.109 C  
ENDBRANCH  21  26
ENDBRANCH  20  21
ENDBRANCH  19  20
ENDBRANCH  18  19
ENDBRANCH  16  18
BRANCH  17  28
HETATM   28  O   UNL     4      -8.860   9.877  69.749  1.00  0.00    -0.196 OA 
BRANCH  28  29
HETATM   29  C   UNL     4      -7.598  10.463  69.862  1.00  0.00    -0.100 C  
BRANCH  29  30
HETATM   30  C   UNL     4      -7.450  11.855  69.210  1.00  0.00     0.151 C  
BRANCH  30  31
HETATM   31  N   UNL     4      -6.047  12.194  68.726  1.00  0.00    -0.063 N  
BRANCH  31  32
HETATM   32  C   UNL     4      -6.036  12.566  67.267  1.00  0.00    -0.110 C  
HETATM   33  C   UNL     4      -7.260  12.159  66.435  1.00  0.00     0.556 C  
ENDBRANCH  31  32
BRANCH  31  34
HETATM   34  C   UNL     4      -5.168  10.989  68.921  1.00  0.00    -0.040 C  
HETATM   35  C   UNL     4      -5.421  10.161  70.201  1.00  0.00    -0.046 C  
ENDBRANCH  31  34
BRANCH  31  36
HETATM   36  C   UNL     4      -5.496  13.381  69.489  1.00  0.00    -0.089 C  
HETATM   37  C   UNL     4      -5.396  14.719  68.725  1.00  0.00    -0.089 C  
ENDBRANCH  31  36
ENDBRANCH  30  31
ENDBRANCH  29  30
ENDBRANCH  28  29
ENDBRANCH  17  28
ENDBRANCH  11  12
ENDBRANCH  10  11
ENDBRANCH   9  10
ENDBRANCH   6   9
BRANCH   6  38
HETATM   38  C   UNL     4      -8.147   5.231  73.169  1.00  0.00    -0.108 C  
HETATM   39  C   UNL     4      -8.883   3.991  72.621  1.00  0.00    -0.114 C  
ENDBRANCH   6  38
ENDBRANCH   5   6
TORSDOF 21
ENDMDL
MODEL      109
REMARK 921   NORMALIZED FREE ENERGY PREDICTED BY IDOCK:    0.67 KCAL/MOL
REMARK 922        TOTAL FREE ENERGY PREDICTED BY IDOCK:   -0.83 KCAL/MOL
REMARK 923 INTER-LIGAND FREE ENERGY PREDICTED BY IDOCK:   -3.09 KCAL/MOL
REMARK 924 INTRA-LIGAND FREE ENERGY PREDICTED BY IDOCK:    2.26 KCAL/MOL
REMARK 927      BINDING AFFINITY PREDICTED BY RF-SCORE:    0.00 PKD
ROOT
HETATM    1  I   UNL     1      -5.427   3.999  64.983  1.00  0.00    -0.014 I  
HETATM    2  I   UNL     2      -9.679   1.875  67.198  1.00  0.00     1.245 I  
HETATM    3  I   UNL     3      -5.955   6.346  68.213  1.00  0.00    -0.019 I  
HETATM    4  C   UNL     4      -5.125   4.937  71.682  1.00  0.00    -0.004 C  
HETATM    5  C   UNL     4      -5.970   4.243  72.773  1.00  0.00    -0.016 C  
ENDROOT
BRANCH   5   6
HETATM    6  N   UNL     4      -7.453   4.493  72.730  1.00  0.00    -0.082 N  
BRANCH   6   7
HETATM    7  C   UNL     4      -7.727   5.847  73.339  1.00  0.00    -0.101 C  
HETATM    8  C   UNL     4      -8.860   5.913  74.382  1.00  0.00    -0.127 C  
ENDBRANCH   6   7
BRANCH   6   9
HETATM    9  C   UNL     4      -7.909   4.428  71.298  1.00  0.00    -0.080 C  
BRANCH   9  10
HETATM   10  C   UNL     4      -9.030   5.392  70.800  1.00  0.00    -0.137 C  
BRANCH  10  11
HETATM   11  O   UNL     4      -8.868   5.953  69.546  1.00  0.00    -0.121 OA 
BRANCH  11  12
HETATM   12  C   UNL     4      -9.520   6.986  68.955  1.00  0.00    -0.138 A  
HETATM   13  C   UNL     4     -10.248   6.744  67.781  1.00  0.00    -0.212 A  
HETATM   14  C   UNL     4     -10.893   7.755  67.120  1.00  0.00    -0.227 A  
HETATM   15  C   UNL     4     -10.886   9.026  67.631  1.00  0.00    -0.133 A  
HETATM   16  C   UNL     4     -10.204   9.362  68.836  1.00  0.00    -0.200 A  
HETATM   17  C   UNL     4      -9.482   8.325  69.517  1.00  0.00    -0.162 A  
BRANCH  16  18
HETATM   18  O   UNL     4     -10.285  10.654  69.322  1.00  0.00    -0.212 OA 
BRANCH  18  19
HETATM   19  C   UNL     4     -11.132  11.566  68.681  1.00  0.00    -0.238 C  
BRANCH  19  20
HETATM   20  C   UNL     4     -10.601  12.948  68.223  1.00  0.00    -0.246 C  
BRANCH  20  21
HETATM   21  N   UNL     4     -10.423  13.040  66.705  1.00  0.00    -0.258 N  
BRANCH  21  22
HETATM   22  C   UNL     4     -11.295  14.130  66.129  1.00  0.00    -0.337 C  
HETATM   23  C   UNL     4     -12.238  13.729  64.982  1.00  0.00    -0.448 C  
ENDBRANCH  21  22
BRANCH  21  24
HETATM   24  C   UNL     4     -10.839  11.737  66.062  1.00  0.00    -0.296 C  
HETATM   25  C   UNL     4     -10.183  11.374  64.712  1.00  0.00    -0.338 C  
ENDBRANCH  21  24
BRANCH  21  26
HETATM   26  C   UNL     4      -8.995  13.369  66.371  1.00  0.00     0.036 C  
HETATM   27  C   UNL     4      -8.702  14.834  66.004  1.00  0.00     0.423 C  
ENDBRANCH  21  26
ENDBRANCH  20  21
ENDBRANCH  19  20
ENDBRANCH  18  19
ENDBRANCH  16  18
BRANCH  17  28
HETATM   28  O   UNL     4      -8.790   8.621  70.679  1.00  0.00    -0.141 OA 
BRANCH  28  29
HETATM   29  C   UNL     4      -7.533   9.227  70.710  1.00  0.00    -0.128 C  
BRANCH  29  30
HETATM   30  C   UNL     4      -7.472  10.663  70.143  1.00  0.00     0.260 C  
BRANCH  30  31
HETATM   31  N   UNL     4      -6.513  10.855  68.976  1.00  0.00    -0.052 N  
BRANCH  31  32
HETATM   32  C   UNL     4      -7.157  11.609  67.844  1.00  0.00    -0.081 C  
HETATM   33  C   UNL     4      -7.296  10.870  66.505  1.00  0.00    -0.142 C  
ENDBRANCH  31  32
BRANCH  31  34
HETATM   34  C   UNL     4      -6.091   9.501  68.474  1.00  0.00    -0.044 C  
HETATM   35  C   UNL     4      -5.255   9.485  67.176  1.00  0.00    -0.035 C  
ENDBRANCH  31  34
BRANCH  31  36
HETATM   36  C   UNL     4      -5.305  11.658  69.412  1.00  0.00    -0.049 C  
HETATM   37  C   UNL     4      -5.534  13.152  69.727  1.00  0.00    -0.100 C  
ENDBRANCH  31  36
ENDBRANCH  30  31
ENDBRANCH  29  30
ENDBRANCH  28  29
ENDBRANCH  17  28
ENDBRANCH  11  12
ENDBRANCH  10  11
ENDBRANCH   9  10
ENDBRANCH   6   9
BRANCH   6  38
HETATM   38  C   UNL     4      -8.198   3.462  73.537  1.00  0.00    -0.075 C  
HETATM   39  C   UNL     4      -8.115   2.006  73.035  1.00  0.00    -0.053 C  
ENDBRANCH   6  38
ENDBRANCH   5   6
TORSDOF 21
ENDMDL
MODEL      110
REMARK 921   NORMALIZED FREE ENERGY PREDICTED BY IDOCK:    0.74 KCAL/MOL
REMARK 922        TOTAL FREE ENERGY PREDICTED BY IDOCK:   -0.67 KCAL/MOL
REMARK 923 INTER-LIGAND FREE ENERGY PREDICTED BY IDOCK:   -2.37 KCAL/MOL
REMARK 924 INTRA-LIGAND FREE ENERGY PREDICTED BY IDOCK:    1.70 KCAL/MOL
REMARK 927      BINDING AFFINITY PREDICTED BY RF-SCORE:    0.00 PKD
ROOT
HETATM    1  I   UNL     1     -12.996  11.011  70.248  1.00  0.00     0.551 I  
HETATM    2  I   UNL     2     -12.596  14.086  66.020  1.00  0.00     0.045 I  
HETATM    3  I   UNL     3      -9.052  10.840  69.453  1.00  0.00     0.441 I  
HETATM    4  C   UNL     4      -6.878  13.910  70.201  1.00  0.00     0.237 C  
HETATM    5  C   UNL     4      -6.404  15.106  69.347  1.00  0.00    -0.129 C  
ENDROOT
BRANCH   5   6
HETATM    6  N   UNL     4      -6.402  14.903  67.856  1.00  0.00    -0.147 N  
BRANCH   6   7
HETATM    7  C   UNL     4      -5.287  15.731  67.263  1.00  0.00     0.145 C  
HETATM    8  C   UNL     4      -5.584  17.228  67.050  1.00  0.00    -0.196 C  
ENDBRANCH   6   7
BRANCH   6   9
HETATM    9  C   UNL     4      -6.214  13.437  67.571  1.00  0.00    -0.085 C  
BRANCH   9  10
HETATM   10  C   UNL     4      -5.886  12.459  68.740  1.00  0.00    -0.063 C  
BRANCH  10  11
HETATM   11  O   UNL     4      -5.474  11.183  68.397  1.00  0.00    -0.043 OA 
BRANCH  11  12
HETATM   12  C   UNL     4      -5.503  10.030  69.112  1.00  0.00    -0.035 A  
HETATM   13  C   UNL     4      -5.166  10.069  70.473  1.00  0.00    -0.047 A  
HETATM   14  C   UNL     4      -5.139   8.932  71.236  1.00  0.00    -0.030 A  
HETATM   15  C   UNL     4      -5.499   7.728  70.688  1.00  0.00    -0.026 A  
HETATM   16  C   UNL     4      -5.889   7.594  69.324  1.00  0.00    -0.030 A  
HETATM   17  C   UNL     4      -5.877   8.768  68.498  1.00  0.00    -0.045 A  
BRANCH  16  18
HETATM   18  O   UNL     4      -6.292   6.358  68.853  1.00  0.00    -0.034 OA 
BRANCH  18  19
HETATM   19  C   UNL     4      -7.474   5.797  69.352  1.00  0.00    -0.079 C  
BRANCH  19  20
HETATM   20  C   UNL     4      -7.445   4.860  70.586  1.00  0.00    -0.065 C  
BRANCH  20  21
HETATM   21  N   UNL     4      -8.765   4.860  71.360  1.00  0.00    -0.127 N  
BRANCH  21  22
HETATM   22  C   UNL     4      -8.520   5.071  72.835  1.00  0.00    -0.115 C  
HETATM   23  C   UNL     4      -7.454   6.113  73.218  1.00  0.00    -0.092 C  
ENDBRANCH  21  22
BRANCH  21  24
HETATM   24  C   UNL     4      -9.452   3.524  71.199  1.00  0.00    -0.159 C  
HETATM   25  C   UNL     4      -9.994   2.848  72.477  1.00  0.00    -0.229 C  
ENDBRANCH  21  24
BRANCH  21  26
HETATM   26  C   UNL     4      -9.648   5.977  70.877  1.00  0.00    -0.169 C  
HETATM   27  C   UNL     4     -10.452   5.703  69.595  1.00  0.00    -0.374 C  
ENDBRANCH  21  26
ENDBRANCH  20  21
ENDBRANCH  19  20
ENDBRANCH  18  19
ENDBRANCH  16  18
BRANCH  17  28
HETATM   28  O   UNL     4      -6.229   8.670  67.163  1.00  0.00    -0.054 OA 
BRANCH  28  29
HETATM   29  C   UNL     4      -6.535   9.763  66.350  1.00  0.00    -0.071 C  
BRANCH  29  30
HETATM   30  C   UNL     4      -6.603   9.467  64.835  1.00  0.00    -0.086 C  
BRANCH  30  31
HETATM   31  N   UNL     4      -7.641   8.432  64.427  1.00  0.00    -0.108 N  
BRANCH  31  32
HETATM   32  C   UNL     4      -8.649   9.003  63.465  1.00  0.00    -0.133 C  
HETATM   33  C   UNL     4      -9.043  10.474  63.662  1.00  0.00    -0.259 C  
ENDBRANCH  31  32
BRANCH  31  34
HETATM   34  C   UNL     4      -8.364   7.965  65.660  1.00  0.00    -0.142 C  
HETATM   35  C   UNL     4      -8.673   6.454  65.739  1.00  0.00    -0.135 C  
ENDBRANCH  31  34
BRANCH  31  36
HETATM   36  C   UNL     4      -6.977   7.264  63.728  1.00  0.00    -0.058 C  
HETATM   37  C   UNL     4      -5.612   6.801  64.282  1.00  0.00    -0.031 C  
ENDBRANCH  31  36
ENDBRANCH  30  31
ENDBRANCH  29  30
ENDBRANCH  28  29
ENDBRANCH  17  28
ENDBRANCH  11  12
ENDBRANCH  10  11
ENDBRANCH   9  10
ENDBRANCH   6   9
BRANCH   6  38
HETATM   38  C   UNL     4      -7.698  15.366  67.244  1.00  0.00    -0.213 C  
HETATM   39  C   UNL     4      -8.683  16.086  68.188  1.00  0.00    -0.173 C  
ENDBRANCH   6  38
ENDBRANCH   5   6
TORSDOF 21
ENDMDL
MODEL      111
REMARK 921   NORMALIZED FREE ENERGY PREDICTED BY IDOCK:    0.96 KCAL/MOL
REMARK 922        TOTAL FREE ENERGY PREDICTED BY IDOCK:   -0.18 KCAL/MOL
REMARK 923 INTER-LIGAND FREE ENERGY PREDICTED BY IDOCK:    0.17 KCAL/MOL
REMARK 924 INTRA-LIGAND FREE ENERGY PREDICTED BY IDOCK:   -0.35 KCAL/MOL
REMARK 927      BINDING AFFINITY PREDICTED BY RF-SCORE:    0.00 PKD
ROOT
HETATM    1  I   UNL     1     -14.157   7.505  71.545  1.00  0.00    -0.275 I  
HETATM    2  I   UNL     2     -11.013   7.366  67.350  1.00  0.00     0.377 I  
HETATM    3  I   UNL     3     -12.228  11.030  71.821  1.00  0.00     1.194 I  
HETATM    4  C   UNL     4     -13.121  13.828  69.356  1.00  0.00     1.393 C  
HETATM    5  C   UNL     4     -12.530  14.275  68.001  1.00  0.00     0.242 C  
ENDROOT
BRANCH   5   6
HETATM    6  N   UNL     4     -11.108  13.867  67.726  1.00  0.00    -0.256 N  
BRANCH   6   7
HETATM    7  C   UNL     4     -10.540  13.241  68.977  1.00  0.00    -0.065 C  
HETATM    8  C   UNL     4      -9.923  14.206  70.008  1.00  0.00     1.057 C  
ENDBRANCH   6   7
BRANCH   6   9
HETATM    9  C   UNL     4     -11.099  12.902  66.572  1.00  0.00    -0.286 C  
BRANCH   9  10
HETATM   10  C   UNL     4      -9.782  12.157  66.198  1.00  0.00    -0.240 C  
BRANCH  10  11
HETATM   11  O   UNL     4      -9.817  10.774  66.201  1.00  0.00    -0.204 OA 
BRANCH  11  12
HETATM   12  C   UNL     4      -8.808   9.869  66.278  1.00  0.00    -0.143 A  
HETATM   13  C   UNL     4      -8.344   9.273  65.097  1.00  0.00    -0.155 A  
HETATM   14  C   UNL     4      -7.355   8.325  65.116  1.00  0.00    -0.081 A  
HETATM   15  C   UNL     4      -6.756   7.980  66.299  1.00  0.00    -0.054 A  
HETATM   16  C   UNL     4      -7.135   8.557  67.546  1.00  0.00    -0.080 A  
HETATM   17  C   UNL     4      -8.203   9.518  67.550  1.00  0.00    -0.121 A  
BRANCH  16  18
HETATM   18  O   UNL     4      -6.450   8.202  68.693  1.00  0.00    -0.051 OA 
BRANCH  18  19
HETATM   19  C   UNL     4      -7.040   7.291  69.577  1.00  0.00    -0.074 C  
BRANCH  19  20
HETATM   20  C   UNL     4      -7.887   6.108  69.042  1.00  0.00    -0.100 C  
BRANCH  20  21
HETATM   21  N   UNL     4      -8.061   4.991  70.074  1.00  0.00    -0.074 N  
BRANCH  21  22
HETATM   22  C   UNL     4      -6.719   4.472  70.531  1.00  0.00    -0.036 C  
HETATM   23  C   UNL     4      -6.028   3.441  69.622  1.00  0.00    -0.023 C  
ENDBRANCH  21  22
BRANCH  21  24
HETATM   24  C   UNL     4      -8.809   3.834  69.454  1.00  0.00    -0.090 C  
HETATM   25  C   UNL     4      -9.241   2.686  70.393  1.00  0.00    -0.200 C  
ENDBRANCH  21  24
BRANCH  21  26
HETATM   26  C   UNL     4      -8.788   5.511  71.282  1.00  0.00    -0.135 C  
HETATM   27  C   UNL     4      -9.844   6.599  71.025  1.00  0.00    -0.196 C  
ENDBRANCH  21  26
ENDBRANCH  20  21
ENDBRANCH  19  20
ENDBRANCH  18  19
ENDBRANCH  16  18
BRANCH  17  28
HETATM   28  O   UNL     4      -8.612  10.082  68.746  1.00  0.00    -0.119 OA 
BRANCH  28  29
HETATM   29  C   UNL     4      -8.044  11.227  69.307  1.00  0.00     0.114 C  
BRANCH  29  30
HETATM   30  C   UNL     4      -6.512  11.352  69.157  1.00  0.00    -0.085 C  
BRANCH  30  31
HETATM   31  N   UNL     4      -6.015  12.732  68.751  1.00  0.00    -0.068 N  
BRANCH  31  32
HETATM   32  C   UNL     4      -7.155  13.682  68.497  1.00  0.00    -0.107 C  
HETATM   33  C   UNL     4      -6.942  15.149  68.898  1.00  0.00    -0.124 C  
ENDBRANCH  31  32
BRANCH  31  34
HETATM   34  C   UNL     4      -5.209  12.599  67.489  1.00  0.00    -0.091 C  
HETATM   35  C   UNL     4      -5.775  11.644  66.415  1.00  0.00     0.027 C  
ENDBRANCH  31  34
BRANCH  31  36
HETATM   36  C   UNL     4      -5.174  13.338  69.856  1.00  0.00    -0.088 C  
HETATM   37  C   UNL     4      -5.587  13.014  71.308  1.00  0.00    -0.071 C  
ENDBRANCH  31  36
ENDBRANCH  30  31
ENDBRANCH  29  30
ENDBRANCH  28  29
ENDBRANCH  17  28
ENDBRANCH  11  12
ENDBRANCH  10  11
ENDBRANCH   9  10
ENDBRANCH   6   9
BRANCH   6  38
HETATM   38  C   UNL     4     -10.259  15.063  67.381  1.00  0.00    -0.234 C  
HETATM   39  C   UNL     4     -10.809  16.440  67.806  1.00  0.00    -0.306 C  
ENDBRANCH   6  38
ENDBRANCH   5   6
TORSDOF 21
ENDMDL
MODEL      112
REMARK 921   NORMALIZED FREE ENERGY PREDICTED BY IDOCK:    0.98 KCAL/MOL
REMARK 922        TOTAL FREE ENERGY PREDICTED BY IDOCK:   -0.13 KCAL/MOL
REMARK 923 INTER-LIGAND FREE ENERGY PREDICTED BY IDOCK:   -0.76 KCAL/MOL
REMARK 924 INTRA-LIGAND FREE ENERGY PREDICTED BY IDOCK:    0.64 KCAL/MOL
REMARK 927      BINDING AFFINITY PREDICTED BY RF-SCORE:    0.00 PKD
ROOT
HETATM    1  I   UNL     1      -8.984  11.639  63.498  1.00  0.00     0.784 I  
HETATM    2  I   UNL     2      -9.912  15.849  66.484  1.00  0.00    -0.358 I  
HETATM    3  I   UNL     3      -9.067  10.046  67.195  1.00  0.00    -0.168 I  
HETATM    4  C   UNL     4     -12.437   9.723  68.997  1.00  0.00     1.851 C  
HETATM    5  C   UNL     4     -13.192  10.621  70.000  1.00  0.00     0.419 C  
ENDROOT
BRANCH   5   6
HETATM    6  N   UNL     4     -12.358  11.605  70.775  1.00  0.00    -0.385 N  
BRANCH   6   7
HETATM    7  C   UNL     4     -13.200  12.167  71.895  1.00  0.00    -0.369 C  
HETATM    8  C   UNL     4     -13.465  13.685  71.859  1.00  0.00    -0.519 C  
ENDBRANCH   6   7
BRANCH   6   9
HETATM    9  C   UNL     4     -11.141  10.893  71.302  1.00  0.00     1.501 C  
BRANCH   9  10
HETATM   10  C   UNL     4     -11.104   9.334  71.317  1.00  0.00    -0.357 C  
BRANCH  10  11
HETATM   11  O   UNL     4     -10.887   8.721  72.538  1.00  0.00    -0.257 OA 
BRANCH  11  12
HETATM   12  C   UNL     4     -10.766   7.406  72.851  1.00  0.00    -0.339 A  
HETATM   13  C   UNL     4     -11.764   6.516  72.430  1.00  0.00    -0.271 A  
HETATM   14  C   UNL     4     -11.716   5.184  72.749  1.00  0.00    -0.181 A  
HETATM   15  C   UNL     4     -10.649   4.683  73.447  1.00  0.00    -0.293 A  
HETATM   16  C   UNL     4      -9.569   5.502  73.887  1.00  0.00    -0.144 A  
HETATM   17  C   UNL     4      -9.627   6.909  73.602  1.00  0.00    -0.208 A  
BRANCH  16  18
HETATM   18  O   UNL     4      -8.498   4.919  74.539  1.00  0.00    -0.109 OA 
BRANCH  18  19
HETATM   19  C   UNL     4      -7.506   4.290  73.778  1.00  0.00    -0.077 C  
BRANCH  19  20
HETATM   20  C   UNL     4      -7.756   2.894  73.154  1.00  0.00    -0.055 C  
BRANCH  20  21
HETATM   21  N   UNL     4      -7.636   2.899  71.628  1.00  0.00    -0.047 N  
BRANCH  21  22
HETATM   22  C   UNL     4      -8.197   4.176  71.051  1.00  0.00    -0.075 C  
HETATM   23  C   UNL     4      -8.652   4.131  69.582  1.00  0.00    -0.106 C  
ENDBRANCH  21  22
BRANCH  21  24
HETATM   24  C   UNL     4      -8.429   1.750  71.049  1.00  0.00    -0.050 C  
HETATM   25  C   UNL     4      -9.967   1.820  71.171  1.00  0.00    -0.065 C  
ENDBRANCH  21  24
BRANCH  21  26
HETATM   26  C   UNL     4      -6.191   2.808  71.223  1.00  0.00    -0.018 C  
HETATM   27  C   UNL     4      -5.312   1.851  72.046  1.00  0.00    -0.004 C  
ENDBRANCH  21  26
ENDBRANCH  20  21
ENDBRANCH  19  20
ENDBRANCH  18  19
ENDBRANCH  16  18
BRANCH  17  28
HETATM   28  O   UNL     4      -8.606   7.738  74.035  1.00  0.00    -0.225 OA 
BRANCH  28  29
HETATM   29  C   UNL     4      -7.627   8.277  73.199  1.00  0.00    -0.117 C  
BRANCH  29  30
HETATM   30  C   UNL     4      -7.663   7.793  71.732  1.00  0.00    -0.089 C  
BRANCH  30  31
HETATM   31  N   UNL     4      -6.589   8.385  70.831  1.00  0.00    -0.038 N  
BRANCH  31  32
HETATM   32  C   UNL     4      -5.314   8.651  71.586  1.00  0.00    -0.038 C  
HETATM   33  C   UNL     4      -5.319   9.832  72.568  1.00  0.00     0.046 C  
ENDBRANCH  31  32
BRANCH  31  34
HETATM   34  C   UNL     4      -7.096   9.685  70.271  1.00  0.00    -0.127 C  
HETATM   35  C   UNL     4      -6.190  10.378  69.230  1.00  0.00    -0.046 C  
ENDBRANCH  31  34
BRANCH  31  36
HETATM   36  C   UNL     4      -6.247   7.423  69.713  1.00  0.00    -0.031 C  
HETATM   37  C   UNL     4      -7.325   7.197  68.630  1.00  0.00    -0.097 C  
ENDBRANCH  31  36
ENDBRANCH  30  31
ENDBRANCH  29  30
ENDBRANCH  28  29
ENDBRANCH  17  28
ENDBRANCH  11  12
ENDBRANCH  10  11
ENDBRANCH   9  10
ENDBRANCH   6   9
BRANCH   6  38
HETATM   38  C   UNL     4     -11.923  12.753  69.902  1.00  0.00    -0.298 C  
HETATM   39  C   UNL     4     -10.510  12.655  69.293  1.00  0.00     0.196 C  
ENDBRANCH   6  38
ENDBRANCH   5   6
TORSDOF 21
ENDMDL
MODEL      113
REMARK 921   NORMALIZED FREE ENERGY PREDICTED BY IDOCK:    1.08 KCAL/MOL
REMARK 922        TOTAL FREE ENERGY PREDICTED BY IDOCK:    0.08 KCAL/MOL
REMARK 923 INTER-LIGAND FREE ENERGY PREDICTED BY IDOCK:   -1.12 KCAL/MOL
REMARK 924 INTRA-LIGAND FREE ENERGY PREDICTED BY IDOCK:    1.20 KCAL/MOL
REMARK 927      BINDING AFFINITY PREDICTED BY RF-SCORE:    0.00 PKD
ROOT
HETATM    1  I   UNL     1      -9.899  13.246  63.336  1.00  0.00     5.192 I  
HETATM    2  I   UNL     2      -6.966  13.752  67.654  1.00  0.00     0.017 I  
HETATM    3  I   UNL     3      -8.987   9.417  64.188  1.00  0.00     0.139 I  
HETATM    4  C   UNL     4     -10.680   7.735  67.190  1.00  0.00    -0.337 C  
HETATM    5  C   UNL     4     -10.273   7.548  68.668  1.00  0.00    -0.197 C  
ENDROOT
BRANCH   5   6
HETATM    6  N   UNL     4      -8.803   7.645  68.974  1.00  0.00    -0.135 N  
BRANCH   6   7
HETATM    7  C   UNL     4      -8.040   7.594  67.672  1.00  0.00    -0.121 C  
HETATM    8  C   UNL     4      -6.594   8.127  67.703  1.00  0.00    -0.058 C  
ENDBRANCH   6   7
BRANCH   6   9
HETATM    9  C   UNL     4      -8.550   8.930  69.713  1.00  0.00    -0.134 C  
BRANCH   9  10
HETATM   10  C   UNL     4      -9.712   9.952  69.907  1.00  0.00    -0.235 C  
BRANCH  10  11
HETATM   11  O   UNL     4      -9.520  11.228  69.407  1.00  0.00     0.096 OA 
BRANCH  11  12
HETATM   12  C   UNL     4     -10.176  11.894  68.423  1.00  0.00    -0.204 A  
HETATM   13  C   UNL     4     -10.847  11.155  67.438  1.00  0.00    -0.317 A  
HETATM   14  C   UNL     4     -11.494  11.771  66.399  1.00  0.00    -0.309 A  
HETATM   15  C   UNL     4     -11.544  13.139  66.335  1.00  0.00    -0.394 A  
HETATM   16  C   UNL     4     -10.923  13.974  67.308  1.00  0.00    -0.295 A  
HETATM   17  C   UNL     4     -10.200  13.345  68.378  1.00  0.00    -0.251 A  
BRANCH  16  18
HETATM   18  O   UNL     4     -11.060  15.346  67.210  1.00  0.00    -0.325 OA 
BRANCH  18  19
HETATM   19  C   UNL     4     -11.024  15.940  65.942  1.00  0.00    -0.151 C  
BRANCH  19  20
HETATM   20  C   UNL     4      -9.900  16.941  65.571  1.00  0.00     0.107 C  
BRANCH  20  21
HETATM   21  N   UNL     4      -9.377  17.718  66.782  1.00  0.00    -0.272 N  
BRANCH  21  22
HETATM   22  C   UNL     4      -8.863  19.075  66.364  1.00  0.00    -0.321 C  
HETATM   23  C   UNL     4      -9.919  20.156  66.073  1.00  0.00    -0.487 C  
ENDBRANCH  21  22
BRANCH  21  24
HETATM   24  C   UNL     4      -8.226  16.969  67.411  1.00  0.00    -0.183 C  
HETATM   25  C   UNL     4      -7.171  17.802  68.171  1.00  0.00    -0.225 C  
ENDBRANCH  21  24
BRANCH  21  26
HETATM   26  C   UNL     4     -10.483  17.932  67.776  1.00  0.00    -0.400 C  
HETATM   27  C   UNL     4     -10.053  18.312  69.203  1.00  0.00    -0.186 C  
ENDBRANCH  21  26
ENDBRANCH  20  21
ENDBRANCH  19  20
ENDBRANCH  18  19
ENDBRANCH  16  18
BRANCH  17  28
HETATM   28  O   UNL     4      -9.565  14.126  69.328  1.00  0.00     0.054 OA 
BRANCH  28  29
HETATM   29  C   UNL     4     -10.174  14.592  70.494  1.00  0.00     0.978 C  
BRANCH  29  30
HETATM   30  C   UNL     4     -11.700  14.814  70.404  1.00  0.00    -0.295 C  
BRANCH  30  31
HETATM   31  N   UNL     4     -12.429  14.827  71.741  1.00  0.00    -0.328 N  
BRANCH  31  32
HETATM   32  C   UNL     4     -11.640  15.551  72.799  1.00  0.00    -0.367 C  
HETATM   33  C   UNL     4     -12.210  15.535  74.225  1.00  0.00    -0.755 C  
ENDBRANCH  31  32
BRANCH  31  34
HETATM   34  C   UNL     4     -12.639  13.405  72.186  1.00  0.00     0.028 C  
HETATM   35  C   UNL     4     -13.245  12.445  71.138  1.00  0.00     0.034 C  
ENDBRANCH  31  34
BRANCH  31  36
HETATM   36  C   UNL     4     -13.758  15.543  71.612  1.00  0.00    -0.466 C  
HETATM   37  C   UNL     4     -14.401  16.064  72.916  1.00  0.00     0.231 C  
ENDBRANCH  31  36
ENDBRANCH  30  31
ENDBRANCH  29  30
ENDBRANCH  28  29
ENDBRANCH  17  28
ENDBRANCH  11  12
ENDBRANCH  10  11
ENDBRANCH   9  10
ENDBRANCH   6   9
BRANCH   6  38
HETATM   38  C   UNL     4      -8.350   6.485  69.822  1.00  0.00    -0.127 C  
HETATM   39  C   UNL     4      -8.874   5.093  69.417  1.00  0.00    -0.119 C  
ENDBRANCH   6  38
ENDBRANCH   5   6
TORSDOF 21
ENDMDL
MODEL      114
REMARK 921   NORMALIZED FREE ENERGY PREDICTED BY IDOCK:    1.12 KCAL/MOL
REMARK 922        TOTAL FREE ENERGY PREDICTED BY IDOCK:    0.18 KCAL/MOL
REMARK 923 INTER-LIGAND FREE ENERGY PREDICTED BY IDOCK:   -1.81 KCAL/MOL
REMARK 924 INTRA-LIGAND FREE ENERGY PREDICTED BY IDOCK:    1.99 KCAL/MOL
REMARK 927      BINDING AFFINITY PREDICTED BY RF-SCORE:    0.00 PKD
ROOT
HETATM    1  I   UNL     1      -8.680   6.083  62.606  1.00  0.00     0.579 I  
HETATM    2  I   UNL     2      -6.411  10.073  65.141  1.00  0.00    -0.116 I  
HETATM    3  I   UNL     3      -9.024   4.941  66.452  1.00  0.00    -0.136 I  
HETATM    4  C   UNL     4     -11.555   6.743  68.700  1.00  0.00     0.259 C  
HETATM    5  C   UNL     4     -11.445   7.936  69.673  1.00  0.00     0.317 C  
ENDROOT
BRANCH   5   6
HETATM    6  N   UNL     4     -10.071   8.240  70.206  1.00  0.00    -0.190 N  
BRANCH   6   7
HETATM    7  C   UNL     4      -9.657   7.118  71.126  1.00  0.00    -0.164 C  
HETATM    8  C   UNL     4     -10.601   6.815  72.307  1.00  0.00    -0.241 C  
ENDBRANCH   6   7
BRANCH   6   9
HETATM    9  C   UNL     4      -9.126   8.381  69.044  1.00  0.00    -0.147 C  
BRANCH   9  10
HETATM   10  C   UNL     4      -9.627   9.021  67.714  1.00  0.00    -0.150 C  
BRANCH  10  11
HETATM   11  O   UNL     4      -9.941  10.368  67.741  1.00  0.00    -0.168 OA 
BRANCH  11  12
HETATM   12  C   UNL     4      -9.967  11.284  66.740  1.00  0.00    -0.206 A  
HETATM   13  C   UNL     4     -10.550  10.930  65.515  1.00  0.00    -0.240 A  
HETATM   14  C   UNL     4     -10.570  11.799  64.456  1.00  0.00    -0.364 A  
HETATM   15  C   UNL     4     -10.065  13.065  64.595  1.00  0.00    -0.253 A  
HETATM   16  C   UNL     4      -9.485  13.528  65.812  1.00  0.00     0.047 A  
HETATM   17  C   UNL     4      -9.412  12.614  66.917  1.00  0.00    -0.229 A  
BRANCH  16  18
HETATM   18  O   UNL     4      -9.044  14.836  65.897  1.00  0.00    -0.159 OA 
BRANCH  18  19
HETATM   19  C   UNL     4      -9.776  15.746  66.669  1.00  0.00    -0.249 C  
BRANCH  19  20
HETATM   20  C   UNL     4      -9.082  16.579  67.777  1.00  0.00    -0.204 C  
BRANCH  20  21
HETATM   21  N   UNL     4      -9.996  17.656  68.367  1.00  0.00    -0.334 N  
BRANCH  21  22
HETATM   22  C   UNL     4      -9.386  19.026  68.198  1.00  0.00    -0.335 C  
HETATM   23  C   UNL     4      -7.879  19.080  67.887  1.00  0.00    -0.301 C  
ENDBRANCH  21  22
BRANCH  21  24
HETATM   24  C   UNL     4     -10.177  17.417  69.848  1.00  0.00     0.425 C  
HETATM   25  C   UNL     4     -10.682  16.024  70.284  1.00  0.00    -0.278 C  
ENDBRANCH  21  24
BRANCH  21  26
HETATM   26  C   UNL     4     -11.322  17.653  67.659  1.00  0.00     0.490 C  
HETATM   27  C   UNL     4     -12.329  16.580  68.104  1.00  0.00     1.556 C  
ENDBRANCH  21  26
ENDBRANCH  20  21
ENDBRANCH  19  20
ENDBRANCH  18  19
ENDBRANCH  16  18
BRANCH  17  28
HETATM   28  O   UNL     4      -8.834  13.024  68.107  1.00  0.00    -0.186 OA 
BRANCH  28  29
HETATM   29  C   UNL     4      -8.242  12.159  69.029  1.00  0.00     0.290 C  
BRANCH  29  30
HETATM   30  C   UNL     4      -7.281  11.107  68.433  1.00  0.00    -0.083 C  
BRANCH  30  31
HETATM   31  N   UNL     4      -6.063  10.788  69.289  1.00  0.00    -0.043 N  
BRANCH  31  32
HETATM   32  C   UNL     4      -6.457  10.266  70.645  1.00  0.00    -0.061 C  
HETATM   33  C   UNL     4      -5.393   9.475  71.422  1.00  0.00    -0.063 C  
ENDBRANCH  31  32
BRANCH  31  34
HETATM   34  C   UNL     4      -5.264  12.049  69.473  1.00  0.00    -0.066 C  
HETATM   35  C   UNL     4      -5.607  12.899  70.716  1.00  0.00    -0.177 C  
ENDBRANCH  31  34
BRANCH  31  36
HETATM   36  C   UNL     4      -5.219   9.717  68.630  1.00  0.00    -0.036 C  
HETATM   37  C   UNL     4      -5.936   8.410  68.228  1.00  0.00    -0.046 C  
ENDBRANCH  31  36
ENDBRANCH  30  31
ENDBRANCH  29  30
ENDBRANCH  28  29
ENDBRANCH  17  28
ENDBRANCH  11  12
ENDBRANCH  10  11
ENDBRANCH   9  10
ENDBRANCH   6   9
BRANCH   6  38
HETATM   38  C   UNL     4     -10.071   9.518  71.004  1.00  0.00    -0.229 C  
HETATM   39  C   UNL     4     -11.421  10.254  71.122  1.00  0.00    -0.319 C  
ENDBRANCH   6  38
ENDBRANCH   5   6
TORSDOF 21
ENDMDL
MODEL      115
REMARK 921   NORMALIZED FREE ENERGY PREDICTED BY IDOCK:    1.15 KCAL/MOL
REMARK 922        TOTAL FREE ENERGY PREDICTED BY IDOCK:    0.24 KCAL/MOL
REMARK 923 INTER-LIGAND FREE ENERGY PREDICTED BY IDOCK:   -1.36 KCAL/MOL
REMARK 924 INTRA-LIGAND FREE ENERGY PREDICTED BY IDOCK:    1.59 KCAL/MOL
REMARK 927      BINDING AFFINITY PREDICTED BY RF-SCORE:    0.00 PKD
ROOT
HETATM    1  I   UNL     1     -14.235  10.841  71.726  1.00  0.00     2.353 I  
HETATM    2  I   UNL     2      -9.810  10.940  68.915  1.00  0.00    -0.095 I  
HETATM    3  I   UNL     3     -12.956   7.035  72.035  1.00  0.00     0.151 I  
HETATM    4  C   UNL     4      -9.918   6.277  74.249  1.00  0.00    -0.324 C  
HETATM    5  C   UNL     4      -8.406   6.146  73.964  1.00  0.00    -0.115 C  
ENDROOT
BRANCH   5   6
HETATM    6  N   UNL     4      -8.018   5.838  72.544  1.00  0.00    -0.102 N  
BRANCH   6   7
HETATM    7  C   UNL     4      -8.087   4.343  72.343  1.00  0.00    -0.100 C  
HETATM    8  C   UNL     4      -7.321   3.478  73.365  1.00  0.00    -0.056 C  
ENDBRANCH   6   7
BRANCH   6   9
HETATM    9  C   UNL     4      -8.959   6.563  71.620  1.00  0.00    -0.143 C  
BRANCH   9  10
HETATM   10  C   UNL     4      -9.580   5.810  70.404  1.00  0.00    -0.168 C  
BRANCH  10  11
HETATM   11  O   UNL     4      -8.703   5.203  69.523  1.00  0.00    -0.097 OA 
BRANCH  11  12
HETATM   12  C   UNL     4      -8.814   4.975  68.190  1.00  0.00    -0.102 A  
HETATM   13  C   UNL     4      -9.529   3.850  67.754  1.00  0.00    -0.230 A  
HETATM   14  C   UNL     4      -9.641   3.547  66.423  1.00  0.00    -0.114 A  
HETATM   15  C   UNL     4      -9.098   4.379  65.480  1.00  0.00    -0.140 A  
HETATM   16  C   UNL     4      -8.384   5.563  65.824  1.00  0.00    -0.129 A  
HETATM   17  C   UNL     4      -8.216   5.871  67.217  1.00  0.00    -0.105 A  
BRANCH  16  18
HETATM   18  O   UNL     4      -7.910   6.385  64.819  1.00  0.00    -0.099 OA 
BRANCH  18  19
HETATM   19  C   UNL     4      -8.731   7.415  64.343  1.00  0.00     0.521 C  
BRANCH  19  20
HETATM   20  C   UNL     4      -8.352   8.198  63.061  1.00  0.00    -0.039 C  
BRANCH  20  21
HETATM   21  N   UNL     4      -8.288   9.710  63.289  1.00  0.00    -0.158 N  
BRANCH  21  22
HETATM   22  C   UNL     4      -8.643  10.051  64.716  1.00  0.00    -0.177 C  
HETATM   23  C   UNL     4     -10.134   9.998  65.090  1.00  0.00    -0.268 C  
ENDBRANCH  21  22
BRANCH  21  24
HETATM   24  C   UNL     4      -9.286  10.405  62.392  1.00  0.00    -0.263 C  
HETATM   25  C   UNL     4     -10.072  11.590  62.994  1.00  0.00    -0.330 C  
ENDBRANCH  21  24
BRANCH  21  26
HETATM   26  C   UNL     4      -6.896  10.213  63.028  1.00  0.00    -0.135 C  
HETATM   27  C   UNL     4      -5.934   9.232  62.337  1.00  0.00    -0.090 C  
ENDBRANCH  21  26
ENDBRANCH  20  21
ENDBRANCH  19  20
ENDBRANCH  18  19
ENDBRANCH  16  18
BRANCH  17  28
HETATM   28  O   UNL     4      -7.509   7.001  67.588  1.00  0.00    -0.093 OA 
BRANCH  28  29
HETATM   29  C   UNL     4      -8.100   8.216  67.938  1.00  0.00    -0.128 C  
BRANCH  29  30
HETATM   30  C   UNL     4      -7.264   9.477  67.629  1.00  0.00    -0.082 C  
BRANCH  30  31
HETATM   31  N   UNL     4      -5.775   9.351  67.921  1.00  0.00    -0.041 N  
BRANCH  31  32
HETATM   32  C   UNL     4      -5.521   8.867  69.324  1.00  0.00    -0.035 C  
HETATM   33  C   UNL     4      -6.283   9.576  70.453  1.00  0.00    -0.064 C  
ENDBRANCH  31  32
BRANCH  31  34
HETATM   34  C   UNL     4      -5.137  10.703  67.756  1.00  0.00    -0.036 C  
HETATM   35  C   UNL     4      -5.942  11.742  66.945  1.00  0.00    -0.140 C  
ENDBRANCH  31  34
BRANCH  31  36
HETATM   36  C   UNL     4      -5.136   8.346  66.985  1.00  0.00    -0.032 C  
HETATM   37  C   UNL     4      -5.436   8.503  65.478  1.00  0.00    -0.035 C  
ENDBRANCH  31  36
ENDBRANCH  30  31
ENDBRANCH  29  30
ENDBRANCH  28  29
ENDBRANCH  17  28
ENDBRANCH  11  12
ENDBRANCH  10  11
ENDBRANCH   9  10
ENDBRANCH   6   9
BRANCH   6  38
HETATM   38  C   UNL     4      -6.606   6.279  72.261  1.00  0.00    -0.063 C  
HETATM   39  C   UNL     4      -5.693   6.484  73.487  1.00  0.00    -0.050 C  
ENDBRANCH   6  38
ENDBRANCH   5   6
TORSDOF 21
ENDMDL
MODEL      116
REMARK 921   NORMALIZED FREE ENERGY PREDICTED BY IDOCK:    1.16 KCAL/MOL
REMARK 922        TOTAL FREE ENERGY PREDICTED BY IDOCK:    0.26 KCAL/MOL
REMARK 923 INTER-LIGAND FREE ENERGY PREDICTED BY IDOCK:    0.11 KCAL/MOL
REMARK 924 INTRA-LIGAND FREE ENERGY PREDICTED BY IDOCK:    0.15 KCAL/MOL
REMARK 927      BINDING AFFINITY PREDICTED BY RF-SCORE:    0.00 PKD
ROOT
HETATM    1  I   UNL     1      -6.277  21.023  66.691  1.00  0.00    -0.326 I  
HETATM    2  I   UNL     2     -11.125  19.547  65.346  1.00  0.00     2.013 I  
HETATM    3  I   UNL     3      -7.404  18.834  69.877  1.00  0.00     1.203 I  
HETATM    4  C   UNL     4      -7.619  15.022  69.521  1.00  0.00    -0.181 C  
HETATM    5  C   UNL     4      -8.772  14.053  69.182  1.00  0.00     0.295 C  
ENDROOT
BRANCH   5   6
HETATM    6  N   UNL     4     -10.166  14.563  69.426  1.00  0.00    -0.104 N  
BRANCH   6   7
HETATM    7  C   UNL     4     -10.283  15.941  68.821  1.00  0.00    -0.220 C  
HETATM    8  C   UNL     4     -10.784  16.012  67.365  1.00  0.00    -0.306 C  
ENDBRANCH   6   7
BRANCH   6   9
HETATM    9  C   UNL     4     -11.144  13.602  68.805  1.00  0.00    -0.270 C  
BRANCH   9  10
HETATM   10  C   UNL     4     -10.806  12.081  68.754  1.00  0.00    -0.230 C  
BRANCH  10  11
HETATM   11  O   UNL     4      -9.552  11.729  68.287  1.00  0.00    -0.190 OA 
BRANCH  11  12
HETATM   12  C   UNL     4      -8.781  10.648  68.569  1.00  0.00    -0.141 A  
HETATM   13  C   UNL     4      -8.285  10.493  69.871  1.00  0.00     0.168 A  
HETATM   14  C   UNL     4      -7.470   9.444  70.206  1.00  0.00    -0.131 A  
HETATM   15  C   UNL     4      -7.167   8.485  69.275  1.00  0.00    -0.063 A  
HETATM   16  C   UNL     4      -7.653   8.538  67.936  1.00  0.00    -0.098 A  
HETATM   17  C   UNL     4      -8.470   9.656  67.556  1.00  0.00    -0.125 A  
BRANCH  16  18
HETATM   18  O   UNL     4      -7.352   7.507  67.065  1.00  0.00    -0.089 OA 
BRANCH  18  19
HETATM   19  C   UNL     4      -7.865   6.230  67.326  1.00  0.00    -0.108 C  
BRANCH  19  20
HETATM   20  C   UNL     4      -7.494   5.030  66.419  1.00  0.00    -0.087 C  
BRANCH  20  21
HETATM   21  N   UNL     4      -7.460   3.702  67.179  1.00  0.00    -0.070 N  
BRANCH  21  22
HETATM   22  C   UNL     4      -8.345   2.679  66.508  1.00  0.00    -0.091 C  
HETATM   23  C   UNL     4      -8.535   2.819  64.988  1.00  0.00    -0.095 C  
ENDBRANCH  21  22
BRANCH  21  24
HETATM   24  C   UNL     4      -7.981   3.904  68.583  1.00  0.00    -0.067 C  
HETATM   25  C   UNL     4      -7.873   2.709  69.556  1.00  0.00    -0.049 C  
ENDBRANCH  21  24
BRANCH  21  26
HETATM   26  C   UNL     4      -6.061   3.154  67.202  1.00  0.00    -0.024 C  
HETATM   27  C   UNL     4      -5.174   3.600  68.377  1.00  0.00    -0.012 C  
ENDBRANCH  21  26
ENDBRANCH  20  21
ENDBRANCH  19  20
ENDBRANCH  18  19
ENDBRANCH  16  18
BRANCH  17  28
HETATM   28  O   UNL     4      -8.940   9.750  66.258  1.00  0.00    -0.146 OA 
BRANCH  28  29
HETATM   29  C   UNL     4     -10.285   9.916  65.921  1.00  0.00    -0.194 C  
BRANCH  29  30
HETATM   30  C   UNL     4     -10.683  11.333  65.452  1.00  0.00    -0.227 C  
BRANCH  30  31
HETATM   31  N   UNL     4     -10.661  11.543  63.944  1.00  0.00    -0.365 N  
BRANCH  31  32
HETATM   32  C   UNL     4     -10.049  12.868  63.575  1.00  0.00     0.559 C  
HETATM   33  C   UNL     4     -10.126  13.987  64.623  1.00  0.00    -0.102 C  
ENDBRANCH  31  32
BRANCH  31  34
HETATM   34  C   UNL     4     -12.076  11.508  63.435  1.00  0.00    -0.028 C  
HETATM   35  C   UNL     4     -13.090  12.405  64.179  1.00  0.00    -0.128 C  
ENDBRANCH  31  34
BRANCH  31  36
HETATM   36  C   UNL     4      -9.830  10.470  63.273  1.00  0.00    -0.253 C  
HETATM   37  C   UNL     4      -8.322  10.755  63.105  1.00  0.00    -0.055 C  
ENDBRANCH  31  36
ENDBRANCH  30  31
ENDBRANCH  29  30
ENDBRANCH  28  29
ENDBRANCH  17  28
ENDBRANCH  11  12
ENDBRANCH  10  11
ENDBRANCH   9  10
ENDBRANCH   6   9
BRANCH   6  38
HETATM   38  C   UNL     4     -10.451  14.678  70.900  1.00  0.00     0.885 C  
HETATM   39  C   UNL     4     -11.748  15.414  71.293  1.00  0.00    -0.433 C  
ENDBRANCH   6  38
ENDBRANCH   5   6
TORSDOF 21
ENDMDL
MODEL      117
REMARK 921   NORMALIZED FREE ENERGY PREDICTED BY IDOCK:    1.22 KCAL/MOL
REMARK 922        TOTAL FREE ENERGY PREDICTED BY IDOCK:    0.40 KCAL/MOL
REMARK 923 INTER-LIGAND FREE ENERGY PREDICTED BY IDOCK:   -1.55 KCAL/MOL
REMARK 924 INTRA-LIGAND FREE ENERGY PREDICTED BY IDOCK:    1.95 KCAL/MOL
REMARK 927      BINDING AFFINITY PREDICTED BY RF-SCORE:    0.00 PKD
ROOT
HETATM    1  I   UNL     1     -12.882  11.481  63.468  1.00  0.00     1.722 I  
HETATM    2  I   UNL     2     -11.646  16.408  64.769  1.00  0.00     1.077 I  
HETATM    3  I   UNL     3     -11.222  11.000  67.105  1.00  0.00     0.071 I  
HETATM    4  C   UNL     4     -13.186  12.126  70.201  1.00  0.00     1.135 C  
HETATM    5  C   UNL     4     -13.205  13.430  71.026  1.00  0.00    -0.032 C  
ENDROOT
BRANCH   5   6
HETATM    6  N   UNL     4     -11.985  14.305  70.923  1.00  0.00    -0.334 N  
BRANCH   6   7
HETATM    7  C   UNL     4     -11.647  14.817  72.302  1.00  0.00    -0.019 C  
HETATM    8  C   UNL     4     -11.964  16.300  72.579  1.00  0.00    -0.648 C  
ENDBRANCH   6   7
BRANCH   6   9
HETATM    9  C   UNL     4     -10.859  13.492  70.344  1.00  0.00     1.270 C  
BRANCH   9  10
HETATM   10  C   UNL     4     -10.597  13.521  68.807  1.00  0.00    -0.218 C  
BRANCH  10  11
HETATM   11  O   UNL     4      -9.277  13.544  68.393  1.00  0.00    -0.195 OA 
BRANCH  11  12
HETATM   12  C   UNL     4      -8.523  14.568  67.916  1.00  0.00    -0.161 A  
HETATM   13  C   UNL     4      -8.917  15.202  66.729  1.00  0.00    -0.293 A  
HETATM   14  C   UNL     4      -8.175  16.214  66.180  1.00  0.00    -0.143 A  
HETATM   15  C   UNL     4      -7.052  16.668  66.819  1.00  0.00    -0.271 A  
HETATM   16  C   UNL     4      -6.592  16.111  68.047  1.00  0.00    -0.130 A  
HETATM   17  C   UNL     4      -7.331  15.017  68.613  1.00  0.00    -0.118 A  
BRANCH  16  18
HETATM   18  O   UNL     4      -5.481  16.655  68.664  1.00  0.00    -0.116 OA 
BRANCH  18  19
HETATM   19  C   UNL     4      -5.145  17.988  68.398  1.00  0.00    -0.157 C  
BRANCH  19  20
HETATM   20  C   UNL     4      -5.958  18.816  67.371  1.00  0.00    -0.170 C  
BRANCH  20  21
HETATM   21  N   UNL     4      -6.708  19.985  68.015  1.00  0.00    -0.269 N  
BRANCH  21  22
HETATM   22  C   UNL     4      -7.676  19.487  69.061  1.00  0.00    -0.297 C  
HETATM   23  C   UNL     4      -9.157  19.407  68.652  1.00  0.00    -0.423 C  
ENDBRANCH  21  22
BRANCH  21  24
HETATM   24  C   UNL     4      -7.509  20.719  66.965  1.00  0.00    -0.271 C  
HETATM   25  C   UNL     4      -7.484  20.150  65.530  1.00  0.00    -0.186 C  
ENDBRANCH  21  24
BRANCH  21  26
HETATM   26  C   UNL     4      -5.737  20.912  68.691  1.00  0.00    -0.352 C  
HETATM   27  C   UNL     4      -5.458  20.639  70.179  1.00  0.00    -0.359 C  
ENDBRANCH  21  26
ENDBRANCH  20  21
ENDBRANCH  19  20
ENDBRANCH  18  19
ENDBRANCH  16  18
BRANCH  17  28
HETATM   28  O   UNL     4      -6.900  14.437  69.793  1.00  0.00    -0.144 OA 
BRANCH  28  29
HETATM   29  C   UNL     4      -5.709  13.721  69.926  1.00  0.00    -0.118 C  
BRANCH  29  30
HETATM   30  C   UNL     4      -5.854  12.287  70.483  1.00  0.00    -0.118 C  
BRANCH  30  31
HETATM   31  N   UNL     4      -5.910  11.189  69.430  1.00  0.00    -0.044 N  
BRANCH  31  32
HETATM   32  C   UNL     4      -5.280   9.913  69.922  1.00  0.00    -0.037 C  
HETATM   33  C   UNL     4      -5.344   8.699  68.985  1.00  0.00    -0.036 C  
ENDBRANCH  31  32
BRANCH  31  34
HETATM   34  C   UNL     4      -5.163  11.656  68.211  1.00  0.00    -0.043 C  
HETATM   35  C   UNL     4      -6.010  12.332  67.110  1.00  0.00    -0.117 C  
ENDBRANCH  31  34
BRANCH  31  36
HETATM   36  C   UNL     4      -7.348  10.865  69.080  1.00  0.00    -0.113 C  
HETATM   37  C   UNL     4      -8.118   9.951  70.057  1.00  0.00    -0.193 C  
ENDBRANCH  31  36
ENDBRANCH  30  31
ENDBRANCH  29  30
ENDBRANCH  28  29
ENDBRANCH  17  28
ENDBRANCH  11  12
ENDBRANCH  10  11
ENDBRANCH   9  10
ENDBRANCH   6   9
BRANCH   6  38
HETATM   38  C   UNL     4     -12.246  15.495  70.037  1.00  0.00    -0.355 C  
HETATM   39  C   UNL     4     -11.016  16.340  69.644  1.00  0.00    -0.346 C  
ENDBRANCH   6  38
ENDBRANCH   5   6
TORSDOF 21
ENDMDL
MODEL      118
REMARK 921   NORMALIZED FREE ENERGY PREDICTED BY IDOCK:    1.32 KCAL/MOL
REMARK 922        TOTAL FREE ENERGY PREDICTED BY IDOCK:    0.63 KCAL/MOL
REMARK 923 INTER-LIGAND FREE ENERGY PREDICTED BY IDOCK:   -2.14 KCAL/MOL
REMARK 924 INTRA-LIGAND FREE ENERGY PREDICTED BY IDOCK:    2.77 KCAL/MOL
REMARK 927      BINDING AFFINITY PREDICTED BY RF-SCORE:    0.00 PKD
ROOT
HETATM    1  I   UNL     1      -9.832   2.760  70.860  1.00  0.00     0.491 I  
HETATM    2  I   UNL     2     -11.090   5.029  66.303  1.00  0.00     1.671 I  
HETATM    3  I   UNL     3      -6.485   4.826  69.996  1.00  0.00    -0.038 I  
HETATM    4  C   UNL     4      -6.525   8.645  70.341  1.00  0.00    -0.036 C  
HETATM    5  C   UNL     4      -6.792   9.795  69.346  1.00  0.00    -0.057 C  
ENDROOT
BRANCH   5   6
HETATM    6  N   UNL     4      -6.604   9.475  67.888  1.00  0.00    -0.062 N  
BRANCH   6   7
HETATM    7  C   UNL     4      -6.704   7.979  67.710  1.00  0.00    -0.068 C  
HETATM    8  C   UNL     4      -7.523   7.485  66.502  1.00  0.00    -0.084 C  
ENDBRANCH   6   7
BRANCH   6   9
HETATM    9  C   UNL     4      -7.660  10.198  67.097  1.00  0.00    -0.092 C  
BRANCH   9  10
HETATM   10  C   UNL     4      -7.452  11.697  66.720  1.00  0.00    -0.091 C  
BRANCH  10  11
HETATM   11  O   UNL     4      -6.893  12.518  67.684  1.00  0.00    -0.106 OA 
BRANCH  11  12
HETATM   12  C   UNL     4      -7.387  13.631  68.283  1.00  0.00    -0.119 A  
HETATM   13  C   UNL     4      -6.554  14.363  69.141  1.00  0.00    -0.112 A  
HETATM   14  C   UNL     4      -7.009  15.473  69.804  1.00  0.00    -0.132 A  
HETATM   15  C   UNL     4      -8.286  15.923  69.594  1.00  0.00     0.064 A  
HETATM   16  C   UNL     4      -9.195  15.266  68.715  1.00  0.00    -0.203 A  
HETATM   17  C   UNL     4      -8.750  14.074  68.049  1.00  0.00    -0.180 A  
BRANCH  16  18
HETATM   18  O   UNL     4     -10.451  15.808  68.510  1.00  0.00    -0.225 OA 
BRANCH  18  19
HETATM   19  C   UNL     4     -10.552  17.144  68.106  1.00  0.00    -0.380 C  
BRANCH  19  20
HETATM   20  C   UNL     4      -9.391  18.137  68.364  1.00  0.00    -0.309 C  
BRANCH  20  21
HETATM   21  N   UNL     4      -9.521  19.425  67.547  1.00  0.00    -0.305 N  
BRANCH  21  22
HETATM   22  C   UNL     4      -9.456  20.637  68.445  1.00  0.00     0.366 C  
HETATM   23  C   UNL     4     -10.090  20.499  69.841  1.00  0.00     0.580 C  
ENDBRANCH  21  22
BRANCH  21  24
HETATM   24  C   UNL     4     -10.858  19.450  66.843  1.00  0.00    -0.404 C  
HETATM   25  C   UNL     4     -10.863  19.841  65.349  1.00  0.00    -0.121 C  
ENDBRANCH  21  24
BRANCH  21  26
HETATM   26  C   UNL     4      -8.394  19.526  66.558  1.00  0.00    -0.332 C  
HETATM   27  C   UNL     4      -7.268  18.488  66.700  1.00  0.00    -0.239 C  
ENDBRANCH  21  26
ENDBRANCH  20  21
ENDBRANCH  19  20
ENDBRANCH  18  19
ENDBRANCH  16  18
BRANCH  17  28
HETATM   28  O   UNL     4      -9.614  13.398  67.205  1.00  0.00    -0.221 OA 
BRANCH  28  29
HETATM   29  C   UNL     4     -10.568  12.475  67.636  1.00  0.00    -0.217 C  
BRANCH  29  30
HETATM   30  C   UNL     4     -11.226  11.629  66.523  1.00  0.00    -0.294 C  
BRANCH  30  31
HETATM   31  N   UNL     4     -11.610  12.401  65.269  1.00  0.00    -0.359 N  
BRANCH  31  32
HETATM   32  C   UNL     4     -12.552  13.535  65.579  1.00  0.00    -0.481 C  
HETATM   33  C   UNL     4     -12.533  14.082  67.014  1.00  0.00    -0.126 C  
ENDBRANCH  31  32
BRANCH  31  34
HETATM   34  C   UNL     4     -12.291  11.458  64.315  1.00  0.00     0.516 C  
HETATM   35  C   UNL     4     -12.997  12.106  63.104  1.00  0.00    -0.010 C  
ENDBRANCH  31  34
BRANCH  31  36
HETATM   36  C   UNL     4     -10.382  13.011  64.626  1.00  0.00    -0.352 C  
HETATM   37  C   UNL     4      -9.524  12.083  63.737  1.00  0.00     0.027 C  
ENDBRANCH  31  36
ENDBRANCH  30  31
ENDBRANCH  29  30
ENDBRANCH  28  29
ENDBRANCH  17  28
ENDBRANCH  11  12
ENDBRANCH  10  11
ENDBRANCH   9  10
ENDBRANCH   6   9
BRANCH   6  38
HETATM   38  C   UNL     4      -5.242   9.908  67.411  1.00  0.00    -0.035 C  
HETATM   39  C   UNL     4      -5.164  10.466  65.975  1.00  0.00    -0.063 C  
ENDBRANCH   6  38
ENDBRANCH   5   6
TORSDOF 21
ENDMDL
MODEL      119
REMARK 921   NORMALIZED FREE ENERGY PREDICTED BY IDOCK:    1.40 KCAL/MOL
REMARK 922        TOTAL FREE ENERGY PREDICTED BY IDOCK:    0.81 KCAL/MOL
REMARK 923 INTER-LIGAND FREE ENERGY PREDICTED BY IDOCK:   -3.65 KCAL/MOL
REMARK 924 INTRA-LIGAND FREE ENERGY PREDICTED BY IDOCK:    4.46 KCAL/MOL
REMARK 927      BINDING AFFINITY PREDICTED BY RF-SCORE:    0.00 PKD
ROOT
HETATM    1  I   UNL     1      -9.196   2.639  70.227  1.00  0.00    -0.140 I  
HETATM    2  I   UNL     2     -10.720   5.255  65.945  1.00  0.00     0.556 I  
HETATM    3  I   UNL     3      -6.070   5.096  69.585  1.00  0.00    -0.024 I  
HETATM    4  C   UNL     4      -6.468   8.834  70.341  1.00  0.00    -0.041 C  
HETATM    5  C   UNL     4      -6.855  10.054  69.477  1.00  0.00    -0.071 C  
ENDROOT
BRANCH   5   6
HETATM    6  N   UNL     4      -6.655   9.913  67.993  1.00  0.00    -0.060 N  
BRANCH   6   7
HETATM    7  C   UNL     4      -6.592   8.442  67.658  1.00  0.00    -0.058 C  
HETATM    8  C   UNL     4      -7.920   7.662  67.740  1.00  0.00    -0.121 C  
ENDBRANCH   6   7
BRANCH   6   9
HETATM    9  C   UNL     4      -7.797  10.593  67.287  1.00  0.00    -0.112 C  
BRANCH   9  10
HETATM   10  C   UNL     4      -7.658  12.084  66.853  1.00  0.00    -0.060 C  
BRANCH  10  11
HETATM   11  O   UNL     4      -7.105  12.959  67.771  1.00  0.00    -0.106 OA 
BRANCH  11  12
HETATM   12  C   UNL     4      -7.614  14.089  68.324  1.00  0.00    -0.135 A  
HETATM   13  C   UNL     4      -6.783  14.882  69.129  1.00  0.00    -0.126 A  
HETATM   14  C   UNL     4      -7.252  16.012  69.745  1.00  0.00     0.056 A  
HETATM   15  C   UNL     4      -8.542  16.424  69.536  1.00  0.00     0.189 A  
HETATM   16  C   UNL     4      -9.451  15.704  68.708  1.00  0.00    -0.214 A  
HETATM   17  C   UNL     4      -8.990  14.491  68.092  1.00  0.00    -0.182 A  
BRANCH  16  18
HETATM   18  O   UNL     4     -10.722  16.207  68.499  1.00  0.00    -0.268 OA 
BRANCH  18  19
HETATM   19  C   UNL     4     -11.731  15.897  69.419  1.00  0.00    -0.343 C  
BRANCH  19  20
HETATM   20  C   UNL     4     -11.579  14.688  70.377  1.00  0.00    -0.268 C  
BRANCH  20  21
HETATM   21  N   UNL     4     -12.606  14.701  71.512  1.00  0.00    -0.324 N  
BRANCH  21  22
HETATM   22  C   UNL     4     -13.371  13.400  71.557  1.00  0.00    -0.265 C  
HETATM   23  C   UNL     4     -12.583  12.122  71.222  1.00  0.00    -0.341 C  
ENDBRANCH  21  22
BRANCH  21  24
HETATM   24  C   UNL     4     -13.607  15.810  71.283  1.00  0.00    -0.055 C  
HETATM   25  C   UNL     4     -14.319  16.388  72.526  1.00  0.00     0.993 C  
ENDBRANCH  21  24
BRANCH  21  26
HETATM   26  C   UNL     4     -11.913  14.872  72.835  1.00  0.00    -0.222 C  
HETATM   27  C   UNL     4     -11.676  16.319  73.298  1.00  0.00    -0.241 C  
ENDBRANCH  21  26
ENDBRANCH  20  21
ENDBRANCH  19  20
ENDBRANCH  18  19
ENDBRANCH  16  18
BRANCH  17  28
HETATM   28  O   UNL     4      -9.853  13.755  67.299  1.00  0.00    -0.233 OA 
BRANCH  28  29
HETATM   29  C   UNL     4     -10.751  12.805  67.789  1.00  0.00    -0.220 C  
BRANCH  29  30
HETATM   30  C   UNL     4     -11.238  11.759  66.762  1.00  0.00    -0.328 C  
BRANCH  30  31
HETATM   31  N   UNL     4     -11.510  12.303  65.367  1.00  0.00    -0.345 N  
BRANCH  31  32
HETATM   32  C   UNL     4     -12.393  13.522  65.407  1.00  0.00    -0.478 C  
HETATM   33  C   UNL     4     -11.749  14.861  65.018  1.00  0.00    -0.329 C  
ENDBRANCH  31  32
BRANCH  31  34
HETATM   34  C   UNL     4     -12.200  11.236  64.562  1.00  0.00     0.888 C  
HETATM   35  C   UNL     4     -13.131  11.729  63.432  1.00  0.00    -0.003 C  
ENDBRANCH  31  34
BRANCH  31  36
HETATM   36  C   UNL     4     -10.216  12.717  64.699  1.00  0.00    -0.294 C  
HETATM   37  C   UNL     4      -9.749  11.871  63.493  1.00  0.00    -0.287 C  
ENDBRANCH  31  36
ENDBRANCH  30  31
ENDBRANCH  29  30
ENDBRANCH  28  29
ENDBRANCH  17  28
ENDBRANCH  11  12
ENDBRANCH  10  11
ENDBRANCH   9  10
ENDBRANCH   6   9
BRANCH   6  38
HETATM   38  C   UNL     4      -5.357  10.542  67.559  1.00  0.00    -0.040 C  
HETATM   39  C   UNL     4      -5.463  11.718  66.566  1.00  0.00     0.008 C  
ENDBRANCH   6  38
ENDBRANCH   5   6
TORSDOF 21
ENDMDL
MODEL      120
REMARK 921   NORMALIZED FREE ENERGY PREDICTED BY IDOCK:    1.73 KCAL/MOL
REMARK 922        TOTAL FREE ENERGY PREDICTED BY IDOCK:    1.54 KCAL/MOL
REMARK 923 INTER-LIGAND FREE ENERGY PREDICTED BY IDOCK:   -3.38 KCAL/MOL
REMARK 924 INTRA-LIGAND FREE ENERGY PREDICTED BY IDOCK:    4.92 KCAL/MOL
REMARK 927      BINDING AFFINITY PREDICTED BY RF-SCORE:    0.00 PKD
ROOT
HETATM    1  I   UNL     1      -9.447  19.936  66.581  1.00  0.00    -0.556 I  
HETATM    2  I   UNL     2      -5.554  16.559  67.548  1.00  0.00    -0.158 I  
HETATM    3  I   UNL     3     -10.943  16.490  65.131  1.00  0.00     0.308 I  
HETATM    4  C   UNL     4     -12.072  13.780  67.598  1.00  0.00    -0.333 C  
HETATM    5  C   UNL     4     -11.375  12.542  68.204  1.00  0.00    -0.295 C  
ENDROOT
BRANCH   5   6
HETATM    6  N   UNL     4     -10.199  11.996  67.440  1.00  0.00    -0.199 N  
BRANCH   6   7
HETATM    7  C   UNL     4     -10.254  12.535  66.031  1.00  0.00    -0.251 C  
HETATM    8  C   UNL     4     -10.954  11.646  64.984  1.00  0.00    -0.334 C  
ENDBRANCH   6   7
BRANCH   6   9
HETATM    9  C   UNL     4      -8.935  12.412  68.142  1.00  0.00    -0.196 C  
BRANCH   9  10
HETATM   10  C   UNL     4      -7.707  11.450  68.155  1.00  0.00    -0.118 C  
BRANCH  10  11
HETATM   11  O   UNL     4      -7.297  10.969  69.386  1.00  0.00    -0.124 OA 
BRANCH  11  12
HETATM   12  C   UNL     4      -7.406   9.728  69.924  1.00  0.00    -0.134 A  
HETATM   13  C   UNL     4      -8.406   9.490  70.879  1.00  0.00     0.019 A  
HETATM   14  C   UNL     4      -8.539   8.269  71.485  1.00  0.00    -0.197 A  
HETATM   15  C   UNL     4      -7.723   7.229  71.124  1.00  0.00    -0.092 A  
HETATM   16  C   UNL     4      -6.702   7.364  70.139  1.00  0.00    -0.050 A  
HETATM   17  C   UNL     4      -6.517   8.650  69.527  1.00  0.00    -0.040 A  
BRANCH  16  18
HETATM   18  O   UNL     4      -5.952   6.258  69.785  1.00  0.00    -0.017 OA 
BRANCH  18  19
HETATM   19  C   UNL     4      -6.559   4.996  69.803  1.00  0.00    -0.036 C  
BRANCH  19  20
HETATM   20  C   UNL     4      -7.122   4.373  68.501  1.00  0.00    -0.052 C  
BRANCH  20  21
HETATM   21  N   UNL     4      -8.636   4.152  68.558  1.00  0.00    -0.091 N  
BRANCH  21  22
HETATM   22  C   UNL     4      -9.155   3.659  67.229  1.00  0.00    -0.169 C  
HETATM   23  C   UNL     4      -9.710   2.225  67.191  1.00  0.00     0.404 C  
ENDBRANCH  21  22
BRANCH  21  24
HETATM   24  C   UNL     4      -9.331   5.459  68.862  1.00  0.00    -0.127 C  
HETATM   25  C   UNL     4     -10.378   5.455  69.998  1.00  0.00    -0.366 C  
ENDBRANCH  21  24
BRANCH  21  26
HETATM   26  C   UNL     4      -8.969   3.116  69.594  1.00  0.00    -0.105 C  
HETATM   27  C   UNL     4      -8.221   3.227  70.934  1.00  0.00    -0.081 C  
ENDBRANCH  21  26
ENDBRANCH  20  21
ENDBRANCH  19  20
ENDBRANCH  18  19
ENDBRANCH  16  18
BRANCH  17  28
HETATM   28  O   UNL     4      -5.520   8.822  68.583  1.00  0.00    -0.036 OA 
BRANCH  28  29
HETATM   29  C   UNL     4      -5.447   8.115  67.382  1.00  0.00    -0.037 C  
BRANCH  29  30
HETATM   30  C   UNL     4      -6.588   8.389  66.378  1.00  0.00    -0.058 C  
BRANCH  30  31
HETATM   31  N   UNL     4      -7.190   7.149  65.732  1.00  0.00    -0.072 N  
BRANCH  31  32
HETATM   32  C   UNL     4      -7.491   7.371  64.273  1.00  0.00    -0.098 C  
HETATM   33  C   UNL     4      -8.939   7.724  63.907  1.00  0.00     1.094 C  
ENDBRANCH  31  32
BRANCH  31  34
HETATM   34  C   UNL     4      -8.473   6.815  66.442  1.00  0.00    -0.126 C  
HETATM   35  C   UNL     4      -8.849   7.721  67.635  1.00  0.00    -0.128 C  
ENDBRANCH  31  34
BRANCH  31  36
HETATM   36  C   UNL     4      -6.222   5.987  65.813  1.00  0.00    -0.037 C  
HETATM   37  C   UNL     4      -5.128   5.911  64.726  1.00  0.00    -0.013 C  
ENDBRANCH  31  36
ENDBRANCH  30  31
ENDBRANCH  29  30
ENDBRANCH  28  29
ENDBRANCH  17  28
ENDBRANCH  11  12
ENDBRANCH  10  11
ENDBRANCH   9  10
ENDBRANCH   6   9
BRANCH   6  38
HETATM   38  C   UNL     4     -10.254  10.493  67.364  1.00  0.00    -0.211 C  
HETATM   39  C   UNL     4     -10.258   9.877  65.950  1.00  0.00    -0.264 C  
ENDBRANCH   6  38
ENDBRANCH   5   6
TORSDOF 21
ENDMDL
MODEL      121
REMARK 921   NORMALIZED FREE ENERGY PREDICTED BY IDOCK:    1.97 KCAL/MOL
REMARK 922        TOTAL FREE ENERGY PREDICTED BY IDOCK:    2.06 KCAL/MOL
REMARK 923 INTER-LIGAND FREE ENERGY PREDICTED BY IDOCK:    2.34 KCAL/MOL
REMARK 924 INTRA-LIGAND FREE ENERGY PREDICTED BY IDOCK:   -0.28 KCAL/MOL
REMARK 927      BINDING AFFINITY PREDICTED BY RF-SCORE:    0.00 PKD
ROOT
HETATM    1  I   UNL     1     -13.376  11.249  70.942  1.00  0.00     1.139 I  
HETATM    2  I   UNL     2     -12.604  14.417  66.835  1.00  0.00     1.382 I  
HETATM    3  I   UNL     3      -9.508  10.556  70.060  1.00  0.00     1.085 I  
HETATM    4  C   UNL     4      -6.909  13.252  70.888  1.00  0.00     1.911 C  
HETATM    5  C   UNL     4      -6.283  14.405  70.074  1.00  0.00    -0.158 C  
ENDROOT
BRANCH   5   6
HETATM    6  N   UNL     4      -6.331  14.268  68.577  1.00  0.00    -0.086 N  
BRANCH   6   7
HETATM    7  C   UNL     4      -5.145  14.998  67.993  1.00  0.00    -0.110 C  
HETATM    8  C   UNL     4      -5.415  16.409  67.434  1.00  0.00    -0.165 C  
ENDBRANCH   6   7
BRANCH   6   9
HETATM    9  C   UNL     4      -6.307  12.805  68.226  1.00  0.00    -0.078 C  
BRANCH   9  10
HETATM   10  C   UNL     4      -5.979  11.752  69.329  1.00  0.00    -0.077 C  
BRANCH  10  11
HETATM   11  O   UNL     4      -5.715  10.461  68.908  1.00  0.00    -0.041 OA 
BRANCH  11  12
HETATM   12  C   UNL     4      -5.747   9.290  69.594  1.00  0.00    -0.033 A  
HETATM   13  C   UNL     4      -5.189   9.244  70.880  1.00  0.00    -0.030 A  
HETATM   14  C   UNL     4      -5.157   8.082  71.604  1.00  0.00    -0.034 A  
HETATM   15  C   UNL     4      -5.728   6.942  71.101  1.00  0.00    -0.028 A  
HETATM   16  C   UNL     4      -6.350   6.900  69.819  1.00  0.00    -0.039 A  
HETATM   17  C   UNL     4      -6.350   8.097  69.026  1.00  0.00    -0.040 A  
BRANCH  16  18
HETATM   18  O   UNL     4      -6.953   5.729  69.398  1.00  0.00    -0.059 OA 
BRANCH  18  19
HETATM   19  C   UNL     4      -8.351   5.661  69.373  1.00  0.00    -0.107 C  
BRANCH  19  20
HETATM   20  C   UNL     4      -9.117   4.780  70.392  1.00  0.00    -0.119 C  
BRANCH  20  21
HETATM   21  N   UNL     4      -9.614   5.573  71.604  1.00  0.00    -0.150 N  
BRANCH  21  22
HETATM   22  C   UNL     4     -10.209   6.892  71.172  1.00  0.00    -0.195 C  
HETATM   23  C   UNL     4     -11.450   6.827  70.264  1.00  0.00    -0.414 C  
ENDBRANCH  21  22
BRANCH  21  24
HETATM   24  C   UNL     4      -8.456   5.877  72.525  1.00  0.00    -0.116 C  
HETATM   25  C   UNL     4      -8.347   7.316  73.075  1.00  0.00    -0.134 C  
ENDBRANCH  21  24
BRANCH  21  26
HETATM   26  C   UNL     4     -10.682   4.801  72.325  1.00  0.00    -0.115 C  
HETATM   27  C   UNL     4     -10.471   3.281  72.429  1.00  0.00    -0.086 C  
ENDBRANCH  21  26
ENDBRANCH  20  21
ENDBRANCH  19  20
ENDBRANCH  18  19
ENDBRANCH  16  18
BRANCH  17  28
HETATM   28  O   UNL     4      -6.925   8.085  67.768  1.00  0.00    -0.074 OA 
BRANCH  28  29
HETATM   29  C   UNL     4      -6.291   8.541  66.611  1.00  0.00    -0.059 C  
BRANCH  29  30
HETATM   30  C   UNL     4      -6.919   8.074  65.279  1.00  0.00    -0.063 C  
BRANCH  30  31
HETATM   31  N   UNL     4      -7.484   9.187  64.408  1.00  0.00    -0.099 N  
BRANCH  31  32
HETATM   32  C   UNL     4      -7.433   8.830  62.946  1.00  0.00    -0.101 C  
HETATM   33  C   UNL     4      -8.604   8.006  62.390  1.00  0.00     0.005 C  
ENDBRANCH  31  32
BRANCH  31  34
HETATM   34  C   UNL     4      -6.667  10.430  64.629  1.00  0.00    -0.022 C  
HETATM   35  C   UNL     4      -5.674  10.802  63.505  1.00  0.00     0.006 C  
ENDBRANCH  31  34
BRANCH  31  36
HETATM   36  C   UNL     4      -8.938   9.441  64.751  1.00  0.00    -0.194 C  
HETATM   37  C   UNL     4      -9.303  10.858  65.244  1.00  0.00    -0.246 C  
ENDBRANCH  31  36
ENDBRANCH  30  31
ENDBRANCH  29  30
ENDBRANCH  28  29
ENDBRANCH  17  28
ENDBRANCH  11  12
ENDBRANCH  10  11
ENDBRANCH   9  10
ENDBRANCH   6   9
BRANCH   6  38
HETATM   38  C   UNL     4      -7.581  14.894  68.016  1.00  0.00    -0.122 C  
HETATM   39  C   UNL     4      -8.123  14.288  66.705  1.00  0.00     0.210 C  
ENDBRANCH   6  38
ENDBRANCH   5   6
TORSDOF 21
ENDMDL
MODEL      122
REMARK 921   NORMALIZED FREE ENERGY PREDICTED BY IDOCK:    2.15 KCAL/MOL
REMARK 922        TOTAL FREE ENERGY PREDICTED BY IDOCK:    2.48 KCAL/MOL
REMARK 923 INTER-LIGAND FREE ENERGY PREDICTED BY IDOCK:   -4.23 KCAL/MOL
REMARK 924 INTRA-LIGAND FREE ENERGY PREDICTED BY IDOCK:    6.70 KCAL/MOL
REMARK 927      BINDING AFFINITY PREDICTED BY RF-SCORE:    0.00 PKD
ROOT
HETATM    1  I   UNL     1      -5.125   8.263  67.549  1.00  0.00    -0.035 I  
HETATM    2  I   UNL     2     -10.334   7.663  67.442  1.00  0.00    -0.350 I  
HETATM    3  I   UNL     3      -6.380  11.966  66.583  1.00  0.00     0.677 I  
HETATM    4  C   UNL     4      -8.055  14.116  69.281  1.00  0.00     0.229 C  
HETATM    5  C   UNL     4      -9.526  14.354  69.683  1.00  0.00     0.530 C  
ENDROOT
BRANCH   5   6
HETATM    6  N   UNL     4     -10.562  14.062  68.631  1.00  0.00    -0.253 N  
BRANCH   6   7
HETATM    7  C   UNL     4     -11.900  14.550  69.130  1.00  0.00    -0.319 C  
HETATM    8  C   UNL     4     -12.019  16.061  69.411  1.00  0.00    -0.188 C  
ENDBRANCH   6   7
BRANCH   6   9
HETATM    9  C   UNL     4     -10.161  14.753  67.356  1.00  0.00    -0.236 C  
BRANCH   9  10
HETATM   10  C   UNL     4      -9.697  13.907  66.132  1.00  0.00    -0.272 C  
BRANCH  10  11
HETATM   11  O   UNL     4      -9.644  12.534  66.298  1.00  0.00    -0.246 OA 
BRANCH  11  12
HETATM   12  C   UNL     4      -9.447  11.546  65.388  1.00  0.00    -0.198 A  
HETATM   13  C   UNL     4      -9.890  11.742  64.072  1.00  0.00    -0.265 A  
HETATM   14  C   UNL     4      -9.755  10.766  63.120  1.00  0.00    -0.394 A  
HETATM   15  C   UNL     4      -9.126   9.588  63.427  1.00  0.00    -0.145 A  
HETATM   16  C   UNL     4      -8.612   9.312  64.727  1.00  0.00    -0.184 A  
HETATM   17  C   UNL     4      -8.788  10.305  65.750  1.00  0.00    -0.161 A  
BRANCH  16  18
HETATM   18  O   UNL     4      -7.941   8.124  64.952  1.00  0.00    -0.129 OA 
BRANCH  18  19
HETATM   19  C   UNL     4      -8.403   6.959  64.328  1.00  0.00     0.143 C  
BRANCH  19  20
HETATM   20  C   UNL     4      -8.697   5.683  65.157  1.00  0.00    -0.093 C  
BRANCH  20  21
HETATM   21  N   UNL     4      -7.794   4.508  64.776  1.00  0.00    -0.085 N  
BRANCH  21  22
HETATM   22  C   UNL     4      -7.291   3.798  66.009  1.00  0.00    -0.072 C  
HETATM   23  C   UNL     4      -6.105   4.444  66.746  1.00  0.00    -0.031 C  
ENDBRANCH  21  22
BRANCH  21  24
HETATM   24  C   UNL     4      -6.589   5.014  64.019  1.00  0.00    -0.041 C  
HETATM   25  C   UNL     4      -6.208   4.275  62.717  1.00  0.00    -0.018 C  
ENDBRANCH  21  24
BRANCH  21  26
HETATM   26  C   UNL     4      -8.562   3.512  63.953  1.00  0.00    -0.090 C  
HETATM   27  C   UNL     4     -10.094   3.632  63.992  1.00  0.00    -0.207 C  
ENDBRANCH  21  26
ENDBRANCH  20  21
ENDBRANCH  19  20
ENDBRANCH  18  19
ENDBRANCH  16  18
BRANCH  17  28
HETATM   28  O   UNL     4      -8.321  10.060  67.029  1.00  0.00    -0.120 OA 
BRANCH  28  29
HETATM   29  C   UNL     4      -9.137   9.970  68.158  1.00  0.00    -0.121 C  
BRANCH  29  30
HETATM   30  C   UNL     4      -8.435  10.234  69.509  1.00  0.00    -0.142 C  
BRANCH  30  31
HETATM   31  N   UNL     4      -8.101   8.987  70.316  1.00  0.00    -0.119 N  
BRANCH  31  32
HETATM   32  C   UNL     4      -9.029   8.817  71.489  1.00  0.00    -0.236 C  
HETATM   33  C   UNL     4     -10.435   9.421  71.357  1.00  0.00    -0.358 C  
ENDBRANCH  31  32
BRANCH  31  34
HETATM   34  C   UNL     4      -6.693   9.113  70.831  1.00  0.00    -0.087 C  
HETATM   35  C   UNL     4      -6.051  10.514  70.726  1.00  0.00    -0.042 C  
ENDBRANCH  31  34
BRANCH  31  36
HETATM   36  C   UNL     4      -8.242   7.748  69.457  1.00  0.00    -0.128 C  
HETATM   37  C   UNL     4      -7.280   6.577  69.754  1.00  0.00    -0.078 C  
ENDBRANCH  31  36
ENDBRANCH  30  31
ENDBRANCH  29  30
ENDBRANCH  28  29
ENDBRANCH  17  28
ENDBRANCH  11  12
ENDBRANCH  10  11
ENDBRANCH   9  10
ENDBRANCH   6   9
BRANCH   6  38
HETATM   38  C   UNL     4     -10.674  12.580  68.379  1.00  0.00    -0.240 C  
HETATM   39  C   UNL     4     -12.073  11.958  68.559  1.00  0.00    -0.122 C  
ENDBRANCH   6  38
ENDBRANCH   5   6
TORSDOF 21
ENDMDL
MODEL      123
REMARK 921   NORMALIZED FREE ENERGY PREDICTED BY IDOCK:    2.30 KCAL/MOL
REMARK 922        TOTAL FREE ENERGY PREDICTED BY IDOCK:    2.80 KCAL/MOL
REMARK 923 INTER-LIGAND FREE ENERGY PREDICTED BY IDOCK:    0.64 KCAL/MOL
REMARK 924 INTRA-LIGAND FREE ENERGY PREDICTED BY IDOCK:    2.16 KCAL/MOL
REMARK 927      BINDING AFFINITY PREDICTED BY RF-SCORE:    0.00 PKD
ROOT
HETATM    1  I   UNL     1     -10.175   2.921  71.235  1.00  0.00     1.045 I  
HETATM    2  I   UNL     2     -11.161   5.244  66.638  1.00  0.00     1.498 I  
HETATM    3  I   UNL     3      -6.728   4.877  70.524  1.00  0.00    -0.038 I  
HETATM    4  C   UNL     4      -6.657   8.694  70.884  1.00  0.00    -0.049 C  
HETATM    5  C   UNL     4      -6.843   9.856  69.884  1.00  0.00    -0.096 C  
ENDROOT
BRANCH   5   6
HETATM    6  N   UNL     4      -6.602   9.535  68.434  1.00  0.00    -0.053 N  
BRANCH   6   7
HETATM    7  C   UNL     4      -6.711   8.040  68.252  1.00  0.00    -0.067 C  
HETATM    8  C   UNL     4      -7.002   7.542  66.822  1.00  0.00    -0.078 C  
ENDBRANCH   6   7
BRANCH   6   9
HETATM    9  C   UNL     4      -7.620  10.269  67.604  1.00  0.00    -0.090 C  
BRANCH   9  10
HETATM   10  C   UNL     4      -7.399  11.774  67.265  1.00  0.00    -0.141 C  
BRANCH  10  11
HETATM   11  O   UNL     4      -6.869  12.574  68.262  1.00  0.00    -0.069 OA 
BRANCH  11  12
HETATM   12  C   UNL     4      -7.391  13.661  68.887  1.00  0.00    -0.060 A  
HETATM   13  C   UNL     4      -6.597  14.356  69.810  1.00  0.00    -0.142 A  
HETATM   14  C   UNL     4      -7.083  15.436  70.499  1.00  0.00     0.596 A  
HETATM   15  C   UNL     4      -8.350  15.894  70.254  1.00  0.00     1.297 A  
HETATM   16  C   UNL     4      -9.219  15.275  69.310  1.00  0.00    -0.233 A  
HETATM   17  C   UNL     4      -8.743  14.113  68.612  1.00  0.00    -0.126 A  
BRANCH  16  18
HETATM   18  O   UNL     4     -10.466  15.825  69.074  1.00  0.00    -0.204 OA 
BRANCH  18  19
HETATM   19  C   UNL     4     -10.546  17.076  68.451  1.00  0.00    -0.375 C  
BRANCH  19  20
HETATM   20  C   UNL     4      -9.337  18.045  68.468  1.00  0.00    -0.304 C  
BRANCH  20  21
HETATM   21  N   UNL     4      -8.647  18.154  67.106  1.00  0.00    -0.243 N  
BRANCH  21  22
HETATM   22  C   UNL     4      -9.659  18.083  65.987  1.00  0.00    -0.070 C  
HETATM   23  C   UNL     4     -10.486  19.352  65.720  1.00  0.00    -0.478 C  
ENDBRANCH  21  22
BRANCH  21  24
HETATM   24  C   UNL     4      -7.686  17.003  66.926  1.00  0.00    -0.216 C  
HETATM   25  C   UNL     4      -6.246  17.345  66.487  1.00  0.00    -0.251 C  
ENDBRANCH  21  24
BRANCH  21  26
HETATM   26  C   UNL     4      -7.931  19.471  66.994  1.00  0.00    -0.268 C  
HETATM   27  C   UNL     4      -7.774  20.274  68.296  1.00  0.00    -0.116 C  
ENDBRANCH  21  26
ENDBRANCH  20  21
ENDBRANCH  19  20
ENDBRANCH  18  19
ENDBRANCH  16  18
BRANCH  17  28
HETATM   28  O   UNL     4      -9.569  13.474  67.704  1.00  0.00    -0.210 OA 
BRANCH  28  29
HETATM   29  C   UNL     4     -10.329  12.340  67.998  1.00  0.00    -0.214 C  
BRANCH  29  30
HETATM   30  C   UNL     4     -10.819  11.532  66.776  1.00  0.00    -0.282 C  
BRANCH  30  31
HETATM   31  N   UNL     4     -11.312  12.371  65.605  1.00  0.00    -0.332 N  
BRANCH  31  32
HETATM   32  C   UNL     4     -12.117  11.550  64.633  1.00  0.00     0.283 C  
HETATM   33  C   UNL     4     -11.397  11.072  63.363  1.00  0.00     0.449 C  
ENDBRANCH  31  32
BRANCH  31  34
HETATM   34  C   UNL     4     -10.120  12.937  64.885  1.00  0.00    -0.208 C  
HETATM   35  C   UNL     4      -9.954  14.472  64.942  1.00  0.00    -0.108 C  
ENDBRANCH  31  34
BRANCH  31  36
HETATM   36  C   UNL     4     -12.214  13.485  66.095  1.00  0.00    -0.433 C  
HETATM   37  C   UNL     4     -13.577  13.645  65.387  1.00  0.00     1.126 C  
ENDBRANCH  31  36
ENDBRANCH  30  31
ENDBRANCH  29  30
ENDBRANCH  28  29
ENDBRANCH  17  28
ENDBRANCH  11  12
ENDBRANCH  10  11
ENDBRANCH   9  10
ENDBRANCH   6   9
BRANCH   6  38
HETATM   38  C   UNL     4      -5.219   9.953  68.009  1.00  0.00    -0.039 C  
HETATM   39  C   UNL     4      -5.126  10.829  66.744  1.00  0.00    -0.053 C  
ENDBRANCH   6  38
ENDBRANCH   5   6
TORSDOF 21
ENDMDL
MODEL      124
REMARK 921   NORMALIZED FREE ENERGY PREDICTED BY IDOCK:    2.51 KCAL/MOL
REMARK 922        TOTAL FREE ENERGY PREDICTED BY IDOCK:    3.26 KCAL/MOL
REMARK 923 INTER-LIGAND FREE ENERGY PREDICTED BY IDOCK:   -0.91 KCAL/MOL
REMARK 924 INTRA-LIGAND FREE ENERGY PREDICTED BY IDOCK:    4.17 KCAL/MOL
REMARK 927      BINDING AFFINITY PREDICTED BY RF-SCORE:    0.00 PKD
ROOT
HETATM    1  I   UNL     1     -14.034   9.748  71.442  1.00  0.00     0.545 I  
HETATM    2  I   UNL     2      -9.462   9.458  68.890  1.00  0.00    -0.176 I  
HETATM    3  I   UNL     3     -12.992   5.901  72.018  1.00  0.00     1.811 I  
HETATM    4  C   UNL     4     -10.128   5.102  74.439  1.00  0.00    -0.270 C  
HETATM    5  C   UNL     4      -8.613   4.875  74.250  1.00  0.00    -0.110 C  
ENDROOT
BRANCH   5   6
HETATM    6  N   UNL     4      -8.165   4.470  72.872  1.00  0.00    -0.095 N  
BRANCH   6   7
HETATM    7  C   UNL     4      -8.066   2.965  72.825  1.00  0.00    -0.067 C  
HETATM    8  C   UNL     4      -8.383   2.215  74.134  1.00  0.00    -0.058 C  
ENDBRANCH   6   7
BRANCH   6   9
HETATM    9  C   UNL     4      -9.161   4.991  71.871  1.00  0.00    -0.137 C  
BRANCH   9  10
HETATM   10  C   UNL     4      -9.560   4.108  70.649  1.00  0.00    -0.194 C  
BRANCH  10  11
HETATM   11  O   UNL     4      -8.536   3.659  69.834  1.00  0.00    -0.055 OA 
BRANCH  11  12
HETATM   12  C   UNL     4      -8.496   3.486  68.488  1.00  0.00    -0.083 A  
HETATM   13  C   UNL     4      -9.091   2.344  67.935  1.00  0.00    -0.226 A  
HETATM   14  C   UNL     4      -9.048   2.096  66.588  1.00  0.00    -0.082 A  
HETATM   15  C   UNL     4      -8.463   3.001  65.741  1.00  0.00    -0.110 A  
HETATM   16  C   UNL     4      -7.863   4.207  66.206  1.00  0.00    -0.094 A  
HETATM   17  C   UNL     4      -7.857   4.459  67.620  1.00  0.00    -0.085 A  
BRANCH  16  18
HETATM   18  O   UNL     4      -7.339   5.100  65.289  1.00  0.00    -0.066 OA 
BRANCH  18  19
HETATM   19  C   UNL     4      -8.043   6.278  65.016  1.00  0.00    -0.136 C  
BRANCH  19  20
HETATM   20  C   UNL     4      -7.570   7.239  63.895  1.00  0.00    -0.110 C  
BRANCH  20  21
HETATM   21  N   UNL     4      -8.031   8.681  64.118  1.00  0.00    -0.142 N  
BRANCH  21  22
HETATM   22  C   UNL     4      -8.152   9.413  62.804  1.00  0.00    -0.142 C  
HETATM   23  C   UNL     4      -9.522  10.032  62.479  1.00  0.00    -0.232 C  
ENDBRANCH  21  22
BRANCH  21  24
HETATM   24  C   UNL     4      -7.015   9.418  64.959  1.00  0.00    -0.096 C  
HETATM   25  C   UNL     4      -5.842  10.096  64.219  1.00  0.00    -0.139 C  
ENDBRANCH  21  24
BRANCH  21  26
HETATM   26  C   UNL     4      -9.382   8.695  64.778  1.00  0.00     0.581 C  
HETATM   27  C   UNL     4      -9.785  10.004  65.477  1.00  0.00    -0.355 C  
ENDBRANCH  21  26
ENDBRANCH  20  21
ENDBRANCH  19  20
ENDBRANCH  18  19
ENDBRANCH  16  18
BRANCH  17  28
HETATM   28  O   UNL     4      -7.262   5.610  68.108  1.00  0.00    -0.069 OA 
BRANCH  28  29
HETATM   29  C   UNL     4      -7.929   6.579  68.859  1.00  0.00    -0.111 C  
BRANCH  29  30
HETATM   30  C   UNL     4      -7.275   7.978  68.871  1.00  0.00    -0.075 C  
BRANCH  30  31
HETATM   31  N   UNL     4      -5.759   7.980  69.002  1.00  0.00    -0.033 N  
BRANCH  31  32
HETATM   32  C   UNL     4      -5.307   7.270  70.251  1.00  0.00    -0.023 C  
HETATM   33  C   UNL     4      -5.228   8.106  71.536  1.00  0.00    -0.033 C  
ENDBRANCH  31  32
BRANCH  31  34
HETATM   34  C   UNL     4      -5.284   9.406  69.060  1.00  0.00    -0.037 C  
HETATM   35  C   UNL     4      -6.301  10.442  69.589  1.00  0.00    -0.068 C  
ENDBRANCH  31  34
BRANCH  31  36
HETATM   36  C   UNL     4      -5.126   7.258  67.830  1.00  0.00    -0.020 C  
HETATM   37  C   UNL     4      -5.447   7.798  66.419  1.00  0.00    -0.025 C  
ENDBRANCH  31  36
ENDBRANCH  30  31
ENDBRANCH  29  30
ENDBRANCH  28  29
ENDBRANCH  17  28
ENDBRANCH  11  12
ENDBRANCH  10  11
ENDBRANCH   9  10
ENDBRANCH   6   9
BRANCH   6  38
HETATM   38  C   UNL     4      -6.804   5.034  72.558  1.00  0.00    -0.070 C  
HETATM   39  C   UNL     4      -5.697   4.774  73.600  1.00  0.00    -0.017 C  
ENDBRANCH   6  38
ENDBRANCH   5   6
TORSDOF 21
ENDMDL
MODEL      125
REMARK 921   NORMALIZED FREE ENERGY PREDICTED BY IDOCK:    2.51 KCAL/MOL
REMARK 922        TOTAL FREE ENERGY PREDICTED BY IDOCK:    3.26 KCAL/MOL
REMARK 923 INTER-LIGAND FREE ENERGY PREDICTED BY IDOCK:    1.35 KCAL/MOL
REMARK 924 INTRA-LIGAND FREE ENERGY PREDICTED BY IDOCK:    1.91 KCAL/MOL
REMARK 927      BINDING AFFINITY PREDICTED BY RF-SCORE:    0.00 PKD
ROOT
HETATM    1  I   UNL     1     -13.050  12.737  70.371  1.00  0.00     1.294 I  
HETATM    2  I   UNL     2     -12.844  15.195  65.744  1.00  0.00     1.963 I  
HETATM    3  I   UNL     3      -9.121  12.572  69.506  1.00  0.00     2.672 I  
HETATM    4  C   UNL     4      -7.033  15.779  69.758  1.00  0.00    -0.097 C  
HETATM    5  C   UNL     4      -6.618  16.856  68.732  1.00  0.00    -0.184 C  
ENDROOT
BRANCH   5   6
HETATM    6  N   UNL     4      -6.641  16.445  67.285  1.00  0.00    -0.171 N  
BRANCH   6   7
HETATM    7  C   UNL     4      -5.458  17.074  66.591  1.00  0.00    -0.133 C  
HETATM    8  C   UNL     4      -5.774  18.010  65.408  1.00  0.00    -0.138 C  
ENDBRANCH   6   7
BRANCH   6   9
HETATM    9  C   UNL     4      -6.592  14.943  67.211  1.00  0.00     0.154 C  
BRANCH   9  10
HETATM   10  C   UNL     4      -6.320  14.115  68.504  1.00  0.00    -0.093 C  
BRANCH  10  11
HETATM   11  O   UNL     4      -5.903  12.806  68.339  1.00  0.00    -0.055 OA 
BRANCH  11  12
HETATM   12  C   UNL     4      -5.811  11.793  69.238  1.00  0.00    -0.070 A  
HETATM   13  C   UNL     4      -5.294  12.066  70.512  1.00  0.00    -0.143 A  
HETATM   14  C   UNL     4      -5.141  11.076  71.448  1.00  0.00    -0.076 A  
HETATM   15  C   UNL     4      -5.548   9.798  71.169  1.00  0.00    -0.074 A  
HETATM   16  C   UNL     4      -6.116   9.432  69.915  1.00  0.00    -0.039 A  
HETATM   17  C   UNL     4      -6.240  10.446  68.906  1.00  0.00    -0.043 A  
BRANCH  16  18
HETATM   18  O   UNL     4      -6.555   8.135  69.723  1.00  0.00    -0.036 OA 
BRANCH  18  19
HETATM   19  C   UNL     4      -7.931   7.891  69.647  1.00  0.00    -0.118 C  
BRANCH  19  20
HETATM   20  C   UNL     4      -8.499   6.477  69.932  1.00  0.00    -0.135 C  
BRANCH  20  21
HETATM   21  N   UNL     4      -8.624   6.181  71.429  1.00  0.00    -0.128 N  
BRANCH  21  22
HETATM   22  C   UNL     4     -10.052   5.848  71.790  1.00  0.00    -0.187 C  
HETATM   23  C   UNL     4     -11.154   6.593  71.016  1.00  0.00    -0.330 C  
ENDBRANCH  21  22
BRANCH  21  24
HETATM   24  C   UNL     4      -8.225   7.400  72.226  1.00  0.00    -0.101 C  
HETATM   25  C   UNL     4      -8.068   7.227  73.753  1.00  0.00    -0.147 C  
ENDBRANCH  21  24
BRANCH  21  26
HETATM   26  C   UNL     4      -7.771   4.999  71.795  1.00  0.00    -0.107 C  
HETATM   27  C   UNL     4      -6.768   4.526  70.729  1.00  0.00    -0.035 C  
ENDBRANCH  21  26
ENDBRANCH  20  21
ENDBRANCH  19  20
ENDBRANCH  18  19
ENDBRANCH  16  18
BRANCH  17  28
HETATM   28  O   UNL     4      -6.768  10.121  67.669  1.00  0.00    -0.073 OA 
BRANCH  28  29
HETATM   29  C   UNL     4      -6.194  10.488  66.450  1.00  0.00    -0.095 C  
BRANCH  29  30
HETATM   30  C   UNL     4      -6.637   9.654  65.228  1.00  0.00    -0.087 C  
BRANCH  30  31
HETATM   31  N   UNL     4      -8.141   9.454  65.095  1.00  0.00    -0.121 N  
BRANCH  31  32
HETATM   32  C   UNL     4      -8.581   9.479  63.656  1.00  0.00    -0.212 C  
HETATM   33  C   UNL     4      -9.397  10.698  63.199  1.00  0.00    -0.335 C  
ENDBRANCH  31  32
BRANCH  31  34
HETATM   34  C   UNL     4      -8.839  10.563  65.832  1.00  0.00    -0.165 C  
HETATM   35  C   UNL     4     -10.100  10.165  66.629  1.00  0.00    -0.283 C  
ENDBRANCH  31  34
BRANCH  31  36
HETATM   36  C   UNL     4      -8.547   8.107  65.658  1.00  0.00    -0.158 C  
HETATM   37  C   UNL     4      -7.408   7.148  66.068  1.00  0.00    -0.075 C  
ENDBRANCH  31  36
ENDBRANCH  30  31
ENDBRANCH  29  30
ENDBRANCH  28  29
ENDBRANCH  17  28
ENDBRANCH  11  12
ENDBRANCH  10  11
ENDBRANCH   9  10
ENDBRANCH   6   9
BRANCH   6  38
HETATM   38  C   UNL     4      -7.892  16.935  66.603  1.00  0.00    -0.263 C  
HETATM   39  C   UNL     4      -9.092  17.255  67.518  1.00  0.00    -0.223 C  
ENDBRANCH   6  38
ENDBRANCH   5   6
TORSDOF 21
ENDMDL
MODEL      126
REMARK 921   NORMALIZED FREE ENERGY PREDICTED BY IDOCK:    2.51 KCAL/MOL
REMARK 922        TOTAL FREE ENERGY PREDICTED BY IDOCK:    3.28 KCAL/MOL
REMARK 923 INTER-LIGAND FREE ENERGY PREDICTED BY IDOCK:    1.30 KCAL/MOL
REMARK 924 INTRA-LIGAND FREE ENERGY PREDICTED BY IDOCK:    1.97 KCAL/MOL
REMARK 927      BINDING AFFINITY PREDICTED BY RF-SCORE:    0.00 PKD
ROOT
HETATM    1  I   UNL     1      -9.262   7.921  62.330  1.00  0.00     2.301 I  
HETATM    2  I   UNL     2      -5.159  10.289  64.580  1.00  0.00    -0.155 I  
HETATM    3  I   UNL     3      -7.796   5.004  64.688  1.00  0.00    -0.110 I  
HETATM    4  C   UNL     4      -8.286   5.268  68.482  1.00  0.00    -0.089 C  
HETATM    5  C   UNL     4      -7.414   5.829  69.626  1.00  0.00    -0.075 C  
ENDROOT
BRANCH   5   6
HETATM    6  N   UNL     4      -5.938   5.929  69.354  1.00  0.00    -0.026 N  
BRANCH   6   7
HETATM    7  C   UNL     4      -5.559   4.846  68.372  1.00  0.00    -0.016 C  
HETATM    8  C   UNL     4      -5.829   3.394  68.814  1.00  0.00    -0.023 C  
ENDBRANCH   6   7
BRANCH   6   9
HETATM    9  C   UNL     4      -5.642   7.299  68.808  1.00  0.00    -0.022 C  
BRANCH   9  10
HETATM   10  C   UNL     4      -6.707   8.430  68.941  1.00  0.00    -0.053 C  
BRANCH  10  11
HETATM   11  O   UNL     4      -6.508   9.575  68.190  1.00  0.00    -0.056 OA 
BRANCH  11  12
HETATM   12  C   UNL     4      -6.884  10.857  68.427  1.00  0.00    -0.068 A  
HETATM   13  C   UNL     4      -5.943  11.882  68.251  1.00  0.00    -0.050 A  
HETATM   14  C   UNL     4      -6.254  13.190  68.513  1.00  0.00    -0.079 A  
HETATM   15  C   UNL     4      -7.522  13.531  68.903  1.00  0.00    -0.017 A  
HETATM   16  C   UNL     4      -8.555  12.565  69.076  1.00  0.00     0.480 A  
HETATM   17  C   UNL     4      -8.234  11.183  68.852  1.00  0.00    -0.104 A  
BRANCH  16  18
HETATM   18  O   UNL     4      -9.827  12.986  69.420  1.00  0.00     0.515 OA 
BRANCH  18  19
HETATM   19  C   UNL     4     -10.693  13.415  68.407  1.00  0.00    -0.256 C  
BRANCH  19  20
HETATM   20  C   UNL     4     -10.134  13.929  67.056  1.00  0.00    -0.256 C  
BRANCH  20  21
HETATM   21  N   UNL     4     -10.051  15.456  66.993  1.00  0.00    -0.246 N  
BRANCH  21  22
HETATM   22  C   UNL     4      -9.677  15.915  65.604  1.00  0.00    -0.271 C  
HETATM   23  C   UNL     4     -10.198  17.295  65.166  1.00  0.00     0.518 C  
ENDBRANCH  21  22
BRANCH  21  24
HETATM   24  C   UNL     4      -8.982  15.949  67.940  1.00  0.00    -0.181 C  
HETATM   25  C   UNL     4      -7.811  16.750  67.329  1.00  0.00    -0.200 C  
ENDBRANCH  21  24
BRANCH  21  26
HETATM   26  C   UNL     4     -11.385  16.061  67.332  1.00  0.00     0.003 C  
HETATM   27  C   UNL     4     -11.442  17.597  67.392  1.00  0.00     0.866 C  
ENDBRANCH  21  26
ENDBRANCH  20  21
ENDBRANCH  19  20
ENDBRANCH  18  19
ENDBRANCH  16  18
BRANCH  17  28
HETATM   28  O   UNL     4      -9.208  10.216  69.032  1.00  0.00    -0.163 OA 
BRANCH  28  29
HETATM   29  C   UNL     4      -9.101   9.155  69.933  1.00  0.00    -0.178 C  
BRANCH  29  30
HETATM   30  C   UNL     4     -10.142   8.027  69.758  1.00  0.00    -0.196 C  
BRANCH  30  31
HETATM   31  N   UNL     4     -10.917   7.664  71.018  1.00  0.00    -0.244 N  
BRANCH  31  32
HETATM   32  C   UNL     4     -12.254   7.052  70.692  1.00  0.00    -0.240 C  
HETATM   33  C   UNL     4     -12.620   5.752  71.423  1.00  0.00     1.329 C  
ENDBRANCH  31  32
BRANCH  31  34
HETATM   34  C   UNL     4     -11.145   8.918  71.818  1.00  0.00    -0.363 C  
HETATM   35  C   UNL     4     -12.614   9.366  71.980  1.00  0.00    -0.462 C  
ENDBRANCH  31  34
BRANCH  31  36
HETATM   36  C   UNL     4     -10.151   6.645  71.836  1.00  0.00    -0.181 C  
HETATM   37  C   UNL     4     -10.207   6.797  73.372  1.00  0.00    -0.293 C  
ENDBRANCH  31  36
ENDBRANCH  30  31
ENDBRANCH  29  30
ENDBRANCH  28  29
ENDBRANCH  17  28
ENDBRANCH  11  12
ENDBRANCH  10  11
ENDBRANCH   9  10
ENDBRANCH   6   9
BRANCH   6  38
HETATM   38  C   UNL     4      -5.139   5.712  70.613  1.00  0.00    -0.008 C  
HETATM   39  C   UNL     4      -5.934   5.291  71.866  1.00  0.00    -0.025 C  
ENDBRANCH   6  38
ENDBRANCH   5   6
TORSDOF 21
ENDMDL
MODEL      127
REMARK 921   NORMALIZED FREE ENERGY PREDICTED BY IDOCK:    2.64 KCAL/MOL
REMARK 922        TOTAL FREE ENERGY PREDICTED BY IDOCK:    3.57 KCAL/MOL
REMARK 923 INTER-LIGAND FREE ENERGY PREDICTED BY IDOCK:    2.91 KCAL/MOL
REMARK 924 INTRA-LIGAND FREE ENERGY PREDICTED BY IDOCK:    0.65 KCAL/MOL
REMARK 927      BINDING AFFINITY PREDICTED BY RF-SCORE:    0.00 PKD
ROOT
HETATM    1  I   UNL     1      -8.928  11.798  63.794  1.00  0.00     1.050 I  
HETATM    2  I   UNL     2      -9.422  16.049  66.825  1.00  0.00    -0.322 I  
HETATM    3  I   UNL     3      -9.460  10.174  67.441  1.00  0.00    -0.200 I  
HETATM    4  C   UNL     4     -12.943  10.311  69.038  1.00  0.00     2.310 C  
HETATM    5  C   UNL     4     -13.621  11.293  70.019  1.00  0.00     1.984 C  
ENDROOT
BRANCH   5   6
HETATM    6  N   UNL     4     -12.703  12.133  70.864  1.00  0.00    -0.249 N  
BRANCH   6   7
HETATM    7  C   UNL     4     -13.479  12.636  72.057  1.00  0.00    -0.418 C  
HETATM    8  C   UNL     4     -13.491  14.162  72.274  1.00  0.00    -0.578 C  
ENDBRANCH   6   7
BRANCH   6   9
HETATM    9  C   UNL     4     -11.529  11.290  71.284  1.00  0.00     1.232 C  
BRANCH   9  10
HETATM   10  C   UNL     4     -11.600   9.740  71.134  1.00  0.00    -0.392 C  
BRANCH  10  11
HETATM   11  O   UNL     4     -11.756   9.000  72.293  1.00  0.00    -0.334 OA 
BRANCH  11  12
HETATM   12  C   UNL     4     -11.722   7.658  72.490  1.00  0.00    -0.301 A  
HETATM   13  C   UNL     4     -12.780   6.876  72.005  1.00  0.00    -0.230 A  
HETATM   14  C   UNL     4     -12.819   5.522  72.208  1.00  0.00     0.942 A  
HETATM   15  C   UNL     4     -11.783   4.892  72.848  1.00  0.00    -0.172 A  
HETATM   16  C   UNL     4     -10.649   5.597  73.345  1.00  0.00    -0.258 A  
HETATM   17  C   UNL     4     -10.614   7.024  73.183  1.00  0.00    -0.318 A  
BRANCH  16  18
HETATM   18  O   UNL     4      -9.615   4.890  73.932  1.00  0.00    -0.127 OA 
BRANCH  18  19
HETATM   19  C   UNL     4      -8.520   4.516  73.145  1.00  0.00    -0.099 C  
BRANCH  19  20
HETATM   20  C   UNL     4      -8.714   3.611  71.902  1.00  0.00    -0.094 C  
BRANCH  20  21
HETATM   21  N   UNL     4      -8.396   4.332  70.589  1.00  0.00    -0.070 N  
BRANCH  21  22
HETATM   22  C   UNL     4      -8.827   5.778  70.656  1.00  0.00    -0.140 C  
HETATM   23  C   UNL     4      -8.722   6.592  69.355  1.00  0.00    -0.135 C  
ENDBRANCH  21  22
BRANCH  21  24
HETATM   24  C   UNL     4      -9.152   3.683  69.454  1.00  0.00    -0.135 C  
HETATM   25  C   UNL     4      -9.420   2.166  69.558  1.00  0.00    -0.113 C  
ENDBRANCH  21  24
BRANCH  21  26
HETATM   26  C   UNL     4      -6.916   4.306  70.331  1.00  0.00    -0.037 C  
HETATM   27  C   UNL     4      -6.324   2.955  69.895  1.00  0.00    -0.028 C  
ENDBRANCH  21  26
ENDBRANCH  20  21
ENDBRANCH  19  20
ENDBRANCH  18  19
ENDBRANCH  16  18
BRANCH  17  28
HETATM   28  O   UNL     4      -9.538   7.743  73.673  1.00  0.00    -0.286 OA 
BRANCH  28  29
HETATM   29  C   UNL     4      -8.575   8.358  72.871  1.00  0.00    -0.162 C  
BRANCH  29  30
HETATM   30  C   UNL     4      -7.142   8.376  73.448  1.00  0.00    -0.074 C  
BRANCH  30  31
HETATM   31  N   UNL     4      -6.079   8.942  72.516  1.00  0.00    -0.065 N  
BRANCH  31  32
HETATM   32  C   UNL     4      -6.690   9.566  71.289  1.00  0.00     0.057 C  
HETATM   33  C   UNL     4      -5.765   9.776  70.081  1.00  0.00    -0.044 C  
ENDBRANCH  31  32
BRANCH  31  34
HETATM   34  C   UNL     4      -5.174   7.821  72.085  1.00  0.00    -0.036 C  
HETATM   35  C   UNL     4      -5.717   6.389  72.285  1.00  0.00    -0.037 C  
ENDBRANCH  31  34
BRANCH  31  36
HETATM   36  C   UNL     4      -5.285  10.026  73.215  1.00  0.00     0.115 C  
HETATM   37  C   UNL     4      -5.295  11.428  72.568  1.00  0.00     0.674 C  
ENDBRANCH  31  36
ENDBRANCH  30  31
ENDBRANCH  29  30
ENDBRANCH  28  29
ENDBRANCH  17  28
ENDBRANCH  11  12
ENDBRANCH  10  11
ENDBRANCH   9  10
ENDBRANCH   6   9
BRANCH   6  38
HETATM   38  C   UNL     4     -12.206  13.331  70.097  1.00  0.00    -0.306 C  
HETATM   39  C   UNL     4     -12.499  13.345  68.583  1.00  0.00     0.309 C  
ENDBRANCH   6  38
ENDBRANCH   5   6
TORSDOF 21
ENDMDL
MODEL      128
REMARK 921   NORMALIZED FREE ENERGY PREDICTED BY IDOCK:    3.05 KCAL/MOL
REMARK 922        TOTAL FREE ENERGY PREDICTED BY IDOCK:    4.47 KCAL/MOL
REMARK 923 INTER-LIGAND FREE ENERGY PREDICTED BY IDOCK:    5.37 KCAL/MOL
REMARK 924 INTRA-LIGAND FREE ENERGY PREDICTED BY IDOCK:   -0.89 KCAL/MOL
REMARK 927      BINDING AFFINITY PREDICTED BY RF-SCORE:    0.00 PKD
ROOT
HETATM    1  I   UNL     1     -14.004   7.460  71.119  1.00  0.00     0.391 I  
HETATM    2  I   UNL     2     -10.835   8.920  67.205  1.00  0.00     0.670 I  
HETATM    3  I   UNL     3     -12.688  11.045  72.395  1.00  0.00     2.531 I  
HETATM    4  C   UNL     4     -14.005  14.216  70.686  1.00  0.00     0.659 C  
HETATM    5  C   UNL     4     -13.481  15.090  69.526  1.00  0.00     1.686 C  
ENDROOT
BRANCH   5   6
HETATM    6  N   UNL     4     -12.008  14.997  69.233  1.00  0.00    -0.305 N  
BRANCH   6   7
HETATM    7  C   UNL     4     -11.359  14.159  70.307  1.00  0.00    -0.034 C  
HETATM    8  C   UNL     4     -10.812  14.917  71.533  1.00  0.00     0.404 C  
ENDBRANCH   6   7
BRANCH   6   9
HETATM    9  C   UNL     4     -11.828  14.386  67.870  1.00  0.00    -0.349 C  
BRANCH   9  10
HETATM   10  C   UNL     4     -10.393  14.055  67.356  1.00  0.00    -0.259 C  
BRANCH  10  11
HETATM   11  O   UNL     4      -9.987  12.734  67.424  1.00  0.00    -0.208 OA 
BRANCH  11  12
HETATM   12  C   UNL     4      -8.741  12.196  67.400  1.00  0.00    -0.177 A  
HETATM   13  C   UNL     4      -8.332  11.492  66.258  1.00  0.00    -0.076 A  
HETATM   14  C   UNL     4      -7.101  10.894  66.191  1.00  0.00    -0.097 A  
HETATM   15  C   UNL     4      -6.217  11.022  67.230  1.00  0.00    -0.068 A  
HETATM   16  C   UNL     4      -6.529  11.747  68.416  1.00  0.00    -0.053 A  
HETATM   17  C   UNL     4      -7.833  12.341  68.523  1.00  0.00    -0.111 A  
BRANCH  16  18
HETATM   18  O   UNL     4      -5.568  11.881  69.401  1.00  0.00    -0.060 OA 
BRANCH  18  19
HETATM   19  C   UNL     4      -5.275  10.780  70.214  1.00  0.00    -0.057 C  
BRANCH  19  20
HETATM   20  C   UNL     4      -6.193  10.414  71.408  1.00  0.00     0.444 C  
BRANCH  20  21
HETATM   21  N   UNL     4      -6.752   8.993  71.311  1.00  0.00    -0.087 N  
BRANCH  21  22
HETATM   22  C   UNL     4      -5.891   8.140  70.410  1.00  0.00    -0.028 C  
HETATM   23  C   UNL     4      -6.422   6.737  70.069  1.00  0.00    -0.040 C  
ENDBRANCH  21  22
BRANCH  21  24
HETATM   24  C   UNL     4      -8.140   9.028  70.714  1.00  0.00    -0.166 C  
HETATM   25  C   UNL     4      -9.323   8.714  71.656  1.00  0.00    -0.333 C  
ENDBRANCH  21  24
BRANCH  21  26
HETATM   26  C   UNL     4      -6.771   8.351  72.670  1.00  0.00    -0.088 C  
HETATM   27  C   UNL     4      -6.519   9.283  73.867  1.00  0.00     0.341 C  
ENDBRANCH  21  26
ENDBRANCH  20  21
ENDBRANCH  19  20
ENDBRANCH  18  19
ENDBRANCH  16  18
BRANCH  17  28
HETATM   28  O   UNL     4      -8.177  13.033  69.670  1.00  0.00     1.083 OA 
BRANCH  28  29
HETATM   29  C   UNL     4      -8.100  14.421  69.802  1.00  0.00     0.514 C  
BRANCH  29  30
HETATM   30  C   UNL     4      -6.718  15.042  69.499  1.00  0.00    -0.167 C  
BRANCH  30  31
HETATM   31  N   UNL     4      -6.715  16.108  68.412  1.00  0.00    -0.124 N  
BRANCH  31  32
HETATM   32  C   UNL     4      -7.989  16.088  67.609  1.00  0.00    -0.143 C  
HETATM   33  C   UNL     4      -8.012  16.922  66.320  1.00  0.00    -0.350 C  
ENDBRANCH  31  32
BRANCH  31  34
HETATM   34  C   UNL     4      -5.560  15.846  67.487  1.00  0.00    -0.098 C  
HETATM   35  C   UNL     4      -5.142  14.368  67.318  1.00  0.00     0.625 C  
ENDBRANCH  31  34
BRANCH  31  36
HETATM   36  C   UNL     4      -6.601  17.488  69.026  1.00  0.00    -0.243 C  
HETATM   37  C   UNL     4      -5.954  17.581  70.425  1.00  0.00     0.091 C  
ENDBRANCH  31  36
ENDBRANCH  30  31
ENDBRANCH  29  30
ENDBRANCH  28  29
ENDBRANCH  17  28
ENDBRANCH  11  12
ENDBRANCH  10  11
ENDBRANCH   9  10
ENDBRANCH   6   9
BRANCH   6  38
HETATM   38  C   UNL     4     -11.365  16.359  69.256  1.00  0.00    -0.225 C  
HETATM   39  C   UNL     4     -11.047  16.991  67.886  1.00  0.00    -0.125 C  
ENDBRANCH   6  38
ENDBRANCH   5   6
TORSDOF 21
ENDMDL
MODEL      129
REMARK 921   NORMALIZED FREE ENERGY PREDICTED BY IDOCK:    3.15 KCAL/MOL
REMARK 922        TOTAL FREE ENERGY PREDICTED BY IDOCK:    4.70 KCAL/MOL
REMARK 923 INTER-LIGAND FREE ENERGY PREDICTED BY IDOCK:    3.21 KCAL/MOL
REMARK 924 INTRA-LIGAND FREE ENERGY PREDICTED BY IDOCK:    1.49 KCAL/MOL
REMARK 927      BINDING AFFINITY PREDICTED BY RF-SCORE:    0.00 PKD
ROOT
HETATM    1  I   UNL     1     -13.282  12.617  70.216  1.00  0.00     2.061 I  
HETATM    2  I   UNL     2     -12.653  15.339  65.778  1.00  0.00     1.646 I  
HETATM    3  I   UNL     3      -9.322  12.270  69.569  1.00  0.00     2.459 I  
HETATM    4  C   UNL     4      -7.077  15.324  70.150  1.00  0.00     0.074 C  
HETATM    5  C   UNL     4      -6.539  16.435  69.223  1.00  0.00    -0.206 C  
ENDROOT
BRANCH   5   6
HETATM    6  N   UNL     4      -6.497  16.116  67.753  1.00  0.00    -0.134 N  
BRANCH   6   7
HETATM    7  C   UNL     4      -5.147  16.526  67.214  1.00  0.00    -0.109 C  
HETATM    8  C   UNL     4      -5.128  17.123  65.793  1.00  0.00     0.440 C  
ENDBRANCH   6   7
BRANCH   6   9
HETATM    9  C   UNL     4      -6.739  14.642  67.574  1.00  0.00    -0.122 C  
BRANCH   9  10
HETATM   10  C   UNL     4      -6.649  13.689  68.805  1.00  0.00    -0.101 C  
BRANCH  10  11
HETATM   11  O   UNL     4      -6.008  12.477  68.619  1.00  0.00    -0.060 OA 
BRANCH  11  12
HETATM   12  C   UNL     4      -5.808  11.448  69.481  1.00  0.00    -0.070 A  
HETATM   13  C   UNL     4      -5.395  11.733  70.790  1.00  0.00    -0.145 A  
HETATM   14  C   UNL     4      -5.140  10.734  71.692  1.00  0.00    -0.032 A  
HETATM   15  C   UNL     4      -5.341   9.425  71.343  1.00  0.00    -0.059 A  
HETATM   16  C   UNL     4      -5.792   9.039  70.048  1.00  0.00    -0.031 A  
HETATM   17  C   UNL     4      -6.019  10.070  69.074  1.00  0.00    -0.037 A  
BRANCH  16  18
HETATM   18  O   UNL     4      -6.025   7.702  69.782  1.00  0.00    -0.024 OA 
BRANCH  18  19
HETATM   19  C   UNL     4      -5.477   6.738  70.637  1.00  0.00    -0.023 C  
BRANCH  19  20
HETATM   20  C   UNL     4      -6.125   5.336  70.764  1.00  0.00    -0.022 C  
BRANCH  20  21
HETATM   21  N   UNL     4      -7.209   5.281  71.843  1.00  0.00    -0.082 N  
BRANCH  21  22
HETATM   22  C   UNL     4      -6.864   6.196  72.994  1.00  0.00    -0.078 C  
HETATM   23  C   UNL     4      -6.125   5.562  74.185  1.00  0.00    -0.058 C  
ENDBRANCH  21  22
BRANCH  21  24
HETATM   24  C   UNL     4      -7.312   3.877  72.393  1.00  0.00    -0.058 C  
HETATM   25  C   UNL     4      -7.490   2.730  71.374  1.00  0.00    -0.040 C  
ENDBRANCH  21  24
BRANCH  21  26
HETATM   26  C   UNL     4      -8.526   5.732  71.277  1.00  0.00    -0.128 C  
HETATM   27  C   UNL     4      -9.119   7.019  71.874  1.00  0.00    -0.145 C  
ENDBRANCH  21  26
ENDBRANCH  20  21
ENDBRANCH  19  20
ENDBRANCH  18  19
ENDBRANCH  16  18
BRANCH  17  28
HETATM   28  O   UNL     4      -6.437   9.729  67.800  1.00  0.00    -0.056 OA 
BRANCH  28  29
HETATM   29  C   UNL     4      -6.276   8.462  67.235  1.00  0.00    -0.056 C  
BRANCH  29  30
HETATM   30  C   UNL     4      -7.112   8.189  65.965  1.00  0.00    -0.061 C  
BRANCH  30  31
HETATM   31  N   UNL     4      -8.210   7.148  66.128  1.00  0.00    -0.121 N  
BRANCH  31  32
HETATM   32  C   UNL     4      -7.958   6.253  67.313  1.00  0.00    -0.109 C  
HETATM   33  C   UNL     4      -9.070   5.263  67.687  1.00  0.00    -0.113 C  
ENDBRANCH  31  32
BRANCH  31  34
HETATM   34  C   UNL     4      -8.256   6.300  64.887  1.00  0.00    -0.119 C  
HETATM   35  C   UNL     4      -7.640   6.922  63.614  1.00  0.00    -0.101 C  
ENDBRANCH  31  34
BRANCH  31  36
HETATM   36  C   UNL     4      -9.548   7.821  66.360  1.00  0.00    -0.165 C  
HETATM   37  C   UNL     4      -9.523   9.326  66.704  1.00  0.00    -0.246 C  
ENDBRANCH  31  36
ENDBRANCH  30  31
ENDBRANCH  29  30
ENDBRANCH  28  29
ENDBRANCH  17  28
ENDBRANCH  11  12
ENDBRANCH  10  11
ENDBRANCH   9  10
ENDBRANCH   6   9
BRANCH   6  38
HETATM   38  C   UNL     4      -7.549  16.888  67.001  1.00  0.00    -0.195 C  
HETATM   39  C   UNL     4      -8.577  16.054  66.209  1.00  0.00    -0.363 C  
ENDBRANCH   6  38
ENDBRANCH   5   6
TORSDOF 21
ENDMDL
MODEL      130
REMARK 921   NORMALIZED FREE ENERGY PREDICTED BY IDOCK:    3.23 KCAL/MOL
REMARK 922        TOTAL FREE ENERGY PREDICTED BY IDOCK:    4.89 KCAL/MOL
REMARK 923 INTER-LIGAND FREE ENERGY PREDICTED BY IDOCK:   -3.10 KCAL/MOL
REMARK 924 INTRA-LIGAND FREE ENERGY PREDICTED BY IDOCK:    7.99 KCAL/MOL
REMARK 927      BINDING AFFINITY PREDICTED BY RF-SCORE:    0.00 PKD
ROOT
HETATM    1  I   UNL     1      -8.015  10.675  64.017  1.00  0.00     0.431 I  
HETATM    2  I   UNL     2     -10.764   9.476  68.318  1.00  0.00    -0.083 I  
HETATM    3  I   UNL     3      -5.754   7.788  65.683  1.00  0.00    -0.038 I  
HETATM    4  C   UNL     4      -6.987   4.160  65.546  1.00  0.00    -0.062 C  
HETATM    5  C   UNL     4      -7.795   3.278  66.522  1.00  0.00    -0.081 C  
ENDROOT
BRANCH   5   6
HETATM    6  N   UNL     4      -7.783   3.697  67.967  1.00  0.00    -0.068 N  
BRANCH   6   7
HETATM    7  C   UNL     4      -6.367   4.058  68.347  1.00  0.00    -0.036 C  
HETATM    8  C   UNL     4      -5.883   3.575  69.729  1.00  0.00    -0.018 C  
ENDBRANCH   6   7
BRANCH   6   9
HETATM    9  C   UNL     4      -8.716   4.864  68.138  1.00  0.00    -0.102 C  
BRANCH   9  10
HETATM   10  C   UNL     4      -8.253   6.111  68.952  1.00  0.00    -0.112 C  
BRANCH  10  11
HETATM   11  O   UNL     4      -7.491   7.053  68.284  1.00  0.00    -0.094 OA 
BRANCH  11  12
HETATM   12  C   UNL     4      -7.779   8.336  67.948  1.00  0.00    -0.103 A  
HETATM   13  C   UNL     4      -8.745   8.576  66.961  1.00  0.00    -0.132 A  
HETATM   14  C   UNL     4      -9.049   9.848  66.552  1.00  0.00    -0.179 A  
HETATM   15  C   UNL     4      -8.446  10.924  67.149  1.00  0.00    -0.128 A  
HETATM   16  C   UNL     4      -7.478  10.782  68.184  1.00  0.00    -0.091 A  
HETATM   17  C   UNL     4      -7.112   9.454  68.591  1.00  0.00    -0.070 A  
BRANCH  16  18
HETATM   18  O   UNL     4      -6.950  11.914  68.778  1.00  0.00    -0.091 OA 
BRANCH  18  19
HETATM   19  C   UNL     4      -6.684  13.033  67.981  1.00  0.00    -0.114 C  
BRANCH  19  20
HETATM   20  C   UNL     4      -7.818  14.018  67.600  1.00  0.00    -0.176 C  
BRANCH  20  21
HETATM   21  N   UNL     4      -7.651  15.394  68.250  1.00  0.00    -0.112 N  
BRANCH  21  22
HETATM   22  C   UNL     4      -8.216  16.476  67.362  1.00  0.00    -0.163 C  
HETATM   23  C   UNL     4      -8.763  16.035  65.993  1.00  0.00    -0.267 C  
ENDBRANCH  21  22
BRANCH  21  24
HETATM   24  C   UNL     4      -6.183  15.689  68.450  1.00  0.00    -0.102 C  
HETATM   25  C   UNL     4      -5.815  16.794  69.464  1.00  0.00    -0.194 C  
ENDBRANCH  21  24
BRANCH  21  26
HETATM   26  C   UNL     4      -8.388  15.440  69.558  1.00  0.00    -0.204 C  
HETATM   27  C   UNL     4      -9.622  14.529  69.678  1.00  0.00     0.350 C  
ENDBRANCH  21  26
ENDBRANCH  20  21
ENDBRANCH  19  20
ENDBRANCH  18  19
ENDBRANCH  16  18
BRANCH  17  28
HETATM   28  O   UNL     4      -6.158   9.279  69.579  1.00  0.00    -0.039 OA 
BRANCH  28  29
HETATM   29  C   UNL     4      -6.432   9.309  70.947  1.00  0.00    -0.080 C  
BRANCH  29  30
HETATM   30  C   UNL     4      -5.767   8.194  71.784  1.00  0.00    -0.036 C  
BRANCH  30  31
HETATM   31  N   UNL     4      -6.726   7.355  72.617  1.00  0.00    -0.062 N  
BRANCH  31  32
HETATM   32  C   UNL     4      -6.439   7.480  74.090  1.00  0.00    -0.081 C  
HETATM   33  C   UNL     4      -5.510   8.623  74.524  1.00  0.00    -0.107 C  
ENDBRANCH  31  32
BRANCH  31  34
HETATM   34  C   UNL     4      -6.573   5.913  72.218  1.00  0.00    -0.059 C  
HETATM   35  C   UNL     4      -7.866   5.069  72.204  1.00  0.00    -0.110 C  
ENDBRANCH  31  34
BRANCH  31  36
HETATM   36  C   UNL     4      -8.153   7.815  72.405  1.00  0.00    -0.120 C  
HETATM   37  C   UNL     4      -8.868   8.460  73.613  1.00  0.00    -0.110 C  
ENDBRANCH  31  36
ENDBRANCH  30  31
ENDBRANCH  29  30
ENDBRANCH  28  29
ENDBRANCH  17  28
ENDBRANCH  11  12
ENDBRANCH  10  11
ENDBRANCH   9  10
ENDBRANCH   6   9
BRANCH   6  38
HETATM   38  C   UNL     4      -8.229   2.569  68.861  1.00  0.00    -0.051 C  
HETATM   39  C   UNL     4      -9.389   2.878  69.829  1.00  0.00    -0.207 C  
ENDBRANCH   6  38
ENDBRANCH   5   6
TORSDOF 21
ENDMDL
MODEL      131
REMARK 921   NORMALIZED FREE ENERGY PREDICTED BY IDOCK:    3.28 KCAL/MOL
REMARK 922        TOTAL FREE ENERGY PREDICTED BY IDOCK:    4.98 KCAL/MOL
REMARK 923 INTER-LIGAND FREE ENERGY PREDICTED BY IDOCK:    1.95 KCAL/MOL
REMARK 924 INTRA-LIGAND FREE ENERGY PREDICTED BY IDOCK:    3.03 KCAL/MOL
REMARK 927      BINDING AFFINITY PREDICTED BY RF-SCORE:    0.00 PKD
ROOT
HETATM    1  I   UNL     1     -14.410   6.780  70.997  1.00  0.00     2.192 I  
HETATM    2  I   UNL     2     -10.492   8.391  67.905  1.00  0.00    -0.102 I  
HETATM    3  I   UNL     3     -13.268  10.197  72.796  1.00  0.00     2.350 I  
HETATM    4  C   UNL     4     -14.132  13.543  71.134  1.00  0.00     0.716 C  
HETATM    5  C   UNL     4     -13.365  14.478  70.174  1.00  0.00     0.468 C  
ENDROOT
BRANCH   5   6
HETATM    6  N   UNL     4     -11.867  14.342  70.165  1.00  0.00    -0.296 N  
BRANCH   6   7
HETATM    7  C   UNL     4     -11.512  12.934  70.575  1.00  0.00     0.552 C  
HETATM    8  C   UNL     4     -12.317  11.801  69.908  1.00  0.00    -0.200 C  
ENDBRANCH   6   7
BRANCH   6   9
HETATM    9  C   UNL     4     -11.364  14.659  68.782  1.00  0.00    -0.281 C  
BRANCH   9  10
HETATM   10  C   UNL     4     -11.563  13.624  67.633  1.00  0.00    -0.346 C  
BRANCH  10  11
HETATM   11  O   UNL     4     -10.947  12.394  67.778  1.00  0.00    -0.212 OA 
BRANCH  11  12
HETATM   12  C   UNL     4      -9.637  12.084  67.955  1.00  0.00    -0.196 A  
HETATM   13  C   UNL     4      -9.276  11.266  69.035  1.00  0.00     0.005 A  
HETATM   14  C   UNL     4      -7.967  10.952  69.287  1.00  0.00    -0.076 A  
HETATM   15  C   UNL     4      -6.980  11.390  68.443  1.00  0.00    -0.075 A  
HETATM   16  C   UNL     4      -7.253  12.196  67.300  1.00  0.00    -0.144 A  
HETATM   17  C   UNL     4      -8.615  12.575  67.048  1.00  0.00    -0.188 A  
BRANCH  16  18
HETATM   18  O   UNL     4      -6.213  12.557  66.462  1.00  0.00     0.150 OA 
BRANCH  18  19
HETATM   19  C   UNL     4      -5.410  11.552  65.911  1.00  0.00     0.259 C  
BRANCH  19  20
HETATM   20  C   UNL     4      -5.697  10.059  66.211  1.00  0.00    -0.059 C  
BRANCH  20  21
HETATM   21  N   UNL     4      -6.318   9.325  65.020  1.00  0.00    -0.065 N  
BRANCH  21  22
HETATM   22  C   UNL     4      -7.095   8.116  65.483  1.00  0.00    -0.067 C  
HETATM   23  C   UNL     4      -6.357   7.130  66.405  1.00  0.00    -0.047 C  
ENDBRANCH  21  22
BRANCH  21  24
HETATM   24  C   UNL     4      -5.228   8.838  64.094  1.00  0.00    -0.055 C  
HETATM   25  C   UNL     4      -5.664   8.255  62.732  1.00  0.00    -0.074 C  
ENDBRANCH  21  24
BRANCH  21  26
HETATM   26  C   UNL     4      -7.271  10.232  64.293  1.00  0.00    -0.063 C  
HETATM   27  C   UNL     4      -8.762   9.870  64.387  1.00  0.00    -0.223 C  
ENDBRANCH  21  26
ENDBRANCH  20  21
ENDBRANCH  19  20
ENDBRANCH  18  19
ENDBRANCH  16  18
BRANCH  17  28
HETATM   28  O   UNL     4      -8.913  13.376  65.959  1.00  0.00     0.119 OA 
BRANCH  28  29
HETATM   29  C   UNL     4      -8.821  14.769  65.962  1.00  0.00     0.271 C  
BRANCH  29  30
HETATM   30  C   UNL     4      -7.685  15.359  66.825  1.00  0.00    -0.010 C  
BRANCH  30  31
HETATM   31  N   UNL     4      -7.781  16.857  67.081  1.00  0.00    -0.167 N  
BRANCH  31  32
HETATM   32  C   UNL     4      -6.917  17.281  68.239  1.00  0.00    -0.186 C  
HETATM   33  C   UNL     4      -5.536  16.620  68.355  1.00  0.00    -0.121 C  
ENDBRANCH  31  32
BRANCH  31  34
HETATM   34  C   UNL     4      -9.211  17.197  67.400  1.00  0.00    -0.232 C  
HETATM   35  C   UNL     4      -9.448  18.008  68.693  1.00  0.00    -0.317 C  
ENDBRANCH  31  34
BRANCH  31  36
HETATM   36  C   UNL     4      -7.309  17.632  65.869  1.00  0.00    -0.178 C  
HETATM   37  C   UNL     4      -6.661  19.010  66.129  1.00  0.00    -0.249 C  
ENDBRANCH  31  36
ENDBRANCH  30  31
ENDBRANCH  29  30
ENDBRANCH  28  29
ENDBRANCH  17  28
ENDBRANCH  11  12
ENDBRANCH  10  11
ENDBRANCH   9  10
ENDBRANCH   6   9
BRANCH   6  38
HETATM   38  C   UNL     4     -11.232  15.286  71.153  1.00  0.00    -0.330 C  
HETATM   39  C   UNL     4     -12.128  15.775  72.309  1.00  0.00    -0.574 C  
ENDBRANCH   6  38
ENDBRANCH   5   6
TORSDOF 21
ENDMDL
MODEL      132
REMARK 921   NORMALIZED FREE ENERGY PREDICTED BY IDOCK:    3.55 KCAL/MOL
REMARK 922        TOTAL FREE ENERGY PREDICTED BY IDOCK:    5.59 KCAL/MOL
REMARK 923 INTER-LIGAND FREE ENERGY PREDICTED BY IDOCK:    1.78 KCAL/MOL
REMARK 924 INTRA-LIGAND FREE ENERGY PREDICTED BY IDOCK:    3.81 KCAL/MOL
REMARK 927      BINDING AFFINITY PREDICTED BY RF-SCORE:    0.00 PKD
ROOT
HETATM    1  I   UNL     1      -9.550  20.211  65.561  1.00  0.00     1.182 I  
HETATM    2  I   UNL     2      -5.459  16.955  65.963  1.00  0.00     1.683 I  
HETATM    3  I   UNL     3     -11.323  16.601  65.355  1.00  0.00     1.083 I  
HETATM    4  C   UNL     4     -11.578  14.479  68.539  1.00  0.00    -0.344 C  
HETATM    5  C   UNL     4     -10.697  13.363  69.142  1.00  0.00    -0.060 C  
ENDROOT
BRANCH   5   6
HETATM    6  N   UNL     4      -9.795  12.634  68.184  1.00  0.00    -0.222 N  
BRANCH   6   7
HETATM    7  C   UNL     4     -10.651  11.967  67.135  1.00  0.00    -0.231 C  
HETATM    8  C   UNL     4     -11.479  10.751  67.596  1.00  0.00    -0.234 C  
ENDBRANCH   6   7
BRANCH   6   9
HETATM    9  C   UNL     4      -8.842  13.624  67.572  1.00  0.00    -0.205 C  
BRANCH   9  10
HETATM   10  C   UNL     4      -7.316  13.516  67.874  1.00  0.00    -0.149 C  
BRANCH  10  11
HETATM   11  O   UNL     4      -6.948  12.857  69.034  1.00  0.00    -0.101 OA 
BRANCH  11  12
HETATM   12  C   UNL     4      -6.577  11.566  69.230  1.00  0.00    -0.113 A  
HETATM   13  C   UNL     4      -6.495  11.078  70.542  1.00  0.00     0.121 A  
HETATM   14  C   UNL     4      -6.089   9.796  70.803  1.00  0.00    -0.092 A  
HETATM   15  C   UNL     4      -5.806   8.940  69.771  1.00  0.00    -0.028 A  
HETATM   16  C   UNL     4      -5.894   9.334  68.405  1.00  0.00    -0.041 A  
HETATM   17  C   UNL     4      -6.272  10.689  68.113  1.00  0.00    -0.057 A  
BRANCH  16  18
HETATM   18  O   UNL     4      -5.646   8.402  67.414  1.00  0.00    -0.037 OA 
BRANCH  18  19
HETATM   19  C   UNL     4      -6.493   7.293  67.302  1.00  0.00    -0.059 C  
BRANCH  19  20
HETATM   20  C   UNL     4      -5.908   5.865  67.154  1.00  0.00    -0.017 C  
BRANCH  20  21
HETATM   21  N   UNL     4      -6.830   4.787  67.729  1.00  0.00    -0.058 N  
BRANCH  21  22
HETATM   22  C   UNL     4      -6.071   3.501  67.955  1.00  0.00    -0.032 C  
HETATM   23  C   UNL     4      -5.749   3.134  69.414  1.00  0.00    -0.022 C  
ENDBRANCH  21  22
BRANCH  21  24
HETATM   24  C   UNL     4      -7.944   4.493  66.753  1.00  0.00    -0.102 C  
HETATM   25  C   UNL     4      -7.710   4.876  65.275  1.00  0.00    -0.086 C  
ENDBRANCH  21  24
BRANCH  21  26
HETATM   26  C   UNL     4      -7.383   5.232  69.054  1.00  0.00    -0.066 C  
HETATM   27  C   UNL     4      -8.757   5.922  69.020  1.00  0.00    -0.114 C  
ENDBRANCH  21  26
ENDBRANCH  20  21
ENDBRANCH  19  20
ENDBRANCH  18  19
ENDBRANCH  16  18
BRANCH  17  28
HETATM   28  O   UNL     4      -6.346  11.111  66.798  1.00  0.00    -0.099 OA 
BRANCH  28  29
HETATM   29  C   UNL     4      -6.973  10.393  65.778  1.00  0.00    -0.136 C  
BRANCH  29  30
HETATM   30  C   UNL     4      -8.497  10.610  65.650  1.00  0.00    -0.178 C  
BRANCH  30  31
HETATM   31  N   UNL     4      -9.148   9.925  64.457  1.00  0.00    -0.233 N  
BRANCH  31  32
HETATM   32  C   UNL     4     -10.357  10.680  63.973  1.00  0.00    -0.191 C  
HETATM   33  C   UNL     4     -10.182  12.184  63.715  1.00  0.00    -0.449 C  
ENDBRANCH  31  32
BRANCH  31  34
HETATM   34  C   UNL     4      -9.577   8.545  64.871  1.00  0.00     1.039 C  
HETATM   35  C   UNL     4      -9.716   8.302  66.390  1.00  0.00    -0.300 C  
ENDBRANCH  31  34
BRANCH  31  36
HETATM   36  C   UNL     4      -8.178   9.852  63.295  1.00  0.00    -0.158 C  
HETATM   37  C   UNL     4      -8.154   8.538  62.485  1.00  0.00    -0.175 C  
ENDBRANCH  31  36
ENDBRANCH  30  31
ENDBRANCH  29  30
ENDBRANCH  28  29
ENDBRANCH  17  28
ENDBRANCH  11  12
ENDBRANCH  10  11
ENDBRANCH   9  10
ENDBRANCH   6   9
BRANCH   6  38
HETATM   38  C   UNL     4      -9.009  11.560  68.891  1.00  0.00     0.039 C  
HETATM   39  C   UNL     4      -9.667  10.939  70.141  1.00  0.00     1.022 C  
ENDBRANCH   6  38
ENDBRANCH   5   6
TORSDOF 21
ENDMDL
MODEL      133
REMARK 921   NORMALIZED FREE ENERGY PREDICTED BY IDOCK:    3.66 KCAL/MOL
REMARK 922        TOTAL FREE ENERGY PREDICTED BY IDOCK:    5.83 KCAL/MOL
REMARK 923 INTER-LIGAND FREE ENERGY PREDICTED BY IDOCK:    1.95 KCAL/MOL
REMARK 924 INTRA-LIGAND FREE ENERGY PREDICTED BY IDOCK:    3.88 KCAL/MOL
REMARK 927      BINDING AFFINITY PREDICTED BY RF-SCORE:    0.00 PKD
ROOT
HETATM    1  I   UNL     1      -8.753  20.010  67.515  1.00  0.00    -0.379 I  
HETATM    2  I   UNL     2     -11.007  15.994  65.008  1.00  0.00     0.038 I  
HETATM    3  I   UNL     3      -7.787  16.895  69.878  1.00  0.00     2.238 I  
HETATM    4  C   UNL     4      -5.147  14.395  68.659  1.00  0.00    -0.096 C  
HETATM    5  C   UNL     4      -5.231  13.048  67.908  1.00  0.00    -0.109 C  
ENDROOT
BRANCH   5   6
HETATM    6  N   UNL     4      -6.541  12.314  67.996  1.00  0.00    -0.068 N  
BRANCH   6   7
HETATM    7  C   UNL     4      -6.499  11.147  67.040  1.00  0.00    -0.107 C  
HETATM    8  C   UNL     4      -5.423  11.200  65.938  1.00  0.00    -0.096 C  
ENDBRANCH   6   7
BRANCH   6   9
HETATM    9  C   UNL     4      -6.743  11.859  69.416  1.00  0.00    -0.081 C  
BRANCH   9  10
HETATM   10  C   UNL     4      -6.096  10.525  69.899  1.00  0.00    -0.079 C  
BRANCH  10  11
HETATM   11  O   UNL     4      -6.817   9.363  69.687  1.00  0.00    -0.051 OA 
BRANCH  11  12
HETATM   12  C   UNL     4      -8.157   9.162  69.608  1.00  0.00    -0.106 A  
HETATM   13  C   UNL     4      -8.908   9.137  70.792  1.00  0.00    -0.291 A  
HETATM   14  C   UNL     4     -10.257   8.900  70.777  1.00  0.00    -0.282 A  
HETATM   15  C   UNL     4     -10.913   8.737  69.585  1.00  0.00    -0.114 A  
HETATM   16  C   UNL     4     -10.242   8.781  68.329  1.00  0.00    -0.201 A  
HETATM   17  C   UNL     4      -8.819   8.981  68.329  1.00  0.00    -0.134 A  
BRANCH  16  18
HETATM   18  O   UNL     4     -10.976   8.663  67.164  1.00  0.00    -0.102 OA 
BRANCH  18  19
HETATM   19  C   UNL     4     -10.876   9.670  66.197  1.00  0.00     0.463 C  
BRANCH  19  20
HETATM   20  C   UNL     4     -11.835  10.887  66.224  1.00  0.00     1.494 C  
BRANCH  20  21
HETATM   21  N   UNL     4     -11.328  12.058  65.377  1.00  0.00    -0.335 N  
BRANCH  21  22
HETATM   22  C   UNL     4     -11.287  13.328  66.192  1.00  0.00    -0.309 C  
HETATM   23  C   UNL     4     -12.641  13.968  66.547  1.00  0.00    -0.214 C  
ENDBRANCH  21  22
BRANCH  21  24
HETATM   24  C   UNL     4     -12.265  12.292  64.216  1.00  0.00    -0.425 C  
HETATM   25  C   UNL     4     -13.753  11.932  64.422  1.00  0.00     2.119 C  
ENDBRANCH  21  24
BRANCH  21  26
HETATM   26  C   UNL     4      -9.934  11.779  64.891  1.00  0.00    -0.247 C  
HETATM   27  C   UNL     4      -9.719  11.834  63.369  1.00  0.00    -0.341 C  
ENDBRANCH  21  26
ENDBRANCH  20  21
ENDBRANCH  19  20
ENDBRANCH  18  19
ENDBRANCH  16  18
BRANCH  17  28
HETATM   28  O   UNL     4      -8.132   9.007  67.128  1.00  0.00    -0.105 OA 
BRANCH  28  29
HETATM   29  C   UNL     4      -8.537   8.327  65.978  1.00  0.00    -0.149 C  
BRANCH  29  30
HETATM   30  C   UNL     4      -8.665   6.794  66.122  1.00  0.00    -0.148 C  
BRANCH  30  31
HETATM   31  N   UNL     4      -7.858   5.982  65.119  1.00  0.00    -0.102 N  
BRANCH  31  32
HETATM   32  C   UNL     4      -6.535   5.547  65.691  1.00  0.00    -0.040 C  
HETATM   33  C   UNL     4      -5.886   6.474  66.729  1.00  0.00    -0.014 C  
ENDBRANCH  31  32
BRANCH  31  34
HETATM   34  C   UNL     4      -7.601   6.836  63.908  1.00  0.00    -0.105 C  
HETATM   35  C   UNL     4      -8.720   6.863  62.843  1.00  0.00     0.541 C  
ENDBRANCH  31  34
BRANCH  31  36
HETATM   36  C   UNL     4      -8.607   4.724  64.731  1.00  0.00    -0.146 C  
HETATM   37  C   UNL     4      -7.765   3.449  64.509  1.00  0.00    -0.077 C  
ENDBRANCH  31  36
ENDBRANCH  30  31
ENDBRANCH  29  30
ENDBRANCH  28  29
ENDBRANCH  17  28
ENDBRANCH  11  12
ENDBRANCH  10  11
ENDBRANCH   9  10
ENDBRANCH   6   9
BRANCH   6  38
HETATM   38  C   UNL     4      -7.688  13.203  67.591  1.00  0.00    -0.168 C  
HETATM   39  C   UNL     4      -7.315  14.588  67.022  1.00  0.00     0.275 C  
ENDBRANCH   6  38
ENDBRANCH   5   6
TORSDOF 21
ENDMDL
MODEL      134
REMARK 921   NORMALIZED FREE ENERGY PREDICTED BY IDOCK:    3.71 KCAL/MOL
REMARK 922        TOTAL FREE ENERGY PREDICTED BY IDOCK:    5.96 KCAL/MOL
REMARK 923 INTER-LIGAND FREE ENERGY PREDICTED BY IDOCK:   -0.62 KCAL/MOL
REMARK 924 INTRA-LIGAND FREE ENERGY PREDICTED BY IDOCK:    6.58 KCAL/MOL
REMARK 927      BINDING AFFINITY PREDICTED BY RF-SCORE:    0.00 PKD
ROOT
HETATM    1  I   UNL     1     -12.129  11.178  63.313  1.00  0.00     2.501 I  
HETATM    2  I   UNL     2     -11.848  16.291  64.443  1.00  0.00     1.637 I  
HETATM    3  I   UNL     3     -10.588  11.134  67.033  1.00  0.00    -0.328 I  
HETATM    4  C   UNL     4     -12.867  12.003  69.992  1.00  0.00     0.405 C  
HETATM    5  C   UNL     4     -13.157  13.312  70.757  1.00  0.00     0.076 C  
ENDROOT
BRANCH   5   6
HETATM    6  N   UNL     4     -12.107  14.386  70.666  1.00  0.00    -0.313 N  
BRANCH   6   7
HETATM    7  C   UNL     4     -11.984  15.050  72.016  1.00  0.00    -0.388 C  
HETATM    8  C   UNL     4     -13.270  15.675  72.593  1.00  0.00    -0.592 C  
ENDBRANCH   6   7
BRANCH   6   9
HETATM    9  C   UNL     4     -10.809  13.754  70.240  1.00  0.00     0.776 C  
BRANCH   9  10
HETATM   10  C   UNL     4     -10.764  12.876  68.952  1.00  0.00    -0.160 C  
BRANCH  10  11
HETATM   11  O   UNL     4      -9.611  12.932  68.190  1.00  0.00    -0.214 OA 
BRANCH  11  12
HETATM   12  C   UNL     4      -8.895  14.001  67.758  1.00  0.00    -0.187 A  
HETATM   13  C   UNL     4      -9.285  14.642  66.573  1.00  0.00    -0.294 A  
HETATM   14  C   UNL     4      -8.578  15.701  66.068  1.00  0.00     0.027 A  
HETATM   15  C   UNL     4      -7.497  16.194  66.750  1.00  0.00    -0.246 A  
HETATM   16  C   UNL     4      -7.046  15.632  67.979  1.00  0.00    -0.122 A  
HETATM   17  C   UNL     4      -7.746  14.491  68.499  1.00  0.00    -0.129 A  
BRANCH  16  18
HETATM   18  O   UNL     4      -5.981  16.216  68.640  1.00  0.00    -0.103 OA 
BRANCH  18  19
HETATM   19  C   UNL     4      -5.291  17.263  68.018  1.00  0.00    -0.121 C  
BRANCH  19  20
HETATM   20  C   UNL     4      -6.035  18.553  67.589  1.00  0.00    -0.176 C  
BRANCH  20  21
HETATM   21  N   UNL     4      -6.314  19.493  68.764  1.00  0.00    -0.246 N  
BRANCH  21  22
HETATM   22  C   UNL     4      -6.091  20.931  68.362  1.00  0.00    -0.323 C  
HETATM   23  C   UNL     4      -6.198  21.256  66.862  1.00  0.00    -0.400 C  
ENDBRANCH  21  22
BRANCH  21  24
HETATM   24  C   UNL     4      -5.368  19.185  69.901  1.00  0.00    -0.207 C  
HETATM   25  C   UNL     4      -5.782  19.656  71.312  1.00  0.00    -0.267 C  
ENDBRANCH  21  24
BRANCH  21  26
HETATM   26  C   UNL     4      -7.744  19.356  69.206  1.00  0.00    -0.167 C  
HETATM   27  C   UNL     4      -8.774  19.066  68.101  1.00  0.00    -0.351 C  
ENDBRANCH  21  26
ENDBRANCH  20  21
ENDBRANCH  19  20
ENDBRANCH  18  19
ENDBRANCH  16  18
BRANCH  17  28
HETATM   28  O   UNL     4      -7.322  13.907  69.680  1.00  0.00     0.115 OA 
BRANCH  28  29
HETATM   29  C   UNL     4      -5.982  13.761  70.045  1.00  0.00    -0.144 C  
BRANCH  29  30
HETATM   30  C   UNL     4      -5.190  12.695  69.257  1.00  0.00    -0.069 C  
BRANCH  30  31
HETATM   31  N   UNL     4      -6.011  11.506  68.777  1.00  0.00    -0.047 N  
BRANCH  31  32
HETATM   32  C   UNL     4      -6.627  11.762  67.428  1.00  0.00    -0.118 C  
HETATM   33  C   UNL     4      -6.365  10.718  66.333  1.00  0.00    -0.122 C  
ENDBRANCH  31  32
BRANCH  31  34
HETATM   34  C   UNL     4      -7.113  11.254  69.769  1.00  0.00     0.052 C  
HETATM   35  C   UNL     4      -7.899   9.935  69.595  1.00  0.00    -0.156 C  
ENDBRANCH  31  34
BRANCH  31  36
HETATM   36  C   UNL     4      -5.134  10.279  68.636  1.00  0.00    -0.038 C  
HETATM   37  C   UNL     4      -5.321   9.161  69.685  1.00  0.00    -0.034 C  
ENDBRANCH  31  36
ENDBRANCH  30  31
ENDBRANCH  29  30
ENDBRANCH  28  29
ENDBRANCH  17  28
ENDBRANCH  11  12
ENDBRANCH  10  11
ENDBRANCH   9  10
ENDBRANCH   6   9
BRANCH   6  38
HETATM   38  C   UNL     4     -12.498  15.441  69.664  1.00  0.00    -0.136 C  
HETATM   39  C   UNL     4     -11.490  16.588  69.447  1.00  0.00    -0.013 C  
ENDBRANCH   6  38
ENDBRANCH   5   6
TORSDOF 21
ENDMDL
MODEL      135
REMARK 921   NORMALIZED FREE ENERGY PREDICTED BY IDOCK:    3.76 KCAL/MOL
REMARK 922        TOTAL FREE ENERGY PREDICTED BY IDOCK:    6.06 KCAL/MOL
REMARK 923 INTER-LIGAND FREE ENERGY PREDICTED BY IDOCK:   -3.15 KCAL/MOL
REMARK 924 INTRA-LIGAND FREE ENERGY PREDICTED BY IDOCK:    9.22 KCAL/MOL
REMARK 927      BINDING AFFINITY PREDICTED BY RF-SCORE:    0.00 PKD
ROOT
HETATM    1  I   UNL     1     -13.070  10.612  71.156  1.00  0.00    -0.115 I  
HETATM    2  I   UNL     2      -8.464   9.538  68.892  1.00  0.00    -0.141 I  
HETATM    3  I   UNL     3     -12.906   6.599  71.446  1.00  0.00     0.395 I  
HETATM    4  C   UNL     4     -10.484   5.022  73.966  1.00  0.00    -0.325 C  
HETATM    5  C   UNL     4      -9.039   4.490  73.856  1.00  0.00    -0.107 C  
ENDROOT
BRANCH   5   6
HETATM    6  N   UNL     4      -8.573   4.103  72.479  1.00  0.00    -0.103 N  
BRANCH   6   7
HETATM    7  C   UNL     4      -8.673   2.603  72.344  1.00  0.00    -0.070 C  
HETATM    8  C   UNL     4      -8.168   1.771  73.540  1.00  0.00    -0.050 C  
ENDBRANCH   6   7
BRANCH   6   9
HETATM    9  C   UNL     4      -9.432   4.808  71.465  1.00  0.00    -0.153 C  
BRANCH   9  10
HETATM   10  C   UNL     4      -9.909   4.043  70.192  1.00  0.00    -0.137 C  
BRANCH  10  11
HETATM   11  O   UNL     4      -8.938   3.667  69.281  1.00  0.00    -0.092 OA 
BRANCH  11  12
HETATM   12  C   UNL     4      -8.930   3.741  67.926  1.00  0.00    -0.127 A  
HETATM   13  C   UNL     4      -9.448   2.668  67.187  1.00  0.00    -0.031 A  
HETATM   14  C   UNL     4      -9.431   2.668  65.817  1.00  0.00     0.076 A  
HETATM   15  C   UNL     4      -8.951   3.756  65.137  1.00  0.00    -0.132 A  
HETATM   16  C   UNL     4      -8.436   4.908  65.799  1.00  0.00    -0.121 A  
HETATM   17  C   UNL     4      -8.402   4.904  67.235  1.00  0.00    -0.106 A  
BRANCH  16  18
HETATM   18  O   UNL     4      -8.018   5.991  65.049  1.00  0.00    -0.111 OA 
BRANCH  18  19
HETATM   19  C   UNL     4      -8.607   7.240  65.279  1.00  0.00     0.014 C  
BRANCH  19  20
HETATM   20  C   UNL     4      -8.648   8.312  64.161  1.00  0.00     0.144 C  
BRANCH  20  21
HETATM   21  N   UNL     4      -7.649   9.448  64.393  1.00  0.00    -0.110 N  
BRANCH  21  22
HETATM   22  C   UNL     4      -8.088  10.318  65.547  1.00  0.00    -0.156 C  
HETATM   23  C   UNL     4      -7.012  10.689  66.583  1.00  0.00    -0.119 C  
ENDBRANCH  21  22
BRANCH  21  24
HETATM   24  C   UNL     4      -7.576  10.324  63.164  1.00  0.00    -0.132 C  
HETATM   25  C   UNL     4      -8.894  10.956  62.666  1.00  0.00    -0.333 C  
ENDBRANCH  21  24
BRANCH  21  26
HETATM   26  C   UNL     4      -6.297   8.886  64.730  1.00  0.00    -0.066 C  
HETATM   27  C   UNL     4      -5.188   9.106  63.687  1.00  0.00    -0.061 C  
ENDBRANCH  21  26
ENDBRANCH  20  21
ENDBRANCH  19  20
ENDBRANCH  18  19
ENDBRANCH  16  18
BRANCH  17  28
HETATM   28  O   UNL     4      -7.888   5.997  67.911  1.00  0.00    -0.102 OA 
BRANCH  28  29
HETATM   29  C   UNL     4      -8.587   6.721  68.878  1.00  0.00    -0.130 C  
BRANCH  29  30
HETATM   30  C   UNL     4      -7.805   7.880  69.536  1.00  0.00    -0.110 C  
BRANCH  30  31
HETATM   31  N   UNL     4      -6.730   7.452  70.525  1.00  0.00    -0.047 N  
BRANCH  31  32
HETATM   32  C   UNL     4      -6.377   5.997  70.369  1.00  0.00    -0.032 C  
HETATM   33  C   UNL     4      -5.453   5.626  69.199  1.00  0.00    -0.007 C  
ENDBRANCH  31  32
BRANCH  31  34
HETATM   34  C   UNL     4      -7.245   7.675  71.920  1.00  0.00    -0.065 C  
HETATM   35  C   UNL     4      -8.706   8.164  72.037  1.00  0.00    -0.221 C  
ENDBRANCH  31  34
BRANCH  31  36
HETATM   36  C   UNL     4      -5.458   8.242  70.298  1.00  0.00    -0.022 C  
HETATM   37  C   UNL     4      -5.179   9.413  71.265  1.00  0.00    -0.050 C  
ENDBRANCH  31  36
ENDBRANCH  30  31
ENDBRANCH  29  30
ENDBRANCH  28  29
ENDBRANCH  17  28
ENDBRANCH  11  12
ENDBRANCH  10  11
ENDBRANCH   9  10
ENDBRANCH   6   9
BRANCH   6  38
HETATM   38  C   UNL     4      -7.133   4.492  72.266  1.00  0.00    -0.062 C  
HETATM   39  C   UNL     4      -6.258   4.602  73.531  1.00  0.00    -0.037 C  
ENDBRANCH   6  38
ENDBRANCH   5   6
TORSDOF 21
ENDMDL
MODEL      136
REMARK 921   NORMALIZED FREE ENERGY PREDICTED BY IDOCK:    3.99 KCAL/MOL
REMARK 922        TOTAL FREE ENERGY PREDICTED BY IDOCK:    6.57 KCAL/MOL
REMARK 923 INTER-LIGAND FREE ENERGY PREDICTED BY IDOCK:    7.85 KCAL/MOL
REMARK 924 INTRA-LIGAND FREE ENERGY PREDICTED BY IDOCK:   -1.28 KCAL/MOL
REMARK 927      BINDING AFFINITY PREDICTED BY RF-SCORE:    0.00 PKD
ROOT
HETATM    1  I   UNL     1      -8.257  20.560  68.503  1.00  0.00     0.917 I  
HETATM    2  I   UNL     2     -10.717  17.147  65.372  1.00  0.00     0.582 I  
HETATM    3  I   UNL     3      -7.636  17.069  70.411  1.00  0.00     4.103 I  
HETATM    4  C   UNL     4      -5.153  14.558  68.916  1.00  0.00    -0.088 C  
HETATM    5  C   UNL     4      -5.312  13.344  67.975  1.00  0.00    -0.110 C  
ENDROOT
BRANCH   5   6
HETATM    6  N   UNL     4      -6.678  12.717  67.917  1.00  0.00    -0.100 N  
BRANCH   6   7
HETATM    7  C   UNL     4      -6.619  11.528  66.989  1.00  0.00    -0.138 C  
HETATM    8  C   UNL     4      -5.414  11.465  66.030  1.00  0.00     0.033 C  
ENDBRANCH   6   7
BRANCH   6   9
HETATM    9  C   UNL     4      -7.081  12.313  69.309  1.00  0.00     0.061 C  
BRANCH   9  10
HETATM   10  C   UNL     4      -6.845  10.848  69.787  1.00  0.00    -0.134 C  
BRANCH  10  11
HETATM   11  O   UNL     4      -7.820   9.918  69.474  1.00  0.00    -0.109 OA 
BRANCH  11  12
HETATM   12  C   UNL     4      -9.128  10.091  69.153  1.00  0.00    -0.184 A  
HETATM   13  C   UNL     4      -9.996  10.623  70.117  1.00  0.00     0.414 A  
HETATM   14  C   UNL     4     -11.333  10.784  69.864  1.00  0.00    -0.385 A  
HETATM   15  C   UNL     4     -11.840  10.475  68.629  1.00  0.00    -0.047 A  
HETATM   16  C   UNL     4     -11.031   9.962  67.575  1.00  0.00    -0.173 A  
HETATM   17  C   UNL     4      -9.636   9.742  67.838  1.00  0.00    -0.138 A  
BRANCH  16  18
HETATM   18  O   UNL     4     -11.600   9.723  66.338  1.00  0.00     1.123 OA 
BRANCH  18  19
HETATM   19  C   UNL     4     -11.440  10.677  65.325  1.00  0.00     1.142 C  
BRANCH  19  20
HETATM   20  C   UNL     4     -12.470  11.822  65.150  1.00  0.00     0.791 C  
BRANCH  20  21
HETATM   21  N   UNL     4     -11.842  13.210  65.300  1.00  0.00    -0.345 N  
BRANCH  21  22
HETATM   22  C   UNL     4     -12.460  13.954  66.459  1.00  0.00    -0.321 C  
HETATM   23  C   UNL     4     -11.669  13.958  67.779  1.00  0.00    -0.401 C  
ENDBRANCH  21  22
BRANCH  21  24
HETATM   24  C   UNL     4     -12.093  14.022  64.051  1.00  0.00    -0.376 C  
HETATM   25  C   UNL     4     -12.935  13.364  62.936  1.00  0.00     1.422 C  
ENDBRANCH  21  24
BRANCH  21  26
HETATM   26  C   UNL     4     -10.368  13.084  65.568  1.00  0.00    -0.294 C  
HETATM   27  C   UNL     4      -9.435  13.331  64.371  1.00  0.00     1.014 C  
ENDBRANCH  21  26
ENDBRANCH  20  21
ENDBRANCH  19  20
ENDBRANCH  18  19
ENDBRANCH  16  18
BRANCH  17  28
HETATM   28  O   UNL     4      -8.825   9.223  66.844  1.00  0.00    -0.125 OA 
BRANCH  28  29
HETATM   29  C   UNL     4      -9.228   8.243  65.935  1.00  0.00    -0.123 C  
BRANCH  29  30
HETATM   30  C   UNL     4      -9.710   6.915  66.559  1.00  0.00    -0.124 C  
BRANCH  30  31
HETATM   31  N   UNL     4      -8.602   5.941  66.936  1.00  0.00    -0.111 N  
BRANCH  31  32
HETATM   32  C   UNL     4      -7.465   5.981  65.949  1.00  0.00    -0.082 C  
HETATM   33  C   UNL     4      -6.052   6.159  66.522  1.00  0.00    -0.032 C  
ENDBRANCH  31  32
BRANCH  31  34
HETATM   34  C   UNL     4      -9.172   4.550  66.957  1.00  0.00    -0.134 C  
HETATM   35  C   UNL     4      -8.152   3.396  67.068  1.00  0.00    -0.083 C  
ENDBRANCH  31  34
BRANCH  31  36
HETATM   36  C   UNL     4      -8.023   6.297  68.290  1.00  0.00    -0.108 C  
HETATM   37  C   UNL     4      -8.953   6.133  69.513  1.00  0.00    -0.133 C  
ENDBRANCH  31  36
ENDBRANCH  30  31
ENDBRANCH  29  30
ENDBRANCH  28  29
ENDBRANCH  17  28
ENDBRANCH  11  12
ENDBRANCH  10  11
ENDBRANCH   9  10
ENDBRANCH   6   9
BRANCH   6  38
HETATM   38  C   UNL     4      -7.694  13.684  67.366  1.00  0.00    -0.143 C  
HETATM   39  C   UNL     4      -7.139  14.978  66.737  1.00  0.00     0.789 C  
ENDBRANCH   6  38
ENDBRANCH   5   6
TORSDOF 21
ENDMDL
MODEL      137
REMARK 921   NORMALIZED FREE ENERGY PREDICTED BY IDOCK:    4.28 KCAL/MOL
REMARK 922        TOTAL FREE ENERGY PREDICTED BY IDOCK:    7.21 KCAL/MOL
REMARK 923 INTER-LIGAND FREE ENERGY PREDICTED BY IDOCK:    4.27 KCAL/MOL
REMARK 924 INTRA-LIGAND FREE ENERGY PREDICTED BY IDOCK:    2.93 KCAL/MOL
REMARK 927      BINDING AFFINITY PREDICTED BY RF-SCORE:    0.00 PKD
ROOT
HETATM    1  I   UNL     1     -13.247  12.047  70.483  1.00  0.00     1.676 I  
HETATM    2  I   UNL     2     -13.062  14.963  66.128  1.00  0.00     3.048 I  
HETATM    3  I   UNL     3      -9.332  11.912  69.545  1.00  0.00     2.122 I  
HETATM    4  C   UNL     4      -7.188  15.044  70.092  1.00  0.00     0.101 C  
HETATM    5  C   UNL     4      -6.769  16.214  69.176  1.00  0.00    -0.190 C  
ENDROOT
BRANCH   5   6
HETATM    6  N   UNL     4      -6.819  15.953  67.695  1.00  0.00    -0.150 N  
BRANCH   6   7
HETATM    7  C   UNL     4      -5.415  16.044  67.147  1.00  0.00     0.122 C  
HETATM    8  C   UNL     4      -5.145  17.174  66.133  1.00  0.00     0.015 C  
ENDBRANCH   6   7
BRANCH   6   9
HETATM    9  C   UNL     4      -7.415  14.591  67.466  1.00  0.00    -0.194 C  
BRANCH   9  10
HETATM   10  C   UNL     4      -7.201  13.467  68.524  1.00  0.00    -0.110 C  
BRANCH  10  11
HETATM   11  O   UNL     4      -6.285  12.477  68.216  1.00  0.00    -0.057 OA 
BRANCH  11  12
HETATM   12  C   UNL     4      -5.931  11.362  68.905  1.00  0.00    -0.048 A  
HETATM   13  C   UNL     4      -5.534  11.492  70.243  1.00  0.00    -0.121 A  
HETATM   14  C   UNL     4      -5.129  10.408  70.977  1.00  0.00    -0.082 A  
HETATM   15  C   UNL     4      -5.158   9.154  70.425  1.00  0.00    -0.027 A  
HETATM   16  C   UNL     4      -5.580   8.918  69.084  1.00  0.00    -0.036 A  
HETATM   17  C   UNL     4      -5.962  10.049  68.286  1.00  0.00    -0.042 A  
BRANCH  16  18
HETATM   18  O   UNL     4      -5.636   7.620  68.611  1.00  0.00    -0.025 OA 
BRANCH  18  19
HETATM   19  C   UNL     4      -5.758   6.571  69.529  1.00  0.00    -0.014 C  
BRANCH  19  20
HETATM   20  C   UNL     4      -7.134   5.908  69.791  1.00  0.00    -0.068 C  
BRANCH  20  21
HETATM   21  N   UNL     4      -7.439   4.770  68.813  1.00  0.00    -0.064 N  
BRANCH  21  22
HETATM   22  C   UNL     4      -6.163   4.205  68.237  1.00  0.00    -0.032 C  
HETATM   23  C   UNL     4      -6.022   4.235  66.705  1.00  0.00    -0.024 C  
ENDBRANCH  21  22
BRANCH  21  24
HETATM   24  C   UNL     4      -8.266   5.294  67.662  1.00  0.00    -0.099 C  
HETATM   25  C   UNL     4      -9.197   6.492  67.947  1.00  0.00    -0.110 C  
ENDBRANCH  21  24
BRANCH  21  26
HETATM   26  C   UNL     4      -8.156   3.657  69.523  1.00  0.00    -0.053 C  
HETATM   27  C   UNL     4      -7.272   2.650  70.278  1.00  0.00    -0.033 C  
ENDBRANCH  21  26
ENDBRANCH  20  21
ENDBRANCH  19  20
ENDBRANCH  18  19
ENDBRANCH  16  18
BRANCH  17  28
HETATM   28  O   UNL     4      -6.356   9.858  66.973  1.00  0.00    -0.063 OA 
BRANCH  28  29
HETATM   29  C   UNL     4      -5.511   9.400  65.960  1.00  0.00    -0.040 C  
BRANCH  29  30
HETATM   30  C   UNL     4      -5.988   9.682  64.518  1.00  0.00    -0.086 C  
BRANCH  30  31
HETATM   31  N   UNL     4      -7.457   9.382  64.255  1.00  0.00    -0.106 N  
BRANCH  31  32
HETATM   32  C   UNL     4      -8.336   9.881  65.372  1.00  0.00    -0.146 C  
HETATM   33  C   UNL     4      -8.368  11.397  65.608  1.00  0.00     0.168 C  
ENDBRANCH  31  32
BRANCH  31  34
HETATM   34  C   UNL     4      -7.629   7.893  64.136  1.00  0.00    -0.112 C  
HETATM   35  C   UNL     4      -6.361   7.086  63.784  1.00  0.00    -0.043 C  
ENDBRANCH  31  34
BRANCH  31  36
HETATM   36  C   UNL     4      -7.920  10.072  62.988  1.00  0.00    -0.142 C  
HETATM   37  C   UNL     4      -9.280   9.629  62.407  1.00  0.00    -0.248 C  
ENDBRANCH  31  36
ENDBRANCH  30  31
ENDBRANCH  29  30
ENDBRANCH  28  29
ENDBRANCH  17  28
ENDBRANCH  11  12
ENDBRANCH  10  11
ENDBRANCH   9  10
ENDBRANCH   6   9
BRANCH   6  38
HETATM   38  C   UNL     4      -7.658  16.988  66.991  1.00  0.00    -0.189 C  
HETATM   39  C   UNL     4      -9.120  17.122  67.463  1.00  0.00    -0.225 C  
ENDBRANCH   6  38
ENDBRANCH   5   6
TORSDOF 21
ENDMDL
MODEL      138
REMARK 921   NORMALIZED FREE ENERGY PREDICTED BY IDOCK:    4.31 KCAL/MOL
REMARK 922        TOTAL FREE ENERGY PREDICTED BY IDOCK:    7.29 KCAL/MOL
REMARK 923 INTER-LIGAND FREE ENERGY PREDICTED BY IDOCK:    1.72 KCAL/MOL
REMARK 924 INTRA-LIGAND FREE ENERGY PREDICTED BY IDOCK:    5.57 KCAL/MOL
REMARK 927      BINDING AFFINITY PREDICTED BY RF-SCORE:    0.00 PKD
ROOT
HETATM    1  I   UNL     1     -14.359   7.275  71.087  1.00  0.00     0.734 I  
HETATM    2  I   UNL     2     -10.628   9.056  67.862  1.00  0.00    -0.050 I  
HETATM    3  I   UNL     3     -13.240  10.692  72.901  1.00  0.00     4.250 I  
HETATM    4  C   UNL     4     -14.272  14.039  71.341  1.00  0.00    -0.098 C  
HETATM    5  C   UNL     4     -13.574  15.014  70.367  1.00  0.00     0.221 C  
ENDROOT
BRANCH   5   6
HETATM    6  N   UNL     4     -12.075  14.923  70.291  1.00  0.00    -0.303 N  
BRANCH   6   7
HETATM    7  C   UNL     4     -11.673  13.481  70.487  1.00  0.00    -0.066 C  
HETATM    8  C   UNL     4     -12.818  12.451  70.544  1.00  0.00     0.087 C  
ENDBRANCH   6   7
BRANCH   6   9
HETATM    9  C   UNL     4     -11.629  15.444  68.952  1.00  0.00    -0.354 C  
BRANCH   9  10
HETATM   10  C   UNL     4     -11.833  14.570  67.677  1.00  0.00    -0.364 C  
BRANCH  10  11
HETATM   11  O   UNL     4     -11.376  13.264  67.727  1.00  0.00    -0.266 OA 
BRANCH  11  12
HETATM   12  C   UNL     4     -10.122  12.779  67.912  1.00  0.00    -0.231 A  
HETATM   13  C   UNL     4      -9.877  11.940  69.009  1.00  0.00     0.118 A  
HETATM   14  C   UNL     4      -8.624  11.452  69.269  1.00  0.00     0.302 A  
HETATM   15  C   UNL     4      -7.586  11.734  68.419  1.00  0.00    -0.123 A  
HETATM   16  C   UNL     4      -7.745  12.549  67.261  1.00  0.00    -0.146 A  
HETATM   17  C   UNL     4      -9.042  13.108  66.999  1.00  0.00    -0.231 A  
BRANCH  16  18
HETATM   18  O   UNL     4      -6.666  12.747  66.419  1.00  0.00     0.722 OA 
BRANCH  18  19
HETATM   19  C   UNL     4      -5.950  11.633  65.965  1.00  0.00     0.506 C  
BRANCH  19  20
HETATM   20  C   UNL     4      -6.635  10.247  65.852  1.00  0.00    -0.113 C  
BRANCH  20  21
HETATM   21  N   UNL     4      -6.902   9.836  64.402  1.00  0.00    -0.113 N  
BRANCH  21  22
HETATM   22  C   UNL     4      -6.193  10.763  63.444  1.00  0.00     0.161 C  
HETATM   23  C   UNL     4      -5.155  10.126  62.504  1.00  0.00    -0.095 C  
ENDBRANCH  21  22
BRANCH  21  24
HETATM   24  C   UNL     4      -8.381   9.923  64.109  1.00  0.00    -0.168 C  
HETATM   25  C   UNL     4      -9.256  10.706  65.112  1.00  0.00    -0.241 C  
ENDBRANCH  21  24
BRANCH  21  26
HETATM   26  C   UNL     4      -6.389   8.444  64.157  1.00  0.00    -0.067 C  
HETATM   27  C   UNL     4      -6.879   7.357  65.129  1.00  0.00    -0.047 C  
ENDBRANCH  21  26
ENDBRANCH  20  21
ENDBRANCH  19  20
ENDBRANCH  18  19
ENDBRANCH  16  18
BRANCH  17  28
HETATM   28  O   UNL     4      -9.227  13.922  65.895  1.00  0.00    -0.038 OA 
BRANCH  28  29
HETATM   29  C   UNL     4      -9.107  15.312  65.917  1.00  0.00    -0.103 C  
BRANCH  29  30
HETATM   30  C   UNL     4      -7.738  15.855  66.386  1.00  0.00     0.090 C  
BRANCH  30  31
HETATM   31  N   UNL     4      -7.792  17.180  67.132  1.00  0.00    -0.176 N  
BRANCH  31  32
HETATM   32  C   UNL     4      -8.954  18.026  66.682  1.00  0.00    -0.273 C  
HETATM   33  C   UNL     4     -10.118  18.192  67.670  1.00  0.00    -0.367 C  
ENDBRANCH  31  32
BRANCH  31  34
HETATM   34  C   UNL     4      -6.518  17.933  66.865  1.00  0.00    -0.176 C  
HETATM   35  C   UNL     4      -6.033  17.955  65.398  1.00  0.00    -0.067 C  
ENDBRANCH  31  34
BRANCH  31  36
HETATM   36  C   UNL     4      -7.967  16.945  68.618  1.00  0.00    -0.256 C  
HETATM   37  C   UNL     4      -7.127  17.825  69.570  1.00  0.00     0.089 C  
ENDBRANCH  31  36
ENDBRANCH  30  31
ENDBRANCH  29  30
ENDBRANCH  28  29
ENDBRANCH  17  28
ENDBRANCH  11  12
ENDBRANCH  10  11
ENDBRANCH   9  10
ENDBRANCH   6   9
BRANCH   6  38
HETATM   38  C   UNL     4     -11.427  15.736  71.381  1.00  0.00    -0.429 C  
HETATM   39  C   UNL     4     -12.260  15.955  72.661  1.00  0.00    -0.603 C  
ENDBRANCH   6  38
ENDBRANCH   5   6
TORSDOF 21
ENDMDL
MODEL      139
REMARK 921   NORMALIZED FREE ENERGY PREDICTED BY IDOCK:    4.42 KCAL/MOL
REMARK 922        TOTAL FREE ENERGY PREDICTED BY IDOCK:    7.53 KCAL/MOL
REMARK 923 INTER-LIGAND FREE ENERGY PREDICTED BY IDOCK:    2.98 KCAL/MOL
REMARK 924 INTRA-LIGAND FREE ENERGY PREDICTED BY IDOCK:    4.55 KCAL/MOL
REMARK 927      BINDING AFFINITY PREDICTED BY RF-SCORE:    0.00 PKD
ROOT
HETATM    1  I   UNL     1      -8.117   5.206  63.822  1.00  0.00    -0.104 I  
HETATM    2  I   UNL     2     -11.650   6.803  67.352  1.00  0.00     2.344 I  
HETATM    3  I   UNL     3      -9.143   8.833  62.404  1.00  0.00     1.041 I  
HETATM    4  C   UNL     4      -7.908  11.959  64.249  1.00  0.00     2.763 C  
HETATM    5  C   UNL     4      -8.526  12.857  65.342  1.00  0.00     2.151 C  
ENDROOT
BRANCH   5   6
HETATM    6  N   UNL     4     -10.025  12.821  65.468  1.00  0.00    -0.255 N  
BRANCH   6   7
HETATM    7  C   UNL     4     -10.536  11.601  64.741  1.00  0.00    -0.295 C  
HETATM    8  C   UNL     4     -11.770  11.806  63.840  1.00  0.00    -0.461 C  
ENDBRANCH   6   7
BRANCH   6   9
HETATM    9  C   UNL     4     -10.384  12.786  66.928  1.00  0.00    -0.238 C  
BRANCH   9  10
HETATM   10  C   UNL     4     -11.792  12.277  67.365  1.00  0.00    -0.257 C  
BRANCH  10  11
HETATM   11  O   UNL     4     -11.964  11.971  68.703  1.00  0.00    -0.316 OA 
BRANCH  11  12
HETATM   12  C   UNL     4     -11.778  10.802  69.368  1.00  0.00    -0.306 A  
HETATM   13  C   UNL     4     -12.875  10.206  70.007  1.00  0.00     0.151 A  
HETATM   14  C   UNL     4     -12.740   9.047  70.725  1.00  0.00     0.100 A  
HETATM   15  C   UNL     4     -11.526   8.414  70.786  1.00  0.00    -0.277 A  
HETATM   16  C   UNL     4     -10.363   8.924  70.141  1.00  0.00    -0.206 A  
HETATM   17  C   UNL     4     -10.476  10.163  69.423  1.00  0.00    -0.233 A  
BRANCH  16  18
HETATM   18  O   UNL     4      -9.184   8.204  70.199  1.00  0.00    -0.153 OA 
BRANCH  18  19
HETATM   19  C   UNL     4      -9.249   6.811  70.325  1.00  0.00    -0.156 C  
BRANCH  19  20
HETATM   20  C   UNL     4      -9.039   5.897  69.091  1.00  0.00    -0.122 C  
BRANCH  20  21
HETATM   21  N   UNL     4      -7.578   5.483  68.904  1.00  0.00    -0.085 N  
BRANCH  21  22
HETATM   22  C   UNL     4      -6.820   6.531  68.126  1.00  0.00    -0.074 C  
HETATM   23  C   UNL     4      -6.951   6.485  66.593  1.00  0.00    -0.067 C  
ENDBRANCH  21  22
BRANCH  21  24
HETATM   24  C   UNL     4      -7.508   4.194  68.119  1.00  0.00    -0.067 C  
HETATM   25  C   UNL     4      -6.699   4.209  66.804  1.00  0.00    -0.050 C  
ENDBRANCH  21  24
BRANCH  21  26
HETATM   26  C   UNL     4      -6.908   5.331  70.241  1.00  0.00    -0.048 C  
HETATM   27  C   UNL     4      -7.608   4.407  71.252  1.00  0.00    -0.064 C  
ENDBRANCH  21  26
ENDBRANCH  20  21
ENDBRANCH  19  20
ENDBRANCH  18  19
ENDBRANCH  16  18
BRANCH  17  28
HETATM   28  O   UNL     4      -9.361  10.699  68.803  1.00  0.00    -0.165 OA 
BRANCH  28  29
HETATM   29  C   UNL     4      -8.810  10.208  67.618  1.00  0.00    -0.125 C  
BRANCH  29  30
HETATM   30  C   UNL     4      -7.346   9.725  67.714  1.00  0.00    -0.089 C  
BRANCH  30  31
HETATM   31  N   UNL     4      -6.336  10.801  68.089  1.00  0.00    -0.057 N  
BRANCH  31  32
HETATM   32  C   UNL     4      -5.349  10.305  69.112  1.00  0.00    -0.038 C  
HETATM   33  C   UNL     4      -5.915   9.517  70.302  1.00  0.00    -0.047 C  
ENDBRANCH  31  32
BRANCH  31  34
HETATM   34  C   UNL     4      -7.079  11.974  68.667  1.00  0.00    -0.103 C  
HETATM   35  C   UNL     4      -7.101  13.258  67.807  1.00  0.00    -0.149 C  
ENDBRANCH  31  34
BRANCH  31  36
HETATM   36  C   UNL     4      -5.538  11.225  66.874  1.00  0.00    -0.101 C  
HETATM   37  C   UNL     4      -5.350  10.173  65.758  1.00  0.00    -0.056 C  
ENDBRANCH  31  36
ENDBRANCH  30  31
ENDBRANCH  29  30
ENDBRANCH  28  29
ENDBRANCH  17  28
ENDBRANCH  11  12
ENDBRANCH  10  11
ENDBRANCH   9  10
ENDBRANCH   6   9
BRANCH   6  38
HETATM   38  C   UNL     4     -10.650  14.035  64.831  1.00  0.00    -0.424 C  
HETATM   39  C   UNL     4     -12.065  14.412  65.316  1.00  0.00    -0.380 C  
ENDBRANCH   6  38
ENDBRANCH   5   6
TORSDOF 21
ENDMDL
MODEL      140
REMARK 921   NORMALIZED FREE ENERGY PREDICTED BY IDOCK:    4.67 KCAL/MOL
REMARK 922        TOTAL FREE ENERGY PREDICTED BY IDOCK:    8.08 KCAL/MOL
REMARK 923 INTER-LIGAND FREE ENERGY PREDICTED BY IDOCK:    1.21 KCAL/MOL
REMARK 924 INTRA-LIGAND FREE ENERGY PREDICTED BY IDOCK:    6.87 KCAL/MOL
REMARK 927      BINDING AFFINITY PREDICTED BY RF-SCORE:    0.00 PKD
ROOT
HETATM    1  I   UNL     1     -10.766  18.425  66.798  1.00  0.00     0.113 I  
HETATM    2  I   UNL     2     -12.599  14.500  69.753  1.00  0.00     0.291 I  
HETATM    3  I   UNL     3      -8.044  15.531  66.137  1.00  0.00     1.882 I  
HETATM    4  C   UNL     4      -9.024  12.529  63.961  1.00  0.00     1.577 C  
HETATM    5  C   UNL     4      -9.579  11.125  64.282  1.00  0.00    -0.252 C  
ENDROOT
BRANCH   5   6
HETATM    6  N   UNL     4      -9.334  10.612  65.675  1.00  0.00    -0.190 N  
BRANCH   6   7
HETATM    7  C   UNL     4     -10.622  10.715  66.455  1.00  0.00    -0.175 C  
HETATM    8  C   UNL     4     -11.374  12.057  66.364  1.00  0.00    -0.411 C  
ENDBRANCH   6   7
BRANCH   6   9
HETATM    9  C   UNL     4      -8.854   9.189  65.585  1.00  0.00    -0.185 C  
BRANCH   9  10
HETATM   10  C   UNL     4      -9.151   8.199  66.753  1.00  0.00    -0.157 C  
BRANCH  10  11
HETATM   11  O   UNL     4      -9.261   6.858  66.430  1.00  0.00    -0.161 OA 
BRANCH  11  12
HETATM   12  C   UNL     4      -9.025   5.752  67.179  1.00  0.00    -0.113 A  
HETATM   13  C   UNL     4      -9.875   4.646  67.040  1.00  0.00    -0.232 A  
HETATM   14  C   UNL     4      -9.709   3.517  67.798  1.00  0.00    -0.080 A  
HETATM   15  C   UNL     4      -8.661   3.426  68.676  1.00  0.00    -0.141 A  
HETATM   16  C   UNL     4      -7.725   4.484  68.862  1.00  0.00    -0.070 A  
HETATM   17  C   UNL     4      -7.912   5.693  68.110  1.00  0.00    -0.097 A  
BRANCH  16  18
HETATM   18  O   UNL     4      -6.661   4.302  69.726  1.00  0.00    -0.032 OA 
BRANCH  18  19
HETATM   19  C   UNL     4      -6.799   4.701  71.061  1.00  0.00    -0.036 C  
BRANCH  19  20
HETATM   20  C   UNL     4      -6.932   3.647  72.189  1.00  0.00    -0.041 C  
BRANCH  20  21
HETATM   21  N   UNL     4      -7.625   2.364  71.721  1.00  0.00    -0.040 N  
BRANCH  21  22
HETATM   22  C   UNL     4      -8.170   1.592  72.898  1.00  0.00    -0.052 C  
HETATM   23  C   UNL     4      -7.317   1.585  74.178  1.00  0.00    -0.024 C  
ENDBRANCH  21  22
BRANCH  21  24
HETATM   24  C   UNL     4      -6.629   1.475  71.014  1.00  0.00    -0.023 C  
HETATM   25  C   UNL     4      -5.190   2.012  70.853  1.00  0.00    -0.004 C  
ENDBRANCH  21  24
BRANCH  21  26
HETATM   26  C   UNL     4      -8.778   2.700  70.818  1.00  0.00    -0.065 C  
HETATM   27  C   UNL     4     -10.018   3.308  71.493  1.00  0.00    -0.148 C  
ENDBRANCH  21  26
ENDBRANCH  20  21
ENDBRANCH  19  20
ENDBRANCH  18  19
ENDBRANCH  16  18
BRANCH  17  28
HETATM   28  O   UNL     4      -7.033   6.749  68.282  1.00  0.00    -0.074 OA 
BRANCH  28  29
HETATM   29  C   UNL     4      -7.428   8.075  68.467  1.00  0.00    -0.102 C  
BRANCH  29  30
HETATM   30  C   UNL     4      -6.544   8.905  69.424  1.00  0.00    -0.045 C  
BRANCH  30  31
HETATM   31  N   UNL     4      -6.996   8.908  70.878  1.00  0.00    -0.071 N  
BRANCH  31  32
HETATM   32  C   UNL     4      -8.450   9.277  71.009  1.00  0.00    -0.089 C  
HETATM   33  C   UNL     4      -9.444   8.125  71.214  1.00  0.00    -0.199 C  
ENDBRANCH  31  32
BRANCH  31  34
HETATM   34  C   UNL     4      -6.174   9.917  71.633  1.00  0.00     0.292 C  
HETATM   35  C   UNL     4      -6.126   9.747  73.167  1.00  0.00     0.731 C  
ENDBRANCH  31  34
BRANCH  31  36
HETATM   36  C   UNL     4      -6.832   7.531  71.486  1.00  0.00    -0.050 C  
HETATM   37  C   UNL     4      -5.567   7.287  72.337  1.00  0.00    -0.037 C  
ENDBRANCH  31  36
ENDBRANCH  30  31
ENDBRANCH  29  30
ENDBRANCH  28  29
ENDBRANCH  17  28
ENDBRANCH  11  12
ENDBRANCH  10  11
ENDBRANCH   9  10
ENDBRANCH   6   9
BRANCH   6  38
HETATM   38  C   UNL     4      -8.297  11.443  66.383  1.00  0.00    -0.140 C  
HETATM   39  C   UNL     4      -6.849  10.912  66.346  1.00  0.00    -0.135 C  
ENDBRANCH   6  38
ENDBRANCH   5   6
TORSDOF 21
ENDMDL
MODEL      141
REMARK 921   NORMALIZED FREE ENERGY PREDICTED BY IDOCK:    4.67 KCAL/MOL
REMARK 922        TOTAL FREE ENERGY PREDICTED BY IDOCK:    8.09 KCAL/MOL
REMARK 923 INTER-LIGAND FREE ENERGY PREDICTED BY IDOCK:    4.70 KCAL/MOL
REMARK 924 INTRA-LIGAND FREE ENERGY PREDICTED BY IDOCK:    3.39 KCAL/MOL
REMARK 927      BINDING AFFINITY PREDICTED BY RF-SCORE:    0.00 PKD
ROOT
HETATM    1  I   UNL     1     -12.376  18.494  67.167  1.00  0.00     6.966 I  
HETATM    2  I   UNL     2     -12.378  14.368  70.403  1.00  0.00    -0.392 I  
HETATM    3  I   UNL     3      -9.634  16.087  65.463  1.00  0.00     0.504 I  
HETATM    4  C   UNL     4     -10.822  12.927  63.642  1.00  0.00    -0.270 C  
HETATM    5  C   UNL     4     -10.990  11.455  64.076  1.00  0.00    -0.355 C  
ENDROOT
BRANCH   5   6
HETATM    6  N   UNL     4     -10.187  11.014  65.269  1.00  0.00    -0.270 N  
BRANCH   6   7
HETATM    7  C   UNL     4      -9.357   9.818  64.870  1.00  0.00    -0.265 C  
HETATM    8  C   UNL     4      -9.399   8.605  65.820  1.00  0.00    -0.227 C  
ENDBRANCH   6   7
BRANCH   6   9
HETATM    9  C   UNL     4      -9.325  12.161  65.719  1.00  0.00    -0.085 C  
BRANCH   9  10
HETATM   10  C   UNL     4      -8.392  11.988  66.957  1.00  0.00    -0.178 C  
BRANCH  10  11
HETATM   11  O   UNL     4      -8.959  11.459  68.103  1.00  0.00    -0.156 OA 
BRANCH  11  12
HETATM   12  C   UNL     4      -8.467  10.558  68.991  1.00  0.00    -0.157 A  
HETATM   13  C   UNL     4      -9.098   9.312  69.110  1.00  0.00    -0.145 A  
HETATM   14  C   UNL     4      -8.671   8.377  70.016  1.00  0.00    -0.133 A  
HETATM   15  C   UNL     4      -7.569   8.626  70.792  1.00  0.00    -0.083 A  
HETATM   16  C   UNL     4      -6.841   9.849  70.718  1.00  0.00    -0.024 A  
HETATM   17  C   UNL     4      -7.304  10.859  69.808  1.00  0.00    -0.007 A  
BRANCH  16  18
HETATM   18  O   UNL     4      -5.708  10.011  71.494  1.00  0.00    -0.205 OA 
BRANCH  18  19
HETATM   19  C   UNL     4      -5.248   8.927  72.251  1.00  0.00    -0.053 C  
BRANCH  19  20
HETATM   20  C   UNL     4      -5.693   7.482  71.913  1.00  0.00    -0.036 C  
BRANCH  20  21
HETATM   21  N   UNL     4      -6.096   6.681  73.154  1.00  0.00    -0.057 N  
BRANCH  21  22
HETATM   22  C   UNL     4      -7.499   6.143  73.011  1.00  0.00    -0.097 C  
HETATM   23  C   UNL     4      -7.753   5.173  71.844  1.00  0.00    -0.109 C  
ENDBRANCH  21  22
BRANCH  21  24
HETATM   24  C   UNL     4      -6.073   7.578  74.370  1.00  0.00    -0.081 C  
HETATM   25  C   UNL     4      -7.216   8.607  74.512  1.00  0.00    -0.172 C  
ENDBRANCH  21  24
BRANCH  21  26
HETATM   26  C   UNL     4      -5.171   5.510  73.337  1.00  0.00    -0.022 C  
HETATM   27  C   UNL     4      -5.675   4.381  74.251  1.00  0.00    -0.016 C  
ENDBRANCH  21  26
ENDBRANCH  20  21
ENDBRANCH  19  20
ENDBRANCH  18  19
ENDBRANCH  16  18
BRANCH  17  28
HETATM   28  O   UNL     4      -6.634  12.067  69.727  1.00  0.00    -0.097 OA 
BRANCH  28  29
HETATM   29  C   UNL     4      -7.146  13.280  70.189  1.00  0.00     0.955 C  
BRANCH  29  30
HETATM   30  C   UNL     4      -7.269  14.397  69.129  1.00  0.00    -0.118 C  
BRANCH  30  31
HETATM   31  N   UNL     4      -5.952  14.852  68.517  1.00  0.00    -0.089 N  
BRANCH  31  32
HETATM   32  C   UNL     4      -5.167  13.694  67.960  1.00  0.00    -0.108 C  
HETATM   33  C   UNL     4      -5.788  12.938  66.776  1.00  0.00     1.060 C  
ENDBRANCH  31  32
BRANCH  31  34
HETATM   34  C   UNL     4      -5.131  15.519  69.586  1.00  0.00    -0.096 C  
HETATM   35  C   UNL     4      -5.621  16.907  70.056  1.00  0.00    -0.222 C  
ENDBRANCH  31  34
BRANCH  31  36
HETATM   36  C   UNL     4      -6.204  15.808  67.369  1.00  0.00    -0.109 C  
HETATM   37  C   UNL     4      -7.062  17.056  67.672  1.00  0.00    -0.163 C  
ENDBRANCH  31  36
ENDBRANCH  30  31
ENDBRANCH  29  30
ENDBRANCH  28  29
ENDBRANCH  17  28
ENDBRANCH  11  12
ENDBRANCH  10  11
ENDBRANCH   9  10
ENDBRANCH   6   9
BRANCH   6  38
HETATM   38  C   UNL     4     -11.088  10.595  66.402  1.00  0.00     0.110 C  
HETATM   39  C   UNL     4     -11.723  11.731  67.229  1.00  0.00    -0.293 C  
ENDBRANCH   6  38
ENDBRANCH   5   6
TORSDOF 21
ENDMDL
MODEL      142
REMARK 921   NORMALIZED FREE ENERGY PREDICTED BY IDOCK:    4.71 KCAL/MOL
REMARK 922        TOTAL FREE ENERGY PREDICTED BY IDOCK:    8.18 KCAL/MOL
REMARK 923 INTER-LIGAND FREE ENERGY PREDICTED BY IDOCK:    5.82 KCAL/MOL
REMARK 924 INTRA-LIGAND FREE ENERGY PREDICTED BY IDOCK:    2.36 KCAL/MOL
REMARK 927      BINDING AFFINITY PREDICTED BY RF-SCORE:    0.00 PKD
ROOT
HETATM    1  I   UNL     1      -5.411  15.833  65.397  1.00  0.00    10.084 I  
HETATM    2  I   UNL     2     -10.572  14.983  65.027  1.00  0.00    -0.233 I  
HETATM    3  I   UNL     3      -5.867  12.470  67.565  1.00  0.00    -0.034 I  
HETATM    4  C   UNL     4      -6.578   9.173  65.741  1.00  0.00    -0.068 C  
HETATM    5  C   UNL     4      -7.878   8.420  65.381  1.00  0.00    -0.108 C  
ENDROOT
BRANCH   5   6
HETATM    6  N   UNL     4      -9.092   8.751  66.205  1.00  0.00    -0.179 N  
BRANCH   6   7
HETATM    7  C   UNL     4      -9.969   9.687  65.409  1.00  0.00    -0.160 C  
HETATM    8  C   UNL     4      -9.260  10.572  64.365  1.00  0.00    -0.281 C  
ENDBRANCH   6   7
BRANCH   6   9
HETATM    9  C   UNL     4      -9.808   7.472  66.540  1.00  0.00    -0.156 C  
BRANCH   9  10
HETATM   10  C   UNL     4      -9.119   6.103  66.253  1.00  0.00    -0.154 C  
BRANCH  10  11
HETATM   11  O   UNL     4      -8.599   5.418  67.337  1.00  0.00    -0.110 OA 
BRANCH  11  12
HETATM   12  C   UNL     4      -7.573   5.738  68.167  1.00  0.00    -0.085 A  
HETATM   13  C   UNL     4      -6.264   5.708  67.666  1.00  0.00    -0.030 A  
HETATM   14  C   UNL     4      -5.186   5.982  68.466  1.00  0.00    -0.007 A  
HETATM   15  C   UNL     4      -5.376   6.350  69.772  1.00  0.00    -0.014 A  
HETATM   16  C   UNL     4      -6.670   6.441  70.361  1.00  0.00    -0.050 A  
HETATM   17  C   UNL     4      -7.808   6.111  69.550  1.00  0.00    -0.100 A  
BRANCH  16  18
HETATM   18  O   UNL     4      -6.789   6.871  71.671  1.00  0.00    -0.063 OA 
BRANCH  18  19
HETATM   19  C   UNL     4      -6.044   6.225  72.664  1.00  0.00    -0.045 C  
BRANCH  19  20
HETATM   20  C   UNL     4      -6.633   5.013  73.430  1.00  0.00    -0.067 C  
BRANCH  20  21
HETATM   21  N   UNL     4      -6.467   3.695  72.668  1.00  0.00    -0.016 N  
BRANCH  21  22
HETATM   22  C   UNL     4      -6.424   2.527  73.624  1.00  0.00    -0.021 C  
HETATM   23  C   UNL     4      -5.225   1.571  73.496  1.00  0.00     0.000 C  
ENDBRANCH  21  22
BRANCH  21  24
HETATM   24  C   UNL     4      -5.164   3.707  71.905  1.00  0.00     0.000 C  
HETATM   25  C   UNL     4      -5.157   3.053  70.506  1.00  0.00    -0.004 C  
ENDBRANCH  21  24
BRANCH  21  26
HETATM   26  C   UNL     4      -7.629   3.485  71.739  1.00  0.00    -0.053 C  
HETATM   27  C   UNL     4      -7.817   2.059  71.194  1.00  0.00    -0.039 C  
ENDBRANCH  21  26
ENDBRANCH  20  21
ENDBRANCH  19  20
ENDBRANCH  18  19
ENDBRANCH  16  18
BRANCH  17  28
HETATM   28  O   UNL     4      -9.078   6.168  70.097  1.00  0.00    -0.149 OA 
BRANCH  28  29
HETATM   29  C   UNL     4     -10.254   6.209  69.346  1.00  0.00    -0.197 C  
BRANCH  29  30
HETATM   30  C   UNL     4     -10.983   7.571  69.325  1.00  0.00    -0.038 C  
BRANCH  30  31
HETATM   31  N   UNL     4     -11.247   8.181  70.695  1.00  0.00    -0.263 N  
BRANCH  31  32
HETATM   32  C   UNL     4     -10.471   9.455  70.896  1.00  0.00    -0.310 C  
HETATM   33  C   UNL     4      -9.009   9.316  71.344  1.00  0.00    -0.012 C  
ENDBRANCH  31  32
BRANCH  31  34
HETATM   34  C   UNL     4     -10.831   7.192  71.748  1.00  0.00    -0.225 C  
HETATM   35  C   UNL     4     -10.067   7.768  72.961  1.00  0.00    -0.382 C  
ENDBRANCH  31  34
BRANCH  31  36
HETATM   36  C   UNL     4     -12.714   8.529  70.845  1.00  0.00     0.114 C  
HETATM   37  C   UNL     4     -13.060  10.017  71.072  1.00  0.00    -0.435 C  
ENDBRANCH  31  36
ENDBRANCH  30  31
ENDBRANCH  29  30
ENDBRANCH  28  29
ENDBRANCH  17  28
ENDBRANCH  11  12
ENDBRANCH  10  11
ENDBRANCH   9  10
ENDBRANCH   6   9
BRANCH   6  38
HETATM   38  C   UNL     4      -8.705   9.453  67.481  1.00  0.00    -0.122 C  
HETATM   39  C   UNL     4      -9.675  10.540  67.987  1.00  0.00    -0.162 C  
ENDBRANCH   6  38
ENDBRANCH   5   6
TORSDOF 21
ENDMDL
MODEL      143
REMARK 921   NORMALIZED FREE ENERGY PREDICTED BY IDOCK:    4.77 KCAL/MOL
REMARK 922        TOTAL FREE ENERGY PREDICTED BY IDOCK:    8.31 KCAL/MOL
REMARK 923 INTER-LIGAND FREE ENERGY PREDICTED BY IDOCK:    5.21 KCAL/MOL
REMARK 924 INTRA-LIGAND FREE ENERGY PREDICTED BY IDOCK:    3.10 KCAL/MOL
REMARK 927      BINDING AFFINITY PREDICTED BY RF-SCORE:    0.00 PKD
ROOT
HETATM    1  I   UNL     1      -6.492  20.554  66.766  1.00  0.00    -0.357 I  
HETATM    2  I   UNL     2     -11.266  19.126  65.134  1.00  0.00     3.729 I  
HETATM    3  I   UNL     3      -8.198  19.268  70.180  1.00  0.00     2.275 I  
HETATM    4  C   UNL     4      -8.739  15.504  70.676  1.00  0.00     1.857 C  
HETATM    5  C   UNL     4      -9.932  14.562  70.411  1.00  0.00     1.090 C  
ENDROOT
BRANCH   5   6
HETATM    6  N   UNL     4     -11.289  15.207  70.335  1.00  0.00    -0.272 N  
BRANCH   6   7
HETATM    7  C   UNL     4     -11.117  16.627  69.854  1.00  0.00    -0.117 C  
HETATM    8  C   UNL     4     -11.069  16.832  68.326  1.00  0.00    -0.259 C  
ENDBRANCH   6   7
BRANCH   6   9
HETATM    9  C   UNL     4     -12.151  14.405  69.398  1.00  0.00    -0.297 C  
BRANCH   9  10
HETATM   10  C   UNL     4     -11.845  12.893  69.170  1.00  0.00    -0.303 C  
BRANCH  10  11
HETATM   11  O   UNL     4     -10.531  12.548  68.907  1.00  0.00    -0.185 OA 
BRANCH  11  12
HETATM   12  C   UNL     4      -9.907  11.346  68.982  1.00  0.00    -0.037 A  
HETATM   13  C   UNL     4      -9.031  11.104  70.050  1.00  0.00     1.569 A  
HETATM   14  C   UNL     4      -8.343   9.924  70.157  1.00  0.00    -0.156 A  
HETATM   15  C   UNL     4      -8.544   8.925  69.241  1.00  0.00    -0.133 A  
HETATM   16  C   UNL     4      -9.440   9.064  68.142  1.00  0.00    -0.142 A  
HETATM   17  C   UNL     4     -10.134  10.313  67.987  1.00  0.00    -0.162 A  
BRANCH  16  18
HETATM   18  O   UNL     4      -9.634   7.995  67.287  1.00  0.00    -0.146 OA 
BRANCH  18  19
HETATM   19  C   UNL     4      -9.010   6.776  67.577  1.00  0.00    -0.115 C  
BRANCH  19  20
HETATM   20  C   UNL     4      -9.831   5.463  67.635  1.00  0.00    -0.150 C  
BRANCH  20  21
HETATM   21  N   UNL     4      -8.978   4.220  67.368  1.00  0.00    -0.114 N  
BRANCH  21  22
HETATM   22  C   UNL     4      -9.098   3.235  68.506  1.00  0.00    -0.155 C  
HETATM   23  C   UNL     4      -9.264   1.754  68.126  1.00  0.00    -0.227 C  
ENDBRANCH  21  22
BRANCH  21  24
HETATM   24  C   UNL     4      -7.524   4.612  67.257  1.00  0.00    -0.085 C  
HETATM   25  C   UNL     4      -6.489   3.471  67.146  1.00  0.00    -0.037 C  
ENDBRANCH  21  24
BRANCH  21  26
HETATM   26  C   UNL     4      -9.444   3.533  66.115  1.00  0.00    -0.138 C  
HETATM   27  C   UNL     4     -10.441   4.312  65.241  1.00  0.00    -0.196 C  
ENDBRANCH  21  26
ENDBRANCH  20  21
ENDBRANCH  19  20
ENDBRANCH  18  19
ENDBRANCH  16  18
BRANCH  17  28
HETATM   28  O   UNL     4     -10.994  10.490  66.918  1.00  0.00    -0.227 OA 
BRANCH  28  29
HETATM   29  C   UNL     4     -11.994  11.463  66.869  1.00  0.00     0.625 C  
BRANCH  29  30
HETATM   30  C   UNL     4     -11.526  12.879  66.468  1.00  0.00    -0.341 C  
BRANCH  30  31
HETATM   31  N   UNL     4     -11.550  13.166  64.973  1.00  0.00    -0.314 N  
BRANCH  31  32
HETATM   32  C   UNL     4     -10.327  13.924  64.531  1.00  0.00    -0.232 C  
HETATM   33  C   UNL     4      -9.749  14.949  65.518  1.00  0.00    -0.275 C  
ENDBRANCH  31  32
BRANCH  31  34
HETATM   34  C   UNL     4     -12.767  13.994  64.664  1.00  0.00    -0.129 C  
HETATM   35  C   UNL     4     -12.783  15.426  65.244  1.00  0.00     0.861 C  
ENDBRANCH  31  34
BRANCH  31  36
HETATM   36  C   UNL     4     -11.576  11.872  64.186  1.00  0.00    -0.351 C  
HETATM   37  C   UNL     4     -10.212  11.242  63.830  1.00  0.00    -0.420 C  
ENDBRANCH  31  36
ENDBRANCH  30  31
ENDBRANCH  29  30
ENDBRANCH  28  29
ENDBRANCH  17  28
ENDBRANCH  11  12
ENDBRANCH  10  11
ENDBRANCH   9  10
ENDBRANCH   6   9
BRANCH   6  38
HETATM   38  C   UNL     4     -11.942  15.254  71.693  1.00  0.00    -0.372 C  
HETATM   39  C   UNL     4     -11.776  16.566  72.488  1.00  0.00    -0.350 C  
ENDBRANCH   6  38
ENDBRANCH   5   6
TORSDOF 21
ENDMDL
MODEL      144
REMARK 921   NORMALIZED FREE ENERGY PREDICTED BY IDOCK:    4.80 KCAL/MOL
REMARK 922        TOTAL FREE ENERGY PREDICTED BY IDOCK:    8.36 KCAL/MOL
REMARK 923 INTER-LIGAND FREE ENERGY PREDICTED BY IDOCK:    3.55 KCAL/MOL
REMARK 924 INTRA-LIGAND FREE ENERGY PREDICTED BY IDOCK:    4.81 KCAL/MOL
REMARK 927      BINDING AFFINITY PREDICTED BY RF-SCORE:    0.00 PKD
ROOT
HETATM    1  I   UNL     1      -8.946  11.978  64.074  1.00  0.00     1.568 I  
HETATM    2  I   UNL     2      -9.046  16.299  67.043  1.00  0.00    -0.283 I  
HETATM    3  I   UNL     3      -9.599  10.460  67.747  1.00  0.00    -0.187 I  
HETATM    4  C   UNL     4     -13.047  10.928  69.358  1.00  0.00     1.153 C  
HETATM    5  C   UNL     4     -13.630  11.980  70.326  1.00  0.00     2.341 C  
ENDROOT
BRANCH   5   6
HETATM    6  N   UNL     4     -12.637  12.748  71.155  1.00  0.00    -0.340 N  
BRANCH   6   7
HETATM    7  C   UNL     4     -13.207  12.925  72.541  1.00  0.00    -0.200 C  
HETATM    8  C   UNL     4     -13.602  14.360  72.943  1.00  0.00    -0.420 C  
ENDBRANCH   6   7
BRANCH   6   9
HETATM    9  C   UNL     4     -11.341  11.984  71.183  1.00  0.00     2.243 C  
BRANCH   9  10
HETATM   10  C   UNL     4     -11.233  10.619  70.437  1.00  0.00    -0.252 C  
BRANCH  10  11
HETATM   11  O   UNL     4     -11.260   9.473  71.211  1.00  0.00    -0.330 OA 
BRANCH  11  12
HETATM   12  C   UNL     4     -10.996   8.183  70.881  1.00  0.00    -0.242 A  
HETATM   13  C   UNL     4     -12.024   7.400  70.338  1.00  0.00    -0.056 A  
HETATM   14  C   UNL     4     -11.827   6.081  70.022  1.00  0.00     0.395 A  
HETATM   15  C   UNL     4     -10.590   5.514  70.181  1.00  0.00    -0.367 A  
HETATM   16  C   UNL     4      -9.475   6.239  70.691  1.00  0.00    -0.168 A  
HETATM   17  C   UNL     4      -9.676   7.609  71.073  1.00  0.00    -0.163 A  
BRANCH  16  18
HETATM   18  O   UNL     4      -8.243   5.617  70.774  1.00  0.00    -0.114 OA 
BRANCH  18  19
HETATM   19  C   UNL     4      -7.344   5.756  69.709  1.00  0.00    -0.071 C  
BRANCH  19  20
HETATM   20  C   UNL     4      -7.825   5.600  68.244  1.00  0.00    -0.096 C  
BRANCH  20  21
HETATM   21  N   UNL     4      -8.312   4.184  67.929  1.00  0.00    -0.093 N  
BRANCH  21  22
HETATM   22  C   UNL     4      -8.546   3.404  69.201  1.00  0.00    -0.071 C  
HETATM   23  C   UNL     4      -7.339   2.642  69.777  1.00  0.00    -0.044 C  
ENDBRANCH  21  22
BRANCH  21  24
HETATM   24  C   UNL     4      -7.263   3.448  67.130  1.00  0.00    -0.059 C  
HETATM   25  C   UNL     4      -6.775   4.111  65.823  1.00  0.00    -0.048 C  
ENDBRANCH  21  24
BRANCH  21  26
HETATM   26  C   UNL     4      -9.614   4.240  67.179  1.00  0.00    -0.194 C  
HETATM   27  C   UNL     4      -9.905   3.064  66.232  1.00  0.00     0.383 C  
ENDBRANCH  21  26
ENDBRANCH  20  21
ENDBRANCH  19  20
ENDBRANCH  18  19
ENDBRANCH  16  18
BRANCH  17  28
HETATM   28  O   UNL     4      -8.620   8.336  71.594  1.00  0.00    -0.126 OA 
BRANCH  28  29
HETATM   29  C   UNL     4      -8.085   9.479  70.996  1.00  0.00     0.181 C  
BRANCH  29  30
HETATM   30  C   UNL     4      -6.543   9.522  70.906  1.00  0.00    -0.090 C  
BRANCH  30  31
HETATM   31  N   UNL     4      -5.987  10.414  69.804  1.00  0.00    -0.047 N  
BRANCH  31  32
HETATM   32  C   UNL     4      -7.086  11.083  69.022  1.00  0.00    -0.106 C  
HETATM   33  C   UNL     4      -6.658  11.987  67.856  1.00  0.00    -0.076 C  
ENDBRANCH  31  32
BRANCH  31  34
HETATM   34  C   UNL     4      -5.176   9.564  68.865  1.00  0.00    -0.037 C  
HETATM   35  C   UNL     4      -5.967   8.565  67.993  1.00  0.00    -0.046 C  
ENDBRANCH  31  34
BRANCH  31  36
HETATM   36  C   UNL     4      -5.132  11.515  70.396  1.00  0.00    -0.091 C  
HETATM   37  C   UNL     4      -5.853  12.577  71.254  1.00  0.00     0.423 C  
ENDBRANCH  31  36
ENDBRANCH  30  31
ENDBRANCH  29  30
ENDBRANCH  28  29
ENDBRANCH  17  28
ENDBRANCH  11  12
ENDBRANCH  10  11
ENDBRANCH   9  10
ENDBRANCH   6   9
BRANCH   6  38
HETATM   38  C   UNL     4     -12.393  14.118  70.576  1.00  0.00    -0.364 C  
HETATM   39  C   UNL     4     -11.647  14.170  69.227  1.00  0.00    -0.350 C  
ENDBRANCH   6  38
ENDBRANCH   5   6
TORSDOF 21
ENDMDL
MODEL      145
REMARK 921   NORMALIZED FREE ENERGY PREDICTED BY IDOCK:    4.84 KCAL/MOL
REMARK 922        TOTAL FREE ENERGY PREDICTED BY IDOCK:    8.47 KCAL/MOL
REMARK 923 INTER-LIGAND FREE ENERGY PREDICTED BY IDOCK:   -1.02 KCAL/MOL
REMARK 924 INTRA-LIGAND FREE ENERGY PREDICTED BY IDOCK:    9.49 KCAL/MOL
REMARK 927      BINDING AFFINITY PREDICTED BY RF-SCORE:    0.00 PKD
ROOT
HETATM    1  I   UNL     1      -9.826   4.551  73.744  1.00  0.00    -0.231 I  
HETATM    2  I   UNL     2     -14.394   6.734  72.380  1.00  0.00     0.948 I  
HETATM    3  I   UNL     3      -9.143   5.611  69.920  1.00  0.00    -0.183 I  
HETATM    4  C   UNL     4      -8.682   9.325  69.082  1.00  0.00    -0.139 C  
HETATM    5  C   UNL     4      -9.648  10.430  68.603  1.00  0.00    -0.166 C  
ENDROOT
BRANCH   5   6
HETATM    6  N   UNL     4     -10.911   9.968  67.928  1.00  0.00    -0.270 N  
BRANCH   6   7
HETATM    7  C   UNL     4     -11.333  11.022  66.933  1.00  0.00    -0.032 C  
HETATM    8  C   UNL     4     -10.226  11.964  66.420  1.00  0.00    -0.240 C  
ENDBRANCH   6   7
BRANCH   6   9
HETATM    9  C   UNL     4     -10.642   8.649  67.257  1.00  0.00    -0.238 C  
BRANCH   9  10
HETATM   10  C   UNL     4      -9.329   7.872  67.579  1.00  0.00    -0.143 C  
BRANCH  10  11
HETATM   11  O   UNL     4      -8.221   8.157  66.799  1.00  0.00    -0.104 OA 
BRANCH  11  12
HETATM   12  C   UNL     4      -7.473   9.286  66.716  1.00  0.00    -0.087 A  
HETATM   13  C   UNL     4      -7.508  10.034  65.531  1.00  0.00    -0.137 A  
HETATM   14  C   UNL     4      -6.744  11.161  65.374  1.00  0.00     0.441 A  
HETATM   15  C   UNL     4      -5.965  11.613  66.407  1.00  0.00     0.057 A  
HETATM   16  C   UNL     4      -5.892  10.940  67.661  1.00  0.00    -0.043 A  
HETATM   17  C   UNL     4      -6.649   9.731  67.826  1.00  0.00    -0.068 A  
BRANCH  16  18
HETATM   18  O   UNL     4      -5.127  11.483  68.677  1.00  0.00    -0.044 OA 
BRANCH  18  19
HETATM   19  C   UNL     4      -5.148  12.869  68.872  1.00  0.00    -0.064 C  
BRANCH  19  20
HETATM   20  C   UNL     4      -5.733  13.809  67.788  1.00  0.00    -0.078 C  
BRANCH  20  21
HETATM   21  N   UNL     4      -6.772  14.784  68.348  1.00  0.00    -0.095 N  
BRANCH  21  22
HETATM   22  C   UNL     4      -7.796  15.136  67.296  1.00  0.00    -0.211 C  
HETATM   23  C   UNL     4      -7.843  16.604  66.838  1.00  0.00    -0.261 C  
ENDBRANCH  21  22
BRANCH  21  24
HETATM   24  C   UNL     4      -6.094  16.066  68.770  1.00  0.00    -0.110 C  
HETATM   25  C   UNL     4      -5.450  16.098  70.173  1.00  0.00    -0.167 C  
ENDBRANCH  21  24
BRANCH  21  26
HETATM   26  C   UNL     4      -7.497  14.157  69.505  1.00  0.00     0.159 C  
HETATM   27  C   UNL     4      -9.034  14.203  69.451  1.00  0.00     0.508 C  
ENDBRANCH  21  26
ENDBRANCH  20  21
ENDBRANCH  19  20
ENDBRANCH  18  19
ENDBRANCH  16  18
BRANCH  17  28
HETATM   28  O   UNL     4      -6.583   9.040  69.023  1.00  0.00    -0.047 OA 
BRANCH  28  29
HETATM   29  C   UNL     4      -5.480   9.057  69.879  1.00  0.00    -0.028 C  
BRANCH  29  30
HETATM   30  C   UNL     4      -5.802   8.920  71.383  1.00  0.00    -0.054 C  
BRANCH  30  31
HETATM   31  N   UNL     4      -6.146   7.510  71.843  1.00  0.00    -0.036 N  
BRANCH  31  32
HETATM   32  C   UNL     4      -5.806   6.484  70.795  1.00  0.00    -0.027 C  
HETATM   33  C   UNL     4      -5.325   5.113  71.293  1.00  0.00    -0.005 C  
ENDBRANCH  31  32
BRANCH  31  34
HETATM   34  C   UNL     4      -7.623   7.443  72.120  1.00  0.00    -0.084 C  
HETATM   35  C   UNL     4      -8.208   8.583  72.982  1.00  0.00    -0.096 C  
ENDBRANCH  31  34
BRANCH  31  36
HETATM   36  C   UNL     4      -5.357   7.151  73.085  1.00  0.00    -0.038 C  
HETATM   37  C   UNL     4      -5.748   5.844  73.809  1.00  0.00    -0.051 C  
ENDBRANCH  31  36
ENDBRANCH  30  31
ENDBRANCH  29  30
ENDBRANCH  28  29
ENDBRANCH  17  28
ENDBRANCH  11  12
ENDBRANCH  10  11
ENDBRANCH   9  10
ENDBRANCH   6   9
BRANCH   6  38
HETATM   38  C   UNL     4     -12.028   9.800  68.926  1.00  0.00     0.868 C  
HETATM   39  C   UNL     4     -12.043  10.787  70.111  1.00  0.00    -0.427 C  
ENDBRANCH   6  38
ENDBRANCH   5   6
TORSDOF 21
ENDMDL
MODEL      146
REMARK 921   NORMALIZED FREE ENERGY PREDICTED BY IDOCK:    5.13 KCAL/MOL
REMARK 922        TOTAL FREE ENERGY PREDICTED BY IDOCK:    9.11 KCAL/MOL
REMARK 923 INTER-LIGAND FREE ENERGY PREDICTED BY IDOCK:   -3.84 KCAL/MOL
REMARK 924 INTRA-LIGAND FREE ENERGY PREDICTED BY IDOCK:   12.95 KCAL/MOL
REMARK 927      BINDING AFFINITY PREDICTED BY RF-SCORE:    0.00 PKD
ROOT
HETATM    1  I   UNL     1      -7.116  10.737  65.050  1.00  0.00     0.620 I  
HETATM    2  I   UNL     2     -10.829   8.633  68.097  1.00  0.00     0.385 I  
HETATM    3  I   UNL     3      -5.222   7.538  66.598  1.00  0.00    -0.025 I  
HETATM    4  C   UNL     4      -6.182   4.038  65.358  1.00  0.00    -0.027 C  
HETATM    5  C   UNL     4      -7.170   2.968  65.868  1.00  0.00    -0.070 C  
ENDROOT
BRANCH   5   6
HETATM    6  N   UNL     4      -7.559   3.055  67.319  1.00  0.00    -0.069 N  
BRANCH   6   7
HETATM    7  C   UNL     4      -6.341   3.454  68.117  1.00  0.00    -0.036 C  
HETATM    8  C   UNL     4      -6.130   2.724  69.458  1.00  0.00    -0.024 C  
ENDBRANCH   6   7
BRANCH   6   9
HETATM    9  C   UNL     4      -8.667   4.064  67.460  1.00  0.00    -0.105 C  
BRANCH   9  10
HETATM   10  C   UNL     4      -8.426   5.365  68.285  1.00  0.00    -0.097 C  
BRANCH  10  11
HETATM   11  O   UNL     4      -7.799   6.415  67.638  1.00  0.00    -0.103 OA 
BRANCH  11  12
HETATM   12  C   UNL     4      -8.213   7.689  67.426  1.00  0.00    -0.116 A  
HETATM   13  C   UNL     4      -8.926   7.983  66.255  1.00  0.00    -0.208 A  
HETATM   14  C   UNL     4      -9.336   9.258  65.968  1.00  0.00    -0.283 A  
HETATM   15  C   UNL     4      -9.102  10.272  66.859  1.00  0.00    -0.159 A  
HETATM   16  C   UNL     4      -8.416  10.065  68.091  1.00  0.00    -0.114 A  
HETATM   17  C   UNL     4      -7.937   8.743  68.386  1.00  0.00    -0.109 A  
BRANCH  16  18
HETATM   18  O   UNL     4      -8.262  11.124  68.967  1.00  0.00    -0.137 OA 
BRANCH  18  19
HETATM   19  C   UNL     4      -8.144  12.419  68.448  1.00  0.00    -0.143 C  
BRANCH  19  20
HETATM   20  C   UNL     4      -9.399  13.201  67.984  1.00  0.00    -0.219 C  
BRANCH  20  21
HETATM   21  N   UNL     4      -9.117  14.686  67.748  1.00  0.00    -0.187 N  
BRANCH  21  22
HETATM   22  C   UNL     4      -9.878  15.538  68.735  1.00  0.00    -0.217 C  
HETATM   23  C   UNL     4     -10.358  14.845  70.023  1.00  0.00    -0.013 C  
ENDBRANCH  21  22
BRANCH  21  24
HETATM   24  C   UNL     4      -9.570  15.080  66.362  1.00  0.00    -0.289 C  
HETATM   25  C   UNL     4      -8.921  16.332  65.734  1.00  0.00    -0.065 C  
ENDBRANCH  21  24
BRANCH  21  26
HETATM   26  C   UNL     4      -7.652  14.969  67.932  1.00  0.00    -0.139 C  
HETATM   27  C   UNL     4      -7.215  16.434  67.762  1.00  0.00    -0.155 C  
ENDBRANCH  21  26
ENDBRANCH  20  21
ENDBRANCH  19  20
ENDBRANCH  18  19
ENDBRANCH  16  18
BRANCH  17  28
HETATM   28  O   UNL     4      -7.248   8.512  69.563  1.00  0.00    -0.058 OA 
BRANCH  28  29
HETATM   29  C   UNL     4      -7.858   8.315  70.803  1.00  0.00    -0.091 C  
BRANCH  29  30
HETATM   30  C   UNL     4      -7.639   6.924  71.439  1.00  0.00    -0.087 C  
BRANCH  30  31
HETATM   31  N   UNL     4      -8.861   6.328  72.123  1.00  0.00    -0.138 N  
BRANCH  31  32
HETATM   32  C   UNL     4      -8.897   6.662  73.591  1.00  0.00    -0.127 C  
HETATM   33  C   UNL     4      -8.330   5.613  74.557  1.00  0.00    -0.105 C  
ENDBRANCH  31  32
BRANCH  31  34
HETATM   34  C   UNL     4      -8.814   4.833  71.971  1.00  0.00    -0.124 C  
HETATM   35  C   UNL     4     -10.044   4.176  71.306  1.00  0.00    -0.155 C  
ENDBRANCH  31  34
BRANCH  31  36
HETATM   36  C   UNL     4     -10.132   6.883  71.513  1.00  0.00    -0.184 C  
HETATM   37  C   UNL     4     -10.897   7.944  72.334  1.00  0.00    -0.378 C  
ENDBRANCH  31  36
ENDBRANCH  30  31
ENDBRANCH  29  30
ENDBRANCH  28  29
ENDBRANCH  17  28
ENDBRANCH  11  12
ENDBRANCH  10  11
ENDBRANCH   9  10
ENDBRANCH   6   9
BRANCH   6  38
HETATM   38  C   UNL     4      -8.033   1.721  67.834  1.00  0.00    -0.058 C  
HETATM   39  C   UNL     4      -9.435   1.692  68.476  1.00  0.00    -0.234 C  
ENDBRANCH   6  38
ENDBRANCH   5   6
TORSDOF 21
ENDMDL
MODEL      147
REMARK 921   NORMALIZED FREE ENERGY PREDICTED BY IDOCK:    5.21 KCAL/MOL
REMARK 922        TOTAL FREE ENERGY PREDICTED BY IDOCK:    9.29 KCAL/MOL
REMARK 923 INTER-LIGAND FREE ENERGY PREDICTED BY IDOCK:   -3.45 KCAL/MOL
REMARK 924 INTRA-LIGAND FREE ENERGY PREDICTED BY IDOCK:   12.74 KCAL/MOL
REMARK 927      BINDING AFFINITY PREDICTED BY RF-SCORE:    0.00 PKD
ROOT
HETATM    1  I   UNL     1      -8.857   7.159  63.334  1.00  0.00     1.801 I  
HETATM    2  I   UNL     2      -5.667   8.976  67.078  1.00  0.00    -0.046 I  
HETATM    3  I   UNL     3      -9.801   4.802  66.460  1.00  0.00    -0.297 I  
HETATM    4  C   UNL     4     -11.815   6.295  69.362  1.00  0.00     0.374 C  
HETATM    5  C   UNL     4     -11.417   6.931  70.711  1.00  0.00    -0.335 C  
ENDROOT
BRANCH   5   6
HETATM    6  N   UNL     4     -10.057   6.571  71.244  1.00  0.00    -0.185 N  
BRANCH   6   7
HETATM    7  C   UNL     4     -10.217   5.457  72.249  1.00  0.00    -0.196 C  
HETATM    8  C   UNL     4     -10.478   4.049  71.678  1.00  0.00     0.108 C  
ENDBRANCH   6   7
BRANCH   6   9
HETATM    9  C   UNL     4      -9.184   6.155  70.091  1.00  0.00    -0.155 C  
BRANCH   9  10
HETATM   10  C   UNL     4      -9.441   6.751  68.673  1.00  0.00    -0.132 C  
BRANCH  10  11
HETATM   11  O   UNL     4      -9.798   8.086  68.606  1.00  0.00    -0.165 OA 
BRANCH  11  12
HETATM   12  C   UNL     4      -9.386   9.064  67.760  1.00  0.00    -0.140 A  
HETATM   13  C   UNL     4      -9.870   9.067  66.444  1.00  0.00    -0.356 A  
HETATM   14  C   UNL     4      -9.459  10.006  65.534  1.00  0.00    -0.296 A  
HETATM   15  C   UNL     4      -8.600  11.003  65.915  1.00  0.00    -0.165 A  
HETATM   16  C   UNL     4      -8.082  11.102  67.239  1.00  0.00    -0.137 A  
HETATM   17  C   UNL     4      -8.465  10.099  68.193  1.00  0.00    -0.118 A  
BRANCH  16  18
HETATM   18  O   UNL     4      -7.262  12.166  67.567  1.00  0.00    -0.111 OA 
BRANCH  18  19
HETATM   19  C   UNL     4      -7.806  13.456  67.593  1.00  0.00    -0.173 C  
BRANCH  19  20
HETATM   20  C   UNL     4      -8.916  13.864  66.590  1.00  0.00    -0.134 C  
BRANCH  20  21
HETATM   21  N   UNL     4      -9.373  15.313  66.772  1.00  0.00    -0.228 N  
BRANCH  21  22
HETATM   22  C   UNL     4     -10.524  15.631  65.848  1.00  0.00    -0.344 C  
HETATM   23  C   UNL     4     -10.915  14.544  64.831  1.00  0.00    -0.421 C  
ENDBRANCH  21  22
BRANCH  21  24
HETATM   24  C   UNL     4      -8.241  16.254  66.431  1.00  0.00    -0.319 C  
HETATM   25  C   UNL     4      -8.308  17.682  67.014  1.00  0.00    -0.239 C  
ENDBRANCH  21  24
BRANCH  21  26
HETATM   26  C   UNL     4      -9.844  15.533  68.183  1.00  0.00    -0.216 C  
HETATM   27  C   UNL     4      -8.842  16.201  69.139  1.00  0.00    -0.239 C  
ENDBRANCH  21  26
ENDBRANCH  20  21
ENDBRANCH  19  20
ENDBRANCH  18  19
ENDBRANCH  16  18
BRANCH  17  28
HETATM   28  O   UNL     4      -7.963  10.153  69.481  1.00  0.00    -0.136 OA 
BRANCH  28  29
HETATM   29  C   UNL     4      -7.592   9.032  70.226  1.00  0.00    -0.087 C  
BRANCH  29  30
HETATM   30  C   UNL     4      -7.027   7.848  69.410  1.00  0.00    -0.059 C  
BRANCH  30  31
HETATM   31  N   UNL     4      -6.100   6.918  70.180  1.00  0.00    -0.024 N  
BRANCH  31  32
HETATM   32  C   UNL     4      -6.867   5.845  70.907  1.00  0.00    -0.062 C  
HETATM   33  C   UNL     4      -6.275   4.429  70.882  1.00  0.00    -0.018 C  
ENDBRANCH  31  32
BRANCH  31  34
HETATM   34  C   UNL     4      -5.336   7.731  71.189  1.00  0.00    -0.030 C  
HETATM   35  C   UNL     4      -5.613   7.410  72.674  1.00  0.00    -0.037 C  
ENDBRANCH  31  34
BRANCH  31  36
HETATM   36  C   UNL     4      -5.148   6.217  69.234  1.00  0.00    -0.004 C  
HETATM   37  C   UNL     4      -5.706   5.812  67.852  1.00  0.00    -0.012 C  
ENDBRANCH  31  36
ENDBRANCH  30  31
ENDBRANCH  29  30
ENDBRANCH  28  29
ENDBRANCH  17  28
ENDBRANCH  11  12
ENDBRANCH  10  11
ENDBRANCH   9  10
ENDBRANCH   6   9
BRANCH   6  38
HETATM   38  C   UNL     4      -9.424   7.743  71.948  1.00  0.00    -0.153 C  
HETATM   39  C   UNL     4     -10.375   8.656  72.749  1.00  0.00     0.034 C  
ENDBRANCH   6  38
ENDBRANCH   5   6
TORSDOF 21
ENDMDL
MODEL      148
REMARK 921   NORMALIZED FREE ENERGY PREDICTED BY IDOCK:    5.64 KCAL/MOL
REMARK 922        TOTAL FREE ENERGY PREDICTED BY IDOCK:   10.24 KCAL/MOL
REMARK 923 INTER-LIGAND FREE ENERGY PREDICTED BY IDOCK:   -1.41 KCAL/MOL
REMARK 924 INTRA-LIGAND FREE ENERGY PREDICTED BY IDOCK:   11.65 KCAL/MOL
REMARK 927      BINDING AFFINITY PREDICTED BY RF-SCORE:    0.00 PKD
ROOT
HETATM    1  I   UNL     1      -9.853   4.933  73.207  1.00  0.00    -0.213 I  
HETATM    2  I   UNL     2     -14.375   7.114  71.693  1.00  0.00    -0.091 I  
HETATM    3  I   UNL     3      -9.065   5.939  69.389  1.00  0.00    -0.156 I  
HETATM    4  C   UNL     4      -8.568   9.640  68.514  1.00  0.00    -0.119 C  
HETATM    5  C   UNL     4      -9.516  10.742  67.995  1.00  0.00    -0.160 C  
ENDROOT
BRANCH   5   6
HETATM    6  N   UNL     4     -10.762  10.276  67.293  1.00  0.00    -0.269 N  
BRANCH   6   7
HETATM    7  C   UNL     4     -11.125  11.293  66.238  1.00  0.00    -0.166 C  
HETATM    8  C   UNL     4     -10.599  11.024  64.815  1.00  0.00    -0.350 C  
ENDBRANCH   6   7
BRANCH   6   9
HETATM    9  C   UNL     4     -10.496   8.924  66.689  1.00  0.00    -0.161 C  
BRANCH   9  10
HETATM   10  C   UNL     4      -9.220   8.129  67.106  1.00  0.00    -0.145 C  
BRANCH  10  11
HETATM   11  O   UNL     4      -8.060   8.381  66.395  1.00  0.00    -0.100 OA 
BRANCH  11  12
HETATM   12  C   UNL     4      -7.307   9.507  66.313  1.00  0.00    -0.093 A  
HETATM   13  C   UNL     4      -7.233  10.183  65.086  1.00  0.00    -0.141 A  
HETATM   14  C   UNL     4      -6.459  11.303  64.933  1.00  0.00     1.121 A  
HETATM   15  C   UNL     4      -5.778  11.820  66.004  1.00  0.00     0.682 A  
HETATM   16  C   UNL     4      -5.820  11.224  67.298  1.00  0.00    -0.071 A  
HETATM   17  C   UNL     4      -6.589  10.022  67.465  1.00  0.00    -0.068 A  
BRANCH  16  18
HETATM   18  O   UNL     4      -5.152  11.830  68.345  1.00  0.00    -0.043 OA 
BRANCH  18  19
HETATM   19  C   UNL     4      -5.379  13.189  68.594  1.00  0.00    -0.068 C  
BRANCH  19  20
HETATM   20  C   UNL     4      -6.596  13.914  67.966  1.00  0.00    -0.143 C  
BRANCH  20  21
HETATM   21  N   UNL     4      -7.062  15.114  68.794  1.00  0.00    -0.111 N  
BRANCH  21  22
HETATM   22  C   UNL     4      -6.734  14.915  70.255  1.00  0.00    -0.046 C  
HETATM   23  C   UNL     4      -5.577  15.754  70.825  1.00  0.00    -0.023 C  
ENDBRANCH  21  22
BRANCH  21  24
HETATM   24  C   UNL     4      -8.561  15.262  68.680  1.00  0.00    -0.173 C  
HETATM   25  C   UNL     4      -9.291  14.333  67.685  1.00  0.00    -0.201 C  
ENDBRANCH  21  24
BRANCH  21  26
HETATM   26  C   UNL     4      -6.365  16.363  68.333  1.00  0.00    -0.127 C  
HETATM   27  C   UNL     4      -6.228  16.545  66.812  1.00  0.00    -0.059 C  
ENDBRANCH  21  26
ENDBRANCH  20  21
ENDBRANCH  19  20
ENDBRANCH  18  19
ENDBRANCH  16  18
BRANCH  17  28
HETATM   28  O   UNL     4      -6.633   9.404  68.702  1.00  0.00    -0.052 OA 
BRANCH  28  29
HETATM   29  C   UNL     4      -5.802   8.349  69.082  1.00  0.00    -0.038 C  
BRANCH  29  30
HETATM   30  C   UNL     4      -5.347   8.359  70.558  1.00  0.00    -0.021 C  
BRANCH  30  31
HETATM   31  N   UNL     4      -6.402   7.910  71.560  1.00  0.00    -0.038 N  
BRANCH  31  32
HETATM   32  C   UNL     4      -7.439   8.978  71.792  1.00  0.00     0.113 C  
HETATM   33  C   UNL     4      -8.910   8.564  71.637  1.00  0.00    -0.272 C  
ENDBRANCH  31  32
BRANCH  31  34
HETATM   34  C   UNL     4      -5.724   7.607  72.868  1.00  0.00    -0.044 C  
HETATM   35  C   UNL     4      -6.630   7.589  74.118  1.00  0.00    -0.087 C  
ENDBRANCH  31  34
BRANCH  31  36
HETATM   36  C   UNL     4      -7.134   6.688  71.047  1.00  0.00    -0.072 C  
HETATM   37  C   UNL     4      -6.273   5.461  70.675  1.00  0.00    -0.026 C  
ENDBRANCH  31  36
ENDBRANCH  30  31
ENDBRANCH  29  30
ENDBRANCH  28  29
ENDBRANCH  17  28
ENDBRANCH  11  12
ENDBRANCH  10  11
ENDBRANCH   9  10
ENDBRANCH   6   9
BRANCH   6  38
HETATM   38  C   UNL     4     -11.918  10.172  68.253  1.00  0.00     1.031 C  
HETATM   39  C   UNL     4     -11.846  11.061  69.512  1.00  0.00    -0.404 C  
ENDBRANCH   6  38
ENDBRANCH   5   6
TORSDOF 21
ENDMDL
MODEL      149
REMARK 921   NORMALIZED FREE ENERGY PREDICTED BY IDOCK:    6.51 KCAL/MOL
REMARK 922        TOTAL FREE ENERGY PREDICTED BY IDOCK:   12.18 KCAL/MOL
REMARK 923 INTER-LIGAND FREE ENERGY PREDICTED BY IDOCK:   -3.40 KCAL/MOL
REMARK 924 INTRA-LIGAND FREE ENERGY PREDICTED BY IDOCK:   15.57 KCAL/MOL
REMARK 927      BINDING AFFINITY PREDICTED BY RF-SCORE:    0.00 PKD
ROOT
HETATM    1  I   UNL     1      -7.194  11.324  65.158  1.00  0.00     1.681 I  
HETATM    2  I   UNL     2     -10.637   8.139  67.503  1.00  0.00    -0.019 I  
HETATM    3  I   UNL     3      -5.139   7.866  65.360  1.00  0.00    -0.028 I  
HETATM    4  C   UNL     4      -6.133   4.983  63.035  1.00  0.00    -0.021 C  
HETATM    5  C   UNL     4      -7.064   3.763  63.199  1.00  0.00    -0.048 C  
ENDROOT
BRANCH   5   6
HETATM    6  N   UNL     4      -7.345   3.322  64.610  1.00  0.00    -0.069 N  
BRANCH   6   7
HETATM    7  C   UNL     4      -6.037   3.253  65.359  1.00  0.00    -0.023 C  
HETATM    8  C   UNL     4      -5.868   2.076  66.340  1.00  0.00    -0.022 C  
ENDBRANCH   6   7
BRANCH   6   9
HETATM    9  C   UNL     4      -8.292   4.306  65.241  1.00  0.00    -0.110 C  
BRANCH   9  10
HETATM   10  C   UNL     4      -7.727   5.492  66.081  1.00  0.00    -0.095 C  
BRANCH  10  11
HETATM   11  O   UNL     4      -7.555   6.701  65.431  1.00  0.00    -0.077 OA 
BRANCH  11  12
HETATM   12  C   UNL     4      -8.218   7.877  65.573  1.00  0.00    -0.140 A  
HETATM   13  C   UNL     4      -8.903   8.404  64.469  1.00  0.00     0.183 A  
HETATM   14  C   UNL     4      -9.557   9.606  64.542  1.00  0.00    -0.094 A  
HETATM   15  C   UNL     4      -9.600  10.295  65.725  1.00  0.00    -0.279 A  
HETATM   16  C   UNL     4      -8.965   9.822  66.910  1.00  0.00    -0.138 A  
HETATM   17  C   UNL     4      -8.234   8.587  66.839  1.00  0.00    -0.106 A  
BRANCH  16  18
HETATM   18  O   UNL     4      -9.095  10.542  68.083  1.00  0.00    -0.136 OA 
BRANCH  18  19
HETATM   19  C   UNL     4      -9.324  11.921  68.007  1.00  0.00    -0.193 C  
BRANCH  19  20
HETATM   20  C   UNL     4     -10.614  12.472  67.347  1.00  0.00    -0.223 C  
BRANCH  20  21
HETATM   21  N   UNL     4     -11.029  13.835  67.906  1.00  0.00    -0.248 N  
BRANCH  21  22
HETATM   22  C   UNL     4      -9.878  14.811  67.845  1.00  0.00    -0.212 C  
HETATM   23  C   UNL     4      -9.570  15.433  66.472  1.00  0.00    -0.298 C  
ENDBRANCH  21  22
BRANCH  21  24
HETATM   24  C   UNL     4     -11.428  13.693  69.356  1.00  0.00    -0.286 C  
HETATM   25  C   UNL     4     -11.922  14.963  70.082  1.00  0.00    -0.368 C  
ENDBRANCH  21  24
BRANCH  21  26
HETATM   26  C   UNL     4     -12.157  14.405  67.094  1.00  0.00    -0.333 C  
HETATM   27  C   UNL     4     -12.417  13.744  65.730  1.00  0.00    -0.527 C  
ENDBRANCH  21  26
ENDBRANCH  20  21
ENDBRANCH  19  20
ENDBRANCH  18  19
ENDBRANCH  16  18
BRANCH  17  28
HETATM   28  O   UNL     4      -7.586   8.110  67.965  1.00  0.00    -0.101 OA 
BRANCH  28  29
HETATM   29  C   UNL     4      -8.214   7.401  68.990  1.00  0.00    -0.128 C  
BRANCH  29  30
HETATM   30  C   UNL     4      -7.304   6.985  70.167  1.00  0.00    -0.081 C  
BRANCH  30  31
HETATM   31  N   UNL     4      -7.987   6.941  71.526  1.00  0.00    -0.104 N  
BRANCH  31  32
HETATM   32  C   UNL     4      -7.216   6.104  72.511  1.00  0.00    -0.085 C  
HETATM   33  C   UNL     4      -7.975   4.958  73.195  1.00  0.00    -0.101 C  
ENDBRANCH  31  32
BRANCH  31  34
HETATM   34  C   UNL     4      -9.356   6.343  71.355  1.00  0.00    -0.152 C  
HETATM   35  C   UNL     4     -10.543   7.206  71.838  1.00  0.00    -0.238 C  
ENDBRANCH  31  34
BRANCH  31  36
HETATM   36  C   UNL     4      -8.087   8.334  72.113  1.00  0.00    -0.145 C  
HETATM   37  C   UNL     4      -7.059   8.709  73.203  1.00  0.00     0.029 C  
ENDBRANCH  31  36
ENDBRANCH  30  31
ENDBRANCH  29  30
ENDBRANCH  28  29
ENDBRANCH  17  28
ENDBRANCH  11  12
ENDBRANCH  10  11
ENDBRANCH   9  10
ENDBRANCH   6   9
BRANCH   6  38
HETATM   38  C   UNL     4      -7.966   1.949  64.635  1.00  0.00    -0.070 C  
HETATM   39  C   UNL     4      -9.346   1.833  65.313  1.00  0.00     0.006 C  
ENDBRANCH   6  38
ENDBRANCH   5   6
TORSDOF 21
ENDMDL
MODEL      150
REMARK 921   NORMALIZED FREE ENERGY PREDICTED BY IDOCK:    6.53 KCAL/MOL
REMARK 922        TOTAL FREE ENERGY PREDICTED BY IDOCK:   12.22 KCAL/MOL
REMARK 923 INTER-LIGAND FREE ENERGY PREDICTED BY IDOCK:    2.93 KCAL/MOL
REMARK 924 INTRA-LIGAND FREE ENERGY PREDICTED BY IDOCK:    9.29 KCAL/MOL
REMARK 927      BINDING AFFINITY PREDICTED BY RF-SCORE:    0.00 PKD
ROOT
HETATM    1  I   UNL     1      -8.931  12.013  64.126  1.00  0.00     1.527 I  
HETATM    2  I   UNL     2      -8.887  16.470  66.890  1.00  0.00    -0.309 I  
HETATM    3  I   UNL     3      -9.546  10.683  67.877  1.00  0.00    -0.196 I  
HETATM    4  C   UNL     4     -12.954  11.299  69.524  1.00  0.00     0.741 C  
HETATM    5  C   UNL     4     -13.497  12.407  70.453  1.00  0.00     1.619 C  
ENDROOT
BRANCH   5   6
HETATM    6  N   UNL     4     -12.473  13.191  71.227  1.00  0.00    -0.297 N  
BRANCH   6   7
HETATM    7  C   UNL     4     -12.986  13.389  72.633  1.00  0.00    -0.119 C  
HETATM    8  C   UNL     4     -13.357  14.831  73.031  1.00  0.00    -0.543 C  
ENDBRANCH   6   7
BRANCH   6   9
HETATM    9  C   UNL     4     -11.174  12.432  71.213  1.00  0.00     3.321 C  
BRANCH   9  10
HETATM   10  C   UNL     4     -11.083  11.072  70.455  1.00  0.00     0.287 C  
BRANCH  10  11
HETATM   11  O   UNL     4     -11.097   9.920  71.222  1.00  0.00    -0.351 OA 
BRANCH  11  12
HETATM   12  C   UNL     4     -10.838   8.633  70.878  1.00  0.00    -0.239 A  
HETATM   13  C   UNL     4     -11.887   7.837  70.397  1.00  0.00     0.023 A  
HETATM   14  C   UNL     4     -11.695   6.521  70.072  1.00  0.00    -0.388 A  
HETATM   15  C   UNL     4     -10.444   5.967  70.159  1.00  0.00    -0.329 A  
HETATM   16  C   UNL     4      -9.310   6.705  70.604  1.00  0.00    -0.162 A  
HETATM   17  C   UNL     4      -9.503   8.074  70.994  1.00  0.00    -0.157 A  
BRANCH  16  18
HETATM   18  O   UNL     4      -8.068   6.097  70.615  1.00  0.00    -0.112 OA 
BRANCH  18  19
HETATM   19  C   UNL     4      -7.996   4.711  70.798  1.00  0.00    -0.076 C  
BRANCH  19  20
HETATM   20  C   UNL     4      -8.913   4.002  71.826  1.00  0.00    -0.118 C  
BRANCH  20  21
HETATM   21  N   UNL     4      -8.700   4.506  73.256  1.00  0.00    -0.101 N  
BRANCH  21  22
HETATM   22  C   UNL     4      -7.849   5.753  73.261  1.00  0.00    -0.106 C  
HETATM   23  C   UNL     4      -7.851   6.587  74.555  1.00  0.00    -0.114 C  
ENDBRANCH  21  22
BRANCH  21  24
HETATM   24  C   UNL     4      -7.974   3.456  74.064  1.00  0.00    -0.070 C  
HETATM   25  C   UNL     4      -8.290   1.977  73.749  1.00  0.00    -0.058 C  
ENDBRANCH  21  24
BRANCH  21  26
HETATM   26  C   UNL     4     -10.020   4.848  73.886  1.00  0.00    -0.165 C  
HETATM   27  C   UNL     4     -11.151   5.249  72.924  1.00  0.00    -0.365 C  
ENDBRANCH  21  26
ENDBRANCH  20  21
ENDBRANCH  19  20
ENDBRANCH  18  19
ENDBRANCH  16  18
BRANCH  17  28
HETATM   28  O   UNL     4      -8.427   8.814  71.452  1.00  0.00    -0.172 OA 
BRANCH  28  29
HETATM   29  C   UNL     4      -7.995  10.009  70.875  1.00  0.00     0.906 C  
BRANCH  29  30
HETATM   30  C   UNL     4      -6.475  10.111  70.616  1.00  0.00    -0.084 C  
BRANCH  30  31
HETATM   31  N   UNL     4      -6.075  11.068  69.501  1.00  0.00    -0.062 N  
BRANCH  31  32
HETATM   32  C   UNL     4      -7.277  11.702  68.853  1.00  0.00    -0.113 C  
HETATM   33  C   UNL     4      -7.499  13.199  69.112  1.00  0.00     0.189 C  
ENDBRANCH  31  32
BRANCH  31  34
HETATM   34  C   UNL     4      -5.317  10.295  68.456  1.00  0.00    -0.038 C  
HETATM   35  C   UNL     4      -6.138   9.283  67.627  1.00  0.00    -0.054 C  
ENDBRANCH  31  34
BRANCH  31  36
HETATM   36  C   UNL     4      -5.223  12.193  70.049  1.00  0.00    -0.089 C  
HETATM   37  C   UNL     4      -5.915  13.196  70.999  1.00  0.00     0.144 C  
ENDBRANCH  31  36
ENDBRANCH  30  31
ENDBRANCH  29  30
ENDBRANCH  28  29
ENDBRANCH  17  28
ENDBRANCH  11  12
ENDBRANCH  10  11
ENDBRANCH   9  10
ENDBRANCH   6   9
BRANCH   6  38
HETATM   38  C   UNL     4     -12.259  14.552  70.616  1.00  0.00    -0.331 C  
HETATM   39  C   UNL     4     -11.544  15.595  71.499  1.00  0.00    -0.507 C  
ENDBRANCH   6  38
ENDBRANCH   5   6
TORSDOF 21
ENDMDL
MODEL      151
REMARK 921   NORMALIZED FREE ENERGY PREDICTED BY IDOCK:    7.27 KCAL/MOL
REMARK 922        TOTAL FREE ENERGY PREDICTED BY IDOCK:   13.88 KCAL/MOL
REMARK 923 INTER-LIGAND FREE ENERGY PREDICTED BY IDOCK:   -0.84 KCAL/MOL
REMARK 924 INTRA-LIGAND FREE ENERGY PREDICTED BY IDOCK:   14.72 KCAL/MOL
REMARK 927      BINDING AFFINITY PREDICTED BY RF-SCORE:    0.00 PKD
ROOT
HETATM    1  I   UNL     1      -8.486   8.010  64.009  1.00  0.00     0.523 I  
HETATM    2  I   UNL     2      -5.133   6.095  67.557  1.00  0.00    -0.005 I  
HETATM    3  I   UNL     3     -10.854   5.581  66.180  1.00  0.00     0.730 I  
HETATM    4  C   UNL     4     -11.857   6.655  69.722  1.00  0.00    -0.159 C  
HETATM    5  C   UNL     4     -11.270   6.370  71.121  1.00  0.00    -0.302 C  
ENDROOT
BRANCH   5   6
HETATM    6  N   UNL     4     -10.412   5.140  71.248  1.00  0.00    -0.205 N  
BRANCH   6   7
HETATM    7  C   UNL     4     -11.174   4.106  72.041  1.00  0.00     0.855 C  
HETATM    8  C   UNL     4     -12.070   4.636  73.179  1.00  0.00     0.156 C  
ENDBRANCH   6   7
BRANCH   6   9
HETATM    9  C   UNL     4     -10.078   4.643  69.868  1.00  0.00    -0.187 C  
BRANCH   9  10
HETATM   10  C   UNL     4     -10.220   5.602  68.647  1.00  0.00    -0.200 C  
BRANCH  10  11
HETATM   11  O   UNL     4     -10.253   6.960  68.911  1.00  0.00    -0.165 OA 
BRANCH  11  12
HETATM   12  C   UNL     4      -9.389   7.945  68.556  1.00  0.00    -0.141 A  
HETATM   13  C   UNL     4      -9.903   9.134  68.021  1.00  0.00    -0.197 A  
HETATM   14  C   UNL     4      -9.078  10.148  67.609  1.00  0.00    -0.144 A  
HETATM   15  C   UNL     4      -7.722  10.036  67.765  1.00  0.00    -0.090 A  
HETATM   16  C   UNL     4      -7.109   8.881  68.330  1.00  0.00    -0.077 A  
HETATM   17  C   UNL     4      -7.955   7.789  68.724  1.00  0.00    -0.125 A  
BRANCH  16  18
HETATM   18  O   UNL     4      -5.737   8.860  68.508  1.00  0.00    -0.040 OA 
BRANCH  18  19
HETATM   19  C   UNL     4      -5.215   9.162  69.771  1.00  0.00    -0.033 C  
BRANCH  19  20
HETATM   20  C   UNL     4      -6.151   9.593  70.929  1.00  0.00    -0.086 C  
BRANCH  20  21
HETATM   21  N   UNL     4      -6.201   8.565  72.062  1.00  0.00    -0.064 N  
BRANCH  21  22
HETATM   22  C   UNL     4      -5.434   9.059  73.266  1.00  0.00    -0.099 C  
HETATM   23  C   UNL     4      -6.256   9.706  74.393  1.00  0.00     0.365 C  
ENDBRANCH  21  22
BRANCH  21  24
HETATM   24  C   UNL     4      -5.559   7.275  71.611  1.00  0.00    -0.036 C  
HETATM   25  C   UNL     4      -5.256   6.217  72.695  1.00  0.00    -0.031 C  
ENDBRANCH  21  24
BRANCH  21  26
HETATM   26  C   UNL     4      -7.624   8.334  72.488  1.00  0.00    -0.115 C  
HETATM   27  C   UNL     4      -8.705   9.063  71.673  1.00  0.00    -0.077 C  
ENDBRANCH  21  26
ENDBRANCH  20  21
ENDBRANCH  19  20
ENDBRANCH  18  19
ENDBRANCH  16  18
BRANCH  17  28
HETATM   28  O   UNL     4      -7.391   6.643  69.256  1.00  0.00    -0.087 OA 
BRANCH  28  29
HETATM   29  C   UNL     4      -7.642   5.354  68.783  1.00  0.00    -0.079 C  
BRANCH  29  30
HETATM   30  C   UNL     4      -6.694   4.255  69.312  1.00  0.00    -0.045 C  
BRANCH  30  31
HETATM   31  N   UNL     4      -6.686   2.966  68.502  1.00  0.00    -0.039 N  
BRANCH  31  32
HETATM   32  C   UNL     4      -7.078   1.778  69.340  1.00  0.00    -0.036 C  
HETATM   33  C   UNL     4      -8.423   1.860  70.077  1.00  0.00    -0.083 C  
ENDBRANCH  31  32
BRANCH  31  34
HETATM   34  C   UNL     4      -5.297   2.742  67.971  1.00  0.00    -0.013 C  
HETATM   35  C   UNL     4      -5.198   2.199  66.528  1.00  0.00    -0.005 C  
ENDBRANCH  31  34
BRANCH  31  36
HETATM   36  C   UNL     4      -7.682   3.051  67.363  1.00  0.00    -0.073 C  
HETATM   37  C   UNL     4      -8.985   2.236  67.511  1.00  0.00    -0.185 C  
ENDBRANCH  31  36
ENDBRANCH  30  31
ENDBRANCH  29  30
ENDBRANCH  28  29
ENDBRANCH  17  28
ENDBRANCH  11  12
ENDBRANCH  10  11
ENDBRANCH   9  10
ENDBRANCH   6   9
BRANCH   6  38
HETATM   38  C   UNL     4      -9.136   5.445  71.990  1.00  0.00    -0.137 C  
HETATM   39  C   UNL     4      -8.788   4.512  73.168  1.00  0.00    -0.110 C  
ENDBRANCH   6  38
ENDBRANCH   5   6
TORSDOF 21
ENDMDL
MODEL      152
REMARK 921   NORMALIZED FREE ENERGY PREDICTED BY IDOCK:    7.62 KCAL/MOL
REMARK 922        TOTAL FREE ENERGY PREDICTED BY IDOCK:   14.65 KCAL/MOL
REMARK 923 INTER-LIGAND FREE ENERGY PREDICTED BY IDOCK:   14.84 KCAL/MOL
REMARK 924 INTRA-LIGAND FREE ENERGY PREDICTED BY IDOCK:   -0.19 KCAL/MOL
REMARK 927      BINDING AFFINITY PREDICTED BY RF-SCORE:    0.00 PKD
ROOT
HETATM    1  I   UNL     1      -7.142  20.565  69.659  1.00  0.00     1.585 I  
HETATM    2  I   UNL     2     -10.030  17.457  66.579  1.00  0.00    -0.303 I  
HETATM    3  I   UNL     3      -7.200  17.125  71.753  1.00  0.00    10.119 I  
HETATM    4  C   UNL     4      -5.130  14.154  70.490  1.00  0.00    -0.102 C  
HETATM    5  C   UNL     4      -5.459  12.937  69.599  1.00  0.00    -0.088 C  
ENDROOT
BRANCH   5   6
HETATM    6  N   UNL     4      -6.910  12.548  69.507  1.00  0.00     0.016 N  
BRANCH   6   7
HETATM    7  C   UNL     4      -7.086  11.639  68.315  1.00  0.00    -0.078 C  
HETATM    8  C   UNL     4      -6.073  11.811  67.165  1.00  0.00    -0.144 C  
ENDBRANCH   6   7
BRANCH   6   9
HETATM    9  C   UNL     4      -7.306  11.864  70.787  1.00  0.00     3.788 C  
BRANCH   9  10
HETATM   10  C   UNL     4      -7.099  10.326  70.937  1.00  0.00     0.600 C  
BRANCH  10  11
HETATM   11  O   UNL     4      -7.953   9.503  70.223  1.00  0.00    -0.144 OA 
BRANCH  11  12
HETATM   12  C   UNL     4      -9.135   9.779  69.616  1.00  0.00    -0.220 A  
HETATM   13  C   UNL     4     -10.181  10.312  70.382  1.00  0.00     0.013 A  
HETATM   14  C   UNL     4     -11.408  10.574  69.833  1.00  0.00    -0.380 A  
HETATM   15  C   UNL     4     -11.620  10.369  68.494  1.00  0.00    -0.152 A  
HETATM   16  C   UNL     4     -10.608   9.863  67.628  1.00  0.00    -0.270 A  
HETATM   17  C   UNL     4      -9.330   9.538  68.197  1.00  0.00    -0.133 A  
BRANCH  16  18
HETATM   18  O   UNL     4     -10.875   9.733  66.277  1.00  0.00     0.037 OA 
BRANCH  18  19
HETATM   19  C   UNL     4     -10.149  10.509  65.367  1.00  0.00    -0.291 C  
BRANCH  19  20
HETATM   20  C   UNL     4     -10.478  12.011  65.172  1.00  0.00    -0.289 C  
BRANCH  20  21
HETATM   21  N   UNL     4     -10.853  12.353  63.728  1.00  0.00    -0.419 N  
BRANCH  21  22
HETATM   22  C   UNL     4     -12.350  12.310  63.540  1.00  0.00    -0.565 C  
HETATM   23  C   UNL     4     -13.212  12.713  64.750  1.00  0.00     0.296 C  
ENDBRANCH  21  22
BRANCH  21  24
HETATM   24  C   UNL     4     -10.247  11.336  62.789  1.00  0.00    -0.018 C  
HETATM   25  C   UNL     4      -8.725  11.423  62.538  1.00  0.00    -0.112 C  
ENDBRANCH  21  24
BRANCH  21  26
HETATM   26  C   UNL     4     -10.386  13.740  63.387  1.00  0.00     2.877 C  
HETATM   27  C   UNL     4     -11.180  14.899  64.014  1.00  0.00     0.411 C  
ENDBRANCH  21  26
ENDBRANCH  20  21
ENDBRANCH  19  20
ENDBRANCH  18  19
ENDBRANCH  16  18
BRANCH  17  28
HETATM   28  O   UNL     4      -8.331   9.024  67.388  1.00  0.00    -0.111 OA 
BRANCH  28  29
HETATM   29  C   UNL     4      -8.284   7.701  66.946  1.00  0.00    -0.120 C  
BRANCH  29  30
HETATM   30  C   UNL     4      -8.143   6.634  68.053  1.00  0.00    -0.110 C  
BRANCH  30  31
HETATM   31  N   UNL     4      -8.328   5.196  67.589  1.00  0.00    -0.106 N  
BRANCH  31  32
HETATM   32  C   UNL     4      -9.557   4.569  68.192  1.00  0.00    -0.146 C  
HETATM   33  C   UNL     4     -10.612   5.523  68.771  1.00  0.00    -0.236 C  
ENDBRANCH  31  32
BRANCH  31  34
HETATM   34  C   UNL     4      -7.125   4.398  68.012  1.00  0.00    -0.060 C  
HETATM   35  C   UNL     4      -7.212   3.714  69.394  1.00  0.00    -0.049 C  
ENDBRANCH  31  34
BRANCH  31  36
HETATM   36  C   UNL     4      -8.497   5.143  66.085  1.00  0.00    -0.115 C  
HETATM   37  C   UNL     4      -9.718   4.366  65.545  1.00  0.00    -0.206 C  
ENDBRANCH  31  36
ENDBRANCH  30  31
ENDBRANCH  29  30
ENDBRANCH  28  29
ENDBRANCH  17  28
ENDBRANCH  11  12
ENDBRANCH  10  11
ENDBRANCH   9  10
ENDBRANCH   6   9
BRANCH   6  38
HETATM   38  C   UNL     4      -7.782  13.759  69.299  1.00  0.00     0.254 C  
HETATM   39  C   UNL     4      -8.817  13.670  68.160  1.00  0.00    -0.189 C  
ENDBRANCH   6  38
ENDBRANCH   5   6
TORSDOF 21
ENDMDL
MODEL      153
REMARK 921   NORMALIZED FREE ENERGY PREDICTED BY IDOCK:    8.15 KCAL/MOL
REMARK 922        TOTAL FREE ENERGY PREDICTED BY IDOCK:   15.84 KCAL/MOL
REMARK 923 INTER-LIGAND FREE ENERGY PREDICTED BY IDOCK:    9.48 KCAL/MOL
REMARK 924 INTRA-LIGAND FREE ENERGY PREDICTED BY IDOCK:    6.36 KCAL/MOL
REMARK 927      BINDING AFFINITY PREDICTED BY RF-SCORE:    0.00 PKD
ROOT
HETATM    1  I   UNL     1     -13.378   8.001  69.552  1.00  0.00     7.666 I  
HETATM    2  I   UNL     2      -8.563   7.076  71.412  1.00  0.00    -0.120 I  
HETATM    3  I   UNL     3     -11.765  11.691  69.584  1.00  0.00    -0.373 I  
HETATM    4  C   UNL     4      -9.102  12.570  66.969  1.00  0.00    -0.213 C  
HETATM    5  C   UNL     4      -7.558  12.530  66.974  1.00  0.00    -0.015 C  
ENDROOT
BRANCH   5   6
HETATM    6  N   UNL     4      -6.894  12.561  68.324  1.00  0.00    -0.074 N  
BRANCH   6   7
HETATM    7  C   UNL     4      -7.875  13.118  69.327  1.00  0.00     0.523 C  
HETATM    8  C   UNL     4      -8.028  14.652  69.358  1.00  0.00    -0.003 C  
ENDBRANCH   6   7
BRANCH   6   9
HETATM    9  C   UNL     4      -6.469  11.164  68.683  1.00  0.00    -0.049 C  
BRANCH   9  10
HETATM   10  C   UNL     4      -6.961   9.962  67.819  1.00  0.00    -0.085 C  
BRANCH  10  11
HETATM   11  O   UNL     4      -6.048   9.397  66.946  1.00  0.00    -0.061 OA 
BRANCH  11  12
HETATM   12  C   UNL     4      -6.075   9.292  65.594  1.00  0.00    -0.059 A  
HETATM   13  C   UNL     4      -6.288  10.449  64.830  1.00  0.00    -0.086 A  
HETATM   14  C   UNL     4      -6.365  10.399  63.463  1.00  0.00    -0.069 A  
HETATM   15  C   UNL     4      -6.176   9.210  62.807  1.00  0.00    -0.094 A  
HETATM   16  C   UNL     4      -5.920   7.989  63.495  1.00  0.00    -0.063 A  
HETATM   17  C   UNL     4      -5.884   8.015  64.930  1.00  0.00    -0.045 A  
BRANCH  16  18
HETATM   18  O   UNL     4      -5.686   6.838  62.765  1.00  0.00    -0.034 OA 
BRANCH  18  19
HETATM   19  C   UNL     4      -6.292   5.644  63.175  1.00  0.00    -0.024 C  
BRANCH  19  20
HETATM   20  C   UNL     4      -7.610   5.667  63.990  1.00  0.00    -0.077 C  
BRANCH  20  21
HETATM   21  N   UNL     4      -8.514   4.470  63.688  1.00  0.00    -0.112 N  
BRANCH  21  22
HETATM   22  C   UNL     4      -9.867   4.930  63.203  1.00  0.00     0.498 C  
HETATM   23  C   UNL     4      -9.998   6.416  62.824  1.00  0.00     3.525 C  
ENDBRANCH  21  22
BRANCH  21  24
HETATM   24  C   UNL     4      -8.731   3.663  64.947  1.00  0.00    -0.114 C  
HETATM   25  C   UNL     4      -8.870   2.133  64.792  1.00  0.00    -0.115 C  
ENDBRANCH  21  24
BRANCH  21  26
HETATM   26  C   UNL     4      -7.903   3.621  62.608  1.00  0.00    -0.063 C  
HETATM   27  C   UNL     4      -7.266   2.296  63.061  1.00  0.00    -0.040 C  
ENDBRANCH  21  26
ENDBRANCH  20  21
ENDBRANCH  19  20
ENDBRANCH  18  19
ENDBRANCH  16  18
BRANCH  17  28
HETATM   28  O   UNL     4      -5.659   6.842  65.630  1.00  0.00    -0.029 OA 
BRANCH  28  29
HETATM   29  C   UNL     4      -6.652   5.911  65.939  1.00  0.00    -0.047 C  
BRANCH  29  30
HETATM   30  C   UNL     4      -7.297   6.064  67.334  1.00  0.00    -0.077 C  
BRANCH  30  31
HETATM   31  N   UNL     4      -6.987   4.942  68.315  1.00  0.00    -0.056 N  
BRANCH  31  32
HETATM   32  C   UNL     4      -6.727   3.639  67.606  1.00  0.00    -0.042 C  
HETATM   33  C   UNL     4      -5.721   2.680  68.258  1.00  0.00    -0.023 C  
ENDBRANCH  31  32
BRANCH  31  34
HETATM   34  C   UNL     4      -8.168   4.764  69.229  1.00  0.00    -0.077 C  
HETATM   35  C   UNL     4      -8.925   3.423  69.113  1.00  0.00    -0.181 C  
ENDBRANCH  31  34
BRANCH  31  36
HETATM   36  C   UNL     4      -5.742   5.266  69.114  1.00  0.00    -0.012 C  
HETATM   37  C   UNL     4      -5.627   6.697  69.682  1.00  0.00    -0.015 C  
ENDBRANCH  31  36
ENDBRANCH  30  31
ENDBRANCH  29  30
ENDBRANCH  28  29
ENDBRANCH  17  28
ENDBRANCH  11  12
ENDBRANCH  10  11
ENDBRANCH   9  10
ENDBRANCH   6   9
BRANCH   6  38
HETATM   38  C   UNL     4      -5.685  13.460  68.311  1.00  0.00    -0.098 C  
HETATM   39  C   UNL     4      -5.137  13.892  69.687  1.00  0.00    -0.084 C  
ENDBRANCH   6  38
ENDBRANCH   5   6
TORSDOF 21
ENDMDL
MODEL      154
REMARK 921   NORMALIZED FREE ENERGY PREDICTED BY IDOCK:    8.44 KCAL/MOL
REMARK 922        TOTAL FREE ENERGY PREDICTED BY IDOCK:   16.48 KCAL/MOL
REMARK 923 INTER-LIGAND FREE ENERGY PREDICTED BY IDOCK:   -3.68 KCAL/MOL
REMARK 924 INTRA-LIGAND FREE ENERGY PREDICTED BY IDOCK:   20.16 KCAL/MOL
REMARK 927      BINDING AFFINITY PREDICTED BY RF-SCORE:    0.00 PKD
ROOT
HETATM    1  I   UNL     1     -12.796  10.263  71.629  1.00  0.00    -0.482 I  
HETATM    2  I   UNL     2      -8.176   9.047  69.467  1.00  0.00    -0.139 I  
HETATM    3  I   UNL     3     -12.823   6.239  71.794  1.00  0.00     1.007 I  
HETATM    4  C   UNL     4     -10.553   4.475  74.332  1.00  0.00    -0.289 C  
HETATM    5  C   UNL     4      -9.131   3.880  74.247  1.00  0.00    -0.092 C  
ENDROOT
BRANCH   5   6
HETATM    6  N   UNL     4      -8.640   3.515  72.872  1.00  0.00    -0.085 N  
BRANCH   6   7
HETATM    7  C   UNL     4      -8.427   2.021  72.822  1.00  0.00    -0.062 C  
HETATM    8  C   UNL     4      -7.704   1.472  71.577  1.00  0.00    -0.040 C  
ENDBRANCH   6   7
BRANCH   6   9
HETATM    9  C   UNL     4      -9.663   3.962  71.863  1.00  0.00    -0.169 C  
BRANCH   9  10
HETATM   10  C   UNL     4      -9.675   3.322  70.441  1.00  0.00    -0.055 C  
BRANCH  10  11
HETATM   11  O   UNL     4      -8.716   3.760  69.544  1.00  0.00    -0.070 OA 
BRANCH  11  12
HETATM   12  C   UNL     4      -8.812   4.030  68.218  1.00  0.00    -0.108 A  
HETATM   13  C   UNL     4      -8.430   3.043  67.298  1.00  0.00    -0.103 A  
HETATM   14  C   UNL     4      -8.468   3.272  65.947  1.00  0.00    -0.111 A  
HETATM   15  C   UNL     4      -8.940   4.464  65.465  1.00  0.00    -0.135 A  
HETATM   16  C   UNL     4      -9.384   5.514  66.321  1.00  0.00    -0.156 A  
HETATM   17  C   UNL     4      -9.306   5.309  67.740  1.00  0.00    -0.119 A  
BRANCH  16  18
HETATM   18  O   UNL     4      -9.899   6.670  65.764  1.00  0.00     0.285 OA 
BRANCH  18  19
HETATM   19  C   UNL     4      -9.879   7.850  66.517  1.00  0.00    -0.202 C  
BRANCH  19  20
HETATM   20  C   UNL     4      -9.595   9.214  65.839  1.00  0.00    -0.273 C  
BRANCH  20  21
HETATM   21  N   UNL     4      -8.198   9.285  65.216  1.00  0.00    -0.127 N  
BRANCH  21  22
HETATM   22  C   UNL     4      -8.244   8.907  63.755  1.00  0.00    -0.172 C  
HETATM   23  C   UNL     4      -7.666   7.533  63.377  1.00  0.00    -0.129 C  
ENDBRANCH  21  22
BRANCH  21  24
HETATM   24  C   UNL     4      -7.279   8.309  65.911  1.00  0.00    -0.072 C  
HETATM   25  C   UNL     4      -5.932   7.994  65.224  1.00  0.00    -0.045 C  
ENDBRANCH  21  24
BRANCH  21  26
HETATM   26  C   UNL     4      -7.661  10.686  65.311  1.00  0.00    -0.021 C  
HETATM   27  C   UNL     4      -6.249  10.835  65.902  1.00  0.00    -0.121 C  
ENDBRANCH  21  26
ENDBRANCH  20  21
ENDBRANCH  19  20
ENDBRANCH  18  19
ENDBRANCH  16  18
BRANCH  17  28
HETATM   28  O   UNL     4      -9.708   6.316  68.600  1.00  0.00    -0.126 OA 
BRANCH  28  29
HETATM   29  C   UNL     4     -10.687   6.162  69.584  1.00  0.00    -0.319 C  
BRANCH  29  30
HETATM   30  C   UNL     4     -10.772   7.304  70.622  1.00  0.00    -0.235 C  
BRANCH  30  31
HETATM   31  N   UNL     4      -9.538   7.472  71.497  1.00  0.00    -0.155 N  
BRANCH  31  32
HETATM   32  C   UNL     4      -8.347   6.746  70.928  1.00  0.00    -0.128 C  
HETATM   33  C   UNL     4      -7.084   6.692  71.798  1.00  0.00    -0.076 C  
ENDBRANCH  31  32
BRANCH  31  34
HETATM   34  C   UNL     4      -9.837   6.909  72.860  1.00  0.00    -0.172 C  
HETATM   35  C   UNL     4      -9.350   7.744  74.064  1.00  0.00    -0.087 C  
ENDBRANCH  31  34
BRANCH  31  36
HETATM   36  C   UNL     4      -9.157   8.934  71.600  1.00  0.00    -0.210 C  
HETATM   37  C   UNL     4      -9.996   9.935  70.777  1.00  0.00    -0.009 C  
ENDBRANCH  31  36
ENDBRANCH  30  31
ENDBRANCH  29  30
ENDBRANCH  28  29
ENDBRANCH  17  28
ENDBRANCH  11  12
ENDBRANCH  10  11
ENDBRANCH   9  10
ENDBRANCH   6   9
BRANCH   6  38
HETATM   38  C   UNL     4      -7.322   4.181  72.573  1.00  0.00    -0.068 C  
HETATM   39  C   UNL     4      -6.188   3.263  72.073  1.00  0.00    -0.014 C  
ENDBRANCH   6  38
ENDBRANCH   5   6
TORSDOF 21
ENDMDL
MODEL      155
REMARK 921   NORMALIZED FREE ENERGY PREDICTED BY IDOCK:    9.01 KCAL/MOL
REMARK 922        TOTAL FREE ENERGY PREDICTED BY IDOCK:   17.75 KCAL/MOL
REMARK 923 INTER-LIGAND FREE ENERGY PREDICTED BY IDOCK:    1.83 KCAL/MOL
REMARK 924 INTRA-LIGAND FREE ENERGY PREDICTED BY IDOCK:   15.92 KCAL/MOL
REMARK 927      BINDING AFFINITY PREDICTED BY RF-SCORE:    0.00 PKD
ROOT
HETATM    1  I   UNL     1      -9.115   7.862  62.745  1.00  0.00     2.248 I  
HETATM    2  I   UNL     2      -5.280   6.347  65.985  1.00  0.00    -0.014 I  
HETATM    3  I   UNL     3     -11.046   5.328  65.208  1.00  0.00     2.318 I  
HETATM    4  C   UNL     4     -11.781   6.440  68.804  1.00  0.00     0.428 C  
HETATM    5  C   UNL     4     -11.038   6.252  70.144  1.00  0.00    -0.377 C  
ENDROOT
BRANCH   5   6
HETATM    6  N   UNL     4     -10.072   5.100  70.216  1.00  0.00    -0.247 N  
BRANCH   6   7
HETATM    7  C   UNL     4     -10.604   4.092  71.205  1.00  0.00     0.469 C  
HETATM    8  C   UNL     4     -11.254   4.661  72.482  1.00  0.00    -0.008 C  
ENDBRANCH   6   7
BRANCH   6   9
HETATM    9  C   UNL     4      -9.931   4.505  68.841  1.00  0.00    -0.061 C  
BRANCH   9  10
HETATM   10  C   UNL     4     -10.219   5.383  67.586  1.00  0.00    -0.186 C  
BRANCH  10  11
HETATM   11  O   UNL     4     -10.183   6.756  67.755  1.00  0.00    -0.147 OA 
BRANCH  11  12
HETATM   12  C   UNL     4      -9.348   7.685  67.224  1.00  0.00    -0.144 A  
HETATM   13  C   UNL     4      -9.882   8.674  66.386  1.00  0.00    -0.341 A  
HETATM   14  C   UNL     4      -9.082   9.614  65.791  1.00  0.00    -0.230 A  
HETATM   15  C   UNL     4      -7.737   9.637  66.052  1.00  0.00    -0.102 A  
HETATM   16  C   UNL     4      -7.109   8.695  66.917  1.00  0.00    -0.075 A  
HETATM   17  C   UNL     4      -7.925   7.674  67.512  1.00  0.00    -0.120 A  
BRANCH  16  18
HETATM   18  O   UNL     4      -5.756   8.812  67.177  1.00  0.00    -0.041 OA 
BRANCH  18  19
HETATM   19  C   UNL     4      -5.289   9.965  67.819  1.00  0.00    -0.035 C  
BRANCH  19  20
HETATM   20  C   UNL     4      -6.039  11.312  67.667  1.00  0.00    -0.051 C  
BRANCH  20  21
HETATM   21  N   UNL     4      -6.941  11.625  68.864  1.00  0.00    -0.102 N  
BRANCH  21  22
HETATM   22  C   UNL     4      -6.281  12.624  69.783  1.00  0.00    -0.111 C  
HETATM   23  C   UNL     4      -6.554  14.112  69.500  1.00  0.00    -0.124 C  
ENDBRANCH  21  22
BRANCH  21  24
HETATM   24  C   UNL     4      -7.188  10.366  69.661  1.00  0.00    -0.148 C  
HETATM   25  C   UNL     4      -8.640  10.079  70.100  1.00  0.00    -0.046 C  
ENDBRANCH  21  24
BRANCH  21  26
HETATM   26  C   UNL     4      -8.238  12.222  68.392  1.00  0.00    -0.146 C  
HETATM   27  C   UNL     4      -8.244  12.797  66.966  1.00  0.00    -0.099 C  
ENDBRANCH  21  26
ENDBRANCH  20  21
ENDBRANCH  19  20
ENDBRANCH  18  19
ENDBRANCH  16  18
BRANCH  17  28
HETATM   28  O   UNL     4      -7.343   6.729  68.340  1.00  0.00    -0.082 OA 
BRANCH  28  29
HETATM   29  C   UNL     4      -7.389   5.353  68.112  1.00  0.00    -0.072 C  
BRANCH  29  30
HETATM   30  C   UNL     4      -6.759   4.475  69.216  1.00  0.00    -0.045 C  
BRANCH  30  31
HETATM   31  N   UNL     4      -6.452   3.042  68.802  1.00  0.00    -0.029 N  
BRANCH  31  32
HETATM   32  C   UNL     4      -5.223   2.514  69.494  1.00  0.00    -0.012 C  
HETATM   33  C   UNL     4      -5.313   2.311  71.014  1.00  0.00    -0.004 C  
ENDBRANCH  31  32
BRANCH  31  34
HETATM   34  C   UNL     4      -6.218   3.012  67.317  1.00  0.00    -0.028 C  
HETATM   35  C   UNL     4      -7.267   2.251  66.477  1.00  0.00    -0.057 C  
ENDBRANCH  31  34
BRANCH  31  36
HETATM   36  C   UNL     4      -7.598   2.126  69.177  1.00  0.00    -0.043 C  
HETATM   37  C   UNL     4      -8.059   2.148  70.651  1.00  0.00    -0.053 C  
ENDBRANCH  31  36
ENDBRANCH  30  31
ENDBRANCH  29  30
ENDBRANCH  28  29
ENDBRANCH  17  28
ENDBRANCH  11  12
ENDBRANCH  10  11
ENDBRANCH   9  10
ENDBRANCH   6   9
BRANCH   6  38
HETATM   38  C   UNL     4      -8.721   5.557  70.701  1.00  0.00    -0.129 C  
HETATM   39  C   UNL     4      -8.704   6.799  71.615  1.00  0.00    -0.126 C  
ENDBRANCH   6  38
ENDBRANCH   5   6
TORSDOF 21
ENDMDL
MODEL      156
REMARK 921   NORMALIZED FREE ENERGY PREDICTED BY IDOCK:    9.34 KCAL/MOL
REMARK 922        TOTAL FREE ENERGY PREDICTED BY IDOCK:   18.50 KCAL/MOL
REMARK 923 INTER-LIGAND FREE ENERGY PREDICTED BY IDOCK:   10.51 KCAL/MOL
REMARK 924 INTRA-LIGAND FREE ENERGY PREDICTED BY IDOCK:    7.99 KCAL/MOL
REMARK 927      BINDING AFFINITY PREDICTED BY RF-SCORE:    0.00 PKD
ROOT
HETATM    1  I   UNL     1      -5.423  15.827  65.346  1.00  0.00    10.403 I  
HETATM    2  I   UNL     2     -10.650  16.135  65.053  1.00  0.00     0.326 I  
HETATM    3  I   UNL     3      -6.581  13.141  68.114  1.00  0.00    -0.170 I  
HETATM    4  C   UNL     4      -8.079   9.809  66.947  1.00  0.00    -0.113 C  
HETATM    5  C   UNL     4      -9.526   9.322  66.716  1.00  0.00    -0.175 C  
ENDROOT
BRANCH   5   6
HETATM    6  N   UNL     4     -10.609  10.075  67.438  1.00  0.00    -0.261 N  
BRANCH   6   7
HETATM    7  C   UNL     4     -11.354  10.921  66.434  1.00  0.00     0.270 C  
HETATM    8  C   UNL     4     -10.563  11.363  65.187  1.00  0.00    -0.352 C  
ENDBRANCH   6   7
BRANCH   6   9
HETATM    9  C   UNL     4     -11.519   9.083  68.110  1.00  0.00     1.000 C  
BRANCH   9  10
HETATM   10  C   UNL     4     -11.130   7.573  68.136  1.00  0.00     0.232 C  
BRANCH  10  11
HETATM   11  O   UNL     4     -10.473   7.111  69.263  1.00  0.00    -0.201 OA 
BRANCH  11  12
HETATM   12  C   UNL     4      -9.173   7.234  69.634  1.00  0.00    -0.143 A  
HETATM   13  C   UNL     4      -8.183   6.640  68.838  1.00  0.00    -0.120 A  
HETATM   14  C   UNL     4      -6.859   6.698  69.183  1.00  0.00    -0.069 A  
HETATM   15  C   UNL     4      -6.468   7.394  70.297  1.00  0.00    -0.035 A  
HETATM   16  C   UNL     4      -7.397   8.060  71.148  1.00  0.00    -0.065 A  
HETATM   17  C   UNL     4      -8.794   7.969  70.827  1.00  0.00    -0.139 A  
BRANCH  16  18
HETATM   18  O   UNL     4      -6.927   8.789  72.225  1.00  0.00    -0.246 OA 
BRANCH  18  19
HETATM   19  C   UNL     4      -6.023   8.185  73.107  1.00  0.00    -0.067 C  
BRANCH  19  20
HETATM   20  C   UNL     4      -6.482   7.041  74.046  1.00  0.00    -0.074 C  
BRANCH  20  21
HETATM   21  N   UNL     4      -6.565   5.689  73.334  1.00  0.00    -0.071 N  
BRANCH  21  22
HETATM   22  C   UNL     4      -6.276   4.560  74.294  1.00  0.00    -0.043 C  
HETATM   23  C   UNL     4      -6.994   3.225  74.029  1.00  0.00    -0.045 C  
ENDBRANCH  21  22
BRANCH  21  24
HETATM   24  C   UNL     4      -5.532   5.627  72.233  1.00  0.00    -0.021 C  
HETATM   25  C   UNL     4      -5.946   4.941  70.912  1.00  0.00    -0.018 C  
ENDBRANCH  21  24
BRANCH  21  26
HETATM   26  C   UNL     4      -7.947   5.480  72.782  1.00  0.00    -0.102 C  
HETATM   27  C   UNL     4      -9.107   5.603  73.785  1.00  0.00    -0.127 C  
ENDBRANCH  21  26
ENDBRANCH  20  21
ENDBRANCH  19  20
ENDBRANCH  18  19
ENDBRANCH  16  18
BRANCH  17  28
HETATM   28  O   UNL     4      -9.726   8.585  71.645  1.00  0.00    -0.201 OA 
BRANCH  28  29
HETATM   29  C   UNL     4     -11.039   8.867  71.264  1.00  0.00    -0.297 C  
BRANCH  29  30
HETATM   30  C   UNL     4     -11.312  10.328  70.845  1.00  0.00    -0.295 C  
BRANCH  30  31
HETATM   31  N   UNL     4     -12.667  10.878  71.270  1.00  0.00    -0.412 N  
BRANCH  31  32
HETATM   32  C   UNL     4     -12.546  11.810  72.445  1.00  0.00     1.175 C  
HETATM   33  C   UNL     4     -12.884  13.288  72.199  1.00  0.00    -0.291 C  
ENDBRANCH  31  32
BRANCH  31  34
HETATM   34  C   UNL     4     -13.551   9.725  71.659  1.00  0.00    -0.291 C  
HETATM   35  C   UNL     4     -13.540   8.506  70.710  1.00  0.00     0.453 C  
ENDBRANCH  31  34
BRANCH  31  36
HETATM   36  C   UNL     4     -13.294  11.668  70.141  1.00  0.00     1.296 C  
HETATM   37  C   UNL     4     -12.776  13.107  69.921  1.00  0.00     0.229 C  
ENDBRANCH  31  36
ENDBRANCH  30  31
ENDBRANCH  29  30
ENDBRANCH  28  29
ENDBRANCH  17  28
ENDBRANCH  11  12
ENDBRANCH  10  11
ENDBRANCH   9  10
ENDBRANCH   6   9
BRANCH   6  38
HETATM   38  C   UNL     4     -10.025  10.998  68.477  1.00  0.00    -0.193 C  
HETATM   39  C   UNL     4     -10.358  12.496  68.328  1.00  0.00    -0.241 C  
ENDBRANCH   6  38
ENDBRANCH   5   6
TORSDOF 21
ENDMDL
MODEL      157
REMARK 921   NORMALIZED FREE ENERGY PREDICTED BY IDOCK:   10.00 KCAL/MOL
REMARK 922        TOTAL FREE ENERGY PREDICTED BY IDOCK:   19.96 KCAL/MOL
REMARK 923 INTER-LIGAND FREE ENERGY PREDICTED BY IDOCK:    8.37 KCAL/MOL
REMARK 924 INTRA-LIGAND FREE ENERGY PREDICTED BY IDOCK:   11.59 KCAL/MOL
REMARK 927      BINDING AFFINITY PREDICTED BY RF-SCORE:    0.00 PKD
ROOT
HETATM    1  I   UNL     1     -12.473  17.630  67.460  1.00  0.00     6.905 I  
HETATM    2  I   UNL     2     -12.122  13.139  70.146  1.00  0.00    -0.110 I  
HETATM    3  I   UNL     3      -9.629  15.645  65.413  1.00  0.00     0.676 I  
HETATM    4  C   UNL     4     -10.658  12.667  63.229  1.00  0.00     0.032 C  
HETATM    5  C   UNL     4     -10.720  11.144  63.475  1.00  0.00    -0.266 C  
ENDROOT
BRANCH   5   6
HETATM    6  N   UNL     4      -9.858  10.611  64.587  1.00  0.00    -0.293 N  
BRANCH   6   7
HETATM    7  C   UNL     4      -8.816   9.698  63.989  1.00  0.00    -0.227 C  
HETATM    8  C   UNL     4      -8.265  10.099  62.606  1.00  0.00    -0.162 C  
ENDBRANCH   6   7
BRANCH   6   9
HETATM    9  C   UNL     4      -9.229  11.773  65.306  1.00  0.00     0.035 C  
BRANCH   9  10
HETATM   10  C   UNL     4      -8.389  11.521  66.596  1.00  0.00    -0.167 C  
BRANCH  10  11
HETATM   11  O   UNL     4      -8.946  10.701  67.560  1.00  0.00    -0.135 OA 
BRANCH  11  12
HETATM   12  C   UNL     4      -8.414   9.649  68.234  1.00  0.00    -0.118 A  
HETATM   13  C   UNL     4      -8.946   8.370  68.019  1.00  0.00    -0.138 A  
HETATM   14  C   UNL     4      -8.476   7.277  68.698  1.00  0.00    -0.129 A  
HETATM   15  C   UNL     4      -7.427   7.409  69.570  1.00  0.00    -0.090 A  
HETATM   16  C   UNL     4      -6.798   8.661  69.827  1.00  0.00    -0.042 A  
HETATM   17  C   UNL     4      -7.310   9.825  69.159  1.00  0.00    -0.079 A  
BRANCH  16  18
HETATM   18  O   UNL     4      -5.709   8.710  70.678  1.00  0.00    -0.027 OA 
BRANCH  18  19
HETATM   19  C   UNL     4      -5.167   7.510  71.151  1.00  0.00    -0.027 C  
BRANCH  19  20
HETATM   20  C   UNL     4      -5.402   6.182  70.387  1.00  0.00    -0.013 C  
BRANCH  20  21
HETATM   21  N   UNL     4      -6.343   5.231  71.131  1.00  0.00    -0.029 N  
BRANCH  21  22
HETATM   22  C   UNL     4      -7.379   4.662  70.192  1.00  0.00    -0.050 C  
HETATM   23  C   UNL     4      -7.405   3.131  70.034  1.00  0.00    -0.041 C  
ENDBRANCH  21  22
BRANCH  21  24
HETATM   24  C   UNL     4      -7.076   5.982  72.217  1.00  0.00    -0.084 C  
HETATM   25  C   UNL     4      -8.121   5.197  73.039  1.00  0.00    -0.105 C  
ENDBRANCH  21  24
BRANCH  21  26
HETATM   26  C   UNL     4      -5.565   4.081  71.707  1.00  0.00    -0.008 C  
HETATM   27  C   UNL     4      -6.111   3.475  73.011  1.00  0.00    -0.008 C  
ENDBRANCH  21  26
ENDBRANCH  20  21
ENDBRANCH  19  20
ENDBRANCH  18  19
ENDBRANCH  16  18
BRANCH  17  28
HETATM   28  O   UNL     4      -6.737  11.062  69.404  1.00  0.00    -0.086 OA 
BRANCH  28  29
HETATM   29  C   UNL     4      -7.372  12.098  70.090  1.00  0.00     1.670 C  
BRANCH  29  30
HETATM   30  C   UNL     4      -7.578  13.401  69.286  1.00  0.00     0.319 C  
BRANCH  30  31
HETATM   31  N   UNL     4      -6.381  13.841  68.456  1.00  0.00    -0.085 N  
BRANCH  31  32
HETATM   32  C   UNL     4      -5.402  14.644  69.272  1.00  0.00    -0.088 C  
HETATM   33  C   UNL     4      -5.482  14.495  70.798  1.00  0.00    -0.151 C  
ENDBRANCH  31  32
BRANCH  31  34
HETATM   34  C   UNL     4      -6.873  14.695  67.320  1.00  0.00     0.113 C  
HETATM   35  C   UNL     4      -6.713  16.221  67.494  1.00  0.00    -0.189 C  
ENDBRANCH  31  34
BRANCH  31  36
HETATM   36  C   UNL     4      -5.631  12.636  67.927  1.00  0.00    -0.104 C  
HETATM   37  C   UNL     4      -5.161  11.593  68.964  1.00  0.00    -0.043 C  
ENDBRANCH  31  36
ENDBRANCH  30  31
ENDBRANCH  29  30
ENDBRANCH  28  29
ENDBRANCH  17  28
ENDBRANCH  11  12
ENDBRANCH  10  11
ENDBRANCH   9  10
ENDBRANCH   6   9
BRANCH   6  38
HETATM   38  C   UNL     4     -10.673   9.805  65.565  1.00  0.00     0.824 C  
HETATM   39  C   UNL     4     -11.550  10.605  66.551  1.00  0.00     0.891 C  
ENDBRANCH   6  38
ENDBRANCH   5   6
TORSDOF 21
ENDMDL
MODEL      158
REMARK 921   NORMALIZED FREE ENERGY PREDICTED BY IDOCK:   10.07 KCAL/MOL
REMARK 922        TOTAL FREE ENERGY PREDICTED BY IDOCK:   20.12 KCAL/MOL
REMARK 923 INTER-LIGAND FREE ENERGY PREDICTED BY IDOCK:    3.92 KCAL/MOL
REMARK 924 INTRA-LIGAND FREE ENERGY PREDICTED BY IDOCK:   16.20 KCAL/MOL
REMARK 927      BINDING AFFINITY PREDICTED BY RF-SCORE:    0.00 PKD
ROOT
HETATM    1  I   UNL     1      -5.518   5.736  66.646  1.00  0.00    -0.014 I  
HETATM    2  I   UNL     2      -9.981   3.202  67.719  1.00  0.00     1.786 I  
HETATM    3  I   UNL     3      -6.818   7.675  69.928  1.00  0.00    -0.048 I  
HETATM    4  C   UNL     4      -6.601   5.912  73.327  1.00  0.00    -0.073 C  
HETATM    5  C   UNL     4      -7.598   5.065  74.146  1.00  0.00    -0.094 C  
ENDROOT
BRANCH   5   6
HETATM    6  N   UNL     4      -9.056   5.257  73.829  1.00  0.00    -0.123 N  
BRANCH   6   7
HETATM    7  C   UNL     4      -9.544   6.488  74.554  1.00  0.00    -0.282 C  
HETATM    8  C   UNL     4     -10.526   7.394  73.784  1.00  0.00    -0.258 C  
ENDBRANCH   6   7
BRANCH   6   9
HETATM    9  C   UNL     4      -9.210   5.395  72.339  1.00  0.00    -0.141 C  
BRANCH   9  10
HETATM   10  C   UNL     4     -10.256   6.397  71.760  1.00  0.00    -0.197 C  
BRANCH  10  11
HETATM   11  O   UNL     4     -10.094   6.786  70.442  1.00  0.00    -0.182 OA 
BRANCH  11  12
HETATM   12  C   UNL     4     -10.537   7.892  69.793  1.00  0.00    -0.242 A  
HETATM   13  C   UNL     4     -11.486   7.742  68.772  1.00  0.00     0.824 A  
HETATM   14  C   UNL     4     -11.941   8.818  68.055  1.00  0.00     3.397 A  
HETATM   15  C   UNL     4     -11.512  10.082  68.365  1.00  0.00    -0.011 A  
HETATM   16  C   UNL     4     -10.576  10.338  69.409  1.00  0.00    -0.237 A  
HETATM   17  C   UNL     4     -10.053   9.217  70.139  1.00  0.00    -0.202 A  
BRANCH  16  18
HETATM   18  O   UNL     4     -10.230  11.644  69.702  1.00  0.00     0.259 OA 
BRANCH  18  19
HETATM   19  C   UNL     4     -10.847  12.682  68.995  1.00  0.00    -0.146 C  
BRANCH  19  20
HETATM   20  C   UNL     4     -11.036  14.076  69.645  1.00  0.00    -0.104 C  
BRANCH  20  21
HETATM   21  N   UNL     4     -10.565  15.218  68.741  1.00  0.00    -0.233 N  
BRANCH  21  22
HETATM   22  C   UNL     4      -9.110  15.048  68.379  1.00  0.00    -0.184 C  
HETATM   23  C   UNL     4      -8.250  14.209  69.341  1.00  0.00     0.378 C  
ENDBRANCH  21  22
BRANCH  21  24
HETATM   24  C   UNL     4     -10.702  16.535  69.469  1.00  0.00    -0.321 C  
HETATM   25  C   UNL     4     -11.680  16.585  70.664  1.00  0.00     0.161 C  
ENDBRANCH  21  24
BRANCH  21  26
HETATM   26  C   UNL     4     -11.358  15.228  67.465  1.00  0.00    -0.297 C  
HETATM   27  C   UNL     4     -10.645  15.793  66.224  1.00  0.00    -0.313 C  
ENDBRANCH  21  26
ENDBRANCH  20  21
ENDBRANCH  19  20
ENDBRANCH  18  19
ENDBRANCH  16  18
BRANCH  17  28
HETATM   28  O   UNL     4      -9.125   9.428  71.144  1.00  0.00    -0.250 OA 
BRANCH  28  29
HETATM   29  C   UNL     4      -7.763   9.638  70.922  1.00  0.00     0.137 C  
BRANCH  29  30
HETATM   30  C   UNL     4      -7.411  10.880  70.074  1.00  0.00     0.342 C  
BRANCH  30  31
HETATM   31  N   UNL     4      -6.740  10.581  68.740  1.00  0.00    -0.053 N  
BRANCH  31  32
HETATM   32  C   UNL     4      -7.658  10.860  67.580  1.00  0.00    -0.101 C  
HETATM   33  C   UNL     4      -7.802   9.754  66.525  1.00  0.00    -0.109 C  
ENDBRANCH  31  32
BRANCH  31  34
HETATM   34  C   UNL     4      -6.358   9.127  68.712  1.00  0.00    -0.048 C  
HETATM   35  C   UNL     4      -7.462   8.139  68.275  1.00  0.00    -0.097 C  
ENDBRANCH  31  34
BRANCH  31  36
HETATM   36  C   UNL     4      -5.517  11.454  68.556  1.00  0.00    -0.042 C  
HETATM   37  C   UNL     4      -5.761  12.959  68.312  1.00  0.00    -0.076 C  
ENDBRANCH  31  36
ENDBRANCH  30  31
ENDBRANCH  29  30
ENDBRANCH  28  29
ENDBRANCH  17  28
ENDBRANCH  11  12
ENDBRANCH  10  11
ENDBRANCH   9  10
ENDBRANCH   6   9
BRANCH   6  38
HETATM   38  C   UNL     4      -9.873   4.085  74.307  1.00  0.00    -0.127 C  
HETATM   39  C   UNL     4     -11.371   4.351  74.562  1.00  0.00     1.237 C  
ENDBRANCH   6  38
ENDBRANCH   5   6
TORSDOF 21
ENDMDL
MODEL      159
REMARK 921   NORMALIZED FREE ENERGY PREDICTED BY IDOCK:   10.26 KCAL/MOL
REMARK 922        TOTAL FREE ENERGY PREDICTED BY IDOCK:   20.53 KCAL/MOL
REMARK 923 INTER-LIGAND FREE ENERGY PREDICTED BY IDOCK:    8.21 KCAL/MOL
REMARK 924 INTRA-LIGAND FREE ENERGY PREDICTED BY IDOCK:   12.33 KCAL/MOL
REMARK 927      BINDING AFFINITY PREDICTED BY RF-SCORE:    0.00 PKD
ROOT
HETATM    1  I   UNL     1     -13.379   8.002  69.551  1.00  0.00     7.666 I  
HETATM    2  I   UNL     2      -8.558   7.103  71.409  1.00  0.00    -0.118 I  
HETATM    3  I   UNL     3     -11.795  11.704  69.608  1.00  0.00    -0.361 I  
HETATM    4  C   UNL     4      -9.137  12.620  67.000  1.00  0.00    -0.215 C  
HETATM    5  C   UNL     4      -7.593  12.592  67.006  1.00  0.00     0.013 C  
ENDROOT
BRANCH   5   6
HETATM    6  N   UNL     4      -6.930  12.620  68.356  1.00  0.00    -0.086 N  
BRANCH   6   7
HETATM    7  C   UNL     4      -7.914  13.170  69.360  1.00  0.00     0.790 C  
HETATM    8  C   UNL     4      -9.000  14.115  68.810  1.00  0.00    -0.065 C  
ENDBRANCH   6   7
BRANCH   6   9
HETATM    9  C   UNL     4      -6.502  11.222  68.710  1.00  0.00    -0.058 C  
BRANCH   9  10
HETATM   10  C   UNL     4      -6.994  10.021  67.846  1.00  0.00    -0.084 C  
BRANCH  10  11
HETATM   11  O   UNL     4      -6.047   9.364  67.082  1.00  0.00    -0.061 OA 
BRANCH  11  12
HETATM   12  C   UNL     4      -5.957   9.208  65.736  1.00  0.00    -0.051 A  
HETATM   13  C   UNL     4      -6.013  10.346  64.919  1.00  0.00    -0.122 A  
HETATM   14  C   UNL     4      -5.967  10.249  63.554  1.00  0.00    -0.142 A  
HETATM   15  C   UNL     4      -5.808   9.025  62.957  1.00  0.00    -0.088 A  
HETATM   16  C   UNL     4      -5.707   7.817  63.705  1.00  0.00    -0.053 A  
HETATM   17  C   UNL     4      -5.801   7.896  65.136  1.00  0.00    -0.037 A  
BRANCH  16  18
HETATM   18  O   UNL     4      -5.493   6.624  63.038  1.00  0.00    -0.029 OA 
BRANCH  18  19
HETATM   19  C   UNL     4      -6.220   5.493  63.428  1.00  0.00    -0.022 C  
BRANCH  19  20
HETATM   20  C   UNL     4      -7.599   5.640  64.119  1.00  0.00    -0.080 C  
BRANCH  20  21
HETATM   21  N   UNL     4      -8.559   4.499  63.773  1.00  0.00    -0.121 N  
BRANCH  21  22
HETATM   22  C   UNL     4      -9.722   5.008  62.955  1.00  0.00     0.513 C  
HETATM   23  C   UNL     4      -9.597   6.431  62.384  1.00  0.00     1.652 C  
ENDBRANCH  21  22
BRANCH  21  24
HETATM   24  C   UNL     4      -9.121   3.901  65.041  1.00  0.00    -0.142 C  
HETATM   25  C   UNL     4     -10.633   3.587  65.066  1.00  0.00     0.322 C  
ENDBRANCH  21  24
BRANCH  21  26
HETATM   26  C   UNL     4      -7.848   3.454  62.959  1.00  0.00    -0.068 C  
HETATM   27  C   UNL     4      -7.478   2.155  63.693  1.00  0.00    -0.054 C  
ENDBRANCH  21  26
ENDBRANCH  20  21
ENDBRANCH  19  20
ENDBRANCH  18  19
ENDBRANCH  16  18
BRANCH  17  28
HETATM   28  O   UNL     4      -5.729   6.739  65.891  1.00  0.00    -0.028 OA 
BRANCH  28  29
HETATM   29  C   UNL     4      -6.812   5.892  66.134  1.00  0.00    -0.061 C  
BRANCH  29  30
HETATM   30  C   UNL     4      -7.572   6.146  67.455  1.00  0.00    -0.093 C  
BRANCH  30  31
HETATM   31  N   UNL     4      -8.969   6.728  67.293  1.00  0.00    -0.116 N  
BRANCH  31  32
HETATM   32  C   UNL     4      -8.989   7.861  66.302  1.00  0.00    -0.171 C  
HETATM   33  C   UNL     4     -10.343   8.539  66.047  1.00  0.00     0.543 C  
ENDBRANCH  31  32
BRANCH  31  34
HETATM   34  C   UNL     4      -9.429   7.249  68.627  1.00  0.00    -0.137 C  
HETATM   35  C   UNL     4     -10.447   6.370  69.388  1.00  0.00    -0.277 C  
ENDBRANCH  31  34
BRANCH  31  36
HETATM   36  C   UNL     4      -9.926   5.673  66.778  1.00  0.00    -0.178 C  
HETATM   37  C   UNL     4     -10.223   4.481  67.714  1.00  0.00     0.022 C  
ENDBRANCH  31  36
ENDBRANCH  30  31
ENDBRANCH  29  30
ENDBRANCH  28  29
ENDBRANCH  17  28
ENDBRANCH  11  12
ENDBRANCH  10  11
ENDBRANCH   9  10
ENDBRANCH   6   9
BRANCH   6  38
HETATM   38  C   UNL     4      -5.723  13.523  68.348  1.00  0.00    -0.097 C  
HETATM   39  C   UNL     4      -5.816  14.800  69.208  1.00  0.00    -0.101 C  
ENDBRANCH   6  38
ENDBRANCH   5   6
TORSDOF 21
ENDMDL
MODEL      160
REMARK 921   NORMALIZED FREE ENERGY PREDICTED BY IDOCK:   10.64 KCAL/MOL
REMARK 922        TOTAL FREE ENERGY PREDICTED BY IDOCK:   21.39 KCAL/MOL
REMARK 923 INTER-LIGAND FREE ENERGY PREDICTED BY IDOCK:    2.60 KCAL/MOL
REMARK 924 INTRA-LIGAND FREE ENERGY PREDICTED BY IDOCK:   18.79 KCAL/MOL
REMARK 927      BINDING AFFINITY PREDICTED BY RF-SCORE:    0.00 PKD
ROOT
HETATM    1  I   UNL     1      -9.331   7.708  62.853  1.00  0.00     3.695 I  
HETATM    2  I   UNL     2      -5.314   6.162  65.848  1.00  0.00    -0.014 I  
HETATM    3  I   UNL     3     -11.131   5.218  65.456  1.00  0.00     1.880 I  
HETATM    4  C   UNL     4     -11.615   6.365  69.083  1.00  0.00    -0.096 C  
HETATM    5  C   UNL     4     -10.788   6.175  70.373  1.00  0.00    -0.310 C  
ENDROOT
BRANCH   5   6
HETATM    6  N   UNL     4      -9.836   5.010  70.391  1.00  0.00    -0.211 N  
BRANCH   6   7
HETATM    7  C   UNL     4     -10.337   3.998  71.393  1.00  0.00     0.140 C  
HETATM    8  C   UNL     4      -9.677   2.606  71.351  1.00  0.00    -0.217 C  
ENDBRANCH   6   7
BRANCH   6   9
HETATM    9  C   UNL     4      -9.763   4.428  69.006  1.00  0.00    -0.153 C  
BRANCH   9  10
HETATM   10  C   UNL     4     -10.169   5.300  67.779  1.00  0.00    -0.156 C  
BRANCH  10  11
HETATM   11  O   UNL     4     -10.127   6.674  67.940  1.00  0.00    -0.136 OA 
BRANCH  11  12
HETATM   12  C   UNL     4      -9.379   7.610  67.305  1.00  0.00    -0.144 A  
HETATM   13  C   UNL     4     -10.027   8.578  66.523  1.00  0.00    -0.350 A  
HETATM   14  C   UNL     4      -9.321   9.524  65.827  1.00  0.00    -0.293 A  
HETATM   15  C   UNL     4      -7.956   9.576  65.929  1.00  0.00    -0.111 A  
HETATM   16  C   UNL     4      -7.212   8.658  66.725  1.00  0.00    -0.078 A  
HETATM   17  C   UNL     4      -7.932   7.630  67.424  1.00  0.00    -0.119 A  
BRANCH  16  18
HETATM   18  O   UNL     4      -5.840   8.803  66.823  1.00  0.00    -0.050 OA 
BRANCH  18  19
HETATM   19  C   UNL     4      -5.318   9.617  67.836  1.00  0.00    -0.036 C  
BRANCH  19  20
HETATM   20  C   UNL     4      -6.017  10.947  68.218  1.00  0.00    -0.046 C  
BRANCH  20  21
HETATM   21  N   UNL     4      -7.036  10.776  69.347  1.00  0.00    -0.109 N  
BRANCH  21  22
HETATM   22  C   UNL     4      -6.880   9.428  70.009  1.00  0.00    -0.067 C  
HETATM   23  C   UNL     4      -8.075   8.918  70.833  1.00  0.00    -0.196 C  
ENDBRANCH  21  22
BRANCH  21  24
HETATM   24  C   UNL     4      -8.437  10.849  68.787  1.00  0.00    -0.150 C  
HETATM   25  C   UNL     4      -8.890  12.197  68.185  1.00  0.00    -0.187 C  
ENDBRANCH  21  24
BRANCH  21  26
HETATM   26  C   UNL     4      -6.825  11.830  70.398  1.00  0.00     1.031 C  
HETATM   27  C   UNL     4      -5.434  11.871  71.052  1.00  0.00    -0.071 C  
ENDBRANCH  21  26
ENDBRANCH  20  21
ENDBRANCH  19  20
ENDBRANCH  18  19
ENDBRANCH  16  18
BRANCH  17  28
HETATM   28  O   UNL     4      -7.239   6.708  68.188  1.00  0.00    -0.083 OA 
BRANCH  28  29
HETATM   29  C   UNL     4      -7.327   5.325  68.020  1.00  0.00    -0.072 C  
BRANCH  29  30
HETATM   30  C   UNL     4      -7.133   4.817  66.574  1.00  0.00    -0.075 C  
BRANCH  30  31
HETATM   31  N   UNL     4      -7.350   3.323  66.381  1.00  0.00    -0.074 N  
BRANCH  31  32
HETATM   32  C   UNL     4      -8.061   3.025  65.088  1.00  0.00    -0.086 C  
HETATM   33  C   UNL     4      -7.743   1.684  64.411  1.00  0.00    -0.064 C  
ENDBRANCH  31  32
BRANCH  31  34
HETATM   34  C   UNL     4      -8.187   2.809  67.520  1.00  0.00    -0.081 C  
HETATM   35  C   UNL     4      -7.667   1.539  68.230  1.00  0.00    -0.050 C  
ENDBRANCH  31  34
BRANCH  31  36
HETATM   36  C   UNL     4      -6.021   2.597  66.331  1.00  0.00    -0.023 C  
HETATM   37  C   UNL     4      -5.192   2.743  65.036  1.00  0.00    -0.009 C  
ENDBRANCH  31  36
ENDBRANCH  30  31
ENDBRANCH  29  30
ENDBRANCH  28  29
ENDBRANCH  17  28
ENDBRANCH  11  12
ENDBRANCH  10  11
ENDBRANCH   9  10
ENDBRANCH   6   9
BRANCH   6  38
HETATM   38  C   UNL     4      -8.458   5.445  70.821  1.00  0.00    -0.121 C  
HETATM   39  C   UNL     4      -8.384   6.364  72.057  1.00  0.00    -0.109 C  
ENDBRANCH   6  38
ENDBRANCH   5   6
TORSDOF 21
ENDMDL
MODEL      161
REMARK 921   NORMALIZED FREE ENERGY PREDICTED BY IDOCK:   11.09 KCAL/MOL
REMARK 922        TOTAL FREE ENERGY PREDICTED BY IDOCK:   22.38 KCAL/MOL
REMARK 923 INTER-LIGAND FREE ENERGY PREDICTED BY IDOCK:    3.34 KCAL/MOL
REMARK 924 INTRA-LIGAND FREE ENERGY PREDICTED BY IDOCK:   19.04 KCAL/MOL
REMARK 927      BINDING AFFINITY PREDICTED BY RF-SCORE:    0.00 PKD
ROOT
HETATM    1  I   UNL     1     -12.857   6.375  70.436  1.00  0.00     3.521 I  
HETATM    2  I   UNL     2      -9.933   9.072  67.019  1.00  0.00    -0.350 I  
HETATM    3  I   UNL     3     -12.247   9.838  72.400  1.00  0.00     1.339 I  
HETATM    4  C   UNL     4     -14.088  12.987  71.217  1.00  0.00     1.287 C  
HETATM    5  C   UNL     4     -13.710  14.139  70.261  1.00  0.00     1.123 C  
ENDROOT
BRANCH   5   6
HETATM    6  N   UNL     4     -12.239  14.363  70.034  1.00  0.00    -0.336 N  
BRANCH   6   7
HETATM    7  C   UNL     4     -11.499  13.107  70.425  1.00  0.00     0.290 C  
HETATM    8  C   UNL     4     -11.838  12.512  71.806  1.00  0.00     1.892 C  
ENDBRANCH   6   7
BRANCH   6   9
HETATM    9  C   UNL     4     -12.023  14.705  68.585  1.00  0.00    -0.270 C  
BRANCH   9  10
HETATM   10  C   UNL     4     -12.118  13.584  67.505  1.00  0.00    -0.300 C  
BRANCH  10  11
HETATM   11  O   UNL     4     -11.823  12.293  67.908  1.00  0.00    -0.383 OA 
BRANCH  11  12
HETATM   12  C   UNL     4     -10.671  11.767  68.394  1.00  0.00    -0.219 A  
HETATM   13  C   UNL     4     -10.735  10.901  69.494  1.00  0.00    -0.251 A  
HETATM   14  C   UNL     4      -9.602  10.370  70.053  1.00  0.00     0.141 A  
HETATM   15  C   UNL     4      -8.375  10.637  69.504  1.00  0.00    -0.013 A  
HETATM   16  C   UNL     4      -8.213  11.477  68.365  1.00  0.00    -0.152 A  
HETATM   17  C   UNL     4      -9.385  12.080  67.796  1.00  0.00    -0.190 A  
BRANCH  16  18
HETATM   18  O   UNL     4      -6.950  11.659  67.831  1.00  0.00    -0.072 OA 
BRANCH  18  19
HETATM   19  C   UNL     4      -6.150  10.535  67.590  1.00  0.00    -0.052 C  
BRANCH  19  20
HETATM   20  C   UNL     4      -6.742   9.107  67.703  1.00  0.00    -0.069 C  
BRANCH  20  21
HETATM   21  N   UNL     4      -6.327   8.201  66.541  1.00  0.00    -0.053 N  
BRANCH  21  22
HETATM   22  C   UNL     4      -5.130   7.363  66.917  1.00  0.00    -0.019 C  
HETATM   23  C   UNL     4      -5.267   6.484  68.173  1.00  0.00    -0.008 C  
ENDBRANCH  21  22
BRANCH  21  24
HETATM   24  C   UNL     4      -5.937   9.045  65.350  1.00  0.00    -0.055 C  
HETATM   25  C   UNL     4      -5.232   8.330  64.176  1.00  0.00    -0.040 C  
ENDBRANCH  21  24
BRANCH  21  26
HETATM   26  C   UNL     4      -7.450   7.267  66.188  1.00  0.00    -0.083 C  
HETATM   27  C   UNL     4      -7.136   5.764  66.266  1.00  0.00    -0.068 C  
ENDBRANCH  21  26
ENDBRANCH  20  21
ENDBRANCH  19  20
ENDBRANCH  18  19
ENDBRANCH  16  18
BRANCH  17  28
HETATM   28  O   UNL     4      -9.261  12.920  66.702  1.00  0.00    -0.241 OA 
BRANCH  28  29
HETATM   29  C   UNL     4     -10.228  13.849  66.314  1.00  0.00    -0.297 C  
BRANCH  29  30
HETATM   30  C   UNL     4      -9.699  15.074  65.536  1.00  0.00    -0.259 C  
BRANCH  30  31
HETATM   31  N   UNL     4      -9.679  16.377  66.322  1.00  0.00    -0.289 N  
BRANCH  31  32
HETATM   32  C   UNL     4     -10.061  17.553  65.461  1.00  0.00     0.168 C  
HETATM   33  C   UNL     4     -10.681  18.764  66.173  1.00  0.00    -0.320 C  
ENDBRANCH  31  32
BRANCH  31  34
HETATM   34  C   UNL     4      -8.287  16.599  66.848  1.00  0.00    -0.210 C  
HETATM   35  C   UNL     4      -7.394  17.558  66.031  1.00  0.00    -0.288 C  
ENDBRANCH  31  34
BRANCH  31  36
HETATM   36  C   UNL     4     -10.674  16.323  67.462  1.00  0.00    -0.300 C  
HETATM   37  C   UNL     4     -10.566  17.425  68.538  1.00  0.00    -0.340 C  
ENDBRANCH  31  36
ENDBRANCH  30  31
ENDBRANCH  29  30
ENDBRANCH  28  29
ENDBRANCH  17  28
ENDBRANCH  11  12
ENDBRANCH  10  11
ENDBRANCH   9  10
ENDBRANCH   6   9
BRANCH   6  38
HETATM   38  C   UNL     4     -11.725  15.490  70.892  1.00  0.00    -0.375 C  
HETATM   39  C   UNL     4     -12.567  15.845  72.135  1.00  0.00    -0.522 C  
ENDBRANCH   6  38
ENDBRANCH   5   6
TORSDOF 21
ENDMDL
MODEL      162
REMARK 921   NORMALIZED FREE ENERGY PREDICTED BY IDOCK:   12.39 KCAL/MOL
REMARK 922        TOTAL FREE ENERGY PREDICTED BY IDOCK:   25.27 KCAL/MOL
REMARK 923 INTER-LIGAND FREE ENERGY PREDICTED BY IDOCK:   12.18 KCAL/MOL
REMARK 924 INTRA-LIGAND FREE ENERGY PREDICTED BY IDOCK:   13.10 KCAL/MOL
REMARK 927      BINDING AFFINITY PREDICTED BY RF-SCORE:    0.00 PKD
ROOT
HETATM    1  I   UNL     1      -7.376  19.921  67.510  1.00  0.00    -0.337 I  
HETATM    2  I   UNL     2     -11.473  17.841  64.983  1.00  0.00     4.343 I  
HETATM    3  I   UNL     3      -9.167  17.793  70.421  1.00  0.00     4.682 I  
HETATM    4  C   UNL     4      -8.918  13.967  70.339  1.00  0.00     3.001 C  
HETATM    5  C   UNL     4      -9.830  12.858  69.772  1.00  0.00     1.892 C  
ENDROOT
BRANCH   5   6
HETATM    6  N   UNL     4     -11.276  13.221  69.569  1.00  0.00    -0.156 N  
BRANCH   6   7
HETATM    7  C   UNL     4     -11.458  14.676  69.928  1.00  0.00    -0.274 C  
HETATM    8  C   UNL     4     -11.578  15.664  68.751  1.00  0.00    -0.393 C  
ENDBRANCH   6   7
BRANCH   6   9
HETATM    9  C   UNL     4     -11.642  12.955  68.134  1.00  0.00    -0.336 C  
BRANCH   9  10
HETATM   10  C   UNL     4     -10.901  11.834  67.343  1.00  0.00    -0.251 C  
BRANCH  10  11
HETATM   11  O   UNL     4      -9.564  11.635  67.636  1.00  0.00    -0.175 OA 
BRANCH  11  12
HETATM   12  C   UNL     4      -8.904  10.507  68.002  1.00  0.00    -0.131 A  
HETATM   13  C   UNL     4      -7.731  10.626  68.761  1.00  0.00    -0.117 A  
HETATM   14  C   UNL     4      -7.001   9.526  69.126  1.00  0.00    -0.057 A  
HETATM   15  C   UNL     4      -7.441   8.270  68.800  1.00  0.00    -0.096 A  
HETATM   16  C   UNL     4      -8.638   8.046  68.061  1.00  0.00    -0.129 A  
HETATM   17  C   UNL     4      -9.391   9.191  67.628  1.00  0.00    -0.135 A  
BRANCH  16  18
HETATM   18  O   UNL     4      -9.050   6.749  67.813  1.00  0.00    -0.120 OA 
BRANCH  18  19
HETATM   19  C   UNL     4      -8.640   5.733  68.685  1.00  0.00    -0.109 C  
BRANCH  19  20
HETATM   20  C   UNL     4      -9.635   5.115  69.700  1.00  0.00    -0.167 C  
BRANCH  20  21
HETATM   21  N   UNL     4      -8.937   4.522  70.926  1.00  0.00    -0.115 N  
BRANCH  21  22
HETATM   22  C   UNL     4      -9.552   5.051  72.199  1.00  0.00    -0.150 C  
HETATM   23  C   UNL     4     -10.149   4.010  73.164  1.00  0.00    -0.204 C  
ENDBRANCH  21  22
BRANCH  21  24
HETATM   24  C   UNL     4      -7.479   4.919  70.926  1.00  0.00    -0.065 C  
HETATM   25  C   UNL     4      -6.664   4.620  72.203  1.00  0.00    -0.050 C  
ENDBRANCH  21  24
BRANCH  21  26
HETATM   26  C   UNL     4      -9.083   3.027  70.931  1.00  0.00    -0.114 C  
HETATM   27  C   UNL     4     -10.005   2.429  69.855  1.00  0.00     0.471 C  
ENDBRANCH  21  26
ENDBRANCH  20  21
ENDBRANCH  19  20
ENDBRANCH  18  19
ENDBRANCH  16  18
BRANCH  17  28
HETATM   28  O   UNL     4     -10.547   9.011  66.890  1.00  0.00    -0.248 OA 
BRANCH  28  29
HETATM   29  C   UNL     4     -11.439  10.035  66.567  1.00  0.00     1.370 C  
BRANCH  29  30
HETATM   30  C   UNL     4     -10.815  11.267  65.876  1.00  0.00    -0.202 C  
BRANCH  30  31
HETATM   31  N   UNL     4     -10.041  10.967  64.600  1.00  0.00    -0.303 N  
BRANCH  31  32
HETATM   32  C   UNL     4      -9.345  12.192  64.069  1.00  0.00     0.318 C  
HETATM   33  C   UNL     4      -9.901  13.554  64.508  1.00  0.00     0.181 C  
ENDBRANCH  31  32
BRANCH  31  34
HETATM   34  C   UNL     4     -11.006  10.473  63.558  1.00  0.00     1.194 C  
HETATM   35  C   UNL     4     -12.210  11.391  63.254  1.00  0.00     0.172 C  
ENDBRANCH  31  34
BRANCH  31  36
HETATM   36  C   UNL     4      -8.969   9.929  64.863  1.00  0.00    -0.207 C  
HETATM   37  C   UNL     4      -7.557  10.453  65.207  1.00  0.00    -0.118 C  
ENDBRANCH  31  36
ENDBRANCH  30  31
ENDBRANCH  29  30
ENDBRANCH  28  29
ENDBRANCH  17  28
ENDBRANCH  11  12
ENDBRANCH  10  11
ENDBRANCH   9  10
ENDBRANCH   6   9
BRANCH   6  38
HETATM   38  C   UNL     4     -12.169  12.407  70.469  1.00  0.00    -0.295 C  
HETATM   39  C   UNL     4     -12.884  13.173  71.601  1.00  0.00    -0.388 C  
ENDBRANCH   6  38
ENDBRANCH   5   6
TORSDOF 21
ENDMDL
MODEL      163
REMARK 921   NORMALIZED FREE ENERGY PREDICTED BY IDOCK:   12.72 KCAL/MOL
REMARK 922        TOTAL FREE ENERGY PREDICTED BY IDOCK:   26.01 KCAL/MOL
REMARK 923 INTER-LIGAND FREE ENERGY PREDICTED BY IDOCK:   10.29 KCAL/MOL
REMARK 924 INTRA-LIGAND FREE ENERGY PREDICTED BY IDOCK:   15.71 KCAL/MOL
REMARK 927      BINDING AFFINITY PREDICTED BY RF-SCORE:    0.00 PKD
ROOT
HETATM    1  I   UNL     1      -5.873  13.614  66.122  1.00  0.00     7.802 I  
HETATM    2  I   UNL     2      -5.153   9.693  62.716  1.00  0.00    -0.083 I  
HETATM    3  I   UNL     3      -8.464  10.842  67.471  1.00  0.00    -0.129 I  
HETATM    4  C   UNL     4      -7.091   7.732  69.244  1.00  0.00    -0.076 C  
HETATM    5  C   UNL     4      -6.727   6.312  68.761  1.00  0.00    -0.061 C  
ENDROOT
BRANCH   5   6
HETATM    6  N   UNL     4      -7.376   5.853  67.484  1.00  0.00    -0.076 N  
BRANCH   6   7
HETATM    7  C   UNL     4      -7.356   4.344  67.453  1.00  0.00    -0.069 C  
HETATM    8  C   UNL     4      -8.525   3.627  68.157  1.00  0.00    -0.108 C  
ENDBRANCH   6   7
BRANCH   6   9
HETATM    9  C   UNL     4      -8.781   6.389  67.440  1.00  0.00    -0.106 C  
BRANCH   9  10
HETATM   10  C   UNL     4      -9.170   7.612  68.326  1.00  0.00    -0.139 C  
BRANCH  10  11
HETATM   11  O   UNL     4      -9.642   8.738  67.674  1.00  0.00    -0.139 OA 
BRANCH  11  12
HETATM   12  C   UNL     4     -10.376   9.779  68.141  1.00  0.00    -0.202 A  
HETATM   13  C   UNL     4     -10.890  10.708  67.225  1.00  0.00    -0.345 A  
HETATM   14  C   UNL     4     -11.605  11.800  67.640  1.00  0.00    -0.364 A  
HETATM   15  C   UNL     4     -11.882  11.975  68.971  1.00  0.00    -0.372 A  
HETATM   16  C   UNL     4     -11.433  11.067  69.972  1.00  0.00    -0.314 A  
HETATM   17  C   UNL     4     -10.641   9.942  69.559  1.00  0.00    -0.242 A  
BRANCH  16  18
HETATM   18  O   UNL     4     -11.796  11.277  71.290  1.00  0.00    -0.043 OA 
BRANCH  18  19
HETATM   19  C   UNL     4     -12.284  12.535  71.664  1.00  0.00     0.574 C  
BRANCH  19  20
HETATM   20  C   UNL     4     -11.317  13.730  71.860  1.00  0.00     2.489 C  
BRANCH  20  21
HETATM   21  N   UNL     4     -11.090  14.525  70.572  1.00  0.00    -0.041 N  
BRANCH  21  22
HETATM   22  C   UNL     4     -12.398  14.774  69.860  1.00  0.00    -0.283 C  
HETATM   23  C   UNL     4     -13.462  15.577  70.628  1.00  0.00    -0.104 C  
ENDBRANCH  21  22
BRANCH  21  24
HETATM   24  C   UNL     4     -10.204  13.738  69.635  1.00  0.00     0.627 C  
HETATM   25  C   UNL     4      -8.876  14.395  69.198  1.00  0.00     0.096 C  
ENDBRANCH  21  24
BRANCH  21  26
HETATM   26  C   UNL     4     -10.478  15.860  70.890  1.00  0.00     0.428 C  
HETATM   27  C   UNL     4     -11.299  17.098  70.490  1.00  0.00     1.098 C  
ENDBRANCH  21  26
ENDBRANCH  20  21
ENDBRANCH  19  20
ENDBRANCH  18  19
ENDBRANCH  16  18
BRANCH  17  28
HETATM   28  O   UNL     4     -10.170   9.051  70.508  1.00  0.00    -0.193 OA 
BRANCH  28  29
HETATM   29  C   UNL     4      -9.445   9.424  71.642  1.00  0.00     0.318 C  
BRANCH  29  30
HETATM   30  C   UNL     4     -10.056   8.993  72.993  1.00  0.00     1.499 C  
BRANCH  30  31
HETATM   31  N   UNL     4     -10.455   7.526  73.081  1.00  0.00    -0.335 N  
BRANCH  31  32
HETATM   32  C   UNL     4     -10.052   6.918  74.398  1.00  0.00    -0.162 C  
HETATM   33  C   UNL     4      -8.911   5.891  74.370  1.00  0.00    -0.127 C  
ENDBRANCH  31  32
BRANCH  31  34
HETATM   34  C   UNL     4      -9.769   6.776  71.974  1.00  0.00    -0.153 C  
HETATM   35  C   UNL     4      -9.642   5.248  72.162  1.00  0.00    -0.183 C  
ENDBRANCH  31  34
BRANCH  31  36
HETATM   36  C   UNL     4     -11.959   7.379  72.969  1.00  0.00     0.315 C  
HETATM   37  C   UNL     4     -12.680   8.311  71.971  1.00  0.00    -0.376 C  
ENDBRANCH  31  36
ENDBRANCH  30  31
ENDBRANCH  29  30
ENDBRANCH  28  29
ENDBRANCH  17  28
ENDBRANCH  11  12
ENDBRANCH  10  11
ENDBRANCH   9  10
ENDBRANCH   6   9
BRANCH   6  38
HETATM   38  C   UNL     4      -6.616   6.351  66.282  1.00  0.00    -0.048 C  
HETATM   39  C   UNL     4      -7.385   6.372  64.945  1.00  0.00    -0.079 C  
ENDBRANCH   6  38
ENDBRANCH   5   6
TORSDOF 21
ENDMDL
MODEL      164
REMARK 921   NORMALIZED FREE ENERGY PREDICTED BY IDOCK:   16.17 KCAL/MOL
REMARK 922        TOTAL FREE ENERGY PREDICTED BY IDOCK:   33.70 KCAL/MOL
REMARK 923 INTER-LIGAND FREE ENERGY PREDICTED BY IDOCK:   28.55 KCAL/MOL
REMARK 924 INTRA-LIGAND FREE ENERGY PREDICTED BY IDOCK:    5.15 KCAL/MOL
REMARK 927      BINDING AFFINITY PREDICTED BY RF-SCORE:    0.00 PKD
ROOT
HETATM    1  I   UNL     1      -5.125  15.483  64.782  1.00  0.00    15.405 I  
HETATM    2  I   UNL     2     -10.188  16.661  64.089  1.00  0.00     6.879 I  
HETATM    3  I   UNL     3      -6.857  13.626  67.908  1.00  0.00    -0.185 I  
HETATM    4  C   UNL     4      -8.918  10.456  67.267  1.00  0.00    -0.142 C  
HETATM    5  C   UNL     4     -10.422  10.200  67.032  1.00  0.00    -0.240 C  
ENDROOT
BRANCH   5   6
HETATM    6  N   UNL     4     -11.367  11.260  67.531  1.00  0.00    -0.299 N  
BRANCH   6   7
HETATM    7  C   UNL     4     -11.905  12.019  66.343  1.00  0.00    -0.153 C  
HETATM    8  C   UNL     4     -11.121  11.873  65.023  1.00  0.00    -0.360 C  
ENDBRANCH   6   7
BRANCH   6   9
HETATM    9  C   UNL     4     -12.470  10.593  68.307  1.00  0.00     1.731 C  
BRANCH   9  10
HETATM   10  C   UNL     4     -12.474   9.042  68.466  1.00  0.00     4.958 C  
BRANCH  10  11
HETATM   11  O   UNL     4     -11.710   8.511  69.491  1.00  0.00     0.455 OA 
BRANCH  11  12
HETATM   12  C   UNL     4     -10.363   8.472  69.652  1.00  0.00    -0.218 A  
HETATM   13  C   UNL     4      -9.603   7.660  68.798  1.00  0.00    -0.153 A  
HETATM   14  C   UNL     4      -8.244   7.550  68.938  1.00  0.00    -0.128 A  
HETATM   15  C   UNL     4      -7.590   8.284  69.892  1.00  0.00    -0.080 A  
HETATM   16  C   UNL     4      -8.272   9.162  70.783  1.00  0.00    -0.190 A  
HETATM   17  C   UNL     4      -9.702   9.253  70.682  1.00  0.00    -0.272 A  
BRANCH  16  18
HETATM   18  O   UNL     4      -7.541   9.913  71.686  1.00  0.00     0.416 OA 
BRANCH  18  19
HETATM   19  C   UNL     4      -6.654   9.257  72.547  1.00  0.00     0.421 C  
BRANCH  19  20
HETATM   20  C   UNL     4      -7.144   8.102  73.457  1.00  0.00    -0.133 C  
BRANCH  20  21
HETATM   21  N   UNL     4      -6.852   6.720  72.867  1.00  0.00    -0.070 N  
BRANCH  21  22
HETATM   22  C   UNL     4      -8.023   6.229  72.051  1.00  0.00    -0.109 C  
HETATM   23  C   UNL     4      -9.389   6.183  72.757  1.00  0.00    -0.148 C  
ENDBRANCH  21  22
BRANCH  21  24
HETATM   24  C   UNL     4      -6.625   5.727  73.982  1.00  0.00    -0.079 C  
HETATM   25  C   UNL     4      -5.181   5.567  74.505  1.00  0.00    -0.027 C  
ENDBRANCH  21  24
BRANCH  21  26
HETATM   26  C   UNL     4      -5.656   6.788  71.960  1.00  0.00    -0.037 C  
HETATM   27  C   UNL     4      -5.597   5.746  70.831  1.00  0.00    -0.013 C  
ENDBRANCH  21  26
ENDBRANCH  20  21
ENDBRANCH  19  20
ENDBRANCH  18  19
ENDBRANCH  16  18
BRANCH  17  28
HETATM   28  O   UNL     4     -10.398  10.080  71.547  1.00  0.00     0.396 OA 
BRANCH  28  29
HETATM   29  C   UNL     4     -11.700  10.530  71.322  1.00  0.00    -0.150 C  
BRANCH  29  30
HETATM   30  C   UNL     4     -11.832  12.022  70.943  1.00  0.00     0.314 C  
BRANCH  30  31
HETATM   31  N   UNL     4     -12.801  12.822  71.803  1.00  0.00    -0.280 N  
BRANCH  31  32
HETATM   32  C   UNL     4     -12.093  13.528  72.929  1.00  0.00     1.556 C  
HETATM   33  C   UNL     4     -12.765  14.790  73.490  1.00  0.00    -0.566 C  
ENDBRANCH  31  32
BRANCH  31  34
HETATM   34  C   UNL     4     -13.814  11.877  72.389  1.00  0.00     0.408 C  
HETATM   35  C   UNL     4     -14.078  10.580  71.593  1.00  0.00     0.681 C  
ENDBRANCH  31  34
BRANCH  31  36
HETATM   36  C   UNL     4     -13.487  13.888  70.975  1.00  0.00    -0.069 C  
HETATM   37  C   UNL     4     -12.780  15.257  70.871  1.00  0.00    -0.496 C  
ENDBRANCH  31  36
ENDBRANCH  30  31
ENDBRANCH  29  30
ENDBRANCH  28  29
ENDBRANCH  17  28
ENDBRANCH  11  12
ENDBRANCH  10  11
ENDBRANCH   9  10
ENDBRANCH   6   9
BRANCH   6  38
HETATM   38  C   UNL     4     -10.654  12.242  68.425  1.00  0.00    -0.235 C  
HETATM   39  C   UNL     4     -10.200  13.562  67.768  1.00  0.00    -0.242 C  
ENDBRANCH   6  38
ENDBRANCH   5   6
TORSDOF 21
ENDMDL
MODEL      165
REMARK 921   NORMALIZED FREE ENERGY PREDICTED BY IDOCK:   19.73 KCAL/MOL
REMARK 922        TOTAL FREE ENERGY PREDICTED BY IDOCK:   41.64 KCAL/MOL
REMARK 923 INTER-LIGAND FREE ENERGY PREDICTED BY IDOCK:    9.08 KCAL/MOL
REMARK 924 INTRA-LIGAND FREE ENERGY PREDICTED BY IDOCK:   32.56 KCAL/MOL
REMARK 927      BINDING AFFINITY PREDICTED BY RF-SCORE:    0.00 PKD
ROOT
HETATM    1  I   UNL     1     -12.090  10.833  63.346  1.00  0.00     4.628 I  
HETATM    2  I   UNL     2     -11.151  15.707  65.038  1.00  0.00    -0.142 I  
HETATM    3  I   UNL     3     -10.891  10.192  67.137  1.00  0.00     0.045 I  
HETATM    4  C   UNL     4     -13.258  11.117  70.008  1.00  0.00     0.560 C  
HETATM    5  C   UNL     4     -13.414  12.376  70.889  1.00  0.00     0.838 C  
ENDROOT
BRANCH   5   6
HETATM    6  N   UNL     4     -12.213  13.277  70.986  1.00  0.00    -0.289 N  
BRANCH   6   7
HETATM    7  C   UNL     4     -11.973  13.597  72.441  1.00  0.00     1.222 C  
HETATM    8  C   UNL     4     -11.499  15.030  72.759  1.00  0.00    -0.178 C  
ENDBRANCH   6   7
BRANCH   6   9
HETATM    9  C   UNL     4     -11.033  12.572  70.372  1.00  0.00     1.528 C  
BRANCH   9  10
HETATM   10  C   UNL     4     -11.265  11.500  69.264  1.00  0.00    -0.272 C  
BRANCH  10  11
HETATM   11  O   UNL     4     -10.293  11.384  68.286  1.00  0.00    -0.180 OA 
BRANCH  11  12
HETATM   12  C   UNL     4      -9.338  12.262  67.889  1.00  0.00    -0.190 A  
HETATM   13  C   UNL     4      -9.468  12.884  66.639  1.00  0.00    -0.255 A  
HETATM   14  C   UNL     4      -8.516  13.749  66.168  1.00  0.00     0.948 A  
HETATM   15  C   UNL     4      -7.434  14.069  66.944  1.00  0.00     0.550 A  
HETATM   16  C   UNL     4      -7.233  13.516  68.242  1.00  0.00    -0.111 A  
HETATM   17  C   UNL     4      -8.196  12.571  68.732  1.00  0.00     0.116 A  
BRANCH  16  18
HETATM   18  O   UNL     4      -6.146  13.926  68.992  1.00  0.00    -0.082 OA 
BRANCH  18  19
HETATM   19  C   UNL     4      -5.366  14.991  68.526  1.00  0.00    -0.101 C  
BRANCH  19  20
HETATM   20  C   UNL     4      -5.974  16.409  68.379  1.00  0.00    -0.119 C  
BRANCH  20  21
HETATM   21  N   UNL     4      -6.697  16.876  69.645  1.00  0.00    -0.170 N  
BRANCH  21  22
HETATM   22  C   UNL     4      -8.183  16.986  69.403  1.00  0.00     0.277 C  
HETATM   23  C   UNL     4      -8.706  16.457  68.056  1.00  0.00    -0.183 C  
ENDBRANCH  21  22
BRANCH  21  24
HETATM   24  C   UNL     4      -6.198  18.246  70.043  1.00  0.00    -0.040 C  
HETATM   25  C   UNL     4      -6.684  19.448  69.203  1.00  0.00    -0.368 C  
ENDBRANCH  21  24
BRANCH  21  26
HETATM   26  C   UNL     4      -6.485  15.887  70.756  1.00  0.00     0.798 C  
HETATM   27  C   UNL     4      -5.294  14.927  70.595  1.00  0.00    -0.133 C  
ENDBRANCH  21  26
ENDBRANCH  20  21
ENDBRANCH  19  20
ENDBRANCH  18  19
ENDBRANCH  16  18
BRANCH  17  28
HETATM   28  O   UNL     4      -8.020  11.997  69.979  1.00  0.00     1.427 OA 
BRANCH  28  29
HETATM   29  C   UNL     4      -6.864  11.323  70.376  1.00  0.00     0.631 C  
BRANCH  29  30
HETATM   30  C   UNL     4      -6.768   9.847  69.932  1.00  0.00    -0.088 C  
BRANCH  30  31
HETATM   31  N   UNL     4      -7.939   9.349  69.095  1.00  0.00    -0.088 N  
BRANCH  31  32
HETATM   32  C   UNL     4      -7.935   9.954  67.716  1.00  0.00    -0.105 C  
HETATM   33  C   UNL     4      -8.084   8.989  66.532  1.00  0.00    -0.111 C  
ENDBRANCH  31  32
BRANCH  31  34
HETATM   34  C   UNL     4      -9.218   9.732  69.785  1.00  0.00    -0.226 C  
HETATM   35  C   UNL     4     -10.526   9.395  69.035  1.00  0.00    -0.233 C  
ENDBRANCH  31  34
BRANCH  31  36
HETATM   36  C   UNL     4      -7.861   7.847  68.918  1.00  0.00    -0.117 C  
HETATM   37  C   UNL     4      -6.594   7.143  69.451  1.00  0.00    -0.044 C  
ENDBRANCH  31  36
ENDBRANCH  30  31
ENDBRANCH  29  30
ENDBRANCH  28  29
ENDBRANCH  17  28
ENDBRANCH  11  12
ENDBRANCH  10  11
ENDBRANCH   9  10
ENDBRANCH   6   9
BRANCH   6  38
HETATM   38  C   UNL     4     -12.450  14.575  70.259  1.00  0.00    -0.348 C  
HETATM   39  C   UNL     4     -11.197  15.407  69.914  1.00  0.00    -0.310 C  
ENDBRANCH   6  38
ENDBRANCH   5   6
TORSDOF 21
ENDMDL
MODEL      166
REMARK 921   NORMALIZED FREE ENERGY PREDICTED BY IDOCK:   22.71 KCAL/MOL
REMARK 922        TOTAL FREE ENERGY PREDICTED BY IDOCK:   48.27 KCAL/MOL
REMARK 923 INTER-LIGAND FREE ENERGY PREDICTED BY IDOCK:   30.98 KCAL/MOL
REMARK 924 INTRA-LIGAND FREE ENERGY PREDICTED BY IDOCK:   17.28 KCAL/MOL
REMARK 927      BINDING AFFINITY PREDICTED BY RF-SCORE:    0.00 PKD
ROOT
HETATM    1  I   UNL     1      -6.233  13.646  65.879  1.00  0.00     9.938 I  
HETATM    2  I   UNL     2      -5.389   9.283  63.095  1.00  0.00    -0.069 I  
HETATM    3  I   UNL     3      -9.678  11.630  66.410  1.00  0.00    -0.265 I  
HETATM    4  C   UNL     4      -9.684   8.541  68.682  1.00  0.00    -0.171 C  
HETATM    5  C   UNL     4      -9.521   7.029  68.415  1.00  0.00    -0.133 C  
ENDROOT
BRANCH   5   6
HETATM    6  N   UNL     4      -9.820   6.562  67.016  1.00  0.00    -0.148 N  
BRANCH   6   7
HETATM    7  C   UNL     4     -10.193   5.100  67.071  1.00  0.00    -0.223 C  
HETATM    8  C   UNL     4     -10.502   4.522  68.466  1.00  0.00     0.417 C  
ENDBRANCH   6   7
BRANCH   6   9
HETATM    9  C   UNL     4     -10.939   7.398  66.459  1.00  0.00     0.714 C  
BRANCH   9  10
HETATM   10  C   UNL     4     -11.174   8.838  67.007  1.00  0.00     0.963 C  
BRANCH  10  11
HETATM   11  O   UNL     4     -11.361   9.845  66.076  1.00  0.00     0.878 OA 
BRANCH  11  12
HETATM   12  C   UNL     4     -11.993  11.040  66.191  1.00  0.00     1.699 A  
HETATM   13  C   UNL     4     -12.394  11.708  65.024  1.00  0.00     0.617 A  
HETATM   14  C   UNL     4     -13.000  12.935  65.075  1.00  0.00    -0.171 A  
HETATM   15  C   UNL     4     -13.280  13.513  66.286  1.00  0.00     1.147 A  
HETATM   16  C   UNL     4     -12.944  12.896  67.525  1.00  0.00     2.682 A  
HETATM   17  C   UNL     4     -12.264  11.631  67.489  1.00  0.00     0.617 A  
BRANCH  16  18
HETATM   18  O   UNL     4     -13.306  13.512  68.709  1.00  0.00     2.287 OA 
BRANCH  18  19
HETATM   19  C   UNL     4     -13.301  14.911  68.772  1.00  0.00     2.975 C  
BRANCH  19  20
HETATM   20  C   UNL     4     -12.108  15.668  69.408  1.00  0.00    -0.266 C  
BRANCH  20  21
HETATM   21  N   UNL     4     -10.776  15.356  68.722  1.00  0.00    -0.232 N  
BRANCH  21  22
HETATM   22  C   UNL     4     -10.928  15.381  67.221  1.00  0.00    -0.317 C  
HETATM   23  C   UNL     4     -11.393  16.707  66.594  1.00  0.00     0.610 C  
ENDBRANCH  21  22
BRANCH  21  24
HETATM   24  C   UNL     4     -10.314  13.970  69.110  1.00  0.00    -0.049 C  
HETATM   25  C   UNL     4      -8.974  13.857  69.869  1.00  0.00     1.775 C  
ENDBRANCH  21  24
BRANCH  21  26
HETATM   26  C   UNL     4      -9.747  16.386  69.097  1.00  0.00    -0.260 C  
HETATM   27  C   UNL     4      -9.168  17.221  67.943  1.00  0.00    -0.247 C  
ENDBRANCH  21  26
ENDBRANCH  20  21
ENDBRANCH  19  20
ENDBRANCH  18  19
ENDBRANCH  16  18
BRANCH  17  28
HETATM   28  O   UNL     4     -11.903  11.014  68.674  1.00  0.00    -0.413 OA 
BRANCH  28  29
HETATM   29  C   UNL     4     -11.257  11.661  69.729  1.00  0.00    -0.127 C  
BRANCH  29  30
HETATM   30  C   UNL     4     -11.883  11.445  71.125  1.00  0.00     0.295 C  
BRANCH  30  31
HETATM   31  N   UNL     4     -12.189   9.996  71.477  1.00  0.00    -0.396 N  
BRANCH  31  32
HETATM   32  C   UNL     4     -12.018   9.733  72.949  1.00  0.00     2.281 C  
HETATM   33  C   UNL     4     -10.895   8.769  73.358  1.00  0.00     2.165 C  
ENDBRANCH  31  32
BRANCH  31  34
HETATM   34  C   UNL     4     -11.244   9.108  70.716  1.00  0.00    -0.277 C  
HETATM   35  C   UNL     4     -10.947   7.729  71.346  1.00  0.00    -0.264 C  
ENDBRANCH  31  34
BRANCH  31  36
HETATM   36  C   UNL     4     -13.625   9.660  71.132  1.00  0.00    -0.168 C  
HETATM   37  C   UNL     4     -14.167  10.198  69.789  1.00  0.00     3.344 C  
ENDBRANCH  31  36
ENDBRANCH  30  31
ENDBRANCH  29  30
ENDBRANCH  28  29
ENDBRANCH  17  28
ENDBRANCH  11  12
ENDBRANCH  10  11
ENDBRANCH   9  10
ENDBRANCH   6   9
BRANCH   6  38
HETATM   38  C   UNL     4      -8.609   6.698  66.130  1.00  0.00    -0.146 C  
HETATM   39  C   UNL     4      -7.264   6.955  66.840  1.00  0.00    -0.077 C  
ENDBRANCH   6  38
ENDBRANCH   5   6
TORSDOF 21
ENDMDL
MODEL      167
REMARK 921   NORMALIZED FREE ENERGY PREDICTED BY IDOCK:   23.14 KCAL/MOL
REMARK 922        TOTAL FREE ENERGY PREDICTED BY IDOCK:   49.23 KCAL/MOL
REMARK 923 INTER-LIGAND FREE ENERGY PREDICTED BY IDOCK:    1.56 KCAL/MOL
REMARK 924 INTRA-LIGAND FREE ENERGY PREDICTED BY IDOCK:   47.67 KCAL/MOL
REMARK 927      BINDING AFFINITY PREDICTED BY RF-SCORE:    0.00 PKD
ROOT
HETATM    1  I   UNL     1     -12.410   6.041  69.979  1.00  0.00     4.427 I  
HETATM    2  I   UNL     2      -9.414   9.423  67.318  1.00  0.00    -0.205 I  
HETATM    3  I   UNL     3     -12.196   9.157  72.521  1.00  0.00     0.614 I  
HETATM    4  C   UNL     4     -14.148  12.353  71.701  1.00  0.00     1.148 C  
HETATM    5  C   UNL     4     -13.775  13.667  70.981  1.00  0.00     0.237 C  
ENDROOT
BRANCH   5   6
HETATM    6  N   UNL     4     -12.310  14.006  70.926  1.00  0.00    -0.352 N  
BRANCH   6   7
HETATM    7  C   UNL     4     -11.521  12.780  71.317  1.00  0.00     2.228 C  
HETATM    8  C   UNL     4     -11.832  11.486  70.538  1.00  0.00    -0.363 C  
ENDBRANCH   6   7
BRANCH   6   9
HETATM    9  C   UNL     4     -11.973  14.458  69.531  1.00  0.00    -0.330 C  
BRANCH   9  10
HETATM   10  C   UNL     4     -12.143  13.470  68.337  1.00  0.00    -0.258 C  
BRANCH  10  11
HETATM   11  O   UNL     4     -12.252  12.125  68.642  1.00  0.00    -0.254 OA 
BRANCH  11  12
HETATM   12  C   UNL     4     -11.377  11.289  69.257  1.00  0.00    -0.287 A  
HETATM   13  C   UNL     4     -11.829  10.503  70.326  1.00  0.00    -0.418 A  
HETATM   14  C   UNL     4     -10.982   9.671  71.010  1.00  0.00    -0.431 A  
HETATM   15  C   UNL     4      -9.674   9.549  70.619  1.00  0.00    -0.311 A  
HETATM   16  C   UNL     4      -9.132  10.280  69.522  1.00  0.00    -0.167 A  
HETATM   17  C   UNL     4      -9.994  11.193  68.825  1.00  0.00    -0.198 A  
BRANCH  16  18
HETATM   18  O   UNL     4      -7.818  10.067  69.150  1.00  0.00    -0.093 OA 
BRANCH  18  19
HETATM   19  C   UNL     4      -7.024   9.217  69.929  1.00  0.00    -0.054 C  
BRANCH  19  20
HETATM   20  C   UNL     4      -7.659   8.035  70.704  1.00  0.00    -0.076 C  
BRANCH  20  21
HETATM   21  N   UNL     4      -6.893   6.723  70.516  1.00  0.00    -0.057 N  
BRANCH  21  22
HETATM   22  C   UNL     4      -5.933   6.496  71.658  1.00  0.00    -0.037 C  
HETATM   23  C   UNL     4      -6.533   6.481  73.075  1.00  0.00    -0.067 C  
ENDBRANCH  21  22
BRANCH  21  24
HETATM   24  C   UNL     4      -6.081   6.785  69.243  1.00  0.00    -0.026 C  
HETATM   25  C   UNL     4      -6.462   7.869  68.212  1.00  0.00    -0.054 C  
ENDBRANCH  21  24
BRANCH  21  26
HETATM   26  C   UNL     4      -7.851   5.565  70.483  1.00  0.00    -0.098 C  
HETATM   27  C   UNL     4      -8.512   5.190  71.819  1.00  0.00    -0.125 C  
ENDBRANCH  21  26
ENDBRANCH  20  21
ENDBRANCH  19  20
ENDBRANCH  18  19
ENDBRANCH  16  18
BRANCH  17  28
HETATM   28  O   UNL     4      -9.494  11.935  67.769  1.00  0.00    -0.174 OA 
BRANCH  28  29
HETATM   29  C   UNL     4     -10.131  13.052  67.224  1.00  0.00    -0.235 C  
BRANCH  29  30
HETATM   30  C   UNL     4      -9.202  14.085  66.549  1.00  0.00    -0.218 C  
BRANCH  30  31
HETATM   31  N   UNL     4      -9.459  15.534  66.939  1.00  0.00    -0.220 N  
BRANCH  31  32
HETATM   32  C   UNL     4     -10.494  16.174  66.053  1.00  0.00    -0.338 C  
HETATM   33  C   UNL     4     -11.515  15.240  65.388  1.00  0.00    -0.184 C  
ENDBRANCH  31  32
BRANCH  31  34
HETATM   34  C   UNL     4      -8.172  16.301  66.807  1.00  0.00    -0.259 C  
HETATM   35  C   UNL     4      -8.148  17.413  65.736  1.00  0.00     0.177 C  
ENDBRANCH  31  34
BRANCH  31  36
HETATM   36  C   UNL     4      -9.980  15.615  68.359  1.00  0.00    -0.210 C  
HETATM   37  C   UNL     4      -8.931  15.740  69.484  1.00  0.00    -0.183 C  
ENDBRANCH  31  36
ENDBRANCH  30  31
ENDBRANCH  29  30
ENDBRANCH  28  29
ENDBRANCH  17  28
ENDBRANCH  11  12
ENDBRANCH  10  11
ENDBRANCH   9  10
ENDBRANCH   6   9
BRANCH   6  38
HETATM   38  C   UNL     4     -11.972  15.105  71.900  1.00  0.00    -0.395 C  
HETATM   39  C   UNL     4     -13.145  15.680  72.719  1.00  0.00    -0.591 C  
ENDBRANCH   6  38
ENDBRANCH   5   6
TORSDOF 21
ENDMDL
MODEL      168
REMARK 921   NORMALIZED FREE ENERGY PREDICTED BY IDOCK:   27.68 KCAL/MOL
REMARK 922        TOTAL FREE ENERGY PREDICTED BY IDOCK:   59.34 KCAL/MOL
REMARK 923 INTER-LIGAND FREE ENERGY PREDICTED BY IDOCK:   36.89 KCAL/MOL
REMARK 924 INTRA-LIGAND FREE ENERGY PREDICTED BY IDOCK:   22.45 KCAL/MOL
REMARK 927      BINDING AFFINITY PREDICTED BY RF-SCORE:    0.00 PKD
ROOT
HETATM    1  I   UNL     1      -5.677   5.753  66.688  1.00  0.00    -0.019 I  
HETATM    2  I   UNL     2     -10.197   3.098  66.784  1.00  0.00     2.729 I  
HETATM    3  I   UNL     3      -7.525   7.353  69.888  1.00  0.00    -0.088 I  
HETATM    4  C   UNL     4      -7.813   5.268  73.094  1.00  0.00    -0.097 C  
HETATM    5  C   UNL     4      -8.909   4.338  73.658  1.00  0.00    -0.093 C  
ENDROOT
BRANCH   5   6
HETATM    6  N   UNL     4     -10.302   4.552  73.131  1.00  0.00    -0.169 N  
BRANCH   6   7
HETATM    7  C   UNL     4     -10.977   5.603  73.978  1.00  0.00     0.168 C  
HETATM    8  C   UNL     4     -11.880   6.607  73.235  1.00  0.00     0.791 C  
ENDBRANCH   6   7
BRANCH   6   9
HETATM    9  C   UNL     4     -10.212   4.977  71.691  1.00  0.00    -0.208 C  
BRANCH   9  10
HETATM   10  C   UNL     4     -11.202   6.047  71.138  1.00  0.00    -0.261 C  
BRANCH  10  11
HETATM   11  O   UNL     4     -10.830   6.714  69.984  1.00  0.00    -0.238 OA 
BRANCH  11  12
HETATM   12  C   UNL     4     -11.123   7.971  69.563  1.00  0.00     0.037 A  
HETATM   13  C   UNL     4     -11.914   8.133  68.417  1.00  0.00     2.844 A  
HETATM   14  C   UNL     4     -12.210   9.376  67.923  1.00  0.00     4.453 A  
HETATM   15  C   UNL     4     -11.778  10.498  68.580  1.00  0.00    -0.157 A  
HETATM   16  C   UNL     4     -10.999  10.434  69.771  1.00  0.00    -0.293 A  
HETATM   17  C   UNL     4     -10.639   9.139  70.277  1.00  0.00    -0.223 A  
BRANCH  16  18
HETATM   18  O   UNL     4     -10.643  11.607  70.412  1.00  0.00     1.054 OA 
BRANCH  18  19
HETATM   19  C   UNL     4     -10.992  12.830  69.825  1.00  0.00     0.340 C  
BRANCH  19  20
HETATM   20  C   UNL     4     -11.637  13.956  70.673  1.00  0.00    -0.001 C  
BRANCH  20  21
HETATM   21  N   UNL     4     -10.898  15.290  70.543  1.00  0.00    -0.285 N  
BRANCH  21  22
HETATM   22  C   UNL     4      -9.438  15.128  70.891  1.00  0.00     1.773 C  
HETATM   23  C   UNL     4      -9.063  13.915  71.760  1.00  0.00     9.648 C  
ENDBRANCH  21  22
BRANCH  21  24
HETATM   24  C   UNL     4     -11.486  16.296  71.505  1.00  0.00    -0.272 C  
HETATM   25  C   UNL     4     -10.736  17.635  71.675  1.00  0.00     2.720 C  
ENDBRANCH  21  24
BRANCH  21  26
HETATM   26  C   UNL     4     -10.981  15.792  69.129  1.00  0.00    -0.265 C  
HETATM   27  C   UNL     4      -9.817  16.676  68.651  1.00  0.00    -0.252 C  
ENDBRANCH  21  26
ENDBRANCH  20  21
ENDBRANCH  19  20
ENDBRANCH  18  19
ENDBRANCH  16  18
BRANCH  17  28
HETATM   28  O   UNL     4      -9.864   9.041  71.419  1.00  0.00    -0.278 OA 
BRANCH  28  29
HETATM   29  C   UNL     4      -8.537   9.467  71.505  1.00  0.00     0.497 C  
BRANCH  29  30
HETATM   30  C   UNL     4      -8.325  10.996  71.471  1.00  0.00     8.036 C  
BRANCH  30  31
HETATM   31  N   UNL     4      -7.635  11.523  70.220  1.00  0.00     1.564 N  
BRANCH  31  32
HETATM   32  C   UNL     4      -6.456  12.396  70.560  1.00  0.00     0.683 C  
HETATM   33  C   UNL     4      -6.393  13.774  69.887  1.00  0.00    -0.100 C  
ENDBRANCH  31  32
BRANCH  31  34
HETATM   34  C   UNL     4      -8.625  12.337  69.433  1.00  0.00     1.145 C  
HETATM   35  C   UNL     4      -8.812  13.803  69.882  1.00  0.00     1.972 C  
ENDBRANCH  31  34
BRANCH  31  36
HETATM   36  C   UNL     4      -7.108  10.376  69.383  1.00  0.00    -0.102 C  
HETATM   37  C   UNL     4      -6.963  10.625  67.866  1.00  0.00    -0.077 C  
ENDBRANCH  31  36
ENDBRANCH  30  31
ENDBRANCH  29  30
ENDBRANCH  28  29
ENDBRANCH  17  28
ENDBRANCH  11  12
ENDBRANCH  10  11
ENDBRANCH   9  10
ENDBRANCH   6   9
BRANCH   6  38
HETATM   38  C   UNL     4     -11.116   3.287  73.226  1.00  0.00    -0.125 C  
HETATM   39  C   UNL     4     -10.932   2.447  74.506  1.00  0.00     0.043 C  
ENDBRANCH   6  38
ENDBRANCH   5   6
TORSDOF 21
ENDMDL
MODEL      169
REMARK 921   NORMALIZED FREE ENERGY PREDICTED BY IDOCK:   33.96 KCAL/MOL
REMARK 922        TOTAL FREE ENERGY PREDICTED BY IDOCK:   73.33 KCAL/MOL
REMARK 923 INTER-LIGAND FREE ENERGY PREDICTED BY IDOCK:   57.82 KCAL/MOL
REMARK 924 INTRA-LIGAND FREE ENERGY PREDICTED BY IDOCK:   15.51 KCAL/MOL
REMARK 927      BINDING AFFINITY PREDICTED BY RF-SCORE:    0.00 PKD
ROOT
HETATM    1  I   UNL     1      -5.132  15.403  64.668  1.00  0.00    17.195 I  
HETATM    2  I   UNL     2      -9.989  17.020  63.531  1.00  0.00    16.328 I  
HETATM    3  I   UNL     3      -7.234  14.034  67.819  1.00  0.00    -0.162 I  
HETATM    4  C   UNL     4      -9.584  11.045  67.320  1.00  0.00    -0.183 C  
HETATM    5  C   UNL     4     -11.091  10.924  67.006  1.00  0.00    -0.202 C  
ENDROOT
BRANCH   5   6
HETATM    6  N   UNL     4     -11.943  12.116  67.346  1.00  0.00    -0.213 N  
BRANCH   6   7
HETATM    7  C   UNL     4     -12.371  12.779  66.059  1.00  0.00    -0.182 C  
HETATM    8  C   UNL     4     -11.249  13.140  65.066  1.00  0.00    -0.322 C  
ENDBRANCH   6   7
BRANCH   6   9
HETATM    9  C   UNL     4     -13.126  11.648  68.148  1.00  0.00     4.296 C  
BRANCH   9  10
HETATM   10  C   UNL     4     -13.399  10.121  68.302  1.00  0.00     8.222 C  
BRANCH  10  11
HETATM   11  O   UNL     4     -12.439   9.372  68.960  1.00  0.00     1.623 OA 
BRANCH  11  12
HETATM   12  C   UNL     4     -11.161   9.079  68.608  1.00  0.00     0.349 A  
HETATM   13  C   UNL     4     -10.934   8.346  67.435  1.00  0.00     0.103 A  
HETATM   14  C   UNL     4      -9.669   7.988  67.050  1.00  0.00    -0.275 A  
HETATM   15  C   UNL     4      -8.586   8.392  67.786  1.00  0.00    -0.130 A  
HETATM   16  C   UNL     4      -8.715   9.169  68.973  1.00  0.00    -0.135 A  
HETATM   17  C   UNL     4     -10.036   9.513  69.417  1.00  0.00    -0.198 A  
BRANCH  16  18
HETATM   18  O   UNL     4      -7.575   9.587  69.636  1.00  0.00    -0.082 OA 
BRANCH  18  19
HETATM   19  C   UNL     4      -6.563   8.656  69.894  1.00  0.00    -0.041 C  
BRANCH  19  20
HETATM   20  C   UNL     4      -6.807   7.475  70.868  1.00  0.00    -0.047 C  
BRANCH  20  21
HETATM   21  N   UNL     4      -7.080   6.155  70.141  1.00  0.00    -0.072 N  
BRANCH  21  22
HETATM   22  C   UNL     4      -8.564   5.933  69.975  1.00  0.00    -0.130 C  
HETATM   23  C   UNL     4      -8.996   4.899  68.920  1.00  0.00    -0.136 C  
ENDBRANCH  21  22
BRANCH  21  24
HETATM   24  C   UNL     4      -6.534   5.003  70.951  1.00  0.00    -0.027 C  
HETATM   25  C   UNL     4      -7.018   3.584  70.579  1.00  0.00    -0.034 C  
ENDBRANCH  21  24
BRANCH  21  26
HETATM   26  C   UNL     4      -6.464   6.184  68.770  1.00  0.00    -0.046 C  
HETATM   27  C   UNL     4      -7.429   6.009  67.586  1.00  0.00    -0.078 C  
ENDBRANCH  21  26
ENDBRANCH  20  21
ENDBRANCH  19  20
ENDBRANCH  18  19
ENDBRANCH  16  18
BRANCH  17  28
HETATM   28  O   UNL     4     -10.199  10.247  70.579  1.00  0.00    -0.096 OA 
BRANCH  28  29
HETATM   29  C   UNL     4     -11.318  11.034  70.860  1.00  0.00     0.457 C  
BRANCH  29  30
HETATM   30  C   UNL     4     -11.068  12.558  70.892  1.00  0.00     2.631 C  
BRANCH  30  31
HETATM   31  N   UNL     4     -11.863  13.319  71.944  1.00  0.00     1.241 N  
BRANCH  31  32
HETATM   32  C   UNL     4     -11.029  14.378  72.614  1.00  0.00     2.427 C  
HETATM   33  C   UNL     4     -11.776  15.422  73.457  1.00  0.00    -0.276 C  
ENDBRANCH  31  32
BRANCH  31  34
HETATM   34  C   UNL     4     -12.332  12.343  72.989  1.00  0.00     4.318 C  
HETATM   35  C   UNL     4     -12.153  10.846  72.653  1.00  0.00     3.245 C  
ENDBRANCH  31  34
BRANCH  31  36
HETATM   36  C   UNL     4     -13.044  14.022  71.309  1.00  0.00    -0.329 C  
HETATM   37  C   UNL     4     -14.361  14.047  72.116  1.00  0.00    -0.577 C  
ENDBRANCH  31  36
ENDBRANCH  30  31
ENDBRANCH  29  30
ENDBRANCH  28  29
ENDBRANCH  17  28
ENDBRANCH  11  12
ENDBRANCH  10  11
ENDBRANCH   9  10
ENDBRANCH   6   9
BRANCH   6  38
HETATM   38  C   UNL     4     -11.165  13.125  68.150  1.00  0.00    -0.271 C  
HETATM   39  C   UNL     4     -11.668  14.583  68.092  1.00  0.00    -0.369 C  
ENDBRANCH   6  38
ENDBRANCH   5   6
TORSDOF 21
ENDMDL
MODEL      170
REMARK 921   NORMALIZED FREE ENERGY PREDICTED BY IDOCK:   37.88 KCAL/MOL
REMARK 922        TOTAL FREE ENERGY PREDICTED BY IDOCK:   82.07 KCAL/MOL
REMARK 923 INTER-LIGAND FREE ENERGY PREDICTED BY IDOCK:   18.15 KCAL/MOL
REMARK 924 INTRA-LIGAND FREE ENERGY PREDICTED BY IDOCK:   63.92 KCAL/MOL
REMARK 927      BINDING AFFINITY PREDICTED BY RF-SCORE:    0.00 PKD
ROOT
HETATM    1  I   UNL     1     -12.090  10.831  63.349  1.00  0.00     4.628 I  
HETATM    2  I   UNL     2     -11.182  15.675  65.141  1.00  0.00    -0.082 I  
HETATM    3  I   UNL     3     -10.929  10.122  67.140  1.00  0.00     0.281 I  
HETATM    4  C   UNL     4     -13.328  10.988  70.003  1.00  0.00     0.774 C  
HETATM    5  C   UNL     4     -13.497  12.230  70.905  1.00  0.00     0.880 C  
ENDROOT
BRANCH   5   6
HETATM    6  N   UNL     4     -12.299  13.131  71.031  1.00  0.00    -0.333 N  
BRANCH   6   7
HETATM    7  C   UNL     4     -11.646  12.874  72.367  1.00  0.00     4.442 C  
HETATM    8  C   UNL     4     -11.455  14.098  73.285  1.00  0.00     1.754 C  
ENDBRANCH   6   7
BRANCH   6   9
HETATM    9  C   UNL     4     -11.359  12.844  69.892  1.00  0.00     0.039 C  
BRANCH   9  10
HETATM   10  C   UNL     4     -11.922  12.287  68.548  1.00  0.00    -0.219 C  
BRANCH  10  11
HETATM   11  O   UNL     4     -11.270  12.665  67.387  1.00  0.00    -0.260 OA 
BRANCH  11  12
HETATM   12  C   UNL     4     -10.444  13.714  67.145  1.00  0.00    -0.264 A  
HETATM   13  C   UNL     4     -10.906  14.767  66.343  1.00  0.00    -0.322 A  
HETATM   14  C   UNL     4     -10.104  15.833  66.032  1.00  0.00    -0.359 A  
HETATM   15  C   UNL     4      -8.840  15.918  66.552  1.00  0.00    -0.340 A  
HETATM   16  C   UNL     4      -8.295  14.915  67.405  1.00  0.00    -0.194 A  
HETATM   17  C   UNL     4      -9.105  13.766  67.703  1.00  0.00    -0.196 A  
BRANCH  16  18
HETATM   18  O   UNL     4      -7.031  15.092  67.938  1.00  0.00    -0.123 OA 
BRANCH  18  19
HETATM   19  C   UNL     4      -6.479  16.378  67.954  1.00  0.00    -0.135 C  
BRANCH  19  20
HETATM   20  C   UNL     4      -7.138  17.510  68.783  1.00  0.00    -0.248 C  
BRANCH  20  21
HETATM   21  N   UNL     4      -7.416  17.097  70.230  1.00  0.00     1.739 N  
BRANCH  21  22
HETATM   22  C   UNL     4      -6.602  15.882  70.606  1.00  0.00     0.761 C  
HETATM   23  C   UNL     4      -5.552  15.410  69.586  1.00  0.00    -0.108 C  
ENDBRANCH  21  22
BRANCH  21  24
HETATM   24  C   UNL     4      -8.875  16.734  70.387  1.00  0.00     2.902 C  
HETATM   25  C   UNL     4      -9.332  15.378  69.807  1.00  0.00    -0.122 C  
ENDBRANCH  21  24
BRANCH  21  26
HETATM   26  C   UNL     4      -7.040  18.210  71.167  1.00  0.00     4.048 C  
HETATM   27  C   UNL     4      -7.419  19.633  70.722  1.00  0.00     1.224 C  
ENDBRANCH  21  26
ENDBRANCH  20  21
ENDBRANCH  19  20
ENDBRANCH  18  19
ENDBRANCH  16  18
BRANCH  17  28
HETATM   28  O   UNL     4      -8.599  12.762  68.510  1.00  0.00    -0.144 OA 
BRANCH  28  29
HETATM   29  C   UNL     4      -7.400  12.090  68.267  1.00  0.00    -0.095 C  
BRANCH  29  30
HETATM   30  C   UNL     4      -7.483  10.929  67.252  1.00  0.00    -0.104 C  
BRANCH  30  31
HETATM   31  N   UNL     4      -8.858  10.706  66.638  1.00  0.00    -0.139 N  
BRANCH  31  32
HETATM   32  C   UNL     4      -9.479  11.999  66.180  1.00  0.00    -0.232 C  
HETATM   33  C   UNL     4     -10.047  12.031  64.753  1.00  0.00    -0.286 C  
ENDBRANCH  31  32
BRANCH  31  34
HETATM   34  C   UNL     4      -9.751  10.085  67.677  1.00  0.00    -0.158 C  
HETATM   35  C   UNL     4     -11.226   9.872  67.269  1.00  0.00     0.135 C  
ENDBRANCH  31  34
BRANCH  31  36
HETATM   36  C   UNL     4      -8.756   9.809  65.422  1.00  0.00    -0.154 C  
HETATM   37  C   UNL     4      -7.336   9.431  64.948  1.00  0.00    -0.106 C  
ENDBRANCH  31  36
ENDBRANCH  30  31
ENDBRANCH  29  30
ENDBRANCH  28  29
ENDBRANCH  17  28
ENDBRANCH  11  12
ENDBRANCH  10  11
ENDBRANCH   9  10
ENDBRANCH   6   9
BRANCH   6  38
HETATM   38  C   UNL     4     -12.706  14.581  70.986  1.00  0.00    -0.343 C  
HETATM   39  C   UNL     4     -11.586  15.599  70.686  1.00  0.00    -0.394 C  
ENDBRANCH   6  38
ENDBRANCH   5   6
TORSDOF 21
ENDMDL
MODEL      171
REMARK 921   NORMALIZED FREE ENERGY PREDICTED BY IDOCK:   43.01 KCAL/MOL
REMARK 922        TOTAL FREE ENERGY PREDICTED BY IDOCK:   93.50 KCAL/MOL
REMARK 923 INTER-LIGAND FREE ENERGY PREDICTED BY IDOCK:   29.90 KCAL/MOL
REMARK 924 INTRA-LIGAND FREE ENERGY PREDICTED BY IDOCK:   63.60 KCAL/MOL
REMARK 927      BINDING AFFINITY PREDICTED BY RF-SCORE:    0.00 PKD
ROOT
HETATM    1  I   UNL     1     -12.515  17.628  67.486  1.00  0.00     6.905 I  
HETATM    2  I   UNL     2     -13.047  12.925  69.744  1.00  0.00     2.433 I  
HETATM    3  I   UNL     3      -8.971  15.898  66.672  1.00  0.00    -0.384 I  
HETATM    4  C   UNL     4      -8.833  13.104  64.049  1.00  0.00     3.971 C  
HETATM    5  C   UNL     4      -8.904  11.564  64.137  1.00  0.00     0.428 C  
ENDROOT
BRANCH   5   6
HETATM    6  N   UNL     4      -8.549  10.954  65.466  1.00  0.00    -0.173 N  
BRANCH   6   7
HETATM    7  C   UNL     4      -7.182  10.325  65.353  1.00  0.00    -0.143 C  
HETATM    8  C   UNL     4      -6.973   8.997  66.108  1.00  0.00    -0.085 C  
ENDBRANCH   6   7
BRANCH   6   9
HETATM    9  C   UNL     4      -8.576  12.034  66.513  1.00  0.00    -0.100 C  
BRANCH   9  10
HETATM   10  C   UNL     4      -8.561  11.646  68.023  1.00  0.00    -0.152 C  
BRANCH  10  11
HETATM   11  O   UNL     4      -9.299  10.536  68.396  1.00  0.00    -0.147 OA 
BRANCH  11  12
HETATM   12  C   UNL     4      -8.899   9.354  68.931  1.00  0.00    -0.136 A  
HETATM   13  C   UNL     4      -8.609   8.286  68.070  1.00  0.00    -0.132 A  
HETATM   14  C   UNL     4      -8.239   7.059  68.553  1.00  0.00    -0.124 A  
HETATM   15  C   UNL     4      -8.089   6.868  69.901  1.00  0.00    -0.125 A  
HETATM   16  C   UNL     4      -8.326   7.902  70.852  1.00  0.00    -0.115 A  
HETATM   17  C   UNL     4      -8.761   9.182  70.366  1.00  0.00    -0.215 A  
BRANCH  16  18
HETATM   18  O   UNL     4      -8.102   7.654  72.194  1.00  0.00    -0.097 OA 
BRANCH  18  19
HETATM   19  C   UNL     4      -7.502   6.445  72.566  1.00  0.00    -0.095 C  
BRANCH  19  20
HETATM   20  C   UNL     4      -6.609   5.667  71.566  1.00  0.00    -0.049 C  
BRANCH  20  21
HETATM   21  N   UNL     4      -7.336   4.484  70.921  1.00  0.00    -0.050 N  
BRANCH  21  22
HETATM   22  C   UNL     4      -6.542   3.211  71.091  1.00  0.00    -0.030 C  
HETATM   23  C   UNL     4      -7.223   2.068  71.862  1.00  0.00    -0.035 C  
ENDBRANCH  21  22
BRANCH  21  24
HETATM   24  C   UNL     4      -7.493   4.728  69.439  1.00  0.00    -0.053 C  
HETATM   25  C   UNL     4      -7.070   3.589  68.485  1.00  0.00    -0.050 C  
ENDBRANCH  21  24
BRANCH  21  26
HETATM   26  C   UNL     4      -8.674   4.281  71.574  1.00  0.00    -0.112 C  
HETATM   27  C   UNL     4      -8.655   3.933  73.072  1.00  0.00    -0.095 C  
ENDBRANCH  21  26
ENDBRANCH  20  21
ENDBRANCH  19  20
ENDBRANCH  18  19
ENDBRANCH  16  18
BRANCH  17  28
HETATM   28  O   UNL     4      -9.022  10.203  71.263  1.00  0.00     0.866 OA 
BRANCH  28  29
HETATM   29  C   UNL     4     -10.300  10.553  71.702  1.00  0.00     3.565 C  
BRANCH  29  30
HETATM   30  C   UNL     4     -10.831  11.910  71.189  1.00  0.00     4.067 C  
BRANCH  30  31
HETATM   31  N   UNL     4     -10.147  12.436  69.934  1.00  0.00     1.561 N  
BRANCH  31  32
HETATM   32  C   UNL     4      -8.966  13.309  70.268  1.00  0.00     4.379 C  
HETATM   33  C   UNL     4      -7.681  12.600  70.716  1.00  0.00     5.491 C  
ENDBRANCH  31  32
BRANCH  31  34
HETATM   34  C   UNL     4     -11.141  13.250  69.152  1.00  0.00    -0.209 C  
HETATM   35  C   UNL     4     -10.580  14.483  68.410  1.00  0.00    -0.244 C  
ENDBRANCH  31  34
BRANCH  31  36
HETATM   36  C   UNL     4      -9.625  11.289  69.095  1.00  0.00     0.060 C  
HETATM   37  C   UNL     4     -10.669  10.460  68.315  1.00  0.00    -0.275 C  
ENDBRANCH  31  36
ENDBRANCH  30  31
ENDBRANCH  29  30
ENDBRANCH  28  29
ENDBRANCH  17  28
ENDBRANCH  11  12
ENDBRANCH  10  11
ENDBRANCH   9  10
ENDBRANCH   6   9
BRANCH   6  38
HETATM   38  C   UNL     4      -9.527   9.872  65.843  1.00  0.00    -0.215 C  
HETATM   39  C   UNL     4      -9.593   9.497  67.337  1.00  0.00    -0.178 C  
ENDBRANCH   6  38
ENDBRANCH   5   6
TORSDOF 21
ENDMDL
MODEL      172
REMARK 921   NORMALIZED FREE ENERGY PREDICTED BY IDOCK:   48.94 KCAL/MOL
REMARK 922        TOTAL FREE ENERGY PREDICTED BY IDOCK:  106.70 KCAL/MOL
REMARK 923 INTER-LIGAND FREE ENERGY PREDICTED BY IDOCK:   54.69 KCAL/MOL
REMARK 924 INTRA-LIGAND FREE ENERGY PREDICTED BY IDOCK:   52.01 KCAL/MOL
REMARK 927      BINDING AFFINITY PREDICTED BY RF-SCORE:    0.00 PKD
ROOT
HETATM    1  I   UNL     1      -5.719   5.745  66.655  1.00  0.00    -0.019 I  
HETATM    2  I   UNL     2     -10.033   2.863  65.896  1.00  0.00     1.388 I  
HETATM    3  I   UNL     3      -8.353   7.502  69.144  1.00  0.00    -0.136 I  
HETATM    4  C   UNL     4      -9.357   5.678  72.364  1.00  0.00    -0.154 C  
HETATM    5  C   UNL     4     -10.527   4.739  72.729  1.00  0.00    -0.202 C  
ENDROOT
BRANCH   5   6
HETATM    6  N   UNL     4     -11.753   4.831  71.861  1.00  0.00     0.935 N  
BRANCH   6   7
HETATM    7  C   UNL     4     -12.552   6.037  72.290  1.00  0.00     0.216 C  
HETATM    8  C   UNL     4     -13.215   6.857  71.165  1.00  0.00    -0.157 C  
ENDBRANCH   6   7
BRANCH   6   9
HETATM    9  C   UNL     4     -11.318   4.938  70.425  1.00  0.00     2.067 C  
BRANCH   9  10
HETATM   10  C   UNL     4     -12.136   5.821  69.434  1.00  0.00     2.877 C  
BRANCH  10  11
HETATM   11  O   UNL     4     -11.550   6.108  68.214  1.00  0.00     0.098 OA 
BRANCH  11  12
HETATM   12  C   UNL     4     -11.696   7.185  67.401  1.00  0.00     1.401 A  
HETATM   13  C   UNL     4     -12.364   7.025  66.179  1.00  0.00     7.448 A  
HETATM   14  C   UNL     4     -12.507   8.066  65.301  1.00  0.00    16.570 A  
HETATM   15  C   UNL     4     -12.043   9.313  65.631  1.00  0.00     9.512 A  
HETATM   16  C   UNL     4     -11.382   9.581  66.864  1.00  0.00     1.091 A  
HETATM   17  C   UNL     4     -11.181   8.490  67.776  1.00  0.00     0.672 A  
BRANCH  16  18
HETATM   18  O   UNL     4     -10.987  10.874  67.154  1.00  0.00    -0.274 OA 
BRANCH  18  19
HETATM   19  C   UNL     4     -11.128  11.860  66.170  1.00  0.00    -0.326 C  
BRANCH  19  20
HETATM   20  C   UNL     4     -11.673  13.265  66.533  1.00  0.00    -0.377 C  
BRANCH  20  21
HETATM   21  N   UNL     4     -10.754  14.395  66.063  1.00  0.00    -0.295 N  
BRANCH  21  22
HETATM   22  C   UNL     4      -9.346  14.184  66.566  1.00  0.00    -0.265 C  
HETATM   23  C   UNL     4      -9.177  13.255  67.781  1.00  0.00    -0.209 C  
ENDBRANCH  21  22
BRANCH  21  24
HETATM   24  C   UNL     4     -11.242  15.714  66.615  1.00  0.00    -0.067 C  
HETATM   25  C   UNL     4     -10.325  16.943  66.428  1.00  0.00    -0.302 C  
ENDBRANCH  21  24
BRANCH  21  26
HETATM   26  C   UNL     4     -10.705  14.430  64.561  1.00  0.00    -0.214 C  
HETATM   27  C   UNL     4      -9.411  14.976  63.935  1.00  0.00     7.433 C  
ENDBRANCH  21  26
ENDBRANCH  20  21
ENDBRANCH  19  20
ENDBRANCH  18  19
ENDBRANCH  16  18
BRANCH  17  28
HETATM   28  O   UNL     4     -10.523   8.710  68.974  1.00  0.00    -0.216 OA 
BRANCH  28  29
HETATM   29  C   UNL     4      -9.220   9.203  69.073  1.00  0.00    -0.143 C  
BRANCH  29  30
HETATM   30  C   UNL     4      -9.051  10.705  68.753  1.00  0.00    -0.169 C  
BRANCH  30  31
HETATM   31  N   UNL     4      -8.329  11.008  67.448  1.00  0.00    -0.124 N  
BRANCH  31  32
HETATM   32  C   UNL     4      -7.197  11.981  67.650  1.00  0.00    -0.117 C  
HETATM   33  C   UNL     4      -7.159  13.206  66.725  1.00  0.00     0.885 C  
ENDBRANCH  31  32
BRANCH  31  34
HETATM   34  C   UNL     4      -9.314  11.610  66.484  1.00  0.00    -0.206 C  
HETATM   35  C   UNL     4      -9.575  13.125  66.633  1.00  0.00    -0.260 C  
ENDBRANCH  31  34
BRANCH  31  36
HETATM   36  C   UNL     4      -7.727   9.744  66.870  1.00  0.00    -0.098 C  
HETATM   37  C   UNL     4      -7.527   9.700  65.340  1.00  0.00    -0.111 C  
ENDBRANCH  31  36
ENDBRANCH  30  31
ENDBRANCH  29  30
ENDBRANCH  28  29
ENDBRANCH  17  28
ENDBRANCH  11  12
ENDBRANCH  10  11
ENDBRANCH   9  10
ENDBRANCH   6   9
BRANCH   6  38
HETATM   38  C   UNL     4     -12.626   3.614  72.028  1.00  0.00     5.411 C  
HETATM   39  C   UNL     4     -12.780   3.071  73.463  1.00  0.00     1.121 C  
ENDBRANCH   6  38
ENDBRANCH   5   6
TORSDOF 21
ENDMDL
MODEL      173
REMARK 921   NORMALIZED FREE ENERGY PREDICTED BY IDOCK:   50.68 KCAL/MOL
REMARK 922        TOTAL FREE ENERGY PREDICTED BY IDOCK:  110.57 KCAL/MOL
REMARK 923 INTER-LIGAND FREE ENERGY PREDICTED BY IDOCK:   93.20 KCAL/MOL
REMARK 924 INTRA-LIGAND FREE ENERGY PREDICTED BY IDOCK:   17.37 KCAL/MOL
REMARK 927      BINDING AFFINITY PREDICTED BY RF-SCORE:    0.00 PKD
ROOT
HETATM    1  I   UNL     1      -6.265  13.683  65.838  1.00  0.00     9.938 I  
HETATM    2  I   UNL     2      -6.826   9.819  62.338  1.00  0.00    -0.132 I  
HETATM    3  I   UNL     3      -9.938  12.282  66.713  1.00  0.00    -0.238 I  
HETATM    4  C   UNL     4     -10.255   8.888  68.469  1.00  0.00    -0.223 C  
HETATM    5  C   UNL     4     -10.464   7.446  67.958  1.00  0.00    -0.199 C  
ENDROOT
BRANCH   5   6
HETATM    6  N   UNL     4     -11.071   7.304  66.589  1.00  0.00     0.201 N  
BRANCH   6   7
HETATM    7  C   UNL     4     -11.659   5.919  66.468  1.00  0.00     1.099 C  
HETATM    8  C   UNL     4     -11.801   5.118  67.778  1.00  0.00     4.927 C  
ENDBRANCH   6   7
BRANCH   6   9
HETATM    9  C   UNL     4     -12.121   8.368  66.416  1.00  0.00     8.058 C  
BRANCH   9  10
HETATM   10  C   UNL     4     -12.037   9.679  67.255  1.00  0.00     4.574 C  
BRANCH  10  11
HETATM   11  O   UNL     4     -12.430  10.852  66.634  1.00  0.00     2.093 OA 
BRANCH  11  12
HETATM   12  C   UNL     4     -12.828  12.036  67.164  1.00  0.00     3.293 A  
HETATM   13  C   UNL     4     -13.642  12.881  66.396  1.00  0.00     4.743 A  
HETATM   14  C   UNL     4     -14.043  14.105  66.863  1.00  0.00     8.534 A  
HETATM   15  C   UNL     4     -13.697  14.505  68.127  1.00  0.00     6.887 A  
HETATM   16  C   UNL     4     -12.902  13.701  68.994  1.00  0.00     1.121 A  
HETATM   17  C   UNL     4     -12.433  12.436  68.503  1.00  0.00     0.712 A  
BRANCH  16  18
HETATM   18  O   UNL     4     -12.637  14.146  70.277  1.00  0.00    -0.346 OA 
BRANCH  18  19
HETATM   19  C   UNL     4     -13.181  15.366  70.695  1.00  0.00    -0.308 C  
BRANCH  19  20
HETATM   20  C   UNL     4     -12.315  16.651  70.711  1.00  0.00     1.705 C  
BRANCH  20  21
HETATM   21  N   UNL     4     -11.642  16.928  69.365  1.00  0.00     0.482 N  
BRANCH  21  22
HETATM   22  C   UNL     4     -12.631  16.784  68.233  1.00  0.00     2.700 C  
HETATM   23  C   UNL     4     -12.189  17.309  66.856  1.00  0.00     3.592 C  
ENDBRANCH  21  22
BRANCH  21  24
HETATM   24  C   UNL     4     -10.534  15.928  69.132  1.00  0.00    -0.235 C  
HETATM   25  C   UNL     4      -9.224  16.456  68.508  1.00  0.00    -0.226 C  
ENDBRANCH  21  24
BRANCH  21  26
HETATM   26  C   UNL     4     -11.109  18.333  69.333  1.00  0.00     1.861 C  
HETATM   27  C   UNL     4     -11.254  19.147  70.630  1.00  0.00     4.657 C  
ENDBRANCH  21  26
ENDBRANCH  20  21
ENDBRANCH  19  20
ENDBRANCH  18  19
ENDBRANCH  16  18
BRANCH  17  28
HETATM   28  O   UNL     4     -11.641  11.639  69.311  1.00  0.00    -0.265 OA 
BRANCH  28  29
HETATM   29  C   UNL     4     -10.557  12.109  70.054  1.00  0.00     1.243 C  
BRANCH  29  30
HETATM   30  C   UNL     4     -10.376  11.465  71.447  1.00  0.00     6.290 C  
BRANCH  30  31
HETATM   31  N   UNL     4     -10.449   9.945  71.468  1.00  0.00     0.304 N  
BRANCH  31  32
HETATM   32  C   UNL     4     -11.715   9.439  70.828  1.00  0.00    -0.282 C  
HETATM   33  C   UNL     4     -11.561   8.573  69.569  1.00  0.00     0.584 C  
ENDBRANCH  31  32
BRANCH  31  34
HETATM   34  C   UNL     4     -10.416   9.483  72.898  1.00  0.00     3.348 C  
HETATM   35  C   UNL     4     -11.080   8.119  73.191  1.00  0.00     0.012 C  
ENDBRANCH  31  34
BRANCH  31  36
HETATM   36  C   UNL     4      -9.294   9.348  70.691  1.00  0.00    -0.252 C  
HETATM   37  C   UNL     4      -7.902   9.982  70.910  1.00  0.00     0.770 C  
ENDBRANCH  31  36
ENDBRANCH  30  31
ENDBRANCH  29  30
ENDBRANCH  28  29
ENDBRANCH  17  28
ENDBRANCH  11  12
ENDBRANCH  10  11
ENDBRANCH   9  10
ENDBRANCH   6   9
BRANCH   6  38
HETATM   38  C   UNL     4     -10.026   7.459  65.515  1.00  0.00     1.489 C  
HETATM   39  C   UNL     4     -10.541   7.555  64.064  1.00  0.00    10.687 C  
ENDBRANCH   6  38
ENDBRANCH   5   6
TORSDOF 21
ENDMDL
MODEL      174
REMARK 921   NORMALIZED FREE ENERGY PREDICTED BY IDOCK:   67.34 KCAL/MOL
REMARK 922        TOTAL FREE ENERGY PREDICTED BY IDOCK:  147.70 KCAL/MOL
REMARK 923 INTER-LIGAND FREE ENERGY PREDICTED BY IDOCK:   92.53 KCAL/MOL
REMARK 924 INTRA-LIGAND FREE ENERGY PREDICTED BY IDOCK:   55.16 KCAL/MOL
REMARK 927      BINDING AFFINITY PREDICTED BY RF-SCORE:    0.00 PKD
ROOT
HETATM    1  I   UNL     1      -5.139  15.389  64.641  1.00  0.00    17.195 I  
HETATM    2  I   UNL     2      -9.637  17.686  63.232  1.00  0.00    24.540 I  
HETATM    3  I   UNL     3      -7.162  15.484  68.122  1.00  0.00    -0.170 I  
HETATM    4  C   UNL     4     -10.122  13.096  68.609  1.00  0.00    -0.146 C  
HETATM    5  C   UNL     4     -11.644  13.238  68.393  1.00  0.00    -0.337 C  
ENDROOT
BRANCH   5   6
HETATM    6  N   UNL     4     -12.191  14.640  68.391  1.00  0.00    -0.172 N  
BRANCH   6   7
HETATM    7  C   UNL     4     -12.571  15.002  66.975  1.00  0.00     1.013 C  
HETATM    8  C   UNL     4     -11.481  14.814  65.902  1.00  0.00    -0.319 C  
ENDBRANCH   6   7
BRANCH   6   9
HETATM    9  C   UNL     4     -13.377  14.695  69.314  1.00  0.00     2.094 C  
BRANCH   9  10
HETATM   10  C   UNL     4     -13.943  13.376  69.923  1.00  0.00     4.050 C  
BRANCH  10  11
HETATM   11  O   UNL     4     -13.041  12.531  70.544  1.00  0.00     0.210 OA 
BRANCH  11  12
HETATM   12  C   UNL     4     -12.072  11.740  70.017  1.00  0.00    -0.310 A  
HETATM   13  C   UNL     4     -12.446  10.555  69.366  1.00  0.00     0.150 A  
HETATM   14  C   UNL     4     -11.511   9.698  68.849  1.00  0.00     0.184 A  
HETATM   15  C   UNL     4     -10.179  10.016  68.910  1.00  0.00    -0.206 A  
HETATM   16  C   UNL     4      -9.705  11.213  69.520  1.00  0.00     0.322 A  
HETATM   17  C   UNL     4     -10.669  12.100  70.110  1.00  0.00     1.313 A  
BRANCH  16  18
HETATM   18  O   UNL     4      -8.352  11.494  69.497  1.00  0.00     0.374 OA 
BRANCH  18  19
HETATM   19  C   UNL     4      -7.462  10.500  69.075  1.00  0.00    -0.112 C  
BRANCH  19  20
HETATM   20  C   UNL     4      -7.276   9.203  69.903  1.00  0.00    -0.062 C  
BRANCH  20  21
HETATM   21  N   UNL     4      -7.152   9.473  71.405  1.00  0.00     0.135 N  
BRANCH  21  22
HETATM   22  C   UNL     4      -5.706   9.443  71.836  1.00  0.00    -0.041 C  
HETATM   23  C   UNL     4      -5.211   8.151  72.509  1.00  0.00    -0.036 C  
ENDBRANCH  21  22
BRANCH  21  24
HETATM   24  C   UNL     4      -7.881   8.400  72.179  1.00  0.00    -0.119 C  
HETATM   25  C   UNL     4      -7.565   8.276  73.685  1.00  0.00    -0.193 C  
ENDBRANCH  21  24
BRANCH  21  26
HETATM   26  C   UNL     4      -7.701  10.834  71.732  1.00  0.00     6.072 C  
HETATM   27  C   UNL     4      -7.368  11.960  70.738  1.00  0.00     3.741 C  
ENDBRANCH  21  26
ENDBRANCH  20  21
ENDBRANCH  19  20
ENDBRANCH  18  19
ENDBRANCH  16  18
BRANCH  17  28
HETATM   28  O   UNL     4     -10.241  13.261  70.730  1.00  0.00     3.551 OA 
BRANCH  28  29
HETATM   29  C   UNL     4     -11.028  14.403  70.884  1.00  0.00     0.564 C  
BRANCH  29  30
HETATM   30  C   UNL     4     -10.656  15.595  69.976  1.00  0.00    -0.332 C  
BRANCH  30  31
HETATM   31  N   UNL     4     -10.780  16.966  70.627  1.00  0.00     0.376 N  
BRANCH  31  32
HETATM   32  C   UNL     4      -9.673  17.890  70.196  1.00  0.00     1.603 C  
HETATM   33  C   UNL     4      -9.226  17.805  68.729  1.00  0.00    -0.217 C  
ENDBRANCH  31  32
BRANCH  31  34
HETATM   34  C   UNL     4     -10.710  16.795  72.120  1.00  0.00     2.687 C  
HETATM   35  C   UNL     4     -10.740  15.341  72.642  1.00  0.00     1.436 C  
ENDBRANCH  31  34
BRANCH  31  36
HETATM   36  C   UNL     4     -12.085  17.624  70.230  1.00  0.00     6.085 C  
HETATM   37  C   UNL     4     -12.812  18.448  71.316  1.00  0.00    17.693 C  
ENDBRANCH  31  36
ENDBRANCH  30  31
ENDBRANCH  29  30
ENDBRANCH  28  29
ENDBRANCH  17  28
ENDBRANCH  11  12
ENDBRANCH  10  11
ENDBRANCH   9  10
ENDBRANCH   6   9
BRANCH   6  38
HETATM   38  C   UNL     4     -11.152  15.627  68.857  1.00  0.00    -0.290 C  
HETATM   39  C   UNL     4     -11.356  17.093  68.424  1.00  0.00     0.211 C  
ENDBRANCH   6  38
ENDBRANCH   5   6
TORSDOF 21
ENDMDL
