MODEL        1
REMARK 921   NORMALIZED FREE ENERGY PREDICTED BY IDOCK:   -3.84 KCAL/MOL
REMARK 922        TOTAL FREE ENERGY PREDICTED BY IDOCK:   -4.56 KCAL/MOL
REMARK 923 INTER-LIGAND FREE ENERGY PREDICTED BY IDOCK:   -4.29 KCAL/MOL
REMARK 924 INTRA-LIGAND FREE ENERGY PREDICTED BY IDOCK:   -0.27 KCAL/MOL
REMARK 927      BINDING AFFINITY PREDICTED BY RF-SCORE:    0.00 PKD
ROOT
HETATM    1  N   UNL     1     -12.450  13.827  63.106  1.00  0.00    -1.074 NA 
HETATM    2  C   UNL     1     -11.890  13.163  64.275  1.00  0.00    -0.406 C  
HETATM    3  H1  UNL     1     -13.293  13.342  62.800  1.00  0.00     0.000 HD 
HETATM    4  H2  UNL     1     -11.767  13.918  62.355  1.00  0.00     0.000 HD 
ENDROOT
BRANCH   2   5
HETATM    5  C   UNL     1     -10.628  13.889  64.734  1.00  0.00    -0.444 C  
BRANCH   5   6
HETATM    6  C   UNL     1     -10.978  15.060  65.648  1.00  0.00    -0.357 C  
HETATM    7  C   UNL     1     -10.768  16.389  64.969  1.00  0.00    -0.259 C  
HETATM    8  O   UNL     1     -11.598  16.607  63.928  1.00  0.00    -1.204 OA 
HETATM    9  O   UNL     1      -9.948  17.215  65.338  1.00  0.00    -0.547 OA 
ENDBRANCH   5   6
ENDBRANCH   2   5
TORSDOF 2
ENDMDL
MODEL        2
REMARK 921   NORMALIZED FREE ENERGY PREDICTED BY IDOCK:   -3.82 KCAL/MOL
REMARK 922        TOTAL FREE ENERGY PREDICTED BY IDOCK:   -4.54 KCAL/MOL
REMARK 923 INTER-LIGAND FREE ENERGY PREDICTED BY IDOCK:   -4.51 KCAL/MOL
REMARK 924 INTRA-LIGAND FREE ENERGY PREDICTED BY IDOCK:   -0.03 KCAL/MOL
REMARK 927      BINDING AFFINITY PREDICTED BY RF-SCORE:    0.00 PKD
ROOT
HETATM    1  N   UNL     1     -11.622  16.470  63.849  1.00  0.00    -1.578 NA 
HETATM    2  C   UNL     1     -10.808  16.068  64.988  1.00  0.00    -0.404 C  
HETATM    3  H1  UNL     1     -11.523  17.471  63.685  1.00  0.00     0.000 HD 
HETATM    4  H2  UNL     1     -12.598  16.196  63.963  1.00  0.00     0.000 HD 
ENDROOT
BRANCH   2   5
HETATM    5  C   UNL     1     -10.957  14.569  65.234  1.00  0.00    -0.366 C  
BRANCH   5   6
HETATM    6  C   UNL     1     -12.404  14.129  65.040  1.00  0.00    -0.452 C  
HETATM    7  C   UNL     1     -12.530  12.631  64.928  1.00  0.00    -0.494 C  
HETATM    8  O   UNL     1     -12.199  11.971  66.058  1.00  0.00    -0.546 OA 
HETATM    9  O   UNL     1     -12.923  12.057  63.925  1.00  0.00    -0.669 OA 
ENDBRANCH   5   6
ENDBRANCH   2   5
TORSDOF 2
ENDMDL
MODEL        3
REMARK 921   NORMALIZED FREE ENERGY PREDICTED BY IDOCK:   -3.38 KCAL/MOL
REMARK 922        TOTAL FREE ENERGY PREDICTED BY IDOCK:   -4.04 KCAL/MOL
REMARK 923 INTER-LIGAND FREE ENERGY PREDICTED BY IDOCK:   -4.02 KCAL/MOL
REMARK 924 INTRA-LIGAND FREE ENERGY PREDICTED BY IDOCK:   -0.02 KCAL/MOL
REMARK 927      BINDING AFFINITY PREDICTED BY RF-SCORE:    0.00 PKD
ROOT
HETATM    1  N   UNL     1     -11.318  16.347  63.899  1.00  0.00    -1.535 NA 
HETATM    2  C   UNL     1     -10.592  15.665  64.962  1.00  0.00    -0.396 C  
HETATM    3  H1  UNL     1     -11.239  17.357  64.015  1.00  0.00     0.000 HD 
HETATM    4  H2  UNL     1     -12.290  16.043  63.845  1.00  0.00     0.000 HD 
ENDROOT
BRANCH   2   5
HETATM    5  C   UNL     1     -10.710  14.153  64.789  1.00  0.00    -0.436 C  
BRANCH   5   6
HETATM    6  C   UNL     1     -11.987  13.631  65.438  1.00  0.00    -0.400 C  
HETATM    7  C   UNL     1     -11.709  12.906  66.730  1.00  0.00    -0.383 C  
HETATM    8  O   UNL     1     -11.219  13.700  67.706  1.00  0.00    -0.266 OA 
HETATM    9  O   UNL     1     -11.931  11.718  66.901  1.00  0.00    -0.605 OA 
ENDBRANCH   5   6
ENDBRANCH   2   5
TORSDOF 2
ENDMDL
MODEL        4
REMARK 921   NORMALIZED FREE ENERGY PREDICTED BY IDOCK:   -3.38 KCAL/MOL
REMARK 922        TOTAL FREE ENERGY PREDICTED BY IDOCK:   -4.04 KCAL/MOL
REMARK 923 INTER-LIGAND FREE ENERGY PREDICTED BY IDOCK:   -3.96 KCAL/MOL
REMARK 924 INTRA-LIGAND FREE ENERGY PREDICTED BY IDOCK:   -0.08 KCAL/MOL
REMARK 927      BINDING AFFINITY PREDICTED BY RF-SCORE:    0.00 PKD
ROOT
HETATM    1  N   UNL     1     -10.263  10.724  62.647  1.00  0.00    -0.774 NA 
HETATM    2  C   UNL     1     -10.598  11.801  63.568  1.00  0.00    -0.440 C  
HETATM    3  H1  UNL     1      -9.255  10.566  62.646  1.00  0.00     0.000 HD 
HETATM    4  H2  UNL     1     -10.624  10.897  61.709  1.00  0.00     0.000 HD 
ENDROOT
BRANCH   2   5
HETATM    5  C   UNL     1     -12.105  12.037  63.570  1.00  0.00    -0.628 C  
BRANCH   5   6
HETATM    6  C   UNL     1     -12.544  12.731  64.856  1.00  0.00    -0.541 C  
HETATM    7  C   UNL     1     -12.065  14.158  64.920  1.00  0.00    -0.428 C  
HETATM    8  O   UNL     1     -12.615  14.960  63.984  1.00  0.00    -0.832 OA 
HETATM    9  O   UNL     1     -11.278  14.571  65.757  1.00  0.00    -0.322 OA 
ENDBRANCH   5   6
ENDBRANCH   2   5
TORSDOF 2
ENDMDL
MODEL        5
REMARK 921   NORMALIZED FREE ENERGY PREDICTED BY IDOCK:   -3.37 KCAL/MOL
REMARK 922        TOTAL FREE ENERGY PREDICTED BY IDOCK:   -4.03 KCAL/MOL
REMARK 923 INTER-LIGAND FREE ENERGY PREDICTED BY IDOCK:   -3.78 KCAL/MOL
REMARK 924 INTRA-LIGAND FREE ENERGY PREDICTED BY IDOCK:   -0.25 KCAL/MOL
REMARK 927      BINDING AFFINITY PREDICTED BY RF-SCORE:    0.00 PKD
ROOT
HETATM    1  N   UNL     1     -12.126  12.280  66.123  1.00  0.00    -0.627 NA 
HETATM    2  C   UNL     1     -10.728  12.560  66.419  1.00  0.00    -0.249 C  
HETATM    3  H1  UNL     1     -12.454  11.501  66.692  1.00  0.00     0.000 HD 
HETATM    4  H2  UNL     1     -12.281  12.119  65.128  1.00  0.00     0.000 HD 
ENDROOT
BRANCH   2   5
HETATM    5  C   UNL     1     -10.236  13.727  65.567  1.00  0.00    -0.332 C  
BRANCH   5   6
HETATM    6  C   UNL     1     -11.134  14.947  65.748  1.00  0.00    -0.342 C  
HETATM    7  C   UNL     1     -11.702  15.430  64.438  1.00  0.00    -0.258 C  
HETATM    8  O   UNL     1     -12.552  14.556  63.858  1.00  0.00    -0.827 OA 
HETATM    9  O   UNL     1     -11.450  16.521  63.952  1.00  0.00    -1.145 OA 
ENDBRANCH   5   6
ENDBRANCH   2   5
TORSDOF 2
ENDMDL
MODEL        6
REMARK 921   NORMALIZED FREE ENERGY PREDICTED BY IDOCK:   -3.37 KCAL/MOL
REMARK 922        TOTAL FREE ENERGY PREDICTED BY IDOCK:   -4.03 KCAL/MOL
REMARK 923 INTER-LIGAND FREE ENERGY PREDICTED BY IDOCK:   -3.76 KCAL/MOL
REMARK 924 INTRA-LIGAND FREE ENERGY PREDICTED BY IDOCK:   -0.27 KCAL/MOL
REMARK 927      BINDING AFFINITY PREDICTED BY RF-SCORE:    0.00 PKD
ROOT
HETATM    1  N   UNL     1     -12.187  11.707  63.052  1.00  0.00    -0.951 NA 
HETATM    2  C   UNL     1     -10.797  11.695  63.488  1.00  0.00    -0.425 C  
HETATM    3  H1  UNL     1     -12.359  10.930  62.414  1.00  0.00     0.000 HD 
HETATM    4  H2  UNL     1     -12.451  12.603  62.644  1.00  0.00     0.000 HD 
ENDROOT
BRANCH   2   5
HETATM    5  C   UNL     1     -10.538  12.857  64.443  1.00  0.00    -0.418 C  
BRANCH   5   6
HETATM    6  C   UNL     1     -11.223  12.619  65.785  1.00  0.00    -0.347 C  
HETATM    7  C   UNL     1     -12.216  13.703  66.113  1.00  0.00    -0.444 C  
HETATM    8  O   UNL     1     -13.276  13.743  65.277  1.00  0.00    -0.755 OA 
HETATM    9  O   UNL     1     -12.103  14.461  67.064  1.00  0.00    -0.418 OA 
ENDBRANCH   5   6
ENDBRANCH   2   5
TORSDOF 2
ENDMDL
MODEL        7
REMARK 921   NORMALIZED FREE ENERGY PREDICTED BY IDOCK:   -3.28 KCAL/MOL
REMARK 922        TOTAL FREE ENERGY PREDICTED BY IDOCK:   -3.94 KCAL/MOL
REMARK 923 INTER-LIGAND FREE ENERGY PREDICTED BY IDOCK:   -3.84 KCAL/MOL
REMARK 924 INTRA-LIGAND FREE ENERGY PREDICTED BY IDOCK:   -0.10 KCAL/MOL
REMARK 927      BINDING AFFINITY PREDICTED BY RF-SCORE:    0.00 PKD
ROOT
HETATM    1  N   UNL     1     -12.479  14.803  63.724  1.00  0.00    -1.063 NA 
HETATM    2  C   UNL     1     -12.164  14.223  65.022  1.00  0.00    -0.433 C  
HETATM    3  H1  UNL     1     -12.287  15.805  63.733  1.00  0.00     0.000 HD 
HETATM    4  H2  UNL     1     -13.437  14.600  63.437  1.00  0.00     0.000 HD 
ENDROOT
BRANCH   2   5
HETATM    5  C   UNL     1     -12.452  12.724  65.009  1.00  0.00    -0.572 C  
BRANCH   5   6
HETATM    6  C   UNL     1     -12.063  12.109  63.669  1.00  0.00    -0.648 C  
HETATM    7  C   UNL     1     -10.646  11.595  63.672  1.00  0.00    -0.433 C  
HETATM    8  O   UNL     1     -10.447  10.555  64.511  1.00  0.00    -0.310 OA 
HETATM    9  O   UNL     1      -9.760  12.045  62.964  1.00  0.00    -0.383 OA 
ENDBRANCH   5   6
ENDBRANCH   2   5
TORSDOF 2
ENDMDL
MODEL        8
REMARK 921   NORMALIZED FREE ENERGY PREDICTED BY IDOCK:   -3.28 KCAL/MOL
REMARK 922        TOTAL FREE ENERGY PREDICTED BY IDOCK:   -3.94 KCAL/MOL
REMARK 923 INTER-LIGAND FREE ENERGY PREDICTED BY IDOCK:   -3.95 KCAL/MOL
REMARK 924 INTRA-LIGAND FREE ENERGY PREDICTED BY IDOCK:    0.01 KCAL/MOL
REMARK 927      BINDING AFFINITY PREDICTED BY RF-SCORE:    0.00 PKD
ROOT
HETATM    1  N   UNL     1     -11.596  16.314  63.868  1.00  0.00    -1.573 NA 
HETATM    2  C   UNL     1     -11.610  15.048  64.588  1.00  0.00    -0.386 C  
HETATM    3  H1  UNL     1     -11.994  16.191  62.937  1.00  0.00     0.000 HD 
HETATM    4  H2  UNL     1     -10.663  16.723  63.834  1.00  0.00     0.000 HD 
ENDROOT
BRANCH   2   5
HETATM    5  C   UNL     1     -11.015  15.233  65.981  1.00  0.00    -0.317 C  
BRANCH   5   6
HETATM    6  C   UNL     1      -9.872  16.243  65.954  1.00  0.00    -0.365 C  
HETATM    7  C   UNL     1     -10.310  17.605  66.429  1.00  0.00    -0.345 C  
HETATM    8  O   UNL     1     -10.664  17.638  67.732  1.00  0.00    -0.388 OA 
HETATM    9  O   UNL     1     -10.317  18.600  65.722  1.00  0.00    -0.573 OA 
ENDBRANCH   5   6
ENDBRANCH   2   5
TORSDOF 2
ENDMDL
MODEL        9
REMARK 921   NORMALIZED FREE ENERGY PREDICTED BY IDOCK:   -3.21 KCAL/MOL
REMARK 922        TOTAL FREE ENERGY PREDICTED BY IDOCK:   -3.86 KCAL/MOL
REMARK 923 INTER-LIGAND FREE ENERGY PREDICTED BY IDOCK:   -3.80 KCAL/MOL
REMARK 924 INTRA-LIGAND FREE ENERGY PREDICTED BY IDOCK:   -0.06 KCAL/MOL
REMARK 927      BINDING AFFINITY PREDICTED BY RF-SCORE:    0.00 PKD
ROOT
HETATM    1  N   UNL     1     -12.363  13.846  63.147  1.00  0.00    -1.106 NA 
HETATM    2  C   UNL     1     -12.243  12.419  63.410  1.00  0.00    -0.523 C  
HETATM    3  H1  UNL     1     -13.244  14.041  62.673  1.00  0.00     0.000 HD 
HETATM    4  H2  UNL     1     -11.562  14.207  62.629  1.00  0.00     0.000 HD 
ENDROOT
BRANCH   2   5
HETATM    5  C   UNL     1     -10.924  12.126  64.119  1.00  0.00    -0.416 C  
BRANCH   5   6
HETATM    6  C   UNL     1     -10.687  13.116  65.255  1.00  0.00    -0.318 C  
HETATM    7  C   UNL     1     -11.788  13.070  66.284  1.00  0.00    -0.408 C  
HETATM    8  O   UNL     1     -11.856  11.902  66.957  1.00  0.00    -0.585 OA 
HETATM    9  O   UNL     1     -12.536  14.007  66.518  1.00  0.00    -0.442 OA 
ENDBRANCH   5   6
ENDBRANCH   2   5
TORSDOF 2
ENDMDL
MODEL       10
REMARK 921   NORMALIZED FREE ENERGY PREDICTED BY IDOCK:   -3.21 KCAL/MOL
REMARK 922        TOTAL FREE ENERGY PREDICTED BY IDOCK:   -3.85 KCAL/MOL
REMARK 923 INTER-LIGAND FREE ENERGY PREDICTED BY IDOCK:   -3.78 KCAL/MOL
REMARK 924 INTRA-LIGAND FREE ENERGY PREDICTED BY IDOCK:   -0.07 KCAL/MOL
REMARK 927      BINDING AFFINITY PREDICTED BY RF-SCORE:    0.00 PKD
ROOT
HETATM    1  N   UNL     1     -11.528  16.343  63.949  1.00  0.00    -1.618 NA 
HETATM    2  C   UNL     1     -10.836  15.414  64.832  1.00  0.00    -0.425 C  
HETATM    3  H1  UNL     1     -11.737  15.889  63.060  1.00  0.00     0.000 HD 
HETATM    4  H2  UNL     1     -11.006  17.210  63.822  1.00  0.00     0.000 HD 
ENDROOT
BRANCH   2   5
HETATM    5  C   UNL     1     -10.523  16.093  66.163  1.00  0.00    -0.334 C  
BRANCH   5   6
HETATM    6  C   UNL     1     -10.382  17.601  65.982  1.00  0.00    -0.305 C  
HETATM    7  C   UNL     1      -9.065  18.114  66.507  1.00  0.00    -0.276 C  
HETATM    8  O   UNL     1      -7.994  17.662  65.821  1.00  0.00    -0.549 OA 
HETATM    9  O   UNL     1      -8.965  18.891  67.443  1.00  0.00    -0.274 OA 
ENDBRANCH   5   6
ENDBRANCH   2   5
TORSDOF 2
ENDMDL
MODEL       11
REMARK 921   NORMALIZED FREE ENERGY PREDICTED BY IDOCK:   -3.20 KCAL/MOL
REMARK 922        TOTAL FREE ENERGY PREDICTED BY IDOCK:   -3.85 KCAL/MOL
REMARK 923 INTER-LIGAND FREE ENERGY PREDICTED BY IDOCK:   -3.68 KCAL/MOL
REMARK 924 INTRA-LIGAND FREE ENERGY PREDICTED BY IDOCK:   -0.17 KCAL/MOL
REMARK 927      BINDING AFFINITY PREDICTED BY RF-SCORE:    0.00 PKD
ROOT
HETATM    1  N   UNL     1     -12.242  14.531  68.090  1.00  0.00    -0.593 NA 
HETATM    2  C   UNL     1     -12.017  13.531  67.055  1.00  0.00    -0.394 C  
HETATM    3  H1  UNL     1     -11.858  14.207  68.978  1.00  0.00     0.000 HD 
HETATM    4  H2  UNL     1     -13.227  14.784  68.169  1.00  0.00     0.000 HD 
ENDROOT
BRANCH   2   5
HETATM    5  C   UNL     1     -12.592  14.015  65.727  1.00  0.00    -0.512 C  
BRANCH   5   6
HETATM    6  C   UNL     1     -11.476  14.400  64.761  1.00  0.00    -0.402 C  
HETATM    7  C   UNL     1     -11.163  15.873  64.818  1.00  0.00    -0.355 C  
HETATM    8  O   UNL     1     -10.645  16.275  65.999  1.00  0.00    -0.318 OA 
HETATM    9  O   UNL     1     -11.327  16.638  63.881  1.00  0.00    -1.104 OA 
ENDBRANCH   5   6
ENDBRANCH   2   5
TORSDOF 2
ENDMDL
MODEL       12
REMARK 921   NORMALIZED FREE ENERGY PREDICTED BY IDOCK:   -3.19 KCAL/MOL
REMARK 922        TOTAL FREE ENERGY PREDICTED BY IDOCK:   -3.84 KCAL/MOL
REMARK 923 INTER-LIGAND FREE ENERGY PREDICTED BY IDOCK:   -3.57 KCAL/MOL
REMARK 924 INTRA-LIGAND FREE ENERGY PREDICTED BY IDOCK:   -0.27 KCAL/MOL
REMARK 927      BINDING AFFINITY PREDICTED BY RF-SCORE:    0.00 PKD
ROOT
HETATM    1  N   UNL     1     -12.265  14.730  68.162  1.00  0.00    -0.589 NA 
HETATM    2  C   UNL     1     -11.269  13.670  68.226  1.00  0.00    -0.273 C  
HETATM    3  H1  UNL     1     -11.970  15.521  68.734  1.00  0.00     0.000 HD 
HETATM    4  H2  UNL     1     -13.194  14.397  68.421  1.00  0.00     0.000 HD 
ENDROOT
BRANCH   2   5
HETATM    5  C   UNL     1     -11.711  12.485  67.371  1.00  0.00    -0.432 C  
BRANCH   5   6
HETATM    6  C   UNL     1     -11.376  12.721  65.902  1.00  0.00    -0.363 C  
HETATM    7  C   UNL     1     -12.608  12.989  65.077  1.00  0.00    -0.454 C  
HETATM    8  O   UNL     1     -13.237  14.140  65.396  1.00  0.00    -0.741 OA 
HETATM    9  O   UNL     1     -12.995  12.258  64.179  1.00  0.00    -0.721 OA 
ENDBRANCH   5   6
ENDBRANCH   2   5
TORSDOF 2
ENDMDL
MODEL       13
REMARK 921   NORMALIZED FREE ENERGY PREDICTED BY IDOCK:   -3.18 KCAL/MOL
REMARK 922        TOTAL FREE ENERGY PREDICTED BY IDOCK:   -3.83 KCAL/MOL
REMARK 923 INTER-LIGAND FREE ENERGY PREDICTED BY IDOCK:   -3.74 KCAL/MOL
REMARK 924 INTRA-LIGAND FREE ENERGY PREDICTED BY IDOCK:   -0.09 KCAL/MOL
REMARK 927      BINDING AFFINITY PREDICTED BY RF-SCORE:    0.00 PKD
ROOT
HETATM    1  N   UNL     1     -12.300  13.825  63.187  1.00  0.00    -1.106 NA 
HETATM    2  C   UNL     1     -12.144  14.590  64.416  1.00  0.00    -0.472 C  
HETATM    3  H1  UNL     1     -11.833  14.302  62.416  1.00  0.00     0.000 HD 
HETATM    4  H2  UNL     1     -13.280  13.632  62.980  1.00  0.00     0.000 HD 
ENDROOT
BRANCH   2   5
HETATM    5  C   UNL     1     -12.843  13.875  65.569  1.00  0.00    -0.471 C  
BRANCH   5   6
HETATM    6  C   UNL     1     -11.869  13.608  66.712  1.00  0.00    -0.452 C  
HETATM    7  C   UNL     1     -11.638  12.135  66.927  1.00  0.00    -0.341 C  
HETATM    8  O   UNL     1     -11.013  11.526  65.897  1.00  0.00    -0.284 OA 
HETATM    9  O   UNL     1     -11.953  11.541  67.946  1.00  0.00    -0.618 OA 
ENDBRANCH   5   6
ENDBRANCH   2   5
TORSDOF 2
ENDMDL
MODEL       14
REMARK 921   NORMALIZED FREE ENERGY PREDICTED BY IDOCK:   -3.18 KCAL/MOL
REMARK 922        TOTAL FREE ENERGY PREDICTED BY IDOCK:   -3.82 KCAL/MOL
REMARK 923 INTER-LIGAND FREE ENERGY PREDICTED BY IDOCK:   -3.61 KCAL/MOL
REMARK 924 INTRA-LIGAND FREE ENERGY PREDICTED BY IDOCK:   -0.21 KCAL/MOL
REMARK 927      BINDING AFFINITY PREDICTED BY RF-SCORE:    0.00 PKD
ROOT
HETATM    1  N   UNL     1     -12.526  13.731  63.091  1.00  0.00    -1.074 NA 
HETATM    2  C   UNL     1     -12.138  12.396  63.523  1.00  0.00    -0.558 C  
HETATM    3  H1  UNL     1     -12.717  13.732  62.090  1.00  0.00     0.000 HD 
HETATM    4  H2  UNL     1     -11.832  14.433  63.349  1.00  0.00     0.000 HD 
ENDROOT
BRANCH   2   5
HETATM    5  C   UNL     1     -11.852  12.394  65.023  1.00  0.00    -0.440 C  
BRANCH   5   6
HETATM    6  C   UNL     1     -12.640  13.494  65.727  1.00  0.00    -0.490 C  
HETATM    7  C   UNL     1     -11.738  14.552  66.309  1.00  0.00    -0.358 C  
HETATM    8  O   UNL     1     -11.061  15.261  65.380  1.00  0.00    -0.342 OA 
HETATM    9  O   UNL     1     -11.644  14.779  67.504  1.00  0.00    -0.347 OA 
ENDBRANCH   5   6
ENDBRANCH   2   5
TORSDOF 2
ENDMDL
MODEL       15
REMARK 921   NORMALIZED FREE ENERGY PREDICTED BY IDOCK:   -3.17 KCAL/MOL
REMARK 922        TOTAL FREE ENERGY PREDICTED BY IDOCK:   -3.81 KCAL/MOL
REMARK 923 INTER-LIGAND FREE ENERGY PREDICTED BY IDOCK:   -3.71 KCAL/MOL
REMARK 924 INTRA-LIGAND FREE ENERGY PREDICTED BY IDOCK:   -0.10 KCAL/MOL
REMARK 927      BINDING AFFINITY PREDICTED BY RF-SCORE:    0.00 PKD
ROOT
HETATM    1  N   UNL     1      -8.893  11.468  62.648  1.00  0.00    -0.605 NA 
HETATM    2  C   UNL     1     -10.082  11.159  63.431  1.00  0.00    -0.390 C  
HETATM    3  H1  UNL     1      -8.903  10.940  61.776  1.00  0.00     0.000 HD 
HETATM    4  H2  UNL     1      -8.036  11.313  63.179  1.00  0.00     0.000 HD 
ENDROOT
BRANCH   2   5
HETATM    5  C   UNL     1     -10.067  11.949  64.737  1.00  0.00    -0.295 C  
BRANCH   5   6
HETATM    6  C   UNL     1     -10.712  13.319  64.550  1.00  0.00    -0.428 C  
HETATM    7  C   UNL     1     -12.131  13.213  64.053  1.00  0.00    -0.446 C  
HETATM    8  O   UNL     1     -12.976  12.639  64.935  1.00  0.00    -0.830 OA 
HETATM    9  O   UNL     1     -12.502  13.632  62.968  1.00  0.00    -0.719 OA 
ENDBRANCH   5   6
ENDBRANCH   2   5
TORSDOF 2
ENDMDL
MODEL       16
REMARK 921   NORMALIZED FREE ENERGY PREDICTED BY IDOCK:   -3.15 KCAL/MOL
REMARK 922        TOTAL FREE ENERGY PREDICTED BY IDOCK:   -3.79 KCAL/MOL
REMARK 923 INTER-LIGAND FREE ENERGY PREDICTED BY IDOCK:   -3.68 KCAL/MOL
REMARK 924 INTRA-LIGAND FREE ENERGY PREDICTED BY IDOCK:   -0.11 KCAL/MOL
REMARK 927      BINDING AFFINITY PREDICTED BY RF-SCORE:    0.00 PKD
ROOT
HETATM    1  N   UNL     1     -11.343  11.289  63.088  1.00  0.00    -0.836 NA 
HETATM    2  C   UNL     1     -12.503  12.026  63.568  1.00  0.00    -0.540 C  
HETATM    3  H1  UNL     1     -11.624  10.361  62.774  1.00  0.00     0.000 HD 
HETATM    4  H2  UNL     1     -10.601  11.248  63.786  1.00  0.00     0.000 HD 
ENDROOT
BRANCH   2   5
HETATM    5  C   UNL     1     -12.082  13.416  64.039  1.00  0.00    -0.506 C  
BRANCH   5   6
HETATM    6  C   UNL     1     -12.534  13.663  65.474  1.00  0.00    -0.544 C  
HETATM    7  C   UNL     1     -11.673  12.932  66.472  1.00  0.00    -0.393 C  
HETATM    8  O   UNL     1     -10.397  13.371  66.515  1.00  0.00    -0.274 OA 
HETATM    9  O   UNL     1     -12.086  12.045  67.203  1.00  0.00    -0.587 OA 
ENDBRANCH   5   6
ENDBRANCH   2   5
TORSDOF 2
ENDMDL
MODEL       17
REMARK 921   NORMALIZED FREE ENERGY PREDICTED BY IDOCK:   -3.15 KCAL/MOL
REMARK 922        TOTAL FREE ENERGY PREDICTED BY IDOCK:   -3.79 KCAL/MOL
REMARK 923 INTER-LIGAND FREE ENERGY PREDICTED BY IDOCK:   -3.77 KCAL/MOL
REMARK 924 INTRA-LIGAND FREE ENERGY PREDICTED BY IDOCK:   -0.02 KCAL/MOL
REMARK 927      BINDING AFFINITY PREDICTED BY RF-SCORE:    0.00 PKD
ROOT
HETATM    1  N   UNL     1     -11.973  11.048  67.983  1.00  0.00    -0.761 NA 
HETATM    2  C   UNL     1     -11.628  12.377  67.498  1.00  0.00    -0.365 C  
HETATM    3  H1  UNL     1     -11.718  10.957  68.966  1.00  0.00     0.000 HD 
HETATM    4  H2  UNL     1     -11.558  10.313  67.410  1.00  0.00     0.000 HD 
ENDROOT
BRANCH   2   5
HETATM    5  C   UNL     1     -12.010  12.513  66.027  1.00  0.00    -0.456 C  
BRANCH   5   6
HETATM    6  C   UNL     1     -12.730  13.834  65.773  1.00  0.00    -0.494 C  
HETATM    7  C   UNL     1     -12.227  14.523  64.531  1.00  0.00    -0.465 C  
HETATM    8  O   UNL     1     -12.492  13.851  63.390  1.00  0.00    -0.833 OA 
HETATM    9  O   UNL     1     -11.659  15.603  64.538  1.00  0.00    -0.392 OA 
ENDBRANCH   5   6
ENDBRANCH   2   5
TORSDOF 2
ENDMDL
MODEL       18
REMARK 921   NORMALIZED FREE ENERGY PREDICTED BY IDOCK:   -3.11 KCAL/MOL
REMARK 922        TOTAL FREE ENERGY PREDICTED BY IDOCK:   -3.75 KCAL/MOL
REMARK 923 INTER-LIGAND FREE ENERGY PREDICTED BY IDOCK:   -3.46 KCAL/MOL
REMARK 924 INTRA-LIGAND FREE ENERGY PREDICTED BY IDOCK:   -0.29 KCAL/MOL
REMARK 927      BINDING AFFINITY PREDICTED BY RF-SCORE:    0.00 PKD
ROOT
HETATM    1  N   UNL     1     -10.141  10.558  64.837  1.00  0.00    -0.329 NA 
HETATM    2  C   UNL     1     -10.279  11.202  63.539  1.00  0.00    -0.390 C  
HETATM    3  H1  UNL     1      -9.252  10.061  64.889  1.00  0.00     0.000 HD 
HETATM    4  H2  UNL     1     -10.932   9.949  65.047  1.00  0.00     0.000 HD 
ENDROOT
BRANCH   2   5
HETATM    5  C   UNL     1     -11.609  11.945  63.462  1.00  0.00    -0.537 C  
BRANCH   5   6
HETATM    6  C   UNL     1     -11.534  13.272  64.211  1.00  0.00    -0.435 C  
HETATM    7  C   UNL     1     -12.419  13.283  65.431  1.00  0.00    -0.489 C  
HETATM    8  O   UNL     1     -12.036  12.413  66.389  1.00  0.00    -0.607 OA 
HETATM    9  O   UNL     1     -13.376  14.028  65.566  1.00  0.00    -0.673 OA 
ENDBRANCH   5   6
ENDBRANCH   2   5
TORSDOF 2
ENDMDL
MODEL       19
REMARK 921   NORMALIZED FREE ENERGY PREDICTED BY IDOCK:   -3.11 KCAL/MOL
REMARK 922        TOTAL FREE ENERGY PREDICTED BY IDOCK:   -3.74 KCAL/MOL
REMARK 923 INTER-LIGAND FREE ENERGY PREDICTED BY IDOCK:   -3.66 KCAL/MOL
REMARK 924 INTRA-LIGAND FREE ENERGY PREDICTED BY IDOCK:   -0.08 KCAL/MOL
REMARK 927      BINDING AFFINITY PREDICTED BY RF-SCORE:    0.00 PKD
ROOT
HETATM    1  N   UNL     1     -12.351  14.770  68.336  1.00  0.00    -0.593 NA 
HETATM    2  C   UNL     1     -12.306  14.315  69.718  1.00  0.00    -0.292 C  
HETATM    3  H1  UNL     1     -12.144  13.996  67.706  1.00  0.00     0.000 HD 
HETATM    4  H2  UNL     1     -11.735  15.568  68.177  1.00  0.00     0.000 HD 
ENDROOT
BRANCH   2   5
HETATM    5  C   UNL     1     -12.615  15.474  70.661  1.00  0.00    -0.493 C  
BRANCH   5   6
HETATM    6  C   UNL     1     -13.911  15.221  71.425  1.00  0.00    -0.601 C  
HETATM    7  C   UNL     1     -13.739  14.183  72.503  1.00  0.00    -0.522 C  
HETATM    8  O   UNL     1     -12.913  14.565  73.500  1.00  0.00    -0.551 OA 
HETATM    9  O   UNL     1     -14.313  13.106  72.504  1.00  0.00    -0.613 OA 
ENDBRANCH   5   6
ENDBRANCH   2   5
TORSDOF 2
ENDMDL
MODEL       20
REMARK 921   NORMALIZED FREE ENERGY PREDICTED BY IDOCK:   -3.11 KCAL/MOL
REMARK 922        TOTAL FREE ENERGY PREDICTED BY IDOCK:   -3.74 KCAL/MOL
REMARK 923 INTER-LIGAND FREE ENERGY PREDICTED BY IDOCK:   -3.46 KCAL/MOL
REMARK 924 INTRA-LIGAND FREE ENERGY PREDICTED BY IDOCK:   -0.28 KCAL/MOL
REMARK 927      BINDING AFFINITY PREDICTED BY RF-SCORE:    0.00 PKD
ROOT
HETATM    1  N   UNL     1     -11.922  14.922  67.812  1.00  0.00    -0.517 NA 
HETATM    2  C   UNL     1     -10.601  15.173  67.253  1.00  0.00    -0.286 C  
HETATM    3  H1  UNL     1     -12.039  15.443  68.680  1.00  0.00     0.000 HD 
HETATM    4  H2  UNL     1     -12.101  13.926  67.937  1.00  0.00     0.000 HD 
ENDROOT
BRANCH   2   5
HETATM    5  C   UNL     1     -10.425  14.393  65.954  1.00  0.00    -0.317 C  
BRANCH   5   6
HETATM    6  C   UNL     1     -11.189  15.060  64.814  1.00  0.00    -0.393 C  
HETATM    7  C   UNL     1     -12.357  14.226  64.352  1.00  0.00    -0.391 C  
HETATM    8  O   UNL     1     -13.328  14.089  65.279  1.00  0.00    -0.741 OA 
HETATM    9  O   UNL     1     -12.443  13.742  63.235  1.00  0.00    -0.819 OA 
ENDBRANCH   5   6
ENDBRANCH   2   5
TORSDOF 2
ENDMDL
MODEL       21
REMARK 921   NORMALIZED FREE ENERGY PREDICTED BY IDOCK:   -3.09 KCAL/MOL
REMARK 922        TOTAL FREE ENERGY PREDICTED BY IDOCK:   -3.73 KCAL/MOL
REMARK 923 INTER-LIGAND FREE ENERGY PREDICTED BY IDOCK:   -3.68 KCAL/MOL
REMARK 924 INTRA-LIGAND FREE ENERGY PREDICTED BY IDOCK:   -0.05 KCAL/MOL
REMARK 927      BINDING AFFINITY PREDICTED BY RF-SCORE:    0.00 PKD
ROOT
HETATM    1  N   UNL     1     -12.252  11.084  68.222  1.00  0.00    -0.736 NA 
HETATM    2  C   UNL     1     -11.772  12.441  68.442  1.00  0.00    -0.336 C  
HETATM    3  H1  UNL     1     -12.008  10.494  69.018  1.00  0.00     0.000 HD 
HETATM    4  H2  UNL     1     -11.914  10.697  67.341  1.00  0.00     0.000 HD 
ENDROOT
BRANCH   2   5
HETATM    5  C   UNL     1     -12.137  13.324  67.251  1.00  0.00    -0.341 C  
BRANCH   5   6
HETATM    6  C   UNL     1     -11.688  12.683  65.943  1.00  0.00    -0.470 C  
HETATM    7  C   UNL     1     -12.661  12.944  64.821  1.00  0.00    -0.425 C  
HETATM    8  O   UNL     1     -12.745  14.244  64.466  1.00  0.00    -0.662 OA 
HETATM    9  O   UNL     1     -13.295  12.068  64.256  1.00  0.00    -0.709 OA 
ENDBRANCH   5   6
ENDBRANCH   2   5
TORSDOF 2
ENDMDL
MODEL       22
REMARK 921   NORMALIZED FREE ENERGY PREDICTED BY IDOCK:   -3.09 KCAL/MOL
REMARK 922        TOTAL FREE ENERGY PREDICTED BY IDOCK:   -3.72 KCAL/MOL
REMARK 923 INTER-LIGAND FREE ENERGY PREDICTED BY IDOCK:   -3.67 KCAL/MOL
REMARK 924 INTRA-LIGAND FREE ENERGY PREDICTED BY IDOCK:   -0.06 KCAL/MOL
REMARK 927      BINDING AFFINITY PREDICTED BY RF-SCORE:    0.00 PKD
ROOT
HETATM    1  N   UNL     1     -10.570  11.001  62.785  1.00  0.00    -0.778 NA 
HETATM    2  C   UNL     1     -10.037  11.739  63.922  1.00  0.00    -0.368 C  
HETATM    3  H1  UNL     1     -10.108  11.299  61.927  1.00  0.00     0.000 HD 
HETATM    4  H2  UNL     1     -11.585  11.081  62.721  1.00  0.00     0.000 HD 
ENDROOT
BRANCH   2   5
HETATM    5  C   UNL     1     -10.729  11.293  65.207  1.00  0.00    -0.302 C  
BRANCH   5   6
HETATM    6  C   UNL     1     -11.701  12.360  65.699  1.00  0.00    -0.468 C  
HETATM    7  C   UNL     1     -12.524  12.936  64.575  1.00  0.00    -0.400 C  
HETATM    8  O   UNL     1     -13.369  12.048  64.008  1.00  0.00    -0.703 OA 
HETATM    9  O   UNL     1     -12.467  14.103  64.222  1.00  0.00    -0.650 OA 
ENDBRANCH   5   6
ENDBRANCH   2   5
TORSDOF 2
ENDMDL
MODEL       23
REMARK 921   NORMALIZED FREE ENERGY PREDICTED BY IDOCK:   -3.07 KCAL/MOL
REMARK 922        TOTAL FREE ENERGY PREDICTED BY IDOCK:   -3.71 KCAL/MOL
REMARK 923 INTER-LIGAND FREE ENERGY PREDICTED BY IDOCK:   -3.72 KCAL/MOL
REMARK 924 INTRA-LIGAND FREE ENERGY PREDICTED BY IDOCK:    0.01 KCAL/MOL
REMARK 927      BINDING AFFINITY PREDICTED BY RF-SCORE:    0.00 PKD
ROOT
HETATM    1  N   UNL     1     -11.858  11.778  67.391  1.00  0.00    -0.624 NA 
HETATM    2  C   UNL     1     -12.137  12.856  66.453  1.00  0.00    -0.329 C  
HETATM    3  H1  UNL     1     -12.707  11.524  67.895  1.00  0.00     0.000 HD 
HETATM    4  H2  UNL     1     -11.093  12.012  68.025  1.00  0.00     0.000 HD 
ENDROOT
BRANCH   2   5
HETATM    5  C   UNL     1     -10.866  13.237  65.700  1.00  0.00    -0.291 C  
BRANCH   5   6
HETATM    6  C   UNL     1     -10.883  12.669  64.285  1.00  0.00    -0.411 C  
HETATM    7  C   UNL     1     -12.238  12.798  63.639  1.00  0.00    -0.512 C  
HETATM    8  O   UNL     1     -12.616  14.075  63.418  1.00  0.00    -0.845 OA 
HETATM    9  O   UNL     1     -12.927  11.844  63.312  1.00  0.00    -0.707 OA 
ENDBRANCH   5   6
ENDBRANCH   2   5
TORSDOF 2
ENDMDL
MODEL       24
REMARK 921   NORMALIZED FREE ENERGY PREDICTED BY IDOCK:   -3.04 KCAL/MOL
REMARK 922        TOTAL FREE ENERGY PREDICTED BY IDOCK:   -3.67 KCAL/MOL
REMARK 923 INTER-LIGAND FREE ENERGY PREDICTED BY IDOCK:   -3.42 KCAL/MOL
REMARK 924 INTRA-LIGAND FREE ENERGY PREDICTED BY IDOCK:   -0.25 KCAL/MOL
REMARK 927      BINDING AFFINITY PREDICTED BY RF-SCORE:    0.00 PKD
ROOT
HETATM    1  N   UNL     1     -11.600  16.240  63.926  1.00  0.00    -1.573 NA 
HETATM    2  C   UNL     1     -12.390  15.032  64.123  1.00  0.00    -0.142 C  
HETATM    3  H1  UNL     1     -12.115  16.903  63.348  1.00  0.00     0.000 HD 
HETATM    4  H2  UNL     1     -10.678  16.034  63.544  1.00  0.00     0.000 HD 
ENDROOT
BRANCH   2   5
HETATM    5  C   UNL     1     -11.620  14.039  64.989  1.00  0.00    -0.351 C  
BRANCH   5   6
HETATM    6  C   UNL     1     -12.104  14.090  66.434  1.00  0.00    -0.483 C  
HETATM    7  C   UNL     1     -11.099  14.749  67.344  1.00  0.00    -0.324 C  
HETATM    8  O   UNL     1     -10.903  16.058  67.082  1.00  0.00    -0.310 OA 
HETATM    9  O   UNL     1     -10.531  14.171  68.258  1.00  0.00    -0.237 OA 
ENDBRANCH   5   6
ENDBRANCH   2   5
TORSDOF 2
ENDMDL
MODEL       25
REMARK 921   NORMALIZED FREE ENERGY PREDICTED BY IDOCK:   -3.04 KCAL/MOL
REMARK 922        TOTAL FREE ENERGY PREDICTED BY IDOCK:   -3.67 KCAL/MOL
REMARK 923 INTER-LIGAND FREE ENERGY PREDICTED BY IDOCK:   -3.65 KCAL/MOL
REMARK 924 INTRA-LIGAND FREE ENERGY PREDICTED BY IDOCK:   -0.02 KCAL/MOL
REMARK 927      BINDING AFFINITY PREDICTED BY RF-SCORE:    0.00 PKD
ROOT
HETATM    1  N   UNL     1     -12.262  14.310  68.304  1.00  0.00    -0.591 NA 
HETATM    2  C   UNL     1     -11.812  14.586  66.947  1.00  0.00    -0.377 C  
HETATM    3  H1  UNL     1     -11.802  14.941  68.960  1.00  0.00     0.000 HD 
HETATM    4  H2  UNL     1     -12.131  13.332  68.559  1.00  0.00     0.000 HD 
ENDROOT
BRANCH   2   5
HETATM    5  C   UNL     1     -12.501  13.641  65.966  1.00  0.00    -0.477 C  
BRANCH   5   6
HETATM    6  C   UNL     1     -12.074  13.943  64.532  1.00  0.00    -0.473 C  
HETATM    7  C   UNL     1     -11.959  12.691  63.701  1.00  0.00    -0.535 C  
HETATM    8  O   UNL     1     -13.136  12.060  63.502  1.00  0.00    -0.764 OA 
HETATM    9  O   UNL     1     -10.911  12.292  63.219  1.00  0.00    -0.432 OA 
ENDBRANCH   5   6
ENDBRANCH   2   5
TORSDOF 2
ENDMDL
MODEL       26
REMARK 921   NORMALIZED FREE ENERGY PREDICTED BY IDOCK:   -2.98 KCAL/MOL
REMARK 922        TOTAL FREE ENERGY PREDICTED BY IDOCK:   -3.61 KCAL/MOL
REMARK 923 INTER-LIGAND FREE ENERGY PREDICTED BY IDOCK:   -3.56 KCAL/MOL
REMARK 924 INTRA-LIGAND FREE ENERGY PREDICTED BY IDOCK:   -0.05 KCAL/MOL
REMARK 927      BINDING AFFINITY PREDICTED BY RF-SCORE:    0.00 PKD
ROOT
HETATM    1  N   UNL     1     -12.408  14.303  68.814  1.00  0.00    -0.573 NA 
HETATM    2  C   UNL     1     -11.953  14.377  67.433  1.00  0.00    -0.373 C  
HETATM    3  H1  UNL     1     -12.536  15.242  69.191  1.00  0.00     0.000 HD 
HETATM    4  H2  UNL     1     -11.784  13.740  69.392  1.00  0.00     0.000 HD 
ENDROOT
BRANCH   2   5
HETATM    5  C   UNL     1     -11.762  12.971  66.869  1.00  0.00    -0.441 C  
BRANCH   5   6
HETATM    6  C   UNL     1     -12.313  12.876  65.450  1.00  0.00    -0.538 C  
HETATM    7  C   UNL     1     -11.786  13.976  64.564  1.00  0.00    -0.434 C  
HETATM    8  O   UNL     1     -10.457  13.904  64.339  1.00  0.00    -0.397 OA 
HETATM    9  O   UNL     1     -12.490  14.838  64.063  1.00  0.00    -0.803 OA 
ENDBRANCH   5   6
ENDBRANCH   2   5
TORSDOF 2
ENDMDL
MODEL       27
REMARK 921   NORMALIZED FREE ENERGY PREDICTED BY IDOCK:   -2.97 KCAL/MOL
REMARK 922        TOTAL FREE ENERGY PREDICTED BY IDOCK:   -3.59 KCAL/MOL
REMARK 923 INTER-LIGAND FREE ENERGY PREDICTED BY IDOCK:   -3.57 KCAL/MOL
REMARK 924 INTRA-LIGAND FREE ENERGY PREDICTED BY IDOCK:   -0.02 KCAL/MOL
REMARK 927      BINDING AFFINITY PREDICTED BY RF-SCORE:    0.00 PKD
ROOT
HETATM    1  N   UNL     1     -14.248   8.924  73.235  1.00  0.00    -1.237 NA 
HETATM    2  C   UNL     1     -13.382   9.430  72.180  1.00  0.00    -0.468 C  
HETATM    3  H1  UNL     1     -15.058   9.533  73.345  1.00  0.00     0.000 HD 
HETATM    4  H2  UNL     1     -13.745   8.795  74.113  1.00  0.00     0.000 HD 
ENDROOT
BRANCH   2   5
HETATM    5  C   UNL     1     -12.169   8.519  72.016  1.00  0.00    -0.429 C  
BRANCH   5   6
HETATM    6  C   UNL     1     -12.577   7.174  71.422  1.00  0.00    -0.432 C  
HETATM    7  C   UNL     1     -11.456   6.538  70.640  1.00  0.00    -0.374 C  
HETATM    8  O   UNL     1     -10.396   6.184  71.398  1.00  0.00    -0.204 OA 
HETATM    9  O   UNL     1     -11.503   6.327  69.439  1.00  0.00    -0.427 OA 
ENDBRANCH   5   6
ENDBRANCH   2   5
TORSDOF 2
ENDMDL
MODEL       28
REMARK 921   NORMALIZED FREE ENERGY PREDICTED BY IDOCK:   -2.95 KCAL/MOL
REMARK 922        TOTAL FREE ENERGY PREDICTED BY IDOCK:   -3.57 KCAL/MOL
REMARK 923 INTER-LIGAND FREE ENERGY PREDICTED BY IDOCK:   -3.46 KCAL/MOL
REMARK 924 INTRA-LIGAND FREE ENERGY PREDICTED BY IDOCK:   -0.11 KCAL/MOL
REMARK 927      BINDING AFFINITY PREDICTED BY RF-SCORE:    0.00 PKD
ROOT
HETATM    1  N   UNL     1     -14.202   8.930  73.233  1.00  0.00    -1.237 NA 
HETATM    2  C   UNL     1     -13.825   8.875  71.828  1.00  0.00    -0.417 C  
HETATM    3  H1  UNL     1     -15.156   8.588  73.352  1.00  0.00     0.000 HD 
HETATM    4  H2  UNL     1     -14.080   9.863  73.626  1.00  0.00     0.000 HD 
ENDROOT
BRANCH   2   5
HETATM    5  C   UNL     1     -12.398   9.388  71.650  1.00  0.00    -0.465 C  
BRANCH   5   6
HETATM    6  C   UNL     1     -11.389   8.390  72.210  1.00  0.00    -0.448 C  
HETATM    7  C   UNL     1     -11.570   7.014  71.622  1.00  0.00    -0.285 C  
HETATM    8  O   UNL     1     -11.305   6.947  70.300  1.00  0.00    -0.293 OA 
HETATM    9  O   UNL     1     -11.893   6.035  72.277  1.00  0.00    -0.319 OA 
ENDBRANCH   5   6
ENDBRANCH   2   5
TORSDOF 2
ENDMDL
MODEL       29
REMARK 921   NORMALIZED FREE ENERGY PREDICTED BY IDOCK:   -2.94 KCAL/MOL
REMARK 922        TOTAL FREE ENERGY PREDICTED BY IDOCK:   -3.56 KCAL/MOL
REMARK 923 INTER-LIGAND FREE ENERGY PREDICTED BY IDOCK:   -3.48 KCAL/MOL
REMARK 924 INTRA-LIGAND FREE ENERGY PREDICTED BY IDOCK:   -0.08 KCAL/MOL
REMARK 927      BINDING AFFINITY PREDICTED BY RF-SCORE:    0.00 PKD
ROOT
HETATM    1  N   UNL     1     -13.100  16.249  74.283  1.00  0.00    -0.929 NA 
HETATM    2  C   UNL     1     -12.375  15.374  73.372  1.00  0.00    -0.506 C  
HETATM    3  H1  UNL     1     -12.458  16.915  74.712  1.00  0.00     0.000 HD 
HETATM    4  H2  UNL     1     -13.627  15.723  74.979  1.00  0.00     0.000 HD 
ENDROOT
BRANCH   2   5
HETATM    5  C   UNL     1     -13.337  14.378  72.729  1.00  0.00    -0.606 C  
BRANCH   5   6
HETATM    6  C   UNL     1     -13.416  14.596  71.222  1.00  0.00    -0.451 C  
HETATM    7  C   UNL     1     -12.196  14.070  70.509  1.00  0.00    -0.365 C  
HETATM    8  O   UNL     1     -12.061  12.728  70.578  1.00  0.00    -0.367 OA 
HETATM    9  O   UNL     1     -11.412  14.777  69.896  1.00  0.00    -0.257 OA 
ENDBRANCH   5   6
ENDBRANCH   2   5
TORSDOF 2
ENDMDL
MODEL       30
REMARK 921   NORMALIZED FREE ENERGY PREDICTED BY IDOCK:   -2.94 KCAL/MOL
REMARK 922        TOTAL FREE ENERGY PREDICTED BY IDOCK:   -3.55 KCAL/MOL
REMARK 923 INTER-LIGAND FREE ENERGY PREDICTED BY IDOCK:   -3.50 KCAL/MOL
REMARK 924 INTRA-LIGAND FREE ENERGY PREDICTED BY IDOCK:   -0.06 KCAL/MOL
REMARK 927      BINDING AFFINITY PREDICTED BY RF-SCORE:    0.00 PKD
ROOT
HETATM    1  N   UNL     1     -14.120   8.865  73.215  1.00  0.00    -1.248 NA 
HETATM    2  C   UNL     1     -14.103   8.513  71.802  1.00  0.00    -0.444 C  
HETATM    3  H1  UNL     1     -14.514   9.797  73.338  1.00  0.00     0.000 HD 
HETATM    4  H2  UNL     1     -13.197   8.781  73.640  1.00  0.00     0.000 HD 
ENDROOT
BRANCH   2   5
HETATM    5  C   UNL     1     -13.513   7.118  71.617  1.00  0.00    -0.397 C  
BRANCH   5   6
HETATM    6  C   UNL     1     -12.082   7.199  71.094  1.00  0.00    -0.397 C  
HETATM    7  C   UNL     1     -11.198   8.027  71.992  1.00  0.00    -0.298 C  
HETATM    8  O   UNL     1     -11.006   7.488  73.214  1.00  0.00    -0.393 OA 
HETATM    9  O   UNL     1     -10.673   9.074  71.647  1.00  0.00    -0.321 OA 
ENDBRANCH   5   6
ENDBRANCH   2   5
TORSDOF 2
ENDMDL
MODEL       31
REMARK 921   NORMALIZED FREE ENERGY PREDICTED BY IDOCK:   -2.93 KCAL/MOL
REMARK 922        TOTAL FREE ENERGY PREDICTED BY IDOCK:   -3.54 KCAL/MOL
REMARK 923 INTER-LIGAND FREE ENERGY PREDICTED BY IDOCK:   -3.45 KCAL/MOL
REMARK 924 INTRA-LIGAND FREE ENERGY PREDICTED BY IDOCK:   -0.09 KCAL/MOL
REMARK 927      BINDING AFFINITY PREDICTED BY RF-SCORE:    0.00 PKD
ROOT
HETATM    1  N   UNL     1      -8.894  11.714  65.565  1.00  0.00    -0.403 NA 
HETATM    2  C   UNL     1      -9.601  10.599  64.951  1.00  0.00    -0.269 C  
HETATM    3  H1  UNL     1      -8.278  11.374  66.302  1.00  0.00     0.000 HD 
HETATM    4  H2  UNL     1      -9.534  12.433  65.903  1.00  0.00     0.000 HD 
ENDROOT
BRANCH   2   5
HETATM    5  C   UNL     1     -10.524  11.109  63.847  1.00  0.00    -0.445 C  
BRANCH   5   6
HETATM    6  C   UNL     1     -10.668  12.626  63.919  1.00  0.00    -0.465 C  
HETATM    7  C   UNL     1     -12.106  13.050  64.070  1.00  0.00    -0.450 C  
HETATM    8  O   UNL     1     -12.665  12.674  65.240  1.00  0.00    -0.652 OA 
HETATM    9  O   UNL     1     -12.712  13.702  63.234  1.00  0.00    -0.765 OA 
ENDBRANCH   5   6
ENDBRANCH   2   5
TORSDOF 2
ENDMDL
MODEL       32
REMARK 921   NORMALIZED FREE ENERGY PREDICTED BY IDOCK:   -2.92 KCAL/MOL
REMARK 922        TOTAL FREE ENERGY PREDICTED BY IDOCK:   -3.54 KCAL/MOL
REMARK 923 INTER-LIGAND FREE ENERGY PREDICTED BY IDOCK:   -3.45 KCAL/MOL
REMARK 924 INTRA-LIGAND FREE ENERGY PREDICTED BY IDOCK:   -0.08 KCAL/MOL
REMARK 927      BINDING AFFINITY PREDICTED BY RF-SCORE:    0.00 PKD
ROOT
HETATM    1  N   UNL     1      -8.981  13.681  66.518  1.00  0.00    -0.449 NA 
HETATM    2  C   UNL     1      -9.956  14.734  66.272  1.00  0.00    -0.291 C  
HETATM    3  H1  UNL     1      -8.516  13.836  67.412  1.00  0.00     0.000 HD 
HETATM    4  H2  UNL     1      -8.314  13.593  65.751  1.00  0.00     0.000 HD 
ENDROOT
BRANCH   2   5
HETATM    5  C   UNL     1     -10.651  14.502  64.933  1.00  0.00    -0.450 C  
BRANCH   5   6
HETATM    6  C   UNL     1     -12.148  14.286  65.129  1.00  0.00    -0.410 C  
HETATM    7  C   UNL     1     -12.497  12.825  65.257  1.00  0.00    -0.465 C  
HETATM    8  O   UNL     1     -11.996  12.241  66.366  1.00  0.00    -0.589 OA 
HETATM    9  O   UNL     1     -13.194  12.223  64.456  1.00  0.00    -0.799 OA 
ENDBRANCH   5   6
ENDBRANCH   2   5
TORSDOF 2
ENDMDL
MODEL       33
REMARK 921   NORMALIZED FREE ENERGY PREDICTED BY IDOCK:   -2.92 KCAL/MOL
REMARK 922        TOTAL FREE ENERGY PREDICTED BY IDOCK:   -3.53 KCAL/MOL
REMARK 923 INTER-LIGAND FREE ENERGY PREDICTED BY IDOCK:   -3.49 KCAL/MOL
REMARK 924 INTRA-LIGAND FREE ENERGY PREDICTED BY IDOCK:   -0.03 KCAL/MOL
REMARK 927      BINDING AFFINITY PREDICTED BY RF-SCORE:    0.00 PKD
ROOT
HETATM    1  N   UNL     1      -9.781  13.615  67.947  1.00  0.00    -0.226 NA 
HETATM    2  C   UNL     1     -10.937  14.413  67.564  1.00  0.00    -0.293 C  
HETATM    3  H1  UNL     1     -10.063  12.876  68.590  1.00  0.00     0.000 HD 
HETATM    4  H2  UNL     1      -9.030  14.189  68.330  1.00  0.00     0.000 HD 
ENDROOT
BRANCH   2   5
HETATM    5  C   UNL     1     -10.514  15.518  66.601  1.00  0.00    -0.299 C  
BRANCH   5   6
HETATM    6  C   UNL     1     -10.483  15.004  65.165  1.00  0.00    -0.438 C  
HETATM    7  C   UNL     1     -11.596  15.585  64.332  1.00  0.00    -0.258 C  
HETATM    8  O   UNL     1     -11.494  16.918  64.140  1.00  0.00    -1.174 OA 
HETATM    9  O   UNL     1     -12.494  14.919  63.842  1.00  0.00    -0.806 OA 
ENDBRANCH   5   6
ENDBRANCH   2   5
TORSDOF 2
ENDMDL
MODEL       34
REMARK 921   NORMALIZED FREE ENERGY PREDICTED BY IDOCK:   -2.84 KCAL/MOL
REMARK 922        TOTAL FREE ENERGY PREDICTED BY IDOCK:   -3.45 KCAL/MOL
REMARK 923 INTER-LIGAND FREE ENERGY PREDICTED BY IDOCK:   -3.17 KCAL/MOL
REMARK 924 INTRA-LIGAND FREE ENERGY PREDICTED BY IDOCK:   -0.28 KCAL/MOL
REMARK 927      BINDING AFFINITY PREDICTED BY RF-SCORE:    0.00 PKD
ROOT
HETATM    1  N   UNL     1     -10.169  20.086  65.348  1.00  0.00    -0.338 NA 
HETATM    2  C   UNL     1     -10.055  19.876  66.785  1.00  0.00    -0.459 C  
HETATM    3  H1  UNL     1      -9.740  20.974  65.090  1.00  0.00     0.000 HD 
HETATM    4  H2  UNL     1     -11.135  20.021  65.028  1.00  0.00     0.000 HD 
ENDROOT
BRANCH   2   5
HETATM    5  C   UNL     1     -10.698  18.546  67.171  1.00  0.00    -0.396 C  
BRANCH   5   6
HETATM    6  C   UNL     1      -9.890  17.374  66.625  1.00  0.00    -0.300 C  
HETATM    7  C   UNL     1     -10.705  16.508  65.698  1.00  0.00    -0.248 C  
HETATM    8  O   UNL     1     -11.077  17.130  64.559  1.00  0.00    -1.105 OA 
HETATM    9  O   UNL     1     -10.982  15.342  65.930  1.00  0.00    -0.325 OA 
ENDBRANCH   5   6
ENDBRANCH   2   5
TORSDOF 2
ENDMDL
MODEL       35
REMARK 921   NORMALIZED FREE ENERGY PREDICTED BY IDOCK:   -2.82 KCAL/MOL
REMARK 922        TOTAL FREE ENERGY PREDICTED BY IDOCK:   -3.42 KCAL/MOL
REMARK 923 INTER-LIGAND FREE ENERGY PREDICTED BY IDOCK:   -3.34 KCAL/MOL
REMARK 924 INTRA-LIGAND FREE ENERGY PREDICTED BY IDOCK:   -0.08 KCAL/MOL
REMARK 927      BINDING AFFINITY PREDICTED BY RF-SCORE:    0.00 PKD
ROOT
HETATM    1  N   UNL     1     -10.993  17.421  64.828  1.00  0.00    -0.851 NA 
HETATM    2  C   UNL     1     -10.407  18.013  66.022  1.00  0.00    -0.331 C  
HETATM    3  H1  UNL     1     -10.942  16.404  64.880  1.00  0.00     0.000 HD 
HETATM    4  H2  UNL     1     -10.567  17.782  63.974  1.00  0.00     0.000 HD 
ENDROOT
BRANCH   2   5
HETATM    5  C   UNL     1     -10.483  19.535  65.943  1.00  0.00    -0.585 C  
BRANCH   5   6
HETATM    6  C   UNL     1     -10.158  20.165  67.293  1.00  0.00    -0.572 C  
HETATM    7  C   UNL     1      -8.763  19.828  67.753  1.00  0.00    -0.325 C  
HETATM    8  O   UNL     1      -7.791  20.349  66.974  1.00  0.00    -0.317 OA 
HETATM    9  O   UNL     1      -8.519  19.172  68.754  1.00  0.00    -0.362 OA 
ENDBRANCH   5   6
ENDBRANCH   2   5
TORSDOF 2
ENDMDL
MODEL       36
REMARK 921   NORMALIZED FREE ENERGY PREDICTED BY IDOCK:   -2.80 KCAL/MOL
REMARK 922        TOTAL FREE ENERGY PREDICTED BY IDOCK:   -3.40 KCAL/MOL
REMARK 923 INTER-LIGAND FREE ENERGY PREDICTED BY IDOCK:   -3.63 KCAL/MOL
REMARK 924 INTRA-LIGAND FREE ENERGY PREDICTED BY IDOCK:    0.23 KCAL/MOL
REMARK 927      BINDING AFFINITY PREDICTED BY RF-SCORE:    0.00 PKD
ROOT
HETATM    1  N   UNL     1     -14.189   8.860  73.208  1.00  0.00    -1.237 NA 
HETATM    2  C   UNL     1     -13.558   8.681  71.908  1.00  0.00    -0.410 C  
HETATM    3  H1  UNL     1     -15.203   8.889  73.104  1.00  0.00     0.000 HD 
HETATM    4  H2  UNL     1     -13.831   9.681  73.696  1.00  0.00     0.000 HD 
ENDROOT
BRANCH   2   5
HETATM    5  C   UNL     1     -12.041   8.638  72.064  1.00  0.00    -0.442 C  
BRANCH   5   6
HETATM    6  C   UNL     1     -11.374   9.687  71.180  1.00  0.00    -0.456 C  
HETATM    7  C   UNL     1     -12.356  10.721  70.692  1.00  0.00    -0.372 C  
HETATM    8  O   UNL     1     -12.871  11.490  71.675  1.00  0.00    -0.408 OA 
HETATM    9  O   UNL     1     -12.642  10.881  69.516  1.00  0.00    -0.304 OA 
ENDBRANCH   5   6
ENDBRANCH   2   5
TORSDOF 2
ENDMDL
MODEL       37
REMARK 921   NORMALIZED FREE ENERGY PREDICTED BY IDOCK:   -2.76 KCAL/MOL
REMARK 922        TOTAL FREE ENERGY PREDICTED BY IDOCK:   -3.36 KCAL/MOL
REMARK 923 INTER-LIGAND FREE ENERGY PREDICTED BY IDOCK:   -3.34 KCAL/MOL
REMARK 924 INTRA-LIGAND FREE ENERGY PREDICTED BY IDOCK:   -0.02 KCAL/MOL
REMARK 927      BINDING AFFINITY PREDICTED BY RF-SCORE:    0.00 PKD
ROOT
HETATM    1  N   UNL     1     -12.215  10.956  68.334  1.00  0.00    -0.810 NA 
HETATM    2  C   UNL     1     -11.902  11.561  69.621  1.00  0.00    -0.354 C  
HETATM    3  H1  UNL     1     -12.428  11.681  67.650  1.00  0.00     0.000 HD 
HETATM    4  H2  UNL     1     -12.964  10.267  68.408  1.00  0.00     0.000 HD 
ENDROOT
BRANCH   2   5
HETATM    5  C   UNL     1     -11.583  10.476  70.646  1.00  0.00    -0.445 C  
BRANCH   5   6
HETATM    6  C   UNL     1     -12.753  10.274  71.604  1.00  0.00    -0.561 C  
HETATM    7  C   UNL     1     -12.929   8.826  71.982  1.00  0.00    -0.390 C  
HETATM    8  O   UNL     1     -11.904   8.322  72.703  1.00  0.00    -0.401 OA 
HETATM    9  O   UNL     1     -13.917   8.167  71.699  1.00  0.00    -0.376 OA 
ENDBRANCH   5   6
ENDBRANCH   2   5
TORSDOF 2
ENDMDL
MODEL       38
REMARK 921   NORMALIZED FREE ENERGY PREDICTED BY IDOCK:   -2.74 KCAL/MOL
REMARK 922        TOTAL FREE ENERGY PREDICTED BY IDOCK:   -3.33 KCAL/MOL
REMARK 923 INTER-LIGAND FREE ENERGY PREDICTED BY IDOCK:   -3.05 KCAL/MOL
REMARK 924 INTRA-LIGAND FREE ENERGY PREDICTED BY IDOCK:   -0.28 KCAL/MOL
REMARK 927      BINDING AFFINITY PREDICTED BY RF-SCORE:    0.00 PKD
ROOT
HETATM    1  N   UNL     1      -8.905  11.291  65.113  1.00  0.00    -0.383 NA 
HETATM    2  C   UNL     1      -9.660  11.747  66.271  1.00  0.00    -0.225 C  
HETATM    3  H1  UNL     1      -8.416  10.424  65.334  1.00  0.00     0.000 HD 
HETATM    4  H2  UNL     1      -8.272  12.010  64.763  1.00  0.00     0.000 HD 
ENDROOT
BRANCH   2   5
HETATM    5  C   UNL     1     -10.393  13.044  65.940  1.00  0.00    -0.296 C  
BRANCH   5   6
HETATM    6  C   UNL     1     -11.793  12.756  65.408  1.00  0.00    -0.456 C  
HETATM    7  C   UNL     1     -11.902  13.019  63.928  1.00  0.00    -0.477 C  
HETATM    8  O   UNL     1     -11.153  12.189  63.171  1.00  0.00    -0.359 OA 
HETATM    9  O   UNL     1     -12.621  13.878  63.444  1.00  0.00    -0.853 OA 
ENDBRANCH   5   6
ENDBRANCH   2   5
TORSDOF 2
ENDMDL
MODEL       39
REMARK 921   NORMALIZED FREE ENERGY PREDICTED BY IDOCK:   -2.70 KCAL/MOL
REMARK 922        TOTAL FREE ENERGY PREDICTED BY IDOCK:   -3.29 KCAL/MOL
REMARK 923 INTER-LIGAND FREE ENERGY PREDICTED BY IDOCK:   -3.06 KCAL/MOL
REMARK 924 INTRA-LIGAND FREE ENERGY PREDICTED BY IDOCK:   -0.23 KCAL/MOL
REMARK 927      BINDING AFFINITY PREDICTED BY RF-SCORE:    0.00 PKD
ROOT
HETATM    1  N   UNL     1     -12.036  10.958  68.120  1.00  0.00    -0.796 NA 
HETATM    2  C   UNL     1     -10.863  11.691  68.576  1.00  0.00    -0.219 C  
HETATM    3  H1  UNL     1     -12.157  10.112  68.676  1.00  0.00     0.000 HD 
HETATM    4  H2  UNL     1     -11.995  10.756  67.121  1.00  0.00     0.000 HD 
ENDROOT
BRANCH   2   5
HETATM    5  C   UNL     1     -10.681  12.957  67.743  1.00  0.00    -0.238 C  
BRANCH   5   6
HETATM    6  C   UNL     1     -12.031  13.562  67.373  1.00  0.00    -0.398 C  
HETATM    7  C   UNL     1     -12.265  13.554  65.884  1.00  0.00    -0.460 C  
HETATM    8  O   UNL     1     -12.374  12.316  65.357  1.00  0.00    -0.582 OA 
HETATM    9  O   UNL     1     -12.380  14.566  65.211  1.00  0.00    -0.370 OA 
ENDBRANCH   5   6
ENDBRANCH   2   5
TORSDOF 2
ENDMDL
MODEL       40
REMARK 921   NORMALIZED FREE ENERGY PREDICTED BY IDOCK:   -2.69 KCAL/MOL
REMARK 922        TOTAL FREE ENERGY PREDICTED BY IDOCK:   -3.28 KCAL/MOL
REMARK 923 INTER-LIGAND FREE ENERGY PREDICTED BY IDOCK:   -3.24 KCAL/MOL
REMARK 924 INTRA-LIGAND FREE ENERGY PREDICTED BY IDOCK:   -0.04 KCAL/MOL
REMARK 927      BINDING AFFINITY PREDICTED BY RF-SCORE:    0.00 PKD
ROOT
HETATM    1  N   UNL     1     -14.193   8.874  73.184  1.00  0.00    -1.200 NA 
HETATM    2  C   UNL     1     -13.597   8.771  71.859  1.00  0.00    -0.424 C  
HETATM    3  H1  UNL     1     -15.210   8.865  73.111  1.00  0.00     0.000 HD 
HETATM    4  H2  UNL     1     -13.853   9.690  73.693  1.00  0.00     0.000 HD 
ENDROOT
BRANCH   2   5
HETATM    5  C   UNL     1     -12.075   8.785  71.967  1.00  0.00    -0.447 C  
BRANCH   5   6
HETATM    6  C   UNL     1     -11.477   9.867  71.073  1.00  0.00    -0.466 C  
HETATM    7  C   UNL     1     -10.311   9.353  70.267  1.00  0.00    -0.245 C  
HETATM    8  O   UNL     1     -10.648   8.413  69.360  1.00  0.00    -0.224 OA 
HETATM    9  O   UNL     1      -9.169   9.765  70.391  1.00  0.00    -0.237 OA 
ENDBRANCH   5   6
ENDBRANCH   2   5
TORSDOF 2
ENDMDL
MODEL       41
REMARK 921   NORMALIZED FREE ENERGY PREDICTED BY IDOCK:   -2.69 KCAL/MOL
REMARK 922        TOTAL FREE ENERGY PREDICTED BY IDOCK:   -3.28 KCAL/MOL
REMARK 923 INTER-LIGAND FREE ENERGY PREDICTED BY IDOCK:   -3.26 KCAL/MOL
REMARK 924 INTRA-LIGAND FREE ENERGY PREDICTED BY IDOCK:   -0.02 KCAL/MOL
REMARK 927      BINDING AFFINITY PREDICTED BY RF-SCORE:    0.00 PKD
ROOT
HETATM    1  N   UNL     1      -9.502  13.831  68.865  1.00  0.00    -0.408 NA 
HETATM    2  C   UNL     1     -10.853  14.211  68.475  1.00  0.00    -0.252 C  
HETATM    3  H1  UNL     1      -9.253  14.280  69.746  1.00  0.00     0.000 HD 
HETATM    4  H2  UNL     1      -8.823  14.029  68.130  1.00  0.00     0.000 HD 
ENDROOT
BRANCH   2   5
HETATM    5  C   UNL     1     -11.225  13.539  67.156  1.00  0.00    -0.324 C  
BRANCH   5   6
HETATM    6  C   UNL     1     -12.349  14.298  66.459  1.00  0.00    -0.345 C  
HETATM    7  C   UNL     1     -12.586  13.797  65.058  1.00  0.00    -0.389 C  
HETATM    8  O   UNL     1     -13.047  12.529  65.004  1.00  0.00    -0.765 OA 
HETATM    9  O   UNL     1     -12.413  14.474  64.057  1.00  0.00    -0.778 OA 
ENDBRANCH   5   6
ENDBRANCH   2   5
TORSDOF 2
ENDMDL
MODEL       42
REMARK 921   NORMALIZED FREE ENERGY PREDICTED BY IDOCK:   -2.68 KCAL/MOL
REMARK 922        TOTAL FREE ENERGY PREDICTED BY IDOCK:   -3.26 KCAL/MOL
REMARK 923 INTER-LIGAND FREE ENERGY PREDICTED BY IDOCK:   -3.23 KCAL/MOL
REMARK 924 INTRA-LIGAND FREE ENERGY PREDICTED BY IDOCK:   -0.03 KCAL/MOL
REMARK 927      BINDING AFFINITY PREDICTED BY RF-SCORE:    0.00 PKD
ROOT
HETATM    1  N   UNL     1     -11.140  12.555  63.108  1.00  0.00    -0.715 NA 
HETATM    2  C   UNL     1     -12.083  13.403  63.824  1.00  0.00    -0.456 C  
HETATM    3  H1  UNL     1     -10.926  12.961  62.198  1.00  0.00     0.000 HD 
HETATM    4  H2  UNL     1     -11.474  11.594  63.029  1.00  0.00     0.000 HD 
ENDROOT
BRANCH   2   5
HETATM    5  C   UNL     1     -12.404  12.794  65.186  1.00  0.00    -0.555 C  
BRANCH   5   6
HETATM    6  C   UNL     1     -11.201  12.037  65.739  1.00  0.00    -0.383 C  
HETATM    7  C   UNL     1     -11.130  12.108  67.243  1.00  0.00    -0.287 C  
HETATM    8  O   UNL     1     -12.150  11.480  67.866  1.00  0.00    -0.630 OA 
HETATM    9  O   UNL     1     -10.224  12.652  67.854  1.00  0.00    -0.209 OA 
ENDBRANCH   5   6
ENDBRANCH   2   5
TORSDOF 2
ENDMDL
MODEL       43
REMARK 921   NORMALIZED FREE ENERGY PREDICTED BY IDOCK:   -2.67 KCAL/MOL
REMARK 922        TOTAL FREE ENERGY PREDICTED BY IDOCK:   -3.26 KCAL/MOL
REMARK 923 INTER-LIGAND FREE ENERGY PREDICTED BY IDOCK:   -2.98 KCAL/MOL
REMARK 924 INTRA-LIGAND FREE ENERGY PREDICTED BY IDOCK:   -0.28 KCAL/MOL
REMARK 927      BINDING AFFINITY PREDICTED BY RF-SCORE:    0.00 PKD
ROOT
HETATM    1  N   UNL     1     -10.274  19.483  69.240  1.00  0.00    -0.608 NA 
HETATM    2  C   UNL     1     -10.226  20.361  68.079  1.00  0.00    -0.189 C  
HETATM    3  H1  UNL     1     -10.745  19.952  70.014  1.00  0.00     0.000 HD 
HETATM    4  H2  UNL     1      -9.348  19.147  69.503  1.00  0.00     0.000 HD 
ENDROOT
BRANCH   2   5
HETATM    5  C   UNL     1      -9.521  19.659  66.922  1.00  0.00    -0.456 C  
BRANCH   5   6
HETATM    6  C   UNL     1     -10.527  18.927  66.039  1.00  0.00    -0.507 C  
HETATM    7  C   UNL     1     -10.400  17.430  66.158  1.00  0.00    -0.327 C  
HETATM    8  O   UNL     1     -10.720  16.952  67.380  1.00  0.00    -0.316 OA 
HETATM    9  O   UNL     1     -10.071  16.702  65.235  1.00  0.00    -0.575 OA 
ENDBRANCH   5   6
ENDBRANCH   2   5
TORSDOF 2
ENDMDL
MODEL       44
REMARK 921   NORMALIZED FREE ENERGY PREDICTED BY IDOCK:   -2.62 KCAL/MOL
REMARK 922        TOTAL FREE ENERGY PREDICTED BY IDOCK:   -3.20 KCAL/MOL
REMARK 923 INTER-LIGAND FREE ENERGY PREDICTED BY IDOCK:   -2.92 KCAL/MOL
REMARK 924 INTRA-LIGAND FREE ENERGY PREDICTED BY IDOCK:   -0.28 KCAL/MOL
REMARK 927      BINDING AFFINITY PREDICTED BY RF-SCORE:    0.00 PKD
ROOT
HETATM    1  N   UNL     1     -11.366  16.523  63.902  1.00  0.00    -1.559 NA 
HETATM    2  C   UNL     1     -10.429  16.834  64.972  1.00  0.00     0.077 C  
HETATM    3  H1  UNL     1     -10.982  16.818  63.004  1.00  0.00     0.000 HD 
HETATM    4  H2  UNL     1     -12.288  16.925  64.074  1.00  0.00     0.000 HD 
ENDROOT
BRANCH   2   5
HETATM    5  C   UNL     1     -11.003  16.393  66.315  1.00  0.00     0.052 C  
BRANCH   5   6
HETATM    6  C   UNL     1     -10.695  14.923  66.581  1.00  0.00    -0.312 C  
HETATM    7  C   UNL     1     -11.943  14.079  66.609  1.00  0.00    -0.445 C  
HETATM    8  O   UNL     1     -12.579  14.008  65.420  1.00  0.00    -0.483 OA 
HETATM    9  O   UNL     1     -12.336  13.484  67.600  1.00  0.00    -0.248 OA 
ENDBRANCH   5   6
ENDBRANCH   2   5
TORSDOF 2
ENDMDL
MODEL       45
REMARK 921   NORMALIZED FREE ENERGY PREDICTED BY IDOCK:   -2.61 KCAL/MOL
REMARK 922        TOTAL FREE ENERGY PREDICTED BY IDOCK:   -3.19 KCAL/MOL
REMARK 923 INTER-LIGAND FREE ENERGY PREDICTED BY IDOCK:   -3.17 KCAL/MOL
REMARK 924 INTRA-LIGAND FREE ENERGY PREDICTED BY IDOCK:   -0.02 KCAL/MOL
REMARK 927      BINDING AFFINITY PREDICTED BY RF-SCORE:    0.00 PKD
ROOT
HETATM    1  N   UNL     1     -11.663   6.577  69.108  1.00  0.00    -0.565 NA 
HETATM    2  C   UNL     1     -11.249   6.678  70.501  1.00  0.00    -0.334 C  
HETATM    3  H1  UNL     1     -10.869   6.313  68.526  1.00  0.00     0.000 HD 
HETATM    4  H2  UNL     1     -12.110   7.433  68.780  1.00  0.00     0.000 HD 
ENDROOT
BRANCH   2   5
HETATM    5  C   UNL     1     -12.438   7.073  71.372  1.00  0.00    -0.426 C  
BRANCH   5   6
HETATM    6  C   UNL     1     -12.144   8.358  72.140  1.00  0.00    -0.435 C  
HETATM    7  C   UNL     1     -13.318   9.303  72.131  1.00  0.00    -0.468 C  
HETATM    8  O   UNL     1     -14.398   8.837  72.795  1.00  0.00    -0.569 OA 
HETATM    9  O   UNL     1     -13.298  10.404  71.605  1.00  0.00    -0.376 OA 
ENDBRANCH   5   6
ENDBRANCH   2   5
TORSDOF 2
ENDMDL
MODEL       46
REMARK 921   NORMALIZED FREE ENERGY PREDICTED BY IDOCK:   -2.61 KCAL/MOL
REMARK 922        TOTAL FREE ENERGY PREDICTED BY IDOCK:   -3.19 KCAL/MOL
REMARK 923 INTER-LIGAND FREE ENERGY PREDICTED BY IDOCK:   -3.16 KCAL/MOL
REMARK 924 INTRA-LIGAND FREE ENERGY PREDICTED BY IDOCK:   -0.03 KCAL/MOL
REMARK 927      BINDING AFFINITY PREDICTED BY RF-SCORE:    0.00 PKD
ROOT
HETATM    1  N   UNL     1     -12.296  10.703  68.990  1.00  0.00    -0.779 NA 
HETATM    2  C   UNL     1     -12.398  11.351  70.290  1.00  0.00    -0.297 C  
HETATM    3  H1  UNL     1     -12.152  11.402  68.261  1.00  0.00     0.000 HD 
HETATM    4  H2  UNL     1     -13.102  10.109  68.795  1.00  0.00     0.000 HD 
ENDROOT
BRANCH   2   5
HETATM    5  C   UNL     1     -12.614  10.304  71.380  1.00  0.00    -0.539 C  
BRANCH   5   6
HETATM    6  C   UNL     1     -11.427   9.350  71.458  1.00  0.00    -0.467 C  
HETATM    7  C   UNL     1     -11.752   8.106  72.245  1.00  0.00    -0.379 C  
HETATM    8  O   UNL     1     -12.686   7.323  71.664  1.00  0.00    -0.346 OA 
HETATM    9  O   UNL     1     -11.206   7.806  73.295  1.00  0.00    -0.350 OA 
ENDBRANCH   5   6
ENDBRANCH   2   5
TORSDOF 2
ENDMDL
MODEL       47
REMARK 921   NORMALIZED FREE ENERGY PREDICTED BY IDOCK:   -2.59 KCAL/MOL
REMARK 922        TOTAL FREE ENERGY PREDICTED BY IDOCK:   -3.17 KCAL/MOL
REMARK 923 INTER-LIGAND FREE ENERGY PREDICTED BY IDOCK:   -3.11 KCAL/MOL
REMARK 924 INTRA-LIGAND FREE ENERGY PREDICTED BY IDOCK:   -0.06 KCAL/MOL
REMARK 927      BINDING AFFINITY PREDICTED BY RF-SCORE:    0.00 PKD
ROOT
HETATM    1  N   UNL     1     -12.887  15.948  72.860  1.00  0.00    -0.455 NA 
HETATM    2  C   UNL     1     -13.740  15.556  71.747  1.00  0.00    -0.483 C  
HETATM    3  H1  UNL     1     -12.495  16.874  72.690  1.00  0.00     0.000 HD 
HETATM    4  H2  UNL     1     -12.162  15.255  73.048  1.00  0.00     0.000 HD 
ENDROOT
BRANCH   2   5
HETATM    5  C   UNL     1     -14.326  14.170  72.001  1.00  0.00    -0.599 C  
BRANCH   5   6
HETATM    6  C   UNL     1     -13.269  13.230  72.569  1.00  0.00    -0.484 C  
HETATM    7  C   UNL     1     -12.805  12.219  71.552  1.00  0.00    -0.280 C  
HETATM    8  O   UNL     1     -12.144  12.762  70.507  1.00  0.00    -0.367 OA 
HETATM    9  O   UNL     1     -12.975  11.016  71.667  1.00  0.00    -0.441 OA 
ENDBRANCH   5   6
ENDBRANCH   2   5
TORSDOF 2
ENDMDL
MODEL       48
REMARK 921   NORMALIZED FREE ENERGY PREDICTED BY IDOCK:   -2.57 KCAL/MOL
REMARK 922        TOTAL FREE ENERGY PREDICTED BY IDOCK:   -3.14 KCAL/MOL
REMARK 923 INTER-LIGAND FREE ENERGY PREDICTED BY IDOCK:   -2.94 KCAL/MOL
REMARK 924 INTRA-LIGAND FREE ENERGY PREDICTED BY IDOCK:   -0.20 KCAL/MOL
REMARK 927      BINDING AFFINITY PREDICTED BY RF-SCORE:    0.00 PKD
ROOT
HETATM    1  N   UNL     1     -10.131  18.290  65.962  1.00  0.00    -0.553 NA 
HETATM    2  C   UNL     1     -10.264  19.726  66.170  1.00  0.00    -0.516 C  
HETATM    3  H1  UNL     1     -10.528  18.030  65.060  1.00  0.00     0.000 HD 
HETATM    4  H2  UNL     1     -10.538  17.754  66.729  1.00  0.00     0.000 HD 
ENDROOT
BRANCH   2   5
HETATM    5  C   UNL     1      -9.670  20.116  67.520  1.00  0.00    -0.557 C  
BRANCH   5   6
HETATM    6  C   UNL     1      -8.154  19.947  67.515  1.00  0.00    -0.341 C  
HETATM    7  C   UNL     1      -7.676  19.100  68.666  1.00  0.00    -0.352 C  
HETATM    8  O   UNL     1      -8.088  17.815  68.605  1.00  0.00    -0.290 OA 
HETATM    9  O   UNL     1      -6.956  19.515  69.560  1.00  0.00    -0.331 OA 
ENDBRANCH   5   6
ENDBRANCH   2   5
TORSDOF 2
ENDMDL
MODEL       49
REMARK 921   NORMALIZED FREE ENERGY PREDICTED BY IDOCK:   -2.50 KCAL/MOL
REMARK 922        TOTAL FREE ENERGY PREDICTED BY IDOCK:   -3.06 KCAL/MOL
REMARK 923 INTER-LIGAND FREE ENERGY PREDICTED BY IDOCK:   -3.01 KCAL/MOL
REMARK 924 INTRA-LIGAND FREE ENERGY PREDICTED BY IDOCK:   -0.05 KCAL/MOL
REMARK 927      BINDING AFFINITY PREDICTED BY RF-SCORE:    0.00 PKD
ROOT
HETATM    1  N   UNL     1      -8.455  15.882  68.684  1.00  0.00    -0.188 NA 
HETATM    2  C   UNL     1      -8.380  15.048  67.492  1.00  0.00    -0.176 C  
HETATM    3  H1  UNL     1      -8.283  15.318  69.516  1.00  0.00     0.000 HD 
HETATM    4  H2  UNL     1      -9.339  16.388  68.741  1.00  0.00     0.000 HD 
ENDROOT
BRANCH   2   5
HETATM    5  C   UNL     1      -8.638  15.892  66.247  1.00  0.00    -0.348 C  
BRANCH   5   6
HETATM    6  C   UNL     1     -10.064  16.431  66.242  1.00  0.00    -0.346 C  
HETATM    7  C   UNL     1     -10.811  16.044  64.992  1.00  0.00    -0.404 C  
HETATM    8  O   UNL     1     -11.027  14.716  64.876  1.00  0.00    -0.374 OA 
HETATM    9  O   UNL     1     -11.217  16.848  64.169  1.00  0.00    -1.176 OA 
ENDBRANCH   5   6
ENDBRANCH   2   5
TORSDOF 2
ENDMDL
MODEL       50
REMARK 921   NORMALIZED FREE ENERGY PREDICTED BY IDOCK:   -2.46 KCAL/MOL
REMARK 922        TOTAL FREE ENERGY PREDICTED BY IDOCK:   -3.02 KCAL/MOL
REMARK 923 INTER-LIGAND FREE ENERGY PREDICTED BY IDOCK:   -2.97 KCAL/MOL
REMARK 924 INTRA-LIGAND FREE ENERGY PREDICTED BY IDOCK:   -0.05 KCAL/MOL
REMARK 927      BINDING AFFINITY PREDICTED BY RF-SCORE:    0.00 PKD
ROOT
HETATM    1  N   UNL     1     -12.290  14.132  68.786  1.00  0.00    -0.547 NA 
HETATM    2  C   UNL     1     -11.656  15.392  68.425  1.00  0.00    -0.354 C  
HETATM    3  H1  UNL     1     -13.210  14.307  69.188  1.00  0.00     0.000 HD 
HETATM    4  H2  UNL     1     -11.702  13.573  69.404  1.00  0.00     0.000 HD 
ENDROOT
BRANCH   2   5
HETATM    5  C   UNL     1     -10.278  15.131  67.822  1.00  0.00    -0.236 C  
BRANCH   5   6
HETATM    6  C   UNL     1     -10.365  15.000  66.305  1.00  0.00    -0.304 C  
HETATM    7  C   UNL     1     -10.063  16.301  65.607  1.00  0.00    -0.312 C  
HETATM    8  O   UNL     1      -8.790  16.722  65.766  1.00  0.00    -0.505 OA 
HETATM    9  O   UNL     1     -10.876  16.911  64.931  1.00  0.00    -0.715 OA 
ENDBRANCH   5   6
ENDBRANCH   2   5
TORSDOF 2
ENDMDL
MODEL       51
REMARK 921   NORMALIZED FREE ENERGY PREDICTED BY IDOCK:   -2.46 KCAL/MOL
REMARK 922        TOTAL FREE ENERGY PREDICTED BY IDOCK:   -3.02 KCAL/MOL
REMARK 923 INTER-LIGAND FREE ENERGY PREDICTED BY IDOCK:   -2.98 KCAL/MOL
REMARK 924 INTRA-LIGAND FREE ENERGY PREDICTED BY IDOCK:   -0.04 KCAL/MOL
REMARK 927      BINDING AFFINITY PREDICTED BY RF-SCORE:    0.00 PKD
ROOT
HETATM    1  N   UNL     1     -12.122   7.436  72.764  1.00  0.00    -0.541 NA 
HETATM    2  C   UNL     1     -10.852   7.902  72.226  1.00  0.00    -0.293 C  
HETATM    3  H1  UNL     1     -11.993   6.544  73.242  1.00  0.00     0.000 HD 
HETATM    4  H2  UNL     1     -12.845   7.383  72.046  1.00  0.00     0.000 HD 
ENDROOT
BRANCH   2   5
HETATM    5  C   UNL     1     -11.045   9.236  71.509  1.00  0.00    -0.443 C  
BRANCH   5   6
HETATM    6  C   UNL     1     -12.527   9.578  71.390  1.00  0.00    -0.450 C  
HETATM    7  C   UNL     1     -12.761  11.066  71.341  1.00  0.00    -0.429 C  
HETATM    8  O   UNL     1     -12.261  11.660  70.237  1.00  0.00    -0.331 OA 
HETATM    9  O   UNL     1     -13.374  11.684  72.198  1.00  0.00    -0.491 OA 
ENDBRANCH   5   6
ENDBRANCH   2   5
TORSDOF 2
ENDMDL
MODEL       52
REMARK 921   NORMALIZED FREE ENERGY PREDICTED BY IDOCK:   -2.44 KCAL/MOL
REMARK 922        TOTAL FREE ENERGY PREDICTED BY IDOCK:   -3.00 KCAL/MOL
REMARK 923 INTER-LIGAND FREE ENERGY PREDICTED BY IDOCK:   -2.93 KCAL/MOL
REMARK 924 INTRA-LIGAND FREE ENERGY PREDICTED BY IDOCK:   -0.06 KCAL/MOL
REMARK 927      BINDING AFFINITY PREDICTED BY RF-SCORE:    0.00 PKD
ROOT
HETATM    1  N   UNL     1     -13.029  10.109  70.216  1.00  0.00    -0.577 NA 
HETATM    2  C   UNL     1     -12.652   9.875  71.602  1.00  0.00    -0.424 C  
HETATM    3  H1  UNL     1     -12.390  10.779  69.788  1.00  0.00     0.000 HD 
HETATM    4  H2  UNL     1     -14.003  10.400  70.129  1.00  0.00     0.000 HD 
ENDROOT
BRANCH   2   5
HETATM    5  C   UNL     1     -13.608   8.873  72.243  1.00  0.00    -0.513 C  
BRANCH   5   6
HETATM    6  C   UNL     1     -13.674   7.587  71.426  1.00  0.00    -0.414 C  
HETATM    7  C   UNL     1     -12.321   6.938  71.283  1.00  0.00    -0.375 C  
HETATM    8  O   UNL     1     -11.807   6.488  72.448  1.00  0.00    -0.269 OA 
HETATM    9  O   UNL     1     -11.746   6.797  70.215  1.00  0.00    -0.363 OA 
ENDBRANCH   5   6
ENDBRANCH   2   5
TORSDOF 2
ENDMDL
MODEL       53
REMARK 921   NORMALIZED FREE ENERGY PREDICTED BY IDOCK:   -2.43 KCAL/MOL
REMARK 922        TOTAL FREE ENERGY PREDICTED BY IDOCK:   -2.99 KCAL/MOL
REMARK 923 INTER-LIGAND FREE ENERGY PREDICTED BY IDOCK:   -2.96 KCAL/MOL
REMARK 924 INTRA-LIGAND FREE ENERGY PREDICTED BY IDOCK:   -0.02 KCAL/MOL
REMARK 927      BINDING AFFINITY PREDICTED BY RF-SCORE:    0.00 PKD
ROOT
HETATM    1  N   UNL     1     -12.557  15.969  71.445  1.00  0.00    -0.559 NA 
HETATM    2  C   UNL     1     -11.582  15.029  70.909  1.00  0.00    -0.319 C  
HETATM    3  H1  UNL     1     -12.122  16.555  72.157  1.00  0.00     0.000 HD 
HETATM    4  H2  UNL     1     -13.390  15.496  71.795  1.00  0.00     0.000 HD 
ENDROOT
BRANCH   2   5
HETATM    5  C   UNL     1     -12.234  14.152  69.843  1.00  0.00    -0.416 C  
BRANCH   5   6
HETATM    6  C   UNL     1     -11.179  13.379  69.058  1.00  0.00    -0.323 C  
HETATM    7  C   UNL     1     -11.687  12.939  67.709  1.00  0.00    -0.362 C  
HETATM    8  O   UNL     1     -11.951  13.961  66.867  1.00  0.00    -0.396 OA 
HETATM    9  O   UNL     1     -11.822  11.770  67.384  1.00  0.00    -0.590 OA 
ENDBRANCH   5   6
ENDBRANCH   2   5
TORSDOF 2
ENDMDL
MODEL       54
REMARK 921   NORMALIZED FREE ENERGY PREDICTED BY IDOCK:   -2.40 KCAL/MOL
REMARK 922        TOTAL FREE ENERGY PREDICTED BY IDOCK:   -2.95 KCAL/MOL
REMARK 923 INTER-LIGAND FREE ENERGY PREDICTED BY IDOCK:   -2.83 KCAL/MOL
REMARK 924 INTRA-LIGAND FREE ENERGY PREDICTED BY IDOCK:   -0.12 KCAL/MOL
REMARK 927      BINDING AFFINITY PREDICTED BY RF-SCORE:    0.00 PKD
ROOT
HETATM    1  N   UNL     1     -10.408  19.663  68.912  1.00  0.00    -0.585 NA 
HETATM    2  C   UNL     1      -9.119  19.713  68.236  1.00  0.00    -0.334 C  
HETATM    3  H1  UNL     1     -10.945  20.504  68.702  1.00  0.00     0.000 HD 
HETATM    4  H2  UNL     1     -10.307  19.514  69.916  1.00  0.00     0.000 HD 
ENDROOT
BRANCH   2   5
HETATM    5  C   UNL     1      -8.315  18.455  68.550  1.00  0.00    -0.344 C  
BRANCH   5   6
HETATM    6  C   UNL     1      -8.938  17.232  67.885  1.00  0.00    -0.235 C  
HETATM    7  C   UNL     1      -9.065  17.403  66.393  1.00  0.00    -0.248 C  
HETATM    8  O   UNL     1      -7.880  17.480  65.751  1.00  0.00    -0.544 OA 
HETATM    9  O   UNL     1     -10.133  17.437  65.803  1.00  0.00    -0.544 OA 
ENDBRANCH   5   6
ENDBRANCH   2   5
TORSDOF 2
ENDMDL
MODEL       55
REMARK 921   NORMALIZED FREE ENERGY PREDICTED BY IDOCK:   -2.40 KCAL/MOL
REMARK 922        TOTAL FREE ENERGY PREDICTED BY IDOCK:   -2.95 KCAL/MOL
REMARK 923 INTER-LIGAND FREE ENERGY PREDICTED BY IDOCK:   -2.70 KCAL/MOL
REMARK 924 INTRA-LIGAND FREE ENERGY PREDICTED BY IDOCK:   -0.25 KCAL/MOL
REMARK 927      BINDING AFFINITY PREDICTED BY RF-SCORE:    0.00 PKD
ROOT
HETATM    1  N   UNL     1      -8.193  20.505  66.517  1.00  0.00    -0.538 NA 
HETATM    2  C   UNL     1      -7.322  20.053  67.594  1.00  0.00    -0.288 C  
HETATM    3  H1  UNL     1      -7.692  21.152  65.910  1.00  0.00     0.000 HD 
HETATM    4  H2  UNL     1      -9.061  20.908  66.872  1.00  0.00     0.000 HD 
ENDROOT
BRANCH   2   5
HETATM    5  C   UNL     1      -8.073  19.085  68.503  1.00  0.00    -0.385 C  
BRANCH   5   6
HETATM    6  C   UNL     1      -8.808  18.029  67.683  1.00  0.00    -0.254 C  
HETATM    7  C   UNL     1     -10.292  18.040  67.947  1.00  0.00    -0.392 C  
HETATM    8  O   UNL     1     -10.909  19.170  67.540  1.00  0.00    -0.473 OA 
HETATM    9  O   UNL     1     -10.897  17.107  68.450  1.00  0.00    -0.367 OA 
ENDBRANCH   5   6
ENDBRANCH   2   5
TORSDOF 2
ENDMDL
MODEL       56
REMARK 921   NORMALIZED FREE ENERGY PREDICTED BY IDOCK:   -2.35 KCAL/MOL
REMARK 922        TOTAL FREE ENERGY PREDICTED BY IDOCK:   -2.90 KCAL/MOL
REMARK 923 INTER-LIGAND FREE ENERGY PREDICTED BY IDOCK:   -2.73 KCAL/MOL
REMARK 924 INTRA-LIGAND FREE ENERGY PREDICTED BY IDOCK:   -0.17 KCAL/MOL
REMARK 927      BINDING AFFINITY PREDICTED BY RF-SCORE:    0.00 PKD
ROOT
HETATM    1  N   UNL     1      -9.900  20.410  66.192  1.00  0.00    -0.638 NA 
HETATM    2  C   UNL     1     -10.703  19.561  67.060  1.00  0.00    -0.477 C  
HETATM    3  H1  UNL     1     -10.504  20.941  65.566  1.00  0.00     0.000 HD 
HETATM    4  H2  UNL     1      -9.195  19.877  65.682  1.00  0.00     0.000 HD 
ENDROOT
BRANCH   2   5
HETATM    5  C   UNL     1      -9.799  18.765  67.997  1.00  0.00    -0.386 C  
BRANCH   5   6
HETATM    6  C   UNL     1      -8.338  19.163  67.808  1.00  0.00    -0.325 C  
HETATM    7  C   UNL     1      -7.556  18.107  67.070  1.00  0.00    -0.214 C  
HETATM    8  O   UNL     1      -7.952  17.930  65.791  1.00  0.00    -0.540 OA 
HETATM    9  O   UNL     1      -6.627  17.485  67.560  1.00  0.00    -0.149 OA 
ENDBRANCH   5   6
ENDBRANCH   2   5
TORSDOF 2
ENDMDL
MODEL       57
REMARK 921   NORMALIZED FREE ENERGY PREDICTED BY IDOCK:   -2.35 KCAL/MOL
REMARK 922        TOTAL FREE ENERGY PREDICTED BY IDOCK:   -2.90 KCAL/MOL
REMARK 923 INTER-LIGAND FREE ENERGY PREDICTED BY IDOCK:   -2.82 KCAL/MOL
REMARK 924 INTRA-LIGAND FREE ENERGY PREDICTED BY IDOCK:   -0.08 KCAL/MOL
REMARK 927      BINDING AFFINITY PREDICTED BY RF-SCORE:    0.00 PKD
ROOT
HETATM    1  N   UNL     1     -12.202  10.769  68.589  1.00  0.00    -0.827 NA 
HETATM    2  C   UNL     1     -11.488  11.196  69.785  1.00  0.00    -0.312 C  
HETATM    3  H1  UNL     1     -11.669  11.019  67.756  1.00  0.00     0.000 HD 
HETATM    4  H2  UNL     1     -13.152  11.138  68.559  1.00  0.00     0.000 HD 
ENDROOT
BRANCH   2   5
HETATM    5  C   UNL     1     -12.287  10.822  71.031  1.00  0.00    -0.509 C  
BRANCH   5   6
HETATM    6  C   UNL     1     -12.465   9.311  71.128  1.00  0.00    -0.341 C  
HETATM    7  C   UNL     1     -11.147   8.582  71.085  1.00  0.00    -0.260 C  
HETATM    8  O   UNL     1     -10.355   8.826  72.151  1.00  0.00    -0.331 OA 
HETATM    9  O   UNL     1     -10.826   7.814  70.192  1.00  0.00    -0.242 OA 
ENDBRANCH   5   6
ENDBRANCH   2   5
TORSDOF 2
ENDMDL
MODEL       58
REMARK 921   NORMALIZED FREE ENERGY PREDICTED BY IDOCK:   -2.35 KCAL/MOL
REMARK 922        TOTAL FREE ENERGY PREDICTED BY IDOCK:   -2.89 KCAL/MOL
REMARK 923 INTER-LIGAND FREE ENERGY PREDICTED BY IDOCK:   -2.83 KCAL/MOL
REMARK 924 INTRA-LIGAND FREE ENERGY PREDICTED BY IDOCK:   -0.06 KCAL/MOL
REMARK 927      BINDING AFFINITY PREDICTED BY RF-SCORE:    0.00 PKD
ROOT
HETATM    1  N   UNL     1     -10.684  18.164  67.567  1.00  0.00    -0.397 NA 
HETATM    2  C   UNL     1     -10.832  19.533  67.095  1.00  0.00    -0.437 C  
HETATM    3  H1  UNL     1     -11.535  17.635  67.377  1.00  0.00     0.000 HD 
HETATM    4  H2  UNL     1     -10.422  18.125  68.552  1.00  0.00     0.000 HD 
ENDROOT
BRANCH   2   5
HETATM    5  C   UNL     1      -9.559  20.325  67.379  1.00  0.00    -0.569 C  
BRANCH   5   6
HETATM    6  C   UNL     1      -8.361  19.392  67.523  1.00  0.00    -0.326 C  
HETATM    7  C   UNL     1      -7.657  19.169  66.209  1.00  0.00    -0.274 C  
HETATM    8  O   UNL     1      -7.072  20.279  65.710  1.00  0.00    -0.283 OA 
HETATM    9  O   UNL     1      -7.586  18.084  65.653  1.00  0.00    -0.545 OA 
ENDBRANCH   5   6
ENDBRANCH   2   5
TORSDOF 2
ENDMDL
MODEL       59
REMARK 921   NORMALIZED FREE ENERGY PREDICTED BY IDOCK:   -2.33 KCAL/MOL
REMARK 922        TOTAL FREE ENERGY PREDICTED BY IDOCK:   -2.87 KCAL/MOL
REMARK 923 INTER-LIGAND FREE ENERGY PREDICTED BY IDOCK:   -2.86 KCAL/MOL
REMARK 924 INTRA-LIGAND FREE ENERGY PREDICTED BY IDOCK:   -0.02 KCAL/MOL
REMARK 927      BINDING AFFINITY PREDICTED BY RF-SCORE:    0.00 PKD
ROOT
HETATM    1  N   UNL     1     -12.830  12.974  64.752  1.00  0.00    -0.745 NA 
HETATM    2  C   UNL     1     -12.201  14.197  64.275  1.00  0.00    -0.420 C  
HETATM    3  H1  UNL     1     -13.508  12.640  64.068  1.00  0.00     0.000 HD 
HETATM    4  H2  UNL     1     -13.247  13.095  65.675  1.00  0.00     0.000 HD 
ENDROOT
BRANCH   2   5
HETATM    5  C   UNL     1     -11.186  14.698  65.300  1.00  0.00    -0.358 C  
BRANCH   5   6
HETATM    6  C   UNL     1     -10.907  16.185  65.105  1.00  0.00    -0.376 C  
HETATM    7  C   UNL     1      -9.906  16.707  66.103  1.00  0.00    -0.318 C  
HETATM    8  O   UNL     1      -8.670  16.183  65.960  1.00  0.00    -0.331 OA 
HETATM    9  O   UNL     1     -10.167  17.551  66.946  1.00  0.00    -0.309 OA 
ENDBRANCH   5   6
ENDBRANCH   2   5
TORSDOF 2
ENDMDL
MODEL       60
REMARK 921   NORMALIZED FREE ENERGY PREDICTED BY IDOCK:   -2.33 KCAL/MOL
REMARK 922        TOTAL FREE ENERGY PREDICTED BY IDOCK:   -2.87 KCAL/MOL
REMARK 923 INTER-LIGAND FREE ENERGY PREDICTED BY IDOCK:   -2.79 KCAL/MOL
REMARK 924 INTRA-LIGAND FREE ENERGY PREDICTED BY IDOCK:   -0.09 KCAL/MOL
REMARK 927      BINDING AFFINITY PREDICTED BY RF-SCORE:    0.00 PKD
ROOT
HETATM    1  N   UNL     1     -12.138  11.521  68.979  1.00  0.00    -0.382 NA 
HETATM    2  C   UNL     1     -11.499  12.809  69.209  1.00  0.00    -0.289 C  
HETATM    3  H1  UNL     1     -11.458  10.852  68.620  1.00  0.00     0.000 HD 
HETATM    4  H2  UNL     1     -12.952  11.603  68.369  1.00  0.00     0.000 HD 
ENDROOT
BRANCH   2   5
HETATM    5  C   UNL     1     -12.518  13.811  69.745  1.00  0.00    -0.216 C  
BRANCH   5   6
HETATM    6  C   UNL     1     -12.164  14.236  71.167  1.00  0.00    -0.431 C  
HETATM    7  C   UNL     1     -13.276  13.935  72.140  1.00  0.00    -0.444 C  
HETATM    8  O   UNL     1     -13.512  12.617  72.306  1.00  0.00    -0.561 OA 
HETATM    9  O   UNL     1     -13.891  14.794  72.751  1.00  0.00    -0.462 OA 
ENDBRANCH   5   6
ENDBRANCH   2   5
TORSDOF 2
ENDMDL
MODEL       61
REMARK 921   NORMALIZED FREE ENERGY PREDICTED BY IDOCK:   -2.32 KCAL/MOL
REMARK 922        TOTAL FREE ENERGY PREDICTED BY IDOCK:   -2.86 KCAL/MOL
REMARK 923 INTER-LIGAND FREE ENERGY PREDICTED BY IDOCK:   -2.60 KCAL/MOL
REMARK 924 INTRA-LIGAND FREE ENERGY PREDICTED BY IDOCK:   -0.27 KCAL/MOL
REMARK 927      BINDING AFFINITY PREDICTED BY RF-SCORE:    0.00 PKD
ROOT
HETATM    1  N   UNL     1      -9.615   9.006  71.265  1.00  0.00    -0.284 NA 
HETATM    2  C   UNL     1      -9.671   7.808  72.092  1.00  0.00    -0.185 C  
HETATM    3  H1  UNL     1      -8.763   9.005  70.706  1.00  0.00     0.000 HD 
HETATM    4  H2  UNL     1      -9.709   9.857  71.819  1.00  0.00     0.000 HD 
ENDROOT
BRANCH   2   5
HETATM    5  C   UNL     1     -10.947   7.809  72.928  1.00  0.00    -0.467 C  
BRANCH   5   6
HETATM    6  C   UNL     1     -12.181   7.882  72.035  1.00  0.00    -0.357 C  
HETATM    7  C   UNL     1     -13.029   9.090  72.340  1.00  0.00    -0.405 C  
HETATM    8  O   UNL     1     -12.426  10.264  72.058  1.00  0.00    -0.326 OA 
HETATM    9  O   UNL     1     -14.169   9.026  72.772  1.00  0.00    -0.572 OA 
ENDBRANCH   5   6
ENDBRANCH   2   5
TORSDOF 2
ENDMDL
MODEL       62
REMARK 921   NORMALIZED FREE ENERGY PREDICTED BY IDOCK:   -2.31 KCAL/MOL
REMARK 922        TOTAL FREE ENERGY PREDICTED BY IDOCK:   -2.86 KCAL/MOL
REMARK 923 INTER-LIGAND FREE ENERGY PREDICTED BY IDOCK:   -2.82 KCAL/MOL
REMARK 924 INTRA-LIGAND FREE ENERGY PREDICTED BY IDOCK:   -0.04 KCAL/MOL
REMARK 927      BINDING AFFINITY PREDICTED BY RF-SCORE:    0.00 PKD
ROOT
HETATM    1  N   UNL     1     -10.966  14.596  70.351  1.00  0.00    -0.486 NA 
HETATM    2  C   UNL     1     -11.251  16.001  70.098  1.00  0.00    -0.373 C  
HETATM    3  H1  UNL     1     -10.811  14.445  71.348  1.00  0.00     0.000 HD 
HETATM    4  H2  UNL     1     -10.187  14.257  69.787  1.00  0.00     0.000 HD 
ENDROOT
BRANCH   2   5
HETATM    5  C   UNL     1     -11.482  16.227  68.606  1.00  0.00    -0.288 C  
BRANCH   5   6
HETATM    6  C   UNL     1     -10.207  16.717  67.928  1.00  0.00    -0.300 C  
HETATM    7  C   UNL     1     -10.476  17.848  66.969  1.00  0.00    -0.340 C  
HETATM    8  O   UNL     1     -10.910  18.978  67.567  1.00  0.00    -0.463 OA 
HETATM    9  O   UNL     1     -10.291  17.774  65.764  1.00  0.00    -0.570 OA 
ENDBRANCH   5   6
ENDBRANCH   2   5
TORSDOF 2
ENDMDL
MODEL       63
REMARK 921   NORMALIZED FREE ENERGY PREDICTED BY IDOCK:   -2.28 KCAL/MOL
REMARK 922        TOTAL FREE ENERGY PREDICTED BY IDOCK:   -2.82 KCAL/MOL
REMARK 923 INTER-LIGAND FREE ENERGY PREDICTED BY IDOCK:   -2.70 KCAL/MOL
REMARK 924 INTRA-LIGAND FREE ENERGY PREDICTED BY IDOCK:   -0.12 KCAL/MOL
REMARK 927      BINDING AFFINITY PREDICTED BY RF-SCORE:    0.00 PKD
ROOT
HETATM    1  N   UNL     1     -11.447  15.270  68.551  1.00  0.00    -0.327 NA 
HETATM    2  C   UNL     1     -12.009  13.927  68.576  1.00  0.00    -0.359 C  
HETATM    3  H1  UNL     1     -12.175  15.957  68.743  1.00  0.00     0.000 HD 
HETATM    4  H2  UNL     1     -10.960  15.464  67.676  1.00  0.00     0.000 HD 
ENDROOT
BRANCH   2   5
HETATM    5  C   UNL     1     -10.919  12.898  68.288  1.00  0.00    -0.282 C  
BRANCH   5   6
HETATM    6  C   UNL     1     -11.378  11.902  67.228  1.00  0.00    -0.393 C  
HETATM    7  C   UNL     1     -11.581  12.558  65.886  1.00  0.00    -0.405 C  
HETATM    8  O   UNL     1     -10.443  13.029  65.333  1.00  0.00    -0.285 OA 
HETATM    9  O   UNL     1     -12.662  12.633  65.325  1.00  0.00    -0.652 OA 
ENDBRANCH   5   6
ENDBRANCH   2   5
TORSDOF 2
ENDMDL
MODEL       64
REMARK 921   NORMALIZED FREE ENERGY PREDICTED BY IDOCK:   -2.28 KCAL/MOL
REMARK 922        TOTAL FREE ENERGY PREDICTED BY IDOCK:   -2.82 KCAL/MOL
REMARK 923 INTER-LIGAND FREE ENERGY PREDICTED BY IDOCK:   -2.70 KCAL/MOL
REMARK 924 INTRA-LIGAND FREE ENERGY PREDICTED BY IDOCK:   -0.12 KCAL/MOL
REMARK 927      BINDING AFFINITY PREDICTED BY RF-SCORE:    0.00 PKD
ROOT
HETATM    1  N   UNL     1     -13.154  13.910  65.270  1.00  0.00    -0.770 NA 
HETATM    2  C   UNL     1     -12.355  12.721  65.006  1.00  0.00    -0.499 C  
HETATM    3  H1  UNL     1     -14.007  13.655  65.767  1.00  0.00     0.000 HD 
HETATM    4  H2  UNL     1     -13.350  14.435  64.418  1.00  0.00     0.000 HD 
ENDROOT
BRANCH   2   5
HETATM    5  C   UNL     1     -11.079  13.103  64.262  1.00  0.00    -0.426 C  
BRANCH   5   6
HETATM    6  C   UNL     1     -10.146  13.907  65.162  1.00  0.00    -0.330 C  
HETATM    7  C   UNL     1      -9.725  13.126  66.381  1.00  0.00    -0.269 C  
HETATM    8  O   UNL     1      -8.962  12.049  66.100  1.00  0.00    -0.178 OA 
HETATM    9  O   UNL     1     -10.013  13.446  67.523  1.00  0.00    -0.224 OA 
ENDBRANCH   5   6
ENDBRANCH   2   5
TORSDOF 2
ENDMDL
MODEL       65
REMARK 921   NORMALIZED FREE ENERGY PREDICTED BY IDOCK:   -2.26 KCAL/MOL
REMARK 922        TOTAL FREE ENERGY PREDICTED BY IDOCK:   -2.79 KCAL/MOL
REMARK 923 INTER-LIGAND FREE ENERGY PREDICTED BY IDOCK:   -2.71 KCAL/MOL
REMARK 924 INTRA-LIGAND FREE ENERGY PREDICTED BY IDOCK:   -0.08 KCAL/MOL
REMARK 927      BINDING AFFINITY PREDICTED BY RF-SCORE:    0.00 PKD
ROOT
HETATM    1  N   UNL     1     -10.812  14.789  69.892  1.00  0.00    -0.411 NA 
HETATM    2  C   UNL     1     -11.655  15.684  69.113  1.00  0.00    -0.383 C  
HETATM    3  H1  UNL     1     -11.061  14.845  70.879  1.00  0.00     0.000 HD 
HETATM    4  H2  UNL     1      -9.820  14.967  69.737  1.00  0.00     0.000 HD 
ENDROOT
BRANCH   2   5
HETATM    5  C   UNL     1     -11.282  15.600  67.635  1.00  0.00    -0.274 C  
BRANCH   5   6
HETATM    6  C   UNL     1     -10.759  14.211  67.286  1.00  0.00    -0.279 C  
HETATM    7  C   UNL     1     -11.872  13.261  66.927  1.00  0.00    -0.392 C  
HETATM    8  O   UNL     1     -12.526  13.592  65.793  1.00  0.00    -0.457 OA 
HETATM    9  O   UNL     1     -12.146  12.263  67.574  1.00  0.00    -0.514 OA 
ENDBRANCH   5   6
ENDBRANCH   2   5
TORSDOF 2
ENDMDL
MODEL       66
REMARK 921   NORMALIZED FREE ENERGY PREDICTED BY IDOCK:   -2.23 KCAL/MOL
REMARK 922        TOTAL FREE ENERGY PREDICTED BY IDOCK:   -2.77 KCAL/MOL
REMARK 923 INTER-LIGAND FREE ENERGY PREDICTED BY IDOCK:   -2.71 KCAL/MOL
REMARK 924 INTRA-LIGAND FREE ENERGY PREDICTED BY IDOCK:   -0.06 KCAL/MOL
REMARK 927      BINDING AFFINITY PREDICTED BY RF-SCORE:    0.00 PKD
ROOT
HETATM    1  N   UNL     1     -12.575  14.171  66.461  1.00  0.00    -0.519 NA 
HETATM    2  C   UNL     1     -12.148  13.589  67.726  1.00  0.00    -0.280 C  
HETATM    3  H1  UNL     1     -13.241  13.551  65.999  1.00  0.00     0.000 HD 
HETATM    4  H2  UNL     1     -11.784  14.399  65.860  1.00  0.00     0.000 HD 
ENDROOT
BRANCH   2   5
HETATM    5  C   UNL     1     -11.152  14.515  68.418  1.00  0.00    -0.271 C  
BRANCH   5   6
HETATM    6  C   UNL     1     -11.845  15.775  68.926  1.00  0.00    -0.354 C  
HETATM    7  C   UNL     1     -12.257  15.652  70.370  1.00  0.00    -0.395 C  
HETATM    8  O   UNL     1     -11.217  15.556  71.226  1.00  0.00    -0.352 OA 
HETATM    9  O   UNL     1     -13.417  15.668  70.748  1.00  0.00    -0.536 OA 
ENDBRANCH   5   6
ENDBRANCH   2   5
TORSDOF 2
ENDMDL
MODEL       67
REMARK 921   NORMALIZED FREE ENERGY PREDICTED BY IDOCK:   -2.22 KCAL/MOL
REMARK 922        TOTAL FREE ENERGY PREDICTED BY IDOCK:   -2.76 KCAL/MOL
REMARK 923 INTER-LIGAND FREE ENERGY PREDICTED BY IDOCK:   -2.67 KCAL/MOL
REMARK 924 INTRA-LIGAND FREE ENERGY PREDICTED BY IDOCK:   -0.08 KCAL/MOL
REMARK 927      BINDING AFFINITY PREDICTED BY RF-SCORE:    0.00 PKD
ROOT
HETATM    1  N   UNL     1     -10.635  13.642  69.249  1.00  0.00    -0.436 NA 
HETATM    2  C   UNL     1     -11.811  13.166  68.535  1.00  0.00    -0.342 C  
HETATM    3  H1  UNL     1     -10.561  13.174  70.152  1.00  0.00     0.000 HD 
HETATM    4  H2  UNL     1     -10.631  14.658  69.344  1.00  0.00     0.000 HD 
ENDROOT
BRANCH   2   5
HETATM    5  C   UNL     1     -11.921  13.867  67.183  1.00  0.00    -0.455 C  
BRANCH   5   6
HETATM    6  C   UNL     1     -12.019  12.850  66.051  1.00  0.00    -0.505 C  
HETATM    7  C   UNL     1     -10.795  12.863  65.172  1.00  0.00    -0.296 C  
HETATM    8  O   UNL     1      -9.670  12.457  65.798  1.00  0.00    -0.248 OA 
HETATM    9  O   UNL     1     -10.812  13.179  63.992  1.00  0.00    -0.390 OA 
ENDBRANCH   5   6
ENDBRANCH   2   5
TORSDOF 2
ENDMDL
MODEL       68
REMARK 921   NORMALIZED FREE ENERGY PREDICTED BY IDOCK:   -2.21 KCAL/MOL
REMARK 922        TOTAL FREE ENERGY PREDICTED BY IDOCK:   -2.74 KCAL/MOL
REMARK 923 INTER-LIGAND FREE ENERGY PREDICTED BY IDOCK:   -2.47 KCAL/MOL
REMARK 924 INTRA-LIGAND FREE ENERGY PREDICTED BY IDOCK:   -0.27 KCAL/MOL
REMARK 927      BINDING AFFINITY PREDICTED BY RF-SCORE:    0.00 PKD
ROOT
HETATM    1  N   UNL     1      -7.701  13.902  67.064  1.00  0.00    -0.344 NA 
HETATM    2  C   UNL     1      -8.889  13.122  67.378  1.00  0.00    -0.204 C  
HETATM    3  H1  UNL     1      -6.863  13.387  67.334  1.00  0.00     0.000 HD 
HETATM    4  H2  UNL     1      -7.731  14.830  67.487  1.00  0.00     0.000 HD 
ENDROOT
BRANCH   2   5
HETATM    5  C   UNL     1     -10.143  13.893  66.976  1.00  0.00    -0.256 C  
BRANCH   5   6
HETATM    6  C   UNL     1     -10.132  14.205  65.483  1.00  0.00    -0.360 C  
HETATM    7  C   UNL     1     -10.146  15.688  65.214  1.00  0.00    -0.270 C  
HETATM    8  O   UNL     1      -9.031  16.326  65.628  1.00  0.00    -0.403 OA 
HETATM    9  O   UNL     1     -11.060  16.265  64.647  1.00  0.00    -0.634 OA 
ENDBRANCH   5   6
ENDBRANCH   2   5
TORSDOF 2
ENDMDL
MODEL       69
REMARK 921   NORMALIZED FREE ENERGY PREDICTED BY IDOCK:   -2.21 KCAL/MOL
REMARK 922        TOTAL FREE ENERGY PREDICTED BY IDOCK:   -2.74 KCAL/MOL
REMARK 923 INTER-LIGAND FREE ENERGY PREDICTED BY IDOCK:   -2.70 KCAL/MOL
REMARK 924 INTRA-LIGAND FREE ENERGY PREDICTED BY IDOCK:   -0.05 KCAL/MOL
REMARK 927      BINDING AFFINITY PREDICTED BY RF-SCORE:    0.00 PKD
ROOT
HETATM    1  N   UNL     1     -11.088   4.615  65.240  1.00  0.00    -0.943 NA 
HETATM    2  C   UNL     1     -10.359   5.018  66.435  1.00  0.00    -0.294 C  
HETATM    3  H1  UNL     1     -10.724   3.727  64.892  1.00  0.00     0.000 HD 
HETATM    4  H2  UNL     1     -11.076   5.340  64.523  1.00  0.00     0.000 HD 
ENDROOT
BRANCH   2   5
HETATM    5  C   UNL     1     -10.902   6.346  66.955  1.00  0.00    -0.464 C  
BRANCH   5   6
HETATM    6  C   UNL     1     -10.044   6.872  68.101  1.00  0.00    -0.187 C  
HETATM    7  C   UNL     1     -10.784   6.861  69.414  1.00  0.00    -0.246 C  
HETATM    8  O   UNL     1     -11.090   5.622  69.856  1.00  0.00    -0.321 OA 
HETATM    9  O   UNL     1     -11.059   7.869  70.045  1.00  0.00    -0.241 OA 
ENDBRANCH   5   6
ENDBRANCH   2   5
TORSDOF 2
ENDMDL
MODEL       70
REMARK 921   NORMALIZED FREE ENERGY PREDICTED BY IDOCK:   -2.21 KCAL/MOL
REMARK 922        TOTAL FREE ENERGY PREDICTED BY IDOCK:   -2.74 KCAL/MOL
REMARK 923 INTER-LIGAND FREE ENERGY PREDICTED BY IDOCK:   -2.55 KCAL/MOL
REMARK 924 INTRA-LIGAND FREE ENERGY PREDICTED BY IDOCK:   -0.19 KCAL/MOL
REMARK 927      BINDING AFFINITY PREDICTED BY RF-SCORE:    0.00 PKD
ROOT
HETATM    1  N   UNL     1     -10.414  12.982  68.725  1.00  0.00    -0.384 NA 
HETATM    2  C   UNL     1     -11.754  12.719  68.218  1.00  0.00    -0.344 C  
HETATM    3  H1  UNL     1     -10.328  12.632  69.679  1.00  0.00     0.000 HD 
HETATM    4  H2  UNL     1     -10.167  13.969  68.656  1.00  0.00     0.000 HD 
ENDROOT
BRANCH   2   5
HETATM    5  C   UNL     1     -11.884  13.243  66.790  1.00  0.00    -0.448 C  
BRANCH   5   6
HETATM    6  C   UNL     1     -10.534  13.718  66.261  1.00  0.00    -0.291 C  
HETATM    7  C   UNL     1     -10.492  15.214  66.083  1.00  0.00    -0.312 C  
HETATM    8  O   UNL     1     -10.583  15.903  67.240  1.00  0.00    -0.306 OA 
HETATM    9  O   UNL     1     -10.355  15.763  65.001  1.00  0.00    -0.468 OA 
ENDBRANCH   5   6
ENDBRANCH   2   5
TORSDOF 2
ENDMDL
MODEL       71
REMARK 921   NORMALIZED FREE ENERGY PREDICTED BY IDOCK:   -2.20 KCAL/MOL
REMARK 922        TOTAL FREE ENERGY PREDICTED BY IDOCK:   -2.73 KCAL/MOL
REMARK 923 INTER-LIGAND FREE ENERGY PREDICTED BY IDOCK:   -2.62 KCAL/MOL
REMARK 924 INTRA-LIGAND FREE ENERGY PREDICTED BY IDOCK:   -0.11 KCAL/MOL
REMARK 927      BINDING AFFINITY PREDICTED BY RF-SCORE:    0.00 PKD
ROOT
HETATM    1  N   UNL     1     -11.107  19.648  65.361  1.00  0.00    -0.284 NA 
HETATM    2  C   UNL     1      -9.749  19.670  65.886  1.00  0.00    -0.239 C  
HETATM    3  H1  UNL     1     -11.141  19.105  64.499  1.00  0.00     0.000 HD 
HETATM    4  H2  UNL     1     -11.483  20.589  65.235  1.00  0.00     0.000 HD 
ENDROOT
BRANCH   2   5
HETATM    5  C   UNL     1      -9.699  20.484  67.176  1.00  0.00    -0.581 C  
BRANCH   5   6
HETATM    6  C   UNL     1     -10.385  19.737  68.315  1.00  0.00    -0.536 C  
HETATM    7  C   UNL     1      -9.808  18.359  68.515  1.00  0.00    -0.376 C  
HETATM    8  O   UNL     1      -8.524  18.361  68.932  1.00  0.00    -0.263 OA 
HETATM    9  O   UNL     1     -10.443  17.329  68.351  1.00  0.00    -0.344 OA 
ENDBRANCH   5   6
ENDBRANCH   2   5
TORSDOF 2
ENDMDL
MODEL       72
REMARK 921   NORMALIZED FREE ENERGY PREDICTED BY IDOCK:   -2.19 KCAL/MOL
REMARK 922        TOTAL FREE ENERGY PREDICTED BY IDOCK:   -2.72 KCAL/MOL
REMARK 923 INTER-LIGAND FREE ENERGY PREDICTED BY IDOCK:   -2.52 KCAL/MOL
REMARK 924 INTRA-LIGAND FREE ENERGY PREDICTED BY IDOCK:   -0.19 KCAL/MOL
REMARK 927      BINDING AFFINITY PREDICTED BY RF-SCORE:    0.00 PKD
ROOT
HETATM    1  N   UNL     1     -12.176  14.117  64.588  1.00  0.00    -0.496 NA 
HETATM    2  C   UNL     1     -10.745  14.263  64.816  1.00  0.00    -0.416 C  
HETATM    3  H1  UNL     1     -12.358  13.283  64.029  1.00  0.00     0.000 HD 
HETATM    4  H2  UNL     1     -12.583  14.954  64.170  1.00  0.00     0.000 HD 
ENDROOT
BRANCH   2   5
HETATM    5  C   UNL     1     -10.473  15.511  65.652  1.00  0.00    -0.393 C  
BRANCH   5   6
HETATM    6  C   UNL     1     -10.084  15.134  67.078  1.00  0.00    -0.244 C  
HETATM    7  C   UNL     1     -11.258  15.202  68.021  1.00  0.00    -0.323 C  
HETATM    8  O   UNL     1     -12.221  14.293  67.758  1.00  0.00    -0.325 OA 
HETATM    9  O   UNL     1     -11.330  15.980  68.958  1.00  0.00    -0.327 OA 
ENDBRANCH   5   6
ENDBRANCH   2   5
TORSDOF 2
ENDMDL
MODEL       73
REMARK 921   NORMALIZED FREE ENERGY PREDICTED BY IDOCK:   -2.18 KCAL/MOL
REMARK 922        TOTAL FREE ENERGY PREDICTED BY IDOCK:   -2.71 KCAL/MOL
REMARK 923 INTER-LIGAND FREE ENERGY PREDICTED BY IDOCK:   -2.50 KCAL/MOL
REMARK 924 INTRA-LIGAND FREE ENERGY PREDICTED BY IDOCK:   -0.21 KCAL/MOL
REMARK 927      BINDING AFFINITY PREDICTED BY RF-SCORE:    0.00 PKD
ROOT
HETATM    1  N   UNL     1      -8.543  16.341  68.828  1.00  0.00    -0.228 NA 
HETATM    2  C   UNL     1      -9.925  16.781  68.965  1.00  0.00    -0.272 C  
HETATM    3  H1  UNL     1      -8.488  15.328  68.926  1.00  0.00     0.000 HD 
HETATM    4  H2  UNL     1      -7.923  16.823  69.479  1.00  0.00     0.000 HD 
ENDROOT
BRANCH   2   5
HETATM    5  C   UNL     1     -10.008  18.298  68.817  1.00  0.00    -0.391 C  
BRANCH   5   6
HETATM    6  C   UNL     1     -10.624  18.680  67.475  1.00  0.00    -0.472 C  
HETATM    7  C   UNL     1      -9.580  19.105  66.475  1.00  0.00    -0.355 C  
HETATM    8  O   UNL     1      -8.739  18.114  66.110  1.00  0.00    -0.460 OA 
HETATM    9  O   UNL     1      -9.511  20.230  66.005  1.00  0.00    -0.319 OA 
ENDBRANCH   5   6
ENDBRANCH   2   5
TORSDOF 2
ENDMDL
MODEL       74
REMARK 921   NORMALIZED FREE ENERGY PREDICTED BY IDOCK:   -2.18 KCAL/MOL
REMARK 922        TOTAL FREE ENERGY PREDICTED BY IDOCK:   -2.70 KCAL/MOL
REMARK 923 INTER-LIGAND FREE ENERGY PREDICTED BY IDOCK:   -2.64 KCAL/MOL
REMARK 924 INTRA-LIGAND FREE ENERGY PREDICTED BY IDOCK:   -0.07 KCAL/MOL
REMARK 927      BINDING AFFINITY PREDICTED BY RF-SCORE:    0.00 PKD
ROOT
HETATM    1  N   UNL     1     -12.008  10.894  68.015  1.00  0.00    -0.777 NA 
HETATM    2  C   UNL     1     -11.604  11.885  67.027  1.00  0.00    -0.291 C  
HETATM    3  H1  UNL     1     -11.872   9.955  67.644  1.00  0.00     0.000 HD 
HETATM    4  H2  UNL     1     -12.965  11.044  68.336  1.00  0.00     0.000 HD 
ENDROOT
BRANCH   2   5
HETATM    5  C   UNL     1     -11.808  13.291  67.582  1.00  0.00    -0.400 C  
BRANCH   5   6
HETATM    6  C   UNL     1     -10.908  13.533  68.790  1.00  0.00    -0.279 C  
HETATM    7  C   UNL     1     -11.545  14.459  69.794  1.00  0.00    -0.298 C  
HETATM    8  O   UNL     1     -12.649  13.949  70.382  1.00  0.00    -0.326 OA 
HETATM    9  O   UNL     1     -11.098  15.558  70.082  1.00  0.00    -0.268 OA 
ENDBRANCH   5   6
ENDBRANCH   2   5
TORSDOF 2
ENDMDL
MODEL       75
REMARK 921   NORMALIZED FREE ENERGY PREDICTED BY IDOCK:   -2.17 KCAL/MOL
REMARK 922        TOTAL FREE ENERGY PREDICTED BY IDOCK:   -2.69 KCAL/MOL
REMARK 923 INTER-LIGAND FREE ENERGY PREDICTED BY IDOCK:   -2.65 KCAL/MOL
REMARK 924 INTRA-LIGAND FREE ENERGY PREDICTED BY IDOCK:   -0.04 KCAL/MOL
REMARK 927      BINDING AFFINITY PREDICTED BY RF-SCORE:    0.00 PKD
ROOT
HETATM    1  N   UNL     1     -12.719  12.712  65.050  1.00  0.00    -0.771 NA 
HETATM    2  C   UNL     1     -11.951  12.945  66.265  1.00  0.00    -0.408 C  
HETATM    3  H1  UNL     1     -12.611  11.743  64.749  1.00  0.00     0.000 HD 
HETATM    4  H2  UNL     1     -12.475  13.371  64.311  1.00  0.00     0.000 HD 
ENDROOT
BRANCH   2   5
HETATM    5  C   UNL     1     -12.113  14.394  66.716  1.00  0.00    -0.393 C  
BRANCH   5   6
HETATM    6  C   UNL     1     -10.971  14.807  67.638  1.00  0.00    -0.292 C  
HETATM    7  C   UNL     1      -9.938  15.640  66.923  1.00  0.00    -0.248 C  
HETATM    8  O   UNL     1     -10.397  16.841  66.513  1.00  0.00    -0.304 OA 
HETATM    9  O   UNL     1      -8.782  15.286  66.752  1.00  0.00    -0.233 OA 
ENDBRANCH   5   6
ENDBRANCH   2   5
TORSDOF 2
ENDMDL
MODEL       76
REMARK 921   NORMALIZED FREE ENERGY PREDICTED BY IDOCK:   -2.15 KCAL/MOL
REMARK 922        TOTAL FREE ENERGY PREDICTED BY IDOCK:   -2.67 KCAL/MOL
REMARK 923 INTER-LIGAND FREE ENERGY PREDICTED BY IDOCK:   -2.57 KCAL/MOL
REMARK 924 INTRA-LIGAND FREE ENERGY PREDICTED BY IDOCK:   -0.09 KCAL/MOL
REMARK 927      BINDING AFFINITY PREDICTED BY RF-SCORE:    0.00 PKD
ROOT
HETATM    1  N   UNL     1     -12.125   6.958  70.018  1.00  0.00    -0.637 NA 
HETATM    2  C   UNL     1     -12.653   7.093  71.368  1.00  0.00    -0.394 C  
HETATM    3  H1  UNL     1     -12.560   6.164  69.550  1.00  0.00     0.000 HD 
HETATM    4  H2  UNL     1     -11.107   6.896  70.011  1.00  0.00     0.000 HD 
ENDROOT
BRANCH   2   5
HETATM    5  C   UNL     1     -12.002   8.282  72.068  1.00  0.00    -0.405 C  
BRANCH   5   6
HETATM    6  C   UNL     1     -10.951   7.814  73.069  1.00  0.00    -0.442 C  
HETATM    7  C   UNL     1      -9.566   7.808  72.475  1.00  0.00    -0.192 C  
HETATM    8  O   UNL     1      -9.104   9.037  72.160  1.00  0.00    -0.372 OA 
HETATM    9  O   UNL     1      -8.900   6.798  72.318  1.00  0.00    -0.132 OA 
ENDBRANCH   5   6
ENDBRANCH   2   5
TORSDOF 2
ENDMDL
MODEL       77
REMARK 921   NORMALIZED FREE ENERGY PREDICTED BY IDOCK:   -2.14 KCAL/MOL
REMARK 922        TOTAL FREE ENERGY PREDICTED BY IDOCK:   -2.66 KCAL/MOL
REMARK 923 INTER-LIGAND FREE ENERGY PREDICTED BY IDOCK:   -2.39 KCAL/MOL
REMARK 924 INTRA-LIGAND FREE ENERGY PREDICTED BY IDOCK:   -0.26 KCAL/MOL
REMARK 927      BINDING AFFINITY PREDICTED BY RF-SCORE:    0.00 PKD
ROOT
HETATM    1  N   UNL     1      -9.407   7.696  74.071  1.00  0.00    -0.404 NA 
HETATM    2  C   UNL     1     -10.596   7.071  73.510  1.00  0.00    -0.368 C  
HETATM    3  H1  UNL     1      -8.880   7.015  74.618  1.00  0.00     0.000 HD 
HETATM    4  H2  UNL     1      -9.633   8.529  74.614  1.00  0.00     0.000 HD 
ENDROOT
BRANCH   2   5
HETATM    5  C   UNL     1     -11.386   8.089  72.692  1.00  0.00    -0.469 C  
BRANCH   5   6
HETATM    6  C   UNL     1     -10.954   8.061  71.230  1.00  0.00    -0.269 C  
HETATM    7  C   UNL     1     -10.094   9.245  70.871  1.00  0.00    -0.302 C  
HETATM    8  O   UNL     1      -8.900   9.261  71.501  1.00  0.00    -0.317 OA 
HETATM    9  O   UNL     1     -10.420  10.100  70.063  1.00  0.00    -0.264 OA 
ENDBRANCH   5   6
ENDBRANCH   2   5
TORSDOF 2
ENDMDL
MODEL       78
REMARK 921   NORMALIZED FREE ENERGY PREDICTED BY IDOCK:   -2.13 KCAL/MOL
REMARK 922        TOTAL FREE ENERGY PREDICTED BY IDOCK:   -2.65 KCAL/MOL
REMARK 923 INTER-LIGAND FREE ENERGY PREDICTED BY IDOCK:   -2.61 KCAL/MOL
REMARK 924 INTRA-LIGAND FREE ENERGY PREDICTED BY IDOCK:   -0.04 KCAL/MOL
REMARK 927      BINDING AFFINITY PREDICTED BY RF-SCORE:    0.00 PKD
ROOT
HETATM    1  N   UNL     1      -9.897   9.135  66.677  1.00  0.00    -0.218 NA 
HETATM    2  C   UNL     1     -10.065   9.854  65.422  1.00  0.00    -0.200 C  
HETATM    3  H1  UNL     1      -9.890   8.130  66.505  1.00  0.00     0.000 HD 
HETATM    4  H2  UNL     1     -10.601   9.400  67.366  1.00  0.00     0.000 HD 
ENDROOT
BRANCH   2   5
HETATM    5  C   UNL     1     -10.076  11.359  65.679  1.00  0.00    -0.293 C  
BRANCH   5   6
HETATM    6  C   UNL     1     -11.177  11.732  66.667  1.00  0.00    -0.383 C  
HETATM    7  C   UNL     1     -12.001  12.896  66.183  1.00  0.00    -0.429 C  
HETATM    8  O   UNL     1     -12.720  12.629  65.071  1.00  0.00    -0.658 OA 
HETATM    9  O   UNL     1     -12.049  13.976  66.751  1.00  0.00    -0.428 OA 
ENDBRANCH   5   6
ENDBRANCH   2   5
TORSDOF 2
ENDMDL
MODEL       79
REMARK 921   NORMALIZED FREE ENERGY PREDICTED BY IDOCK:   -2.13 KCAL/MOL
REMARK 922        TOTAL FREE ENERGY PREDICTED BY IDOCK:   -2.65 KCAL/MOL
REMARK 923 INTER-LIGAND FREE ENERGY PREDICTED BY IDOCK:   -2.63 KCAL/MOL
REMARK 924 INTRA-LIGAND FREE ENERGY PREDICTED BY IDOCK:   -0.02 KCAL/MOL
REMARK 927      BINDING AFFINITY PREDICTED BY RF-SCORE:    0.00 PKD
ROOT
HETATM    1  N   UNL     1     -12.260  15.465  68.791  1.00  0.00    -0.593 NA 
HETATM    2  C   UNL     1     -10.866  15.875  68.889  1.00  0.00    -0.274 C  
HETATM    3  H1  UNL     1     -12.530  14.946  69.626  1.00  0.00     0.000 HD 
HETATM    4  H2  UNL     1     -12.444  14.940  67.937  1.00  0.00     0.000 HD 
ENDROOT
BRANCH   2   5
HETATM    5  C   UNL     1     -10.460  16.652  67.640  1.00  0.00    -0.320 C  
BRANCH   5   6
HETATM    6  C   UNL     1     -10.700  18.147  67.829  1.00  0.00    -0.355 C  
HETATM    7  C   UNL     1      -9.620  18.979  67.189  1.00  0.00    -0.312 C  
HETATM    8  O   UNL     1      -9.585  18.883  65.842  1.00  0.00    -0.469 OA 
HETATM    9  O   UNL     1      -8.861  19.702  67.814  1.00  0.00    -0.309 OA 
ENDBRANCH   5   6
ENDBRANCH   2   5
TORSDOF 2
ENDMDL
MODEL       80
REMARK 921   NORMALIZED FREE ENERGY PREDICTED BY IDOCK:   -2.11 KCAL/MOL
REMARK 922        TOTAL FREE ENERGY PREDICTED BY IDOCK:   -2.62 KCAL/MOL
REMARK 923 INTER-LIGAND FREE ENERGY PREDICTED BY IDOCK:   -2.35 KCAL/MOL
REMARK 924 INTRA-LIGAND FREE ENERGY PREDICTED BY IDOCK:   -0.27 KCAL/MOL
REMARK 927      BINDING AFFINITY PREDICTED BY RF-SCORE:    0.00 PKD
ROOT
HETATM    1  N   UNL     1      -9.347  15.278  69.807  1.00  0.00    -0.448 NA 
HETATM    2  C   UNL     1      -8.115  15.451  69.050  1.00  0.00    -0.213 C  
HETATM    3  H1  UNL     1      -9.143  15.262  70.806  1.00  0.00     0.000 HD 
HETATM    4  H2  UNL     1      -9.864  14.451  69.510  1.00  0.00     0.000 HD 
ENDROOT
BRANCH   2   5
HETATM    5  C   UNL     1      -8.419  15.474  67.554  1.00  0.00    -0.188 C  
BRANCH   5   6
HETATM    6  C   UNL     1      -8.609  16.904  67.061  1.00  0.00    -0.229 C  
HETATM    7  C   UNL     1     -10.038  17.184  66.674  1.00  0.00    -0.306 C  
HETATM    8  O   UNL     1     -10.902  17.143  67.711  1.00  0.00    -0.348 OA 
HETATM    9  O   UNL     1     -10.392  17.456  65.537  1.00  0.00    -0.621 OA 
ENDBRANCH   5   6
ENDBRANCH   2   5
TORSDOF 2
ENDMDL
MODEL       81
REMARK 921   NORMALIZED FREE ENERGY PREDICTED BY IDOCK:   -2.10 KCAL/MOL
REMARK 922        TOTAL FREE ENERGY PREDICTED BY IDOCK:   -2.62 KCAL/MOL
REMARK 923 INTER-LIGAND FREE ENERGY PREDICTED BY IDOCK:   -2.60 KCAL/MOL
REMARK 924 INTRA-LIGAND FREE ENERGY PREDICTED BY IDOCK:   -0.02 KCAL/MOL
REMARK 927      BINDING AFFINITY PREDICTED BY RF-SCORE:    0.00 PKD
ROOT
HETATM    1  N   UNL     1      -8.449  16.081  69.211  1.00  0.00    -0.251 NA 
HETATM    2  C   UNL     1      -7.830  17.173  68.472  1.00  0.00    -0.257 C  
HETATM    3  H1  UNL     1      -7.747  15.384  69.458  1.00  0.00     0.000 HD 
HETATM    4  H2  UNL     1      -9.232  15.672  68.702  1.00  0.00     0.000 HD 
ENDROOT
BRANCH   2   5
HETATM    5  C   UNL     1      -8.880  18.216  68.103  1.00  0.00    -0.289 C  
BRANCH   5   6
HETATM    6  C   UNL     1      -8.894  18.462  66.597  1.00  0.00    -0.297 C  
HETATM    7  C   UNL     1     -10.276  18.787  66.090  1.00  0.00    -0.421 C  
HETATM    8  O   UNL     1     -10.765  19.956  66.556  1.00  0.00    -0.463 OA 
HETATM    9  O   UNL     1     -10.893  18.084  65.306  1.00  0.00    -0.627 OA 
ENDBRANCH   5   6
ENDBRANCH   2   5
TORSDOF 2
ENDMDL
MODEL       82
REMARK 921   NORMALIZED FREE ENERGY PREDICTED BY IDOCK:   -2.09 KCAL/MOL
REMARK 922        TOTAL FREE ENERGY PREDICTED BY IDOCK:   -2.60 KCAL/MOL
REMARK 923 INTER-LIGAND FREE ENERGY PREDICTED BY IDOCK:   -2.36 KCAL/MOL
REMARK 924 INTRA-LIGAND FREE ENERGY PREDICTED BY IDOCK:   -0.24 KCAL/MOL
REMARK 927      BINDING AFFINITY PREDICTED BY RF-SCORE:    0.00 PKD
ROOT
HETATM    1  N   UNL     1     -11.297   6.971  73.397  1.00  0.00    -0.493 NA 
HETATM    2  C   UNL     1     -10.510   5.746  73.409  1.00  0.00    -0.244 C  
HETATM    3  H1  UNL     1     -11.343   7.366  74.336  1.00  0.00     0.000 HD 
HETATM    4  H2  UNL     1     -12.224   6.825  72.998  1.00  0.00     0.000 HD 
ENDROOT
BRANCH   2   5
HETATM    5  C   UNL     1     -10.441   5.155  72.003  1.00  0.00    -0.278 C  
BRANCH   5   6
HETATM    6  C   UNL     1     -10.216   6.250  70.965  1.00  0.00    -0.234 C  
HETATM    7  C   UNL     1     -11.373   6.365  70.005  1.00  0.00    -0.430 C  
HETATM    8  O   UNL     1     -12.521   6.778  70.583  1.00  0.00    -0.320 OA 
HETATM    9  O   UNL     1     -11.285   6.140  68.809  1.00  0.00    -0.367 OA 
ENDBRANCH   5   6
ENDBRANCH   2   5
TORSDOF 2
ENDMDL
MODEL       83
REMARK 921   NORMALIZED FREE ENERGY PREDICTED BY IDOCK:   -2.08 KCAL/MOL
REMARK 922        TOTAL FREE ENERGY PREDICTED BY IDOCK:   -2.60 KCAL/MOL
REMARK 923 INTER-LIGAND FREE ENERGY PREDICTED BY IDOCK:   -2.50 KCAL/MOL
REMARK 924 INTRA-LIGAND FREE ENERGY PREDICTED BY IDOCK:   -0.10 KCAL/MOL
REMARK 927      BINDING AFFINITY PREDICTED BY RF-SCORE:    0.00 PKD
ROOT
HETATM    1  N   UNL     1     -10.697  19.440  65.507  1.00  0.00    -0.439 NA 
HETATM    2  C   UNL     1     -10.041  20.198  66.562  1.00  0.00    -0.449 C  
HETATM    3  H1  UNL     1     -10.693  19.975  64.638  1.00  0.00     0.000 HD 
HETATM    4  H2  UNL     1     -11.639  19.151  65.773  1.00  0.00     0.000 HD 
ENDROOT
BRANCH   2   5
HETATM    5  C   UNL     1     -10.047  19.398  67.862  1.00  0.00    -0.503 C  
BRANCH   5   6
HETATM    6  C   UNL     1      -9.155  18.166  67.746  1.00  0.00    -0.265 C  
HETATM    7  C   UNL     1      -9.810  16.937  68.321  1.00  0.00    -0.266 C  
HETATM    8  O   UNL     1     -10.907  16.537  67.643  1.00  0.00    -0.326 OA 
HETATM    9  O   UNL     1      -9.381  16.331  69.290  1.00  0.00    -0.251 OA 
ENDBRANCH   5   6
ENDBRANCH   2   5
TORSDOF 2
ENDMDL
MODEL       84
REMARK 921   NORMALIZED FREE ENERGY PREDICTED BY IDOCK:   -2.08 KCAL/MOL
REMARK 922        TOTAL FREE ENERGY PREDICTED BY IDOCK:   -2.59 KCAL/MOL
REMARK 923 INTER-LIGAND FREE ENERGY PREDICTED BY IDOCK:   -2.57 KCAL/MOL
REMARK 924 INTRA-LIGAND FREE ENERGY PREDICTED BY IDOCK:   -0.03 KCAL/MOL
REMARK 927      BINDING AFFINITY PREDICTED BY RF-SCORE:    0.00 PKD
ROOT
HETATM    1  N   UNL     1     -11.366   6.622  67.540  1.00  0.00    -0.732 NA 
HETATM    2  C   UNL     1     -10.871   5.887  68.695  1.00  0.00    -0.261 C  
HETATM    3  H1  UNL     1     -10.901   6.296  66.693  1.00  0.00     0.000 HD 
HETATM    4  H2  UNL     1     -11.274   7.631  67.662  1.00  0.00     0.000 HD 
ENDROOT
BRANCH   2   5
HETATM    5  C   UNL     1     -11.566   6.376  69.963  1.00  0.00    -0.446 C  
BRANCH   5   6
HETATM    6  C   UNL     1     -10.566   7.029  70.912  1.00  0.00    -0.238 C  
HETATM    7  C   UNL     1     -10.960   6.853  72.356  1.00  0.00    -0.246 C  
HETATM    8  O   UNL     1     -10.928   5.571  72.777  1.00  0.00    -0.241 OA 
HETATM    9  O   UNL     1     -11.251   7.780  73.096  1.00  0.00    -0.402 OA 
ENDBRANCH   5   6
ENDBRANCH   2   5
TORSDOF 2
ENDMDL
MODEL       85
REMARK 921   NORMALIZED FREE ENERGY PREDICTED BY IDOCK:   -2.07 KCAL/MOL
REMARK 922        TOTAL FREE ENERGY PREDICTED BY IDOCK:   -2.58 KCAL/MOL
REMARK 923 INTER-LIGAND FREE ENERGY PREDICTED BY IDOCK:   -2.53 KCAL/MOL
REMARK 924 INTRA-LIGAND FREE ENERGY PREDICTED BY IDOCK:   -0.05 KCAL/MOL
REMARK 927      BINDING AFFINITY PREDICTED BY RF-SCORE:    0.00 PKD
ROOT
HETATM    1  N   UNL     1     -12.184  10.542  68.947  1.00  0.00    -0.773 NA 
HETATM    2  C   UNL     1     -11.829  10.685  70.353  1.00  0.00    -0.349 C  
HETATM    3  H1  UNL     1     -12.524  11.431  68.581  1.00  0.00     0.000 HD 
HETATM    4  H2  UNL     1     -12.851   9.786  68.797  1.00  0.00     0.000 HD 
ENDROOT
BRANCH   2   5
HETATM    5  C   UNL     1     -11.320   9.355  70.901  1.00  0.00    -0.386 C  
BRANCH   5   6
HETATM    6  C   UNL     1     -10.613   8.554  69.812  1.00  0.00    -0.224 C  
HETATM    7  C   UNL     1     -10.658   7.072  70.081  1.00  0.00    -0.228 C  
HETATM    8  O   UNL     1     -11.901   6.547  70.032  1.00  0.00    -0.404 OA 
HETATM    9  O   UNL     1      -9.667   6.391  70.291  1.00  0.00    -0.166 OA 
ENDBRANCH   5   6
ENDBRANCH   2   5
TORSDOF 2
ENDMDL
MODEL       86
REMARK 921   NORMALIZED FREE ENERGY PREDICTED BY IDOCK:   -2.06 KCAL/MOL
REMARK 922        TOTAL FREE ENERGY PREDICTED BY IDOCK:   -2.58 KCAL/MOL
REMARK 923 INTER-LIGAND FREE ENERGY PREDICTED BY IDOCK:   -2.31 KCAL/MOL
REMARK 924 INTRA-LIGAND FREE ENERGY PREDICTED BY IDOCK:   -0.26 KCAL/MOL
REMARK 927      BINDING AFFINITY PREDICTED BY RF-SCORE:    0.00 PKD
ROOT
HETATM    1  N   UNL     1     -10.510   8.633  72.089  1.00  0.00    -0.342 NA 
HETATM    2  C   UNL     1     -11.763   7.982  72.444  1.00  0.00    -0.386 C  
HETATM    3  H1  UNL     1     -10.118   9.105  72.904  1.00  0.00     0.000 HD 
HETATM    4  H2  UNL     1     -10.620   9.266  71.297  1.00  0.00     0.000 HD 
ENDROOT
BRANCH   2   5
HETATM    5  C   UNL     1     -12.349   7.276  71.225  1.00  0.00    -0.401 C  
BRANCH   5   6
HETATM    6  C   UNL     1     -11.323   6.341  70.594  1.00  0.00    -0.409 C  
HETATM    7  C   UNL     1     -11.023   6.712  69.164  1.00  0.00    -0.287 C  
HETATM    8  O   UNL     1     -10.412   7.909  69.029  1.00  0.00    -0.214 OA 
HETATM    9  O   UNL     1     -11.274   5.993  68.210  1.00  0.00    -0.273 OA 
ENDBRANCH   5   6
ENDBRANCH   2   5
TORSDOF 2
ENDMDL
MODEL       87
REMARK 921   NORMALIZED FREE ENERGY PREDICTED BY IDOCK:   -2.05 KCAL/MOL
REMARK 922        TOTAL FREE ENERGY PREDICTED BY IDOCK:   -2.57 KCAL/MOL
REMARK 923 INTER-LIGAND FREE ENERGY PREDICTED BY IDOCK:   -2.50 KCAL/MOL
REMARK 924 INTRA-LIGAND FREE ENERGY PREDICTED BY IDOCK:   -0.06 KCAL/MOL
REMARK 927      BINDING AFFINITY PREDICTED BY RF-SCORE:    0.00 PKD
ROOT
HETATM    1  N   UNL     1     -12.087  16.328  71.918  1.00  0.00    -0.620 NA 
HETATM    2  C   UNL     1     -12.976  15.328  71.343  1.00  0.00    -0.431 C  
HETATM    3  H1  UNL     1     -12.501  16.717  72.765  1.00  0.00     0.000 HD 
HETATM    4  H2  UNL     1     -11.842  17.054  71.244  1.00  0.00     0.000 HD 
ENDROOT
BRANCH   2   5
HETATM    5  C   UNL     1     -12.356  14.746  70.075  1.00  0.00    -0.365 C  
BRANCH   5   6
HETATM    6  C   UNL     1     -11.512  15.791  69.354  1.00  0.00    -0.357 C  
HETATM    7  C   UNL     1     -10.115  15.299  69.080  1.00  0.00    -0.239 C  
HETATM    8  O   UNL     1     -10.061  14.268  68.210  1.00  0.00    -0.225 OA 
HETATM    9  O   UNL     1      -9.113  15.799  69.567  1.00  0.00    -0.264 OA 
ENDBRANCH   5   6
ENDBRANCH   2   5
TORSDOF 2
ENDMDL
MODEL       88
REMARK 921   NORMALIZED FREE ENERGY PREDICTED BY IDOCK:   -2.04 KCAL/MOL
REMARK 922        TOTAL FREE ENERGY PREDICTED BY IDOCK:   -2.56 KCAL/MOL
REMARK 923 INTER-LIGAND FREE ENERGY PREDICTED BY IDOCK:   -2.51 KCAL/MOL
REMARK 924 INTRA-LIGAND FREE ENERGY PREDICTED BY IDOCK:   -0.05 KCAL/MOL
REMARK 927      BINDING AFFINITY PREDICTED BY RF-SCORE:    0.00 PKD
ROOT
HETATM    1  N   UNL     1     -10.879  19.104  65.423  1.00  0.00    -0.479 NA 
HETATM    2  C   UNL     1     -10.595  18.842  66.827  1.00  0.00    -0.395 C  
HETATM    3  H1  UNL     1     -11.318  20.019  65.320  1.00  0.00     0.000 HD 
HETATM    4  H2  UNL     1     -11.438  18.362  65.001  1.00  0.00     0.000 HD 
ENDROOT
BRANCH   2   5
HETATM    5  C   UNL     1      -9.938  17.473  66.981  1.00  0.00    -0.311 C  
BRANCH   5   6
HETATM    6  C   UNL     1     -10.272  16.574  65.795  1.00  0.00    -0.350 C  
HETATM    7  C   UNL     1     -10.476  15.140  66.211  1.00  0.00    -0.307 C  
HETATM    8  O   UNL     1     -11.554  14.951  67.002  1.00  0.00    -0.362 OA 
HETATM    9  O   UNL     1      -9.760  14.221  65.849  1.00  0.00    -0.303 OA 
ENDBRANCH   5   6
ENDBRANCH   2   5
TORSDOF 2
ENDMDL
MODEL       89
REMARK 921   NORMALIZED FREE ENERGY PREDICTED BY IDOCK:   -2.02 KCAL/MOL
REMARK 922        TOTAL FREE ENERGY PREDICTED BY IDOCK:   -2.53 KCAL/MOL
REMARK 923 INTER-LIGAND FREE ENERGY PREDICTED BY IDOCK:   -2.49 KCAL/MOL
REMARK 924 INTRA-LIGAND FREE ENERGY PREDICTED BY IDOCK:   -0.04 KCAL/MOL
REMARK 927      BINDING AFFINITY PREDICTED BY RF-SCORE:    0.00 PKD
ROOT
HETATM    1  N   UNL     1     -12.404  11.975  70.941  1.00  0.00    -0.351 NA 
HETATM    2  C   UNL     1     -13.049  10.942  71.740  1.00  0.00    -0.459 C  
HETATM    3  H1  UNL     1     -12.935  12.844  71.000  1.00  0.00     0.000 HD 
HETATM    4  H2  UNL     1     -12.262  11.678  69.976  1.00  0.00     0.000 HD 
ENDROOT
BRANCH   2   5
HETATM    5  C   UNL     1     -12.255   9.641  71.652  1.00  0.00    -0.484 C  
BRANCH   5   6
HETATM    6  C   UNL     1     -11.048   9.804  70.734  1.00  0.00    -0.415 C  
HETATM    7  C   UNL     1      -9.930   8.861  71.097  1.00  0.00    -0.272 C  
HETATM    8  O   UNL     1     -10.233   7.559  70.911  1.00  0.00    -0.193 OA 
HETATM    9  O   UNL     1      -8.835   9.229  71.493  1.00  0.00    -0.317 OA 
ENDBRANCH   5   6
ENDBRANCH   2   5
TORSDOF 2
ENDMDL
MODEL       90
REMARK 921   NORMALIZED FREE ENERGY PREDICTED BY IDOCK:   -2.00 KCAL/MOL
REMARK 922        TOTAL FREE ENERGY PREDICTED BY IDOCK:   -2.50 KCAL/MOL
REMARK 923 INTER-LIGAND FREE ENERGY PREDICTED BY IDOCK:   -2.44 KCAL/MOL
REMARK 924 INTRA-LIGAND FREE ENERGY PREDICTED BY IDOCK:   -0.07 KCAL/MOL
REMARK 927      BINDING AFFINITY PREDICTED BY RF-SCORE:    0.00 PKD
ROOT
HETATM    1  N   UNL     1     -10.682  19.492  66.773  1.00  0.00    -0.474 NA 
HETATM    2  C   UNL     1     -10.402  18.635  67.916  1.00  0.00    -0.398 C  
HETATM    3  H1  UNL     1     -10.826  20.453  67.083  1.00  0.00     0.000 HD 
HETATM    4  H2  UNL     1     -11.466  19.147  66.220  1.00  0.00     0.000 HD 
ENDROOT
BRANCH   2   5
HETATM    5  C   UNL     1     -10.187  17.197  67.452  1.00  0.00    -0.321 C  
BRANCH   5   6
HETATM    6  C   UNL     1      -9.867  16.288  68.634  1.00  0.00    -0.230 C  
HETATM    7  C   UNL     1     -11.112  15.836  69.353  1.00  0.00    -0.314 C  
HETATM    8  O   UNL     1     -11.909  15.038  68.611  1.00  0.00    -0.327 OA 
HETATM    9  O   UNL     1     -11.371  16.129  70.509  1.00  0.00    -0.371 OA 
ENDBRANCH   5   6
ENDBRANCH   2   5
TORSDOF 2
ENDMDL
MODEL       91
REMARK 921   NORMALIZED FREE ENERGY PREDICTED BY IDOCK:   -1.98 KCAL/MOL
REMARK 922        TOTAL FREE ENERGY PREDICTED BY IDOCK:   -2.49 KCAL/MOL
REMARK 923 INTER-LIGAND FREE ENERGY PREDICTED BY IDOCK:   -2.45 KCAL/MOL
REMARK 924 INTRA-LIGAND FREE ENERGY PREDICTED BY IDOCK:   -0.03 KCAL/MOL
REMARK 927      BINDING AFFINITY PREDICTED BY RF-SCORE:    0.00 PKD
ROOT
HETATM    1  N   UNL     1     -12.968  13.251  65.072  1.00  0.00    -0.732 NA 
HETATM    2  C   UNL     1     -12.071  14.372  64.825  1.00  0.00    -0.452 C  
HETATM    3  H1  UNL     1     -13.743  13.272  64.410  1.00  0.00     0.000 HD 
HETATM    4  H2  UNL     1     -13.291  13.228  66.040  1.00  0.00     0.000 HD 
ENDROOT
BRANCH   2   5
HETATM    5  C   UNL     1     -10.911  14.342  65.816  1.00  0.00    -0.303 C  
BRANCH   5   6
HETATM    6  C   UNL     1     -11.231  13.434  66.999  1.00  0.00    -0.328 C  
HETATM    7  C   UNL     1     -10.040  13.241  67.903  1.00  0.00    -0.235 C  
HETATM    8  O   UNL     1      -9.646  14.369  68.532  1.00  0.00    -0.210 OA 
HETATM    9  O   UNL     1      -9.494  12.165  68.084  1.00  0.00    -0.194 OA 
ENDBRANCH   5   6
ENDBRANCH   2   5
TORSDOF 2
ENDMDL
MODEL       92
REMARK 921   NORMALIZED FREE ENERGY PREDICTED BY IDOCK:   -1.98 KCAL/MOL
REMARK 922        TOTAL FREE ENERGY PREDICTED BY IDOCK:   -2.48 KCAL/MOL
REMARK 923 INTER-LIGAND FREE ENERGY PREDICTED BY IDOCK:   -2.46 KCAL/MOL
REMARK 924 INTRA-LIGAND FREE ENERGY PREDICTED BY IDOCK:   -0.02 KCAL/MOL
REMARK 927      BINDING AFFINITY PREDICTED BY RF-SCORE:    0.00 PKD
ROOT
HETATM    1  N   UNL     1      -9.061  11.514  62.899  1.00  0.00    -0.570 NA 
HETATM    2  C   UNL     1      -8.993  10.576  64.011  1.00  0.00    -0.217 C  
HETATM    3  H1  UNL     1      -8.224  11.434  62.323  1.00  0.00     0.000 HD 
HETATM    4  H2  UNL     1      -9.216  12.471  63.216  1.00  0.00     0.000 HD 
ENDROOT
BRANCH   2   5
HETATM    5  C   UNL     1     -10.246  10.697  64.874  1.00  0.00    -0.395 C  
BRANCH   5   6
HETATM    6  C   UNL     1     -10.142   9.807  66.108  1.00  0.00    -0.315 C  
HETATM    7  C   UNL     1     -10.436  10.565  67.378  1.00  0.00    -0.244 C  
HETATM    8  O   UNL     1     -11.711  11.000  67.469  1.00  0.00    -0.565 OA 
HETATM    9  O   UNL     1      -9.616  10.747  68.263  1.00  0.00    -0.155 OA 
ENDBRANCH   5   6
ENDBRANCH   2   5
TORSDOF 2
ENDMDL
MODEL       93
REMARK 921   NORMALIZED FREE ENERGY PREDICTED BY IDOCK:   -1.97 KCAL/MOL
REMARK 922        TOTAL FREE ENERGY PREDICTED BY IDOCK:   -2.47 KCAL/MOL
REMARK 923 INTER-LIGAND FREE ENERGY PREDICTED BY IDOCK:   -2.35 KCAL/MOL
REMARK 924 INTRA-LIGAND FREE ENERGY PREDICTED BY IDOCK:   -0.12 KCAL/MOL
REMARK 927      BINDING AFFINITY PREDICTED BY RF-SCORE:    0.00 PKD
ROOT
HETATM    1  N   UNL     1      -9.358  16.867  65.743  1.00  0.00    -0.528 NA 
HETATM    2  C   UNL     1      -8.389  16.987  66.823  1.00  0.00    -0.234 C  
HETATM    3  H1  UNL     1     -10.159  16.316  66.051  1.00  0.00     0.000 HD 
HETATM    4  H2  UNL     1      -8.938  16.489  64.894  1.00  0.00     0.000 HD 
ENDROOT
BRANCH   2   5
HETATM    5  C   UNL     1      -7.190  17.811  66.362  1.00  0.00    -0.308 C  
BRANCH   5   6
HETATM    6  C   UNL     1      -7.616  19.229  65.994  1.00  0.00    -0.290 C  
HETATM    7  C   UNL     1      -8.180  19.974  67.176  1.00  0.00    -0.322 C  
HETATM    8  O   UNL     1      -7.278  20.211  68.152  1.00  0.00    -0.285 OA 
HETATM    9  O   UNL     1      -9.336  20.362  67.244  1.00  0.00    -0.382 OA 
ENDBRANCH   5   6
ENDBRANCH   2   5
TORSDOF 2
ENDMDL
MODEL       94
REMARK 921   NORMALIZED FREE ENERGY PREDICTED BY IDOCK:   -1.97 KCAL/MOL
REMARK 922        TOTAL FREE ENERGY PREDICTED BY IDOCK:   -2.47 KCAL/MOL
REMARK 923 INTER-LIGAND FREE ENERGY PREDICTED BY IDOCK:   -2.41 KCAL/MOL
REMARK 924 INTRA-LIGAND FREE ENERGY PREDICTED BY IDOCK:   -0.06 KCAL/MOL
REMARK 927      BINDING AFFINITY PREDICTED BY RF-SCORE:    0.00 PKD
ROOT
HETATM    1  N   UNL     1     -12.126  10.826  68.526  1.00  0.00    -0.826 NA 
HETATM    2  C   UNL     1     -11.630  11.715  67.484  1.00  0.00    -0.272 C  
HETATM    3  H1  UNL     1     -11.962   9.855  68.263  1.00  0.00     0.000 HD 
HETATM    4  H2  UNL     1     -13.107  11.003  68.743  1.00  0.00     0.000 HD 
ENDROOT
BRANCH   2   5
HETATM    5  C   UNL     1     -11.876  13.169  67.877  1.00  0.00    -0.390 C  
BRANCH   5   6
HETATM    6  C   UNL     1     -10.645  13.764  68.553  1.00  0.00    -0.261 C  
HETATM    7  C   UNL     1      -9.389  13.522  67.756  1.00  0.00    -0.213 C  
HETATM    8  O   UNL     1      -9.371  14.155  66.563  1.00  0.00    -0.279 OA 
HETATM    9  O   UNL     1      -8.454  12.845  68.153  1.00  0.00    -0.164 OA 
ENDBRANCH   5   6
ENDBRANCH   2   5
TORSDOF 2
ENDMDL
MODEL       95
REMARK 921   NORMALIZED FREE ENERGY PREDICTED BY IDOCK:   -1.96 KCAL/MOL
REMARK 922        TOTAL FREE ENERGY PREDICTED BY IDOCK:   -2.47 KCAL/MOL
REMARK 923 INTER-LIGAND FREE ENERGY PREDICTED BY IDOCK:   -2.44 KCAL/MOL
REMARK 924 INTRA-LIGAND FREE ENERGY PREDICTED BY IDOCK:   -0.03 KCAL/MOL
REMARK 927      BINDING AFFINITY PREDICTED BY RF-SCORE:    0.00 PKD
ROOT
HETATM    1  N   UNL     1      -8.600   9.805  70.587  1.00  0.00    -0.373 NA 
HETATM    2  C   UNL     1      -9.999   9.634  70.222  1.00  0.00    -0.270 C  
HETATM    3  H1  UNL     1      -8.221  10.638  70.138  1.00  0.00     0.000 HD 
HETATM    4  H2  UNL     1      -8.047   8.973  70.379  1.00  0.00     0.000 HD 
ENDROOT
BRANCH   2   5
HETATM    5  C   UNL     1     -10.567   8.387  70.895  1.00  0.00    -0.243 C  
BRANCH   5   6
HETATM    6  C   UNL     1     -11.524   8.766  72.021  1.00  0.00    -0.441 C  
HETATM    7  C   UNL     1     -12.935   8.319  71.738  1.00  0.00    -0.344 C  
HETATM    8  O   UNL     1     -13.084   6.978  71.701  1.00  0.00    -0.377 OA 
HETATM    9  O   UNL     1     -13.871   9.087  71.587  1.00  0.00    -0.390 OA 
ENDBRANCH   5   6
ENDBRANCH   2   5
TORSDOF 2
ENDMDL
MODEL       96
REMARK 921   NORMALIZED FREE ENERGY PREDICTED BY IDOCK:   -1.96 KCAL/MOL
REMARK 922        TOTAL FREE ENERGY PREDICTED BY IDOCK:   -2.46 KCAL/MOL
REMARK 923 INTER-LIGAND FREE ENERGY PREDICTED BY IDOCK:   -2.35 KCAL/MOL
REMARK 924 INTRA-LIGAND FREE ENERGY PREDICTED BY IDOCK:   -0.11 KCAL/MOL
REMARK 927      BINDING AFFINITY PREDICTED BY RF-SCORE:    0.00 PKD
ROOT
HETATM    1  N   UNL     1     -10.784  19.358  66.271  1.00  0.00    -0.434 NA 
HETATM    2  C   UNL     1     -10.048  18.107  66.393  1.00  0.00    -0.389 C  
HETATM    3  H1  UNL     1     -11.783  19.169  66.196  1.00  0.00     0.000 HD 
HETATM    4  H2  UNL     1     -10.443  19.928  65.497  1.00  0.00     0.000 HD 
ENDROOT
BRANCH   2   5
HETATM    5  C   UNL     1      -8.552  18.390  66.506  1.00  0.00    -0.287 C  
BRANCH   5   6
HETATM    6  C   UNL     1      -8.032  18.015  67.890  1.00  0.00    -0.241 C  
HETATM    7  C   UNL     1      -8.108  19.170  68.854  1.00  0.00    -0.294 C  
HETATM    8  O   UNL     1      -9.369  19.560  69.140  1.00  0.00    -0.349 OA 
HETATM    9  O   UNL     1      -7.129  19.694  69.363  1.00  0.00    -0.357 OA 
ENDBRANCH   5   6
ENDBRANCH   2   5
TORSDOF 2
ENDMDL
MODEL       97
REMARK 921   NORMALIZED FREE ENERGY PREDICTED BY IDOCK:   -1.95 KCAL/MOL
REMARK 922        TOTAL FREE ENERGY PREDICTED BY IDOCK:   -2.45 KCAL/MOL
REMARK 923 INTER-LIGAND FREE ENERGY PREDICTED BY IDOCK:   -2.41 KCAL/MOL
REMARK 924 INTRA-LIGAND FREE ENERGY PREDICTED BY IDOCK:   -0.04 KCAL/MOL
REMARK 927      BINDING AFFINITY PREDICTED BY RF-SCORE:    0.00 PKD
ROOT
HETATM    1  N   UNL     1     -11.726  15.916  69.010  1.00  0.00    -0.390 NA 
HETATM    2  C   UNL     1     -11.252  14.674  68.416  1.00  0.00    -0.274 C  
HETATM    3  H1  UNL     1     -11.087  16.217  69.746  1.00  0.00     0.000 HD 
HETATM    4  H2  UNL     1     -12.686  15.837  69.345  1.00  0.00     0.000 HD 
ENDROOT
BRANCH   2   5
HETATM    5  C   UNL     1     -12.207  14.223  67.314  1.00  0.00    -0.287 C  
BRANCH   5   6
HETATM    6  C   UNL     1     -11.573  13.131  66.459  1.00  0.00    -0.402 C  
HETATM    7  C   UNL     1     -11.004  12.015  67.297  1.00  0.00    -0.262 C  
HETATM    8  O   UNL     1     -11.937  11.313  67.975  1.00  0.00    -0.621 OA 
HETATM    9  O   UNL     1      -9.816  11.739  67.342  1.00  0.00    -0.177 OA 
ENDBRANCH   5   6
ENDBRANCH   2   5
TORSDOF 2
ENDMDL
MODEL       98
REMARK 921   NORMALIZED FREE ENERGY PREDICTED BY IDOCK:   -1.93 KCAL/MOL
REMARK 922        TOTAL FREE ENERGY PREDICTED BY IDOCK:   -2.42 KCAL/MOL
REMARK 923 INTER-LIGAND FREE ENERGY PREDICTED BY IDOCK:   -2.15 KCAL/MOL
REMARK 924 INTRA-LIGAND FREE ENERGY PREDICTED BY IDOCK:   -0.28 KCAL/MOL
REMARK 927      BINDING AFFINITY PREDICTED BY RF-SCORE:    0.00 PKD
ROOT
HETATM    1  N   UNL     1      -8.653   9.653  70.773  1.00  0.00    -0.364 NA 
HETATM    2  C   UNL     1     -10.021   9.291  70.428  1.00  0.00    -0.237 C  
HETATM    3  H1  UNL     1      -8.424  10.566  70.382  1.00  0.00     0.000 HD 
HETATM    4  H2  UNL     1      -7.985   8.937  70.488  1.00  0.00     0.000 HD 
ENDROOT
BRANCH   2   5
HETATM    5  C   UNL     1     -10.363   7.923  71.012  1.00  0.00    -0.221 C  
BRANCH   5   6
HETATM    6  C   UNL     1     -11.007   8.067  72.388  1.00  0.00    -0.402 C  
HETATM    7  C   UNL     1     -10.103   7.578  73.489  1.00  0.00    -0.323 C  
HETATM    8  O   UNL     1      -8.982   8.316  73.641  1.00  0.00    -0.239 OA 
HETATM    9  O   UNL     1     -10.363   6.625  74.207  1.00  0.00    -0.361 OA 
ENDBRANCH   5   6
ENDBRANCH   2   5
TORSDOF 2
ENDMDL
MODEL       99
REMARK 921   NORMALIZED FREE ENERGY PREDICTED BY IDOCK:   -1.92 KCAL/MOL
REMARK 922        TOTAL FREE ENERGY PREDICTED BY IDOCK:   -2.41 KCAL/MOL
REMARK 923 INTER-LIGAND FREE ENERGY PREDICTED BY IDOCK:   -2.29 KCAL/MOL
REMARK 924 INTRA-LIGAND FREE ENERGY PREDICTED BY IDOCK:   -0.12 KCAL/MOL
REMARK 927      BINDING AFFINITY PREDICTED BY RF-SCORE:    0.00 PKD
ROOT
HETATM    1  N   UNL     1     -12.026  13.328  68.471  1.00  0.00    -0.340 NA 
HETATM    2  C   UNL     1     -11.953  13.716  69.873  1.00  0.00    -0.348 C  
HETATM    3  H1  UNL     1     -11.735  12.357  68.362  1.00  0.00     0.000 HD 
HETATM    4  H2  UNL     1     -11.490  13.957  67.873  1.00  0.00     0.000 HD 
ENDROOT
BRANCH   2   5
HETATM    5  C   UNL     1     -12.389  15.170  70.036  1.00  0.00    -0.356 C  
BRANCH   5   6
HETATM    6  C   UNL     1     -11.224  16.035  70.508  1.00  0.00    -0.397 C  
HETATM    7  C   UNL     1     -10.168  16.190  69.444  1.00  0.00    -0.266 C  
HETATM    8  O   UNL     1     -10.585  16.874  68.358  1.00  0.00    -0.327 OA 
HETATM    9  O   UNL     1      -9.027  15.769  69.556  1.00  0.00    -0.260 OA 
ENDBRANCH   5   6
ENDBRANCH   2   5
TORSDOF 2
ENDMDL
MODEL      100
REMARK 921   NORMALIZED FREE ENERGY PREDICTED BY IDOCK:   -1.91 KCAL/MOL
REMARK 922        TOTAL FREE ENERGY PREDICTED BY IDOCK:   -2.41 KCAL/MOL
REMARK 923 INTER-LIGAND FREE ENERGY PREDICTED BY IDOCK:   -2.37 KCAL/MOL
REMARK 924 INTRA-LIGAND FREE ENERGY PREDICTED BY IDOCK:   -0.04 KCAL/MOL
REMARK 927      BINDING AFFINITY PREDICTED BY RF-SCORE:    0.00 PKD
ROOT
HETATM    1  N   UNL     1      -9.871  14.191  65.692  1.00  0.00    -0.485 NA 
HETATM    2  C   UNL     1      -9.156  15.424  65.987  1.00  0.00    -0.249 C  
HETATM    3  H1  UNL     1      -9.326  13.615  65.051  1.00  0.00     0.000 HD 
HETATM    4  H2  UNL     1     -10.811  14.370  65.339  1.00  0.00     0.000 HD 
ENDROOT
BRANCH   2   5
HETATM    5  C   UNL     1      -9.973  16.286  66.946  1.00  0.00    -0.263 C  
BRANCH   5   6
HETATM    6  C   UNL     1      -9.202  17.543  67.337  1.00  0.00    -0.238 C  
HETATM    7  C   UNL     1      -9.673  18.755  66.575  1.00  0.00    -0.354 C  
HETATM    8  O   UNL     1     -10.941  19.120  66.862  1.00  0.00    -0.394 OA 
HETATM    9  O   UNL     1      -8.973  19.378  65.792  1.00  0.00    -0.385 OA 
ENDBRANCH   5   6
ENDBRANCH   2   5
TORSDOF 2
ENDMDL
MODEL      101
REMARK 921   NORMALIZED FREE ENERGY PREDICTED BY IDOCK:   -1.91 KCAL/MOL
REMARK 922        TOTAL FREE ENERGY PREDICTED BY IDOCK:   -2.40 KCAL/MOL
REMARK 923 INTER-LIGAND FREE ENERGY PREDICTED BY IDOCK:   -2.36 KCAL/MOL
REMARK 924 INTRA-LIGAND FREE ENERGY PREDICTED BY IDOCK:   -0.05 KCAL/MOL
REMARK 927      BINDING AFFINITY PREDICTED BY RF-SCORE:    0.00 PKD
ROOT
HETATM    1  N   UNL     1      -7.835   8.591  73.779  1.00  0.00    -0.405 NA 
HETATM    2  C   UNL     1      -9.072   7.823  73.771  1.00  0.00    -0.273 C  
HETATM    3  H1  UNL     1      -7.262   8.323  74.579  1.00  0.00     0.000 HD 
HETATM    4  H2  UNL     1      -8.010   9.596  73.755  1.00  0.00     0.000 HD 
ENDROOT
BRANCH   2   5
HETATM    5  C   UNL     1      -9.930   8.225  72.575  1.00  0.00    -0.373 C  
BRANCH   5   6
HETATM    6  C   UNL     1     -11.313   7.587  72.660  1.00  0.00    -0.395 C  
HETATM    7  C   UNL     1     -11.545   6.593  71.551  1.00  0.00    -0.309 C  
HETATM    8  O   UNL     1     -10.746   5.507  71.617  1.00  0.00    -0.243 OA 
HETATM    9  O   UNL     1     -12.397   6.729  70.687  1.00  0.00    -0.359 OA 
ENDBRANCH   5   6
ENDBRANCH   2   5
TORSDOF 2
ENDMDL
MODEL      102
REMARK 921   NORMALIZED FREE ENERGY PREDICTED BY IDOCK:   -1.91 KCAL/MOL
REMARK 922        TOTAL FREE ENERGY PREDICTED BY IDOCK:   -2.40 KCAL/MOL
REMARK 923 INTER-LIGAND FREE ENERGY PREDICTED BY IDOCK:   -2.39 KCAL/MOL
REMARK 924 INTRA-LIGAND FREE ENERGY PREDICTED BY IDOCK:   -0.02 KCAL/MOL
REMARK 927      BINDING AFFINITY PREDICTED BY RF-SCORE:    0.00 PKD
ROOT
HETATM    1  N   UNL     1     -10.976   7.349  66.960  1.00  0.00    -0.560 NA 
HETATM    2  C   UNL     1     -10.035   8.074  67.802  1.00  0.00    -0.175 C  
HETATM    3  H1  UNL     1     -10.578   6.452  66.683  1.00  0.00     0.000 HD 
HETATM    4  H2  UNL     1     -11.272   7.901  66.155  1.00  0.00     0.000 HD 
ENDROOT
BRANCH   2   5
HETATM    5  C   UNL     1     -10.630   9.416  68.216  1.00  0.00    -0.256 C  
BRANCH   5   6
HETATM    6  C   UNL     1     -10.557  10.419  67.069  1.00  0.00    -0.305 C  
HETATM    7  C   UNL     1     -11.125  11.761  67.454  1.00  0.00    -0.282 C  
HETATM    8  O   UNL     1     -10.416  12.398  68.411  1.00  0.00    -0.224 OA 
HETATM    9  O   UNL     1     -12.114  12.253  66.935  1.00  0.00    -0.583 OA 
ENDBRANCH   5   6
ENDBRANCH   2   5
TORSDOF 2
ENDMDL
MODEL      103
REMARK 921   NORMALIZED FREE ENERGY PREDICTED BY IDOCK:   -1.90 KCAL/MOL
REMARK 922        TOTAL FREE ENERGY PREDICTED BY IDOCK:   -2.39 KCAL/MOL
REMARK 923 INTER-LIGAND FREE ENERGY PREDICTED BY IDOCK:   -2.30 KCAL/MOL
REMARK 924 INTRA-LIGAND FREE ENERGY PREDICTED BY IDOCK:   -0.10 KCAL/MOL
REMARK 927      BINDING AFFINITY PREDICTED BY RF-SCORE:    0.00 PKD
ROOT
HETATM    1  N   UNL     1      -7.433  13.835  66.950  1.00  0.00    -0.273 NA 
HETATM    2  C   UNL     1      -8.823  13.467  67.179  1.00  0.00    -0.226 C  
HETATM    3  H1  UNL     1      -6.834  13.016  67.048  1.00  0.00     0.000 HD 
HETATM    4  H2  UNL     1      -7.135  14.601  67.556  1.00  0.00     0.000 HD 
ENDROOT
BRANCH   2   5
HETATM    5  C   UNL     1      -9.719  14.694  67.033  1.00  0.00    -0.247 C  
BRANCH   5   6
HETATM    6  C   UNL     1      -9.941  15.032  65.563  1.00  0.00    -0.390 C  
HETATM    7  C   UNL     1     -10.883  14.063  64.895  1.00  0.00    -0.410 C  
HETATM    8  O   UNL     1     -12.144  14.114  65.374  1.00  0.00    -0.375 OA 
HETATM    9  O   UNL     1     -10.556  13.319  63.984  1.00  0.00    -0.373 OA 
ENDBRANCH   5   6
ENDBRANCH   2   5
TORSDOF 2
ENDMDL
MODEL      104
REMARK 921   NORMALIZED FREE ENERGY PREDICTED BY IDOCK:   -1.89 KCAL/MOL
REMARK 922        TOTAL FREE ENERGY PREDICTED BY IDOCK:   -2.39 KCAL/MOL
REMARK 923 INTER-LIGAND FREE ENERGY PREDICTED BY IDOCK:   -2.34 KCAL/MOL
REMARK 924 INTRA-LIGAND FREE ENERGY PREDICTED BY IDOCK:   -0.05 KCAL/MOL
REMARK 927      BINDING AFFINITY PREDICTED BY RF-SCORE:    0.00 PKD
ROOT
HETATM    1  N   UNL     1     -11.776  11.330  62.963  1.00  0.00    -0.796 NA 
HETATM    2  C   UNL     1     -10.813  12.302  63.463  1.00  0.00    -0.454 C  
HETATM    3  H1  UNL     1     -11.925  11.467  61.964  1.00  0.00     0.000 HD 
HETATM    4  H2  UNL     1     -12.650  11.354  63.487  1.00  0.00     0.000 HD 
ENDROOT
BRANCH   2   5
HETATM    5  C   UNL     1     -10.591  12.096  64.959  1.00  0.00    -0.330 C  
BRANCH   5   6
HETATM    6  C   UNL     1     -10.260  10.638  65.262  1.00  0.00    -0.351 C  
HETATM    7  C   UNL     1      -9.082  10.147  64.460  1.00  0.00    -0.240 C  
HETATM    8  O   UNL     1      -7.918  10.755  64.773  1.00  0.00    -0.031 OA 
HETATM    9  O   UNL     1      -9.154   9.259  63.625  1.00  0.00    -0.136 OA 
ENDBRANCH   5   6
ENDBRANCH   2   5
TORSDOF 2
ENDMDL
MODEL      105
REMARK 921   NORMALIZED FREE ENERGY PREDICTED BY IDOCK:   -1.88 KCAL/MOL
REMARK 922        TOTAL FREE ENERGY PREDICTED BY IDOCK:   -2.38 KCAL/MOL
REMARK 923 INTER-LIGAND FREE ENERGY PREDICTED BY IDOCK:   -2.10 KCAL/MOL
REMARK 924 INTRA-LIGAND FREE ENERGY PREDICTED BY IDOCK:   -0.27 KCAL/MOL
REMARK 927      BINDING AFFINITY PREDICTED BY RF-SCORE:    0.00 PKD
ROOT
HETATM    1  N   UNL     1      -9.067  16.437  65.775  1.00  0.00    -0.466 NA 
HETATM    2  C   UNL     1      -8.357  16.716  67.016  1.00  0.00    -0.187 C  
HETATM    3  H1  UNL     1      -8.403  16.200  65.038  1.00  0.00     0.000 HD 
HETATM    4  H2  UNL     1      -9.679  17.207  65.504  1.00  0.00     0.000 HD 
ENDROOT
BRANCH   2   5
HETATM    5  C   UNL     1      -9.351  17.071  68.118  1.00  0.00    -0.254 C  
BRANCH   5   6
HETATM    6  C   UNL     1      -9.872  15.812  68.805  1.00  0.00    -0.214 C  
HETATM    7  C   UNL     1     -11.303  15.517  68.435  1.00  0.00    -0.354 C  
HETATM    8  O   UNL     1     -11.474  15.201  67.133  1.00  0.00    -0.330 OA 
HETATM    9  O   UNL     1     -12.225  15.527  69.234  1.00  0.00    -0.301 OA 
ENDBRANCH   5   6
ENDBRANCH   2   5
TORSDOF 2
ENDMDL
MODEL      106
REMARK 921   NORMALIZED FREE ENERGY PREDICTED BY IDOCK:   -1.87 KCAL/MOL
REMARK 922        TOTAL FREE ENERGY PREDICTED BY IDOCK:   -2.36 KCAL/MOL
REMARK 923 INTER-LIGAND FREE ENERGY PREDICTED BY IDOCK:   -2.34 KCAL/MOL
REMARK 924 INTRA-LIGAND FREE ENERGY PREDICTED BY IDOCK:   -0.02 KCAL/MOL
REMARK 927      BINDING AFFINITY PREDICTED BY RF-SCORE:    0.00 PKD
ROOT
HETATM    1  N   UNL     1      -7.469  10.208  70.514  1.00  0.00    -0.430 NA 
HETATM    2  C   UNL     1      -8.733   9.668  70.033  1.00  0.00    -0.231 C  
HETATM    3  H1  UNL     1      -7.129  10.924  69.873  1.00  0.00     0.000 HD 
HETATM    4  H2  UNL     1      -6.777   9.476  70.672  1.00  0.00     0.000 HD 
ENDROOT
BRANCH   2   5
HETATM    5  C   UNL     1      -9.242   8.596  70.992  1.00  0.00    -0.253 C  
BRANCH   5   6
HETATM    6  C   UNL     1     -10.497   9.069  71.719  1.00  0.00    -0.418 C  
HETATM    7  C   UNL     1     -11.175   7.949  72.465  1.00  0.00    -0.376 C  
HETATM    8  O   UNL     1     -10.445   7.457  73.488  1.00  0.00    -0.355 OA 
HETATM    9  O   UNL     1     -12.294   7.538  72.201  1.00  0.00    -0.281 OA 
ENDBRANCH   5   6
ENDBRANCH   2   5
TORSDOF 2
ENDMDL
MODEL      107
REMARK 921   NORMALIZED FREE ENERGY PREDICTED BY IDOCK:   -1.86 KCAL/MOL
REMARK 922        TOTAL FREE ENERGY PREDICTED BY IDOCK:   -2.34 KCAL/MOL
REMARK 923 INTER-LIGAND FREE ENERGY PREDICTED BY IDOCK:   -2.29 KCAL/MOL
REMARK 924 INTRA-LIGAND FREE ENERGY PREDICTED BY IDOCK:   -0.05 KCAL/MOL
REMARK 927      BINDING AFFINITY PREDICTED BY RF-SCORE:    0.00 PKD
ROOT
HETATM    1  N   UNL     1      -9.765  12.577  68.276  1.00  0.00    -0.224 NA 
HETATM    2  C   UNL     1     -10.556  13.724  68.699  1.00  0.00    -0.253 C  
HETATM    3  H1  UNL     1      -8.876  12.890  67.887  1.00  0.00     0.000 HD 
HETATM    4  H2  UNL     1     -10.276  11.979  67.627  1.00  0.00     0.000 HD 
ENDROOT
BRANCH   2   5
HETATM    5  C   UNL     1     -11.887  13.256  69.281  1.00  0.00    -0.383 C  
BRANCH   5   6
HETATM    6  C   UNL     1     -12.019  11.739  69.181  1.00  0.00    -0.356 C  
HETATM    7  C   UNL     1     -11.972  11.077  70.534  1.00  0.00    -0.379 C  
HETATM    8  O   UNL     1     -13.021  11.385  71.327  1.00  0.00    -0.385 OA 
HETATM    9  O   UNL     1     -11.091  10.308  70.882  1.00  0.00    -0.315 OA 
ENDBRANCH   5   6
ENDBRANCH   2   5
TORSDOF 2
ENDMDL
MODEL      108
REMARK 921   NORMALIZED FREE ENERGY PREDICTED BY IDOCK:   -1.85 KCAL/MOL
REMARK 922        TOTAL FREE ENERGY PREDICTED BY IDOCK:   -2.34 KCAL/MOL
REMARK 923 INTER-LIGAND FREE ENERGY PREDICTED BY IDOCK:   -2.09 KCAL/MOL
REMARK 924 INTRA-LIGAND FREE ENERGY PREDICTED BY IDOCK:   -0.25 KCAL/MOL
REMARK 927      BINDING AFFINITY PREDICTED BY RF-SCORE:    0.00 PKD
ROOT
HETATM    1  N   UNL     1      -8.469  15.979  68.626  1.00  0.00    -0.195 NA 
HETATM    2  C   UNL     1      -8.805  15.300  67.382  1.00  0.00    -0.179 C  
HETATM    3  H1  UNL     1      -8.445  15.309  69.394  1.00  0.00     0.000 HD 
HETATM    4  H2  UNL     1      -9.098  16.758  68.817  1.00  0.00     0.000 HD 
ENDROOT
BRANCH   2   5
HETATM    5  C   UNL     1      -8.840  16.302  66.232  1.00  0.00    -0.367 C  
BRANCH   5   6
HETATM    6  C   UNL     1      -7.647  17.250  66.301  1.00  0.00    -0.360 C  
HETATM    7  C   UNL     1      -8.075  18.685  66.469  1.00  0.00    -0.284 C  
HETATM    8  O   UNL     1      -8.685  18.938  67.647  1.00  0.00    -0.282 OA 
HETATM    9  O   UNL     1      -7.866  19.556  65.639  1.00  0.00    -0.426 OA 
ENDBRANCH   5   6
ENDBRANCH   2   5
TORSDOF 2
ENDMDL
MODEL      109
REMARK 921   NORMALIZED FREE ENERGY PREDICTED BY IDOCK:   -1.84 KCAL/MOL
REMARK 922        TOTAL FREE ENERGY PREDICTED BY IDOCK:   -2.33 KCAL/MOL
REMARK 923 INTER-LIGAND FREE ENERGY PREDICTED BY IDOCK:   -2.26 KCAL/MOL
REMARK 924 INTRA-LIGAND FREE ENERGY PREDICTED BY IDOCK:   -0.07 KCAL/MOL
REMARK 927      BINDING AFFINITY PREDICTED BY RF-SCORE:    0.00 PKD
ROOT
HETATM    1  N   UNL     1      -9.907  10.924  69.487  1.00  0.00    -0.437 NA 
HETATM    2  C   UNL     1      -9.627  11.149  68.076  1.00  0.00    -0.176 C  
HETATM    3  H1  UNL     1      -9.523  10.027  69.781  1.00  0.00     0.000 HD 
HETATM    4  H2  UNL     1     -10.902  11.001  69.696  1.00  0.00     0.000 HD 
ENDROOT
BRANCH   2   5
HETATM    5  C   UNL     1     -10.202  12.493  67.637  1.00  0.00    -0.220 C  
BRANCH   5   6
HETATM    6  C   UNL     1     -11.676  12.600  68.011  1.00  0.00    -0.402 C  
HETATM    7  C   UNL     1     -11.975  13.865  68.775  1.00  0.00    -0.358 C  
HETATM    8  O   UNL     1     -11.801  14.992  68.052  1.00  0.00    -0.335 OA 
HETATM    9  O   UNL     1     -12.370  13.882  69.930  1.00  0.00    -0.332 OA 
ENDBRANCH   5   6
ENDBRANCH   2   5
TORSDOF 2
ENDMDL
MODEL      110
REMARK 921   NORMALIZED FREE ENERGY PREDICTED BY IDOCK:   -1.84 KCAL/MOL
REMARK 922        TOTAL FREE ENERGY PREDICTED BY IDOCK:   -2.32 KCAL/MOL
REMARK 923 INTER-LIGAND FREE ENERGY PREDICTED BY IDOCK:   -2.28 KCAL/MOL
REMARK 924 INTRA-LIGAND FREE ENERGY PREDICTED BY IDOCK:   -0.04 KCAL/MOL
REMARK 927      BINDING AFFINITY PREDICTED BY RF-SCORE:    0.00 PKD
ROOT
HETATM    1  N   UNL     1     -10.385   5.551  69.464  1.00  0.00    -0.262 NA 
HETATM    2  C   UNL     1     -10.801   6.859  69.948  1.00  0.00    -0.257 C  
HETATM    3  H1  UNL     1      -9.767   5.656  68.660  1.00  0.00     0.000 HD 
HETATM    4  H2  UNL     1     -11.182   4.949  69.258  1.00  0.00     0.000 HD 
ENDROOT
BRANCH   2   5
HETATM    5  C   UNL     1     -11.726   6.702  71.152  1.00  0.00    -0.399 C  
BRANCH   5   6
HETATM    6  C   UNL     1     -11.116   7.347  72.393  1.00  0.00    -0.331 C  
HETATM    7  C   UNL     1     -10.632   8.748  72.121  1.00  0.00    -0.316 C  
HETATM    8  O   UNL     1     -11.622   9.619  71.827  1.00  0.00    -0.378 OA 
HETATM    9  O   UNL     1      -9.461   9.086  72.190  1.00  0.00    -0.340 OA 
ENDBRANCH   5   6
ENDBRANCH   2   5
TORSDOF 2
ENDMDL
MODEL      111
REMARK 921   NORMALIZED FREE ENERGY PREDICTED BY IDOCK:   -1.82 KCAL/MOL
REMARK 922        TOTAL FREE ENERGY PREDICTED BY IDOCK:   -2.31 KCAL/MOL
REMARK 923 INTER-LIGAND FREE ENERGY PREDICTED BY IDOCK:   -2.24 KCAL/MOL
REMARK 924 INTRA-LIGAND FREE ENERGY PREDICTED BY IDOCK:   -0.06 KCAL/MOL
REMARK 927      BINDING AFFINITY PREDICTED BY RF-SCORE:    0.00 PKD
ROOT
HETATM    1  N   UNL     1     -12.517  14.700  68.887  1.00  0.00    -0.574 NA 
HETATM    2  C   UNL     1     -11.546  13.695  68.475  1.00  0.00    -0.335 C  
HETATM    3  H1  UNL     1     -12.516  14.790  69.903  1.00  0.00     0.000 HD 
HETATM    4  H2  UNL     1     -13.449  14.502  68.522  1.00  0.00     0.000 HD 
ENDROOT
BRANCH   2   5
HETATM    5  C   UNL     1     -11.548  13.560  66.955  1.00  0.00    -0.398 C  
BRANCH   5   6
HETATM    6  C   UNL     1     -10.743  14.683  66.309  1.00  0.00    -0.316 C  
HETATM    7  C   UNL     1      -9.406  14.877  66.978  1.00  0.00    -0.227 C  
HETATM    8  O   UNL     1      -8.567  13.830  66.832  1.00  0.00    -0.196 OA 
HETATM    9  O   UNL     1      -9.087  15.895  67.571  1.00  0.00    -0.196 OA 
ENDBRANCH   5   6
ENDBRANCH   2   5
TORSDOF 2
ENDMDL
MODEL      112
REMARK 921   NORMALIZED FREE ENERGY PREDICTED BY IDOCK:   -1.82 KCAL/MOL
REMARK 922        TOTAL FREE ENERGY PREDICTED BY IDOCK:   -2.30 KCAL/MOL
REMARK 923 INTER-LIGAND FREE ENERGY PREDICTED BY IDOCK:   -2.04 KCAL/MOL
REMARK 924 INTRA-LIGAND FREE ENERGY PREDICTED BY IDOCK:   -0.26 KCAL/MOL
REMARK 927      BINDING AFFINITY PREDICTED BY RF-SCORE:    0.00 PKD
ROOT
HETATM    1  N   UNL     1      -9.963  11.770  68.734  1.00  0.00    -0.367 NA 
HETATM    2  C   UNL     1      -8.632  12.087  68.235  1.00  0.00    -0.174 C  
HETATM    3  H1  UNL     1      -9.933  11.632  69.744  1.00  0.00     0.000 HD 
HETATM    4  H2  UNL     1     -10.371  10.970  68.251  1.00  0.00     0.000 HD 
ENDROOT
BRANCH   2   5
HETATM    5  C   UNL     1      -8.676  12.292  66.723  1.00  0.00    -0.175 C  
BRANCH   5   6
HETATM    6  C   UNL     1      -9.554  13.487  66.364  1.00  0.00    -0.268 C  
HETATM    7  C   UNL     1     -10.676  13.104  65.433  1.00  0.00    -0.294 C  
HETATM    8  O   UNL     1     -11.579  12.265  65.986  1.00  0.00    -0.368 OA 
HETATM    9  O   UNL     1     -10.788  13.530  64.295  1.00  0.00    -0.391 OA 
ENDBRANCH   5   6
ENDBRANCH   2   5
TORSDOF 2
ENDMDL
MODEL      113
REMARK 921   NORMALIZED FREE ENERGY PREDICTED BY IDOCK:   -1.82 KCAL/MOL
REMARK 922        TOTAL FREE ENERGY PREDICTED BY IDOCK:   -2.30 KCAL/MOL
REMARK 923 INTER-LIGAND FREE ENERGY PREDICTED BY IDOCK:   -2.27 KCAL/MOL
REMARK 924 INTRA-LIGAND FREE ENERGY PREDICTED BY IDOCK:   -0.03 KCAL/MOL
REMARK 927      BINDING AFFINITY PREDICTED BY RF-SCORE:    0.00 PKD
ROOT
HETATM    1  N   UNL     1      -9.650   5.057  70.457  1.00  0.00    -0.171 NA 
HETATM    2  C   UNL     1     -10.122   5.989  69.443  1.00  0.00    -0.192 C  
HETATM    3  H1  UNL     1      -8.720   4.716  70.213  1.00  0.00     0.000 HD 
HETATM    4  H2  UNL     1     -10.309   4.293  70.610  1.00  0.00     0.000 HD 
ENDROOT
BRANCH   2   5
HETATM    5  C   UNL     1     -11.513   6.499  69.808  1.00  0.00    -0.443 C  
BRANCH   5   6
HETATM    6  C   UNL     1     -11.733   6.443  71.316  1.00  0.00    -0.359 C  
HETATM    7  C   UNL     1     -12.586   7.584  71.806  1.00  0.00    -0.334 C  
HETATM    8  O   UNL     1     -13.857   7.550  71.350  1.00  0.00    -0.383 OA 
HETATM    9  O   UNL     1     -12.188   8.449  72.571  1.00  0.00    -0.386 OA 
ENDBRANCH   5   6
ENDBRANCH   2   5
TORSDOF 2
ENDMDL
MODEL      114
REMARK 921   NORMALIZED FREE ENERGY PREDICTED BY IDOCK:   -1.79 KCAL/MOL
REMARK 922        TOTAL FREE ENERGY PREDICTED BY IDOCK:   -2.27 KCAL/MOL
REMARK 923 INTER-LIGAND FREE ENERGY PREDICTED BY IDOCK:   -2.29 KCAL/MOL
REMARK 924 INTRA-LIGAND FREE ENERGY PREDICTED BY IDOCK:    0.03 KCAL/MOL
REMARK 927      BINDING AFFINITY PREDICTED BY RF-SCORE:    0.00 PKD
ROOT
HETATM    1  N   UNL     1      -9.431  13.800  65.923  1.00  0.00    -0.506 NA 
HETATM    2  C   UNL     1      -9.103  12.947  67.057  1.00  0.00    -0.228 C  
HETATM    3  H1  UNL     1      -9.268  14.778  66.163  1.00  0.00     0.000 HD 
HETATM    4  H2  UNL     1     -10.382  13.641  65.589  1.00  0.00     0.000 HD 
ENDROOT
BRANCH   2   5
HETATM    5  C   UNL     1      -9.347  11.484  66.699  1.00  0.00    -0.201 C  
BRANCH   5   6
HETATM    6  C   UNL     1     -10.417  10.876  67.600  1.00  0.00    -0.244 C  
HETATM    7  C   UNL     1     -11.428  11.900  68.047  1.00  0.00    -0.323 C  
HETATM    8  O   UNL     1     -12.179  12.398  67.041  1.00  0.00    -0.508 OA 
HETATM    9  O   UNL     1     -11.587  12.232  69.210  1.00  0.00    -0.284 OA 
ENDBRANCH   5   6
ENDBRANCH   2   5
TORSDOF 2
ENDMDL
MODEL      115
REMARK 921   NORMALIZED FREE ENERGY PREDICTED BY IDOCK:   -1.78 KCAL/MOL
REMARK 922        TOTAL FREE ENERGY PREDICTED BY IDOCK:   -2.27 KCAL/MOL
REMARK 923 INTER-LIGAND FREE ENERGY PREDICTED BY IDOCK:   -2.01 KCAL/MOL
REMARK 924 INTRA-LIGAND FREE ENERGY PREDICTED BY IDOCK:   -0.26 KCAL/MOL
REMARK 927      BINDING AFFINITY PREDICTED BY RF-SCORE:    0.00 PKD
ROOT
HETATM    1  N   UNL     1      -9.881   3.829  70.836  1.00  0.00    -0.170 NA 
HETATM    2  C   UNL     1     -10.113   4.200  72.225  1.00  0.00    -0.178 C  
HETATM    3  H1  UNL     1      -9.789   2.817  70.755  1.00  0.00     0.000 HD 
HETATM    4  H2  UNL     1      -9.079   4.319  70.439  1.00  0.00     0.000 HD 
ENDROOT
BRANCH   2   5
HETATM    5  C   UNL     1     -10.250   5.715  72.347  1.00  0.00    -0.232 C  
BRANCH   5   6
HETATM    6  C   UNL     1     -11.702   6.145  72.164  1.00  0.00    -0.361 C  
HETATM    7  C   UNL     1     -11.888   6.999  70.937  1.00  0.00    -0.356 C  
HETATM    8  O   UNL     1     -11.655   6.346  69.778  1.00  0.00    -0.431 OA 
HETATM    9  O   UNL     1     -12.247   8.165  70.971  1.00  0.00    -0.277 OA 
ENDBRANCH   5   6
ENDBRANCH   2   5
TORSDOF 2
ENDMDL
MODEL      116
REMARK 921   NORMALIZED FREE ENERGY PREDICTED BY IDOCK:   -1.78 KCAL/MOL
REMARK 922        TOTAL FREE ENERGY PREDICTED BY IDOCK:   -2.26 KCAL/MOL
REMARK 923 INTER-LIGAND FREE ENERGY PREDICTED BY IDOCK:   -2.15 KCAL/MOL
REMARK 924 INTRA-LIGAND FREE ENERGY PREDICTED BY IDOCK:   -0.11 KCAL/MOL
REMARK 927      BINDING AFFINITY PREDICTED BY RF-SCORE:    0.00 PKD
ROOT
HETATM    1  N   UNL     1     -12.280  10.689  68.769  1.00  0.00    -0.808 NA 
HETATM    2  C   UNL     1     -11.452  11.618  68.013  1.00  0.00    -0.315 C  
HETATM    3  H1  UNL     1     -12.882  11.202  69.413  1.00  0.00     0.000 HD 
HETATM    4  H2  UNL     1     -11.721   9.983  69.249  1.00  0.00     0.000 HD 
ENDROOT
BRANCH   2   5
HETATM    5  C   UNL     1     -10.550  10.851  67.050  1.00  0.00    -0.307 C  
BRANCH   5   6
HETATM    6  C   UNL     1     -10.575   9.357  67.358  1.00  0.00    -0.326 C  
HETATM    7  C   UNL     1      -9.251   8.867  67.888  1.00  0.00    -0.138 C  
HETATM    8  O   UNL     1      -8.922   9.382  69.092  1.00  0.00    -0.138 OA 
HETATM    9  O   UNL     1      -8.548   8.056  67.308  1.00  0.00    -0.123 OA 
ENDBRANCH   5   6
ENDBRANCH   2   5
TORSDOF 2
ENDMDL
MODEL      117
REMARK 921   NORMALIZED FREE ENERGY PREDICTED BY IDOCK:   -1.78 KCAL/MOL
REMARK 922        TOTAL FREE ENERGY PREDICTED BY IDOCK:   -2.26 KCAL/MOL
REMARK 923 INTER-LIGAND FREE ENERGY PREDICTED BY IDOCK:   -2.23 KCAL/MOL
REMARK 924 INTRA-LIGAND FREE ENERGY PREDICTED BY IDOCK:   -0.03 KCAL/MOL
REMARK 927      BINDING AFFINITY PREDICTED BY RF-SCORE:    0.00 PKD
ROOT
HETATM    1  N   UNL     1      -9.544   5.053  72.974  1.00  0.00    -0.141 NA 
HETATM    2  C   UNL     1     -10.262   5.599  71.831  1.00  0.00    -0.195 C  
HETATM    3  H1  UNL     1      -8.615   4.746  72.689  1.00  0.00     0.000 HD 
HETATM    4  H2  UNL     1     -10.069   4.308  73.433  1.00  0.00     0.000 HD 
ENDROOT
BRANCH   2   5
HETATM    5  C   UNL     1     -11.653   6.059  72.257  1.00  0.00    -0.359 C  
BRANCH   5   6
HETATM    6  C   UNL     1     -12.265   6.982  71.209  1.00  0.00    -0.419 C  
HETATM    7  C   UNL     1     -13.187   8.004  71.824  1.00  0.00    -0.341 C  
HETATM    8  O   UNL     1     -12.560   8.890  72.627  1.00  0.00    -0.352 OA 
HETATM    9  O   UNL     1     -14.386   8.056  71.600  1.00  0.00    -0.424 OA 
ENDBRANCH   5   6
ENDBRANCH   2   5
TORSDOF 2
ENDMDL
MODEL      118
REMARK 921   NORMALIZED FREE ENERGY PREDICTED BY IDOCK:   -1.77 KCAL/MOL
REMARK 922        TOTAL FREE ENERGY PREDICTED BY IDOCK:   -2.24 KCAL/MOL
REMARK 923 INTER-LIGAND FREE ENERGY PREDICTED BY IDOCK:   -2.02 KCAL/MOL
REMARK 924 INTRA-LIGAND FREE ENERGY PREDICTED BY IDOCK:   -0.22 KCAL/MOL
REMARK 927      BINDING AFFINITY PREDICTED BY RF-SCORE:    0.00 PKD
ROOT
HETATM    1  N   UNL     1     -11.132   7.666  67.067  1.00  0.00    -0.427 NA 
HETATM    2  C   UNL     1      -9.750   8.024  66.779  1.00  0.00    -0.237 C  
HETATM    3  H1  UNL     1     -11.214   6.657  67.186  1.00  0.00     0.000 HD 
HETATM    4  H2  UNL     1     -11.774   8.021  66.359  1.00  0.00     0.000 HD 
ENDROOT
BRANCH   2   5
HETATM    5  C   UNL     1      -9.628   9.535  66.600  1.00  0.00    -0.243 C  
BRANCH   5   6
HETATM    6  C   UNL     1      -9.610  10.241  67.952  1.00  0.00    -0.161 C  
HETATM    7  C   UNL     1     -10.703  11.272  68.065  1.00  0.00    -0.203 C  
HETATM    8  O   UNL     1     -11.948  10.750  68.053  1.00  0.00    -0.537 OA 
HETATM    9  O   UNL     1     -10.495  12.469  68.190  1.00  0.00    -0.215 OA 
ENDBRANCH   5   6
ENDBRANCH   2   5
TORSDOF 2
ENDMDL
MODEL      119
REMARK 921   NORMALIZED FREE ENERGY PREDICTED BY IDOCK:   -1.75 KCAL/MOL
REMARK 922        TOTAL FREE ENERGY PREDICTED BY IDOCK:   -2.23 KCAL/MOL
REMARK 923 INTER-LIGAND FREE ENERGY PREDICTED BY IDOCK:   -2.21 KCAL/MOL
REMARK 924 INTRA-LIGAND FREE ENERGY PREDICTED BY IDOCK:   -0.02 KCAL/MOL
REMARK 927      BINDING AFFINITY PREDICTED BY RF-SCORE:    0.00 PKD
ROOT
HETATM    1  N   UNL     1     -11.435  15.864  68.381  1.00  0.00    -0.367 NA 
HETATM    2  C   UNL     1     -10.295  16.323  67.599  1.00  0.00    -0.284 C  
HETATM    3  H1  UNL     1     -11.657  14.898  68.141  1.00  0.00     0.000 HD 
HETATM    4  H2  UNL     1     -12.242  16.479  68.276  1.00  0.00     0.000 HD 
ENDROOT
BRANCH   2   5
HETATM    5  C   UNL     1      -9.964  17.769  67.958  1.00  0.00    -0.333 C  
BRANCH   5   6
HETATM    6  C   UNL     1      -8.722  18.242  67.209  1.00  0.00    -0.255 C  
HETATM    7  C   UNL     1      -8.216  19.562  67.731  1.00  0.00    -0.298 C  
HETATM    8  O   UNL     1      -7.757  19.506  69.000  1.00  0.00    -0.362 OA 
HETATM    9  O   UNL     1      -8.187  20.587  67.069  1.00  0.00    -0.313 OA 
ENDBRANCH   5   6
ENDBRANCH   2   5
TORSDOF 2
ENDMDL
MODEL      120
REMARK 921   NORMALIZED FREE ENERGY PREDICTED BY IDOCK:   -1.75 KCAL/MOL
REMARK 922        TOTAL FREE ENERGY PREDICTED BY IDOCK:   -2.23 KCAL/MOL
REMARK 923 INTER-LIGAND FREE ENERGY PREDICTED BY IDOCK:   -2.12 KCAL/MOL
REMARK 924 INTRA-LIGAND FREE ENERGY PREDICTED BY IDOCK:   -0.10 KCAL/MOL
REMARK 927      BINDING AFFINITY PREDICTED BY RF-SCORE:    0.00 PKD
ROOT
HETATM    1  N   UNL     1     -12.269   8.358  70.812  1.00  0.00    -0.496 NA 
HETATM    2  C   UNL     1     -12.902   7.236  71.491  1.00  0.00    -0.388 C  
HETATM    3  H1  UNL     1     -12.979   8.974  70.418  1.00  0.00     0.000 HD 
HETATM    4  H2  UNL     1     -11.598   8.049  70.108  1.00  0.00     0.000 HD 
ENDROOT
BRANCH   2   5
HETATM    5  C   UNL     1     -11.839   6.313  72.080  1.00  0.00    -0.370 C  
BRANCH   5   6
HETATM    6  C   UNL     1     -10.463   6.634  71.504  1.00  0.00    -0.242 C  
HETATM    7  C   UNL     1      -9.960   5.539  70.599  1.00  0.00    -0.207 C  
HETATM    8  O   UNL     1     -10.690   5.383  69.474  1.00  0.00    -0.295 OA 
HETATM    9  O   UNL     1      -8.967   4.869  70.834  1.00  0.00    -0.126 OA 
ENDBRANCH   5   6
ENDBRANCH   2   5
TORSDOF 2
ENDMDL
MODEL      121
REMARK 921   NORMALIZED FREE ENERGY PREDICTED BY IDOCK:   -1.74 KCAL/MOL
REMARK 922        TOTAL FREE ENERGY PREDICTED BY IDOCK:   -2.22 KCAL/MOL
REMARK 923 INTER-LIGAND FREE ENERGY PREDICTED BY IDOCK:   -2.14 KCAL/MOL
REMARK 924 INTRA-LIGAND FREE ENERGY PREDICTED BY IDOCK:   -0.08 KCAL/MOL
REMARK 927      BINDING AFFINITY PREDICTED BY RF-SCORE:    0.00 PKD
ROOT
HETATM    1  N   UNL     1     -10.506   7.938  66.625  1.00  0.00    -0.469 NA 
HETATM    2  C   UNL     1      -9.930   9.232  66.965  1.00  0.00    -0.224 C  
HETATM    3  H1  UNL     1      -9.797   7.341  66.201  1.00  0.00     0.000 HD 
HETATM    4  H2  UNL     1     -11.331   8.031  66.033  1.00  0.00     0.000 HD 
ENDROOT
BRANCH   2   5
HETATM    5  C   UNL     1     -10.992  10.126  67.599  1.00  0.00    -0.331 C  
BRANCH   5   6
HETATM    6  C   UNL     1     -10.504  10.685  68.932  1.00  0.00    -0.232 C  
HETATM    7  C   UNL     1     -11.313  10.166  70.093  1.00  0.00    -0.303 C  
HETATM    8  O   UNL     1     -11.181   8.838  70.297  1.00  0.00    -0.253 OA 
HETATM    9  O   UNL     1     -12.001  10.874  70.810  1.00  0.00    -0.325 OA 
ENDBRANCH   5   6
ENDBRANCH   2   5
TORSDOF 2
ENDMDL
MODEL      122
REMARK 921   NORMALIZED FREE ENERGY PREDICTED BY IDOCK:   -1.72 KCAL/MOL
REMARK 922        TOTAL FREE ENERGY PREDICTED BY IDOCK:   -2.19 KCAL/MOL
REMARK 923 INTER-LIGAND FREE ENERGY PREDICTED BY IDOCK:   -2.16 KCAL/MOL
REMARK 924 INTRA-LIGAND FREE ENERGY PREDICTED BY IDOCK:   -0.03 KCAL/MOL
REMARK 927      BINDING AFFINITY PREDICTED BY RF-SCORE:    0.00 PKD
ROOT
HETATM    1  N   UNL     1     -11.960  10.746  68.122  1.00  0.00    -0.801 NA 
HETATM    2  C   UNL     1     -11.644  11.939  67.349  1.00  0.00    -0.297 C  
HETATM    3  H1  UNL     1     -12.373  11.009  69.016  1.00  0.00     0.000 HD 
HETATM    4  H2  UNL     1     -11.148  10.140  68.239  1.00  0.00     0.000 HD 
ENDROOT
BRANCH   2   5
HETATM    5  C   UNL     1     -11.025  11.546  66.010  1.00  0.00    -0.316 C  
BRANCH   5   6
HETATM    6  C   UNL     1      -9.552  11.936  65.958  1.00  0.00    -0.251 C  
HETATM    7  C   UNL     1      -8.686  10.809  65.456  1.00  0.00    -0.187 C  
HETATM    8  O   UNL     1      -8.919  10.474  64.169  1.00  0.00    -0.195 OA 
HETATM    9  O   UNL     1      -7.827  10.263  66.131  1.00  0.00    -0.118 OA 
ENDBRANCH   5   6
ENDBRANCH   2   5
TORSDOF 2
ENDMDL
MODEL      123
REMARK 921   NORMALIZED FREE ENERGY PREDICTED BY IDOCK:   -1.71 KCAL/MOL
REMARK 922        TOTAL FREE ENERGY PREDICTED BY IDOCK:   -2.18 KCAL/MOL
REMARK 923 INTER-LIGAND FREE ENERGY PREDICTED BY IDOCK:   -2.15 KCAL/MOL
REMARK 924 INTRA-LIGAND FREE ENERGY PREDICTED BY IDOCK:   -0.03 KCAL/MOL
REMARK 927      BINDING AFFINITY PREDICTED BY RF-SCORE:    0.00 PKD
ROOT
HETATM    1  N   UNL     1     -10.014  19.392  68.008  1.00  0.00    -0.362 NA 
HETATM    2  C   UNL     1      -9.098  20.400  67.493  1.00  0.00    -0.323 C  
HETATM    3  H1  UNL     1     -10.977  19.663  67.814  1.00  0.00     0.000 HD 
HETATM    4  H2  UNL     1      -9.861  19.208  69.000  1.00  0.00     0.000 HD 
ENDROOT
BRANCH   2   5
HETATM    5  C   UNL     1      -7.655  19.993  67.784  1.00  0.00    -0.328 C  
BRANCH   5   6
HETATM    6  C   UNL     1      -7.537  19.368  69.170  1.00  0.00    -0.316 C  
HETATM    7  C   UNL     1      -6.129  19.438  69.704  1.00  0.00    -0.273 C  
HETATM    8  O   UNL     1      -5.699  20.696  69.941  1.00  0.00    -0.343 OA 
HETATM    9  O   UNL     1      -5.443  18.456  69.936  1.00  0.00    -0.207 OA 
ENDBRANCH   5   6
ENDBRANCH   2   5
TORSDOF 2
ENDMDL
MODEL      124
REMARK 921   NORMALIZED FREE ENERGY PREDICTED BY IDOCK:   -1.70 KCAL/MOL
REMARK 922        TOTAL FREE ENERGY PREDICTED BY IDOCK:   -2.18 KCAL/MOL
REMARK 923 INTER-LIGAND FREE ENERGY PREDICTED BY IDOCK:   -2.16 KCAL/MOL
REMARK 924 INTRA-LIGAND FREE ENERGY PREDICTED BY IDOCK:   -0.02 KCAL/MOL
REMARK 927      BINDING AFFINITY PREDICTED BY RF-SCORE:    0.00 PKD
ROOT
HETATM    1  N   UNL     1     -12.247  12.367  65.688  1.00  0.00    -0.626 NA 
HETATM    2  C   UNL     1     -10.958  12.282  66.360  1.00  0.00    -0.287 C  
HETATM    3  H1  UNL     1     -12.606  13.320  65.741  1.00  0.00     0.000 HD 
HETATM    4  H2  UNL     1     -12.914  11.687  66.054  1.00  0.00     0.000 HD 
ENDROOT
BRANCH   2   5
HETATM    5  C   UNL     1     -10.421  10.855  66.281  1.00  0.00    -0.304 C  
BRANCH   5   6
HETATM    6  C   UNL     1     -10.075  10.485  64.843  1.00  0.00    -0.403 C  
HETATM    7  C   UNL     1      -8.790   9.701  64.754  1.00  0.00    -0.207 C  
HETATM    8  O   UNL     1      -8.854   8.484  65.335  1.00  0.00    -0.179 OA 
HETATM    9  O   UNL     1      -7.789  10.104  64.185  1.00  0.00    -0.151 OA 
ENDBRANCH   5   6
ENDBRANCH   2   5
TORSDOF 2
ENDMDL
MODEL      125
REMARK 921   NORMALIZED FREE ENERGY PREDICTED BY IDOCK:   -1.70 KCAL/MOL
REMARK 922        TOTAL FREE ENERGY PREDICTED BY IDOCK:   -2.17 KCAL/MOL
REMARK 923 INTER-LIGAND FREE ENERGY PREDICTED BY IDOCK:   -2.12 KCAL/MOL
REMARK 924 INTRA-LIGAND FREE ENERGY PREDICTED BY IDOCK:   -0.05 KCAL/MOL
REMARK 927      BINDING AFFINITY PREDICTED BY RF-SCORE:    0.00 PKD
ROOT
HETATM    1  N   UNL     1      -5.967  14.177  67.457  1.00  0.00    -0.351 NA 
HETATM    2  C   UNL     1      -6.839  15.186  68.043  1.00  0.00    -0.141 C  
HETATM    3  H1  UNL     1      -5.091  14.129  67.976  1.00  0.00     0.000 HD 
HETATM    4  H2  UNL     1      -5.813  14.337  66.461  1.00  0.00     0.000 HD 
ENDROOT
BRANCH   2   5
HETATM    5  C   UNL     1      -8.150  15.258  67.266  1.00  0.00    -0.229 C  
BRANCH   5   6
HETATM    6  C   UNL     1      -8.184  16.494  66.373  1.00  0.00    -0.364 C  
HETATM    7  C   UNL     1      -9.333  17.408  66.713  1.00  0.00    -0.268 C  
HETATM    8  O   UNL     1      -9.239  17.967  67.939  1.00  0.00    -0.254 OA 
HETATM    9  O   UNL     1     -10.253  17.653  65.949  1.00  0.00    -0.517 OA 
ENDBRANCH   5   6
ENDBRANCH   2   5
TORSDOF 2
ENDMDL
MODEL      126
REMARK 921   NORMALIZED FREE ENERGY PREDICTED BY IDOCK:   -1.70 KCAL/MOL
REMARK 922        TOTAL FREE ENERGY PREDICTED BY IDOCK:   -2.17 KCAL/MOL
REMARK 923 INTER-LIGAND FREE ENERGY PREDICTED BY IDOCK:   -2.10 KCAL/MOL
REMARK 924 INTRA-LIGAND FREE ENERGY PREDICTED BY IDOCK:   -0.07 KCAL/MOL
REMARK 927      BINDING AFFINITY PREDICTED BY RF-SCORE:    0.00 PKD
ROOT
HETATM    1  N   UNL     1     -10.954  12.021  69.522  1.00  0.00    -0.457 NA 
HETATM    2  C   UNL     1     -10.058  12.342  68.421  1.00  0.00    -0.215 C  
HETATM    3  H1  UNL     1     -11.047  11.010  69.614  1.00  0.00     0.000 HD 
HETATM    4  H2  UNL     1     -11.860  12.481  69.423  1.00  0.00     0.000 HD 
ENDROOT
BRANCH   2   5
HETATM    5  C   UNL     1      -9.919  13.856  68.283  1.00  0.00    -0.238 C  
BRANCH   5   6
HETATM    6  C   UNL     1     -11.163  14.564  68.810  1.00  0.00    -0.281 C  
HETATM    7  C   UNL     1     -10.821  15.637  69.811  1.00  0.00    -0.308 C  
HETATM    8  O   UNL     1     -10.127  16.670  69.288  1.00  0.00    -0.272 OA 
HETATM    9  O   UNL     1     -11.161  15.603  70.983  1.00  0.00    -0.333 OA 
ENDBRANCH   5   6
ENDBRANCH   2   5
TORSDOF 2
ENDMDL
MODEL      127
REMARK 921   NORMALIZED FREE ENERGY PREDICTED BY IDOCK:   -1.69 KCAL/MOL
REMARK 922        TOTAL FREE ENERGY PREDICTED BY IDOCK:   -2.16 KCAL/MOL
REMARK 923 INTER-LIGAND FREE ENERGY PREDICTED BY IDOCK:   -2.08 KCAL/MOL
REMARK 924 INTRA-LIGAND FREE ENERGY PREDICTED BY IDOCK:   -0.08 KCAL/MOL
REMARK 927      BINDING AFFINITY PREDICTED BY RF-SCORE:    0.00 PKD
ROOT
HETATM    1  N   UNL     1      -7.269  13.082  67.196  1.00  0.00    -0.364 NA 
HETATM    2  C   UNL     1      -8.622  12.921  67.710  1.00  0.00    -0.185 C  
HETATM    3  H1  UNL     1      -6.898  12.180  66.898  1.00  0.00     0.000 HD 
HETATM    4  H2  UNL     1      -6.657  13.543  67.869  1.00  0.00     0.000 HD 
ENDROOT
BRANCH   2   5
HETATM    5  C   UNL     1      -9.176  14.272  68.156  1.00  0.00    -0.202 C  
BRANCH   5   6
HETATM    6  C   UNL     1     -10.339  14.701  67.267  1.00  0.00    -0.256 C  
HETATM    7  C   UNL     1     -11.472  13.709  67.301  1.00  0.00    -0.343 C  
HETATM    8  O   UNL     1     -12.077  13.614  68.504  1.00  0.00    -0.364 OA 
HETATM    9  O   UNL     1     -11.841  13.068  66.329  1.00  0.00    -0.370 OA 
ENDBRANCH   5   6
ENDBRANCH   2   5
TORSDOF 2
ENDMDL
MODEL      128
REMARK 921   NORMALIZED FREE ENERGY PREDICTED BY IDOCK:   -1.69 KCAL/MOL
REMARK 922        TOTAL FREE ENERGY PREDICTED BY IDOCK:   -2.16 KCAL/MOL
REMARK 923 INTER-LIGAND FREE ENERGY PREDICTED BY IDOCK:   -2.11 KCAL/MOL
REMARK 924 INTRA-LIGAND FREE ENERGY PREDICTED BY IDOCK:   -0.05 KCAL/MOL
REMARK 927      BINDING AFFINITY PREDICTED BY RF-SCORE:    0.00 PKD
ROOT
HETATM    1  N   UNL     1     -12.391  10.935  68.695  1.00  0.00    -0.777 NA 
HETATM    2  C   UNL     1     -11.264  11.317  67.856  1.00  0.00    -0.290 C  
HETATM    3  H1  UNL     1     -13.123  11.643  68.640  1.00  0.00     0.000 HD 
HETATM    4  H2  UNL     1     -12.106  10.754  69.658  1.00  0.00     0.000 HD 
ENDROOT
BRANCH   2   5
HETATM    5  C   UNL     1     -10.168  10.258  67.939  1.00  0.00    -0.217 C  
BRANCH   5   6
HETATM    6  C   UNL     1      -9.932   9.834  69.385  1.00  0.00    -0.217 C  
HETATM    7  C   UNL     1     -10.162   8.359  69.587  1.00  0.00    -0.209 C  
HETATM    8  O   UNL     1      -9.280   7.575  68.931  1.00  0.00    -0.143 OA 
HETATM    9  O   UNL     1     -11.042   7.902  70.299  1.00  0.00    -0.257 OA 
ENDBRANCH   5   6
ENDBRANCH   2   5
TORSDOF 2
ENDMDL
MODEL      129
REMARK 921   NORMALIZED FREE ENERGY PREDICTED BY IDOCK:   -1.68 KCAL/MOL
REMARK 922        TOTAL FREE ENERGY PREDICTED BY IDOCK:   -2.15 KCAL/MOL
REMARK 923 INTER-LIGAND FREE ENERGY PREDICTED BY IDOCK:   -2.07 KCAL/MOL
REMARK 924 INTRA-LIGAND FREE ENERGY PREDICTED BY IDOCK:   -0.08 KCAL/MOL
REMARK 927      BINDING AFFINITY PREDICTED BY RF-SCORE:    0.00 PKD
ROOT
HETATM    1  N   UNL     1     -11.922  14.922  67.812  1.00  0.00    -0.517 NA 
HETATM    2  C   UNL     1     -10.601  15.173  67.253  1.00  0.00    -0.286 C  
HETATM    3  H1  UNL     1     -12.039  15.443  68.680  1.00  0.00     0.000 HD 
HETATM    4  H2  UNL     1     -12.101  13.926  67.937  1.00  0.00     0.000 HD 
ENDROOT
BRANCH   2   5
HETATM    5  C   UNL     1     -10.425  14.393  65.954  1.00  0.00    -0.317 C  
BRANCH   5   6
HETATM    6  C   UNL     1     -11.093  13.025  66.048  1.00  0.00    -0.301 C  
HETATM    7  C   UNL     1     -10.085  11.904  66.052  1.00  0.00    -0.231 C  
HETATM    8  O   UNL     1      -9.291  11.889  67.144  1.00  0.00    -0.174 OA 
HETATM    9  O   UNL     1     -10.006  11.061  65.173  1.00  0.00    -0.243 OA 
ENDBRANCH   5   6
ENDBRANCH   2   5
TORSDOF 2
ENDMDL
MODEL      130
REMARK 921   NORMALIZED FREE ENERGY PREDICTED BY IDOCK:   -1.67 KCAL/MOL
REMARK 922        TOTAL FREE ENERGY PREDICTED BY IDOCK:   -2.14 KCAL/MOL
REMARK 923 INTER-LIGAND FREE ENERGY PREDICTED BY IDOCK:   -2.09 KCAL/MOL
REMARK 924 INTRA-LIGAND FREE ENERGY PREDICTED BY IDOCK:   -0.05 KCAL/MOL
REMARK 927      BINDING AFFINITY PREDICTED BY RF-SCORE:    0.00 PKD
ROOT
HETATM    1  N   UNL     1      -6.786  11.405  66.244  1.00  0.00    -0.361 NA 
HETATM    2  C   UNL     1      -7.806  10.368  66.162  1.00  0.00    -0.135 C  
HETATM    3  H1  UNL     1      -5.864  10.981  66.337  1.00  0.00     0.000 HD 
HETATM    4  H2  UNL     1      -6.979  12.071  66.992  1.00  0.00     0.000 HD 
ENDROOT
BRANCH   2   5
HETATM    5  C   UNL     1      -9.187  11.002  66.023  1.00  0.00    -0.213 C  
BRANCH   5   6
HETATM    6  C   UNL     1      -9.728  11.428  67.384  1.00  0.00    -0.196 C  
HETATM    7  C   UNL     1     -10.974  10.667  67.759  1.00  0.00    -0.306 C  
HETATM    8  O   UNL     1     -10.768   9.347  67.955  1.00  0.00    -0.249 OA 
HETATM    9  O   UNL     1     -12.068  11.189  67.908  1.00  0.00    -0.627 OA 
ENDBRANCH   5   6
ENDBRANCH   2   5
TORSDOF 2
ENDMDL
MODEL      131
REMARK 921   NORMALIZED FREE ENERGY PREDICTED BY IDOCK:   -1.66 KCAL/MOL
REMARK 922        TOTAL FREE ENERGY PREDICTED BY IDOCK:   -2.12 KCAL/MOL
REMARK 923 INTER-LIGAND FREE ENERGY PREDICTED BY IDOCK:   -2.09 KCAL/MOL
REMARK 924 INTRA-LIGAND FREE ENERGY PREDICTED BY IDOCK:   -0.03 KCAL/MOL
REMARK 927      BINDING AFFINITY PREDICTED BY RF-SCORE:    0.00 PKD
ROOT
HETATM    1  N   UNL     1     -11.283   7.057  67.949  1.00  0.00    -0.541 NA 
HETATM    2  C   UNL     1     -10.576   7.246  69.208  1.00  0.00    -0.221 C  
HETATM    3  H1  UNL     1     -10.999   7.771  67.278  1.00  0.00     0.000 HD 
HETATM    4  H2  UNL     1     -12.295   7.037  68.079  1.00  0.00     0.000 HD 
ENDROOT
BRANCH   2   5
HETATM    5  C   UNL     1     -11.002   6.178  70.212  1.00  0.00    -0.417 C  
BRANCH   5   6
HETATM    6  C   UNL     1     -10.842   6.684  71.642  1.00  0.00    -0.269 C  
HETATM    7  C   UNL     1     -10.404   5.591  72.583  1.00  0.00    -0.198 C  
HETATM    8  O   UNL     1      -9.166   5.118  72.328  1.00  0.00    -0.137 OA 
HETATM    9  O   UNL     1     -11.082   5.185  73.513  1.00  0.00    -0.309 OA 
ENDBRANCH   5   6
ENDBRANCH   2   5
TORSDOF 2
ENDMDL
MODEL      132
REMARK 921   NORMALIZED FREE ENERGY PREDICTED BY IDOCK:   -1.65 KCAL/MOL
REMARK 922        TOTAL FREE ENERGY PREDICTED BY IDOCK:   -2.12 KCAL/MOL
REMARK 923 INTER-LIGAND FREE ENERGY PREDICTED BY IDOCK:   -2.24 KCAL/MOL
REMARK 924 INTRA-LIGAND FREE ENERGY PREDICTED BY IDOCK:    0.12 KCAL/MOL
REMARK 927      BINDING AFFINITY PREDICTED BY RF-SCORE:    0.00 PKD
ROOT
HETATM    1  N   UNL     1     -12.755   6.366  72.133  1.00  0.00    -0.507 NA 
HETATM    2  C   UNL     1     -11.428   6.125  71.586  1.00  0.00    -0.272 C  
HETATM    3  H1  UNL     1     -12.823   5.974  73.072  1.00  0.00     0.000 HD 
HETATM    4  H2  UNL     1     -13.491   6.017  71.519  1.00  0.00     0.000 HD 
ENDROOT
BRANCH   2   5
HETATM    5  C   UNL     1     -11.327   6.712  70.180  1.00  0.00    -0.440 C  
BRANCH   5   6
HETATM    6  C   UNL     1     -10.107   7.619  70.057  1.00  0.00    -0.204 C  
HETATM    7  C   UNL     1     -10.377   9.005  70.583  1.00  0.00    -0.229 C  
HETATM    8  O   UNL     1     -10.608   9.048  71.913  1.00  0.00    -0.344 OA 
HETATM    9  O   UNL     1     -10.360  10.009  69.889  1.00  0.00    -0.243 OA 
ENDBRANCH   5   6
ENDBRANCH   2   5
TORSDOF 2
ENDMDL
MODEL      133
REMARK 921   NORMALIZED FREE ENERGY PREDICTED BY IDOCK:   -1.64 KCAL/MOL
REMARK 922        TOTAL FREE ENERGY PREDICTED BY IDOCK:   -2.11 KCAL/MOL
REMARK 923 INTER-LIGAND FREE ENERGY PREDICTED BY IDOCK:   -2.06 KCAL/MOL
REMARK 924 INTRA-LIGAND FREE ENERGY PREDICTED BY IDOCK:   -0.05 KCAL/MOL
REMARK 927      BINDING AFFINITY PREDICTED BY RF-SCORE:    0.00 PKD
ROOT
HETATM    1  N   UNL     1     -10.790   4.429  65.097  1.00  0.00    -0.712 NA 
HETATM    2  C   UNL     1     -10.133   4.846  66.328  1.00  0.00    -0.257 C  
HETATM    3  H1  UNL     1     -10.265   3.673  64.659  1.00  0.00     0.000 HD 
HETATM    4  H2  UNL     1     -10.938   5.212  64.460  1.00  0.00     0.000 HD 
ENDROOT
BRANCH   2   5
HETATM    5  C   UNL     1     -10.919   5.978  66.984  1.00  0.00    -0.364 C  
BRANCH   5   6
HETATM    6  C   UNL     1     -10.042   6.751  67.963  1.00  0.00    -0.183 C  
HETATM    7  C   UNL     1      -9.496   8.017  67.355  1.00  0.00    -0.151 C  
HETATM    8  O   UNL     1     -10.443   8.934  67.064  1.00  0.00    -0.274 OA 
HETATM    9  O   UNL     1      -8.307   8.220  67.168  1.00  0.00    -0.120 OA 
ENDBRANCH   5   6
ENDBRANCH   2   5
TORSDOF 2
ENDMDL
MODEL      134
REMARK 921   NORMALIZED FREE ENERGY PREDICTED BY IDOCK:   -1.64 KCAL/MOL
REMARK 922        TOTAL FREE ENERGY PREDICTED BY IDOCK:   -2.11 KCAL/MOL
REMARK 923 INTER-LIGAND FREE ENERGY PREDICTED BY IDOCK:   -2.04 KCAL/MOL
REMARK 924 INTRA-LIGAND FREE ENERGY PREDICTED BY IDOCK:   -0.07 KCAL/MOL
REMARK 927      BINDING AFFINITY PREDICTED BY RF-SCORE:    0.00 PKD
ROOT
HETATM    1  N   UNL     1     -11.706  10.532  68.140  1.00  0.00    -0.760 NA 
HETATM    2  C   UNL     1     -10.857   9.410  67.762  1.00  0.00    -0.159 C  
HETATM    3  H1  UNL     1     -12.045  11.011  67.306  1.00  0.00     0.000 HD 
HETATM    4  H2  UNL     1     -11.233  11.169  68.781  1.00  0.00     0.000 HD 
ENDROOT
BRANCH   2   5
HETATM    5  C   UNL     1     -10.350   8.694  69.010  1.00  0.00    -0.226 C  
BRANCH   5   6
HETATM    6  C   UNL     1      -9.866   9.697  70.052  1.00  0.00    -0.286 C  
HETATM    7  C   UNL     1      -8.391   9.556  70.331  1.00  0.00    -0.192 C  
HETATM    8  O   UNL     1      -7.606   9.866  69.277  1.00  0.00    -0.083 OA 
HETATM    9  O   UNL     1      -7.935   9.224  71.413  1.00  0.00    -0.335 OA 
ENDBRANCH   5   6
ENDBRANCH   2   5
TORSDOF 2
ENDMDL
MODEL      135
REMARK 921   NORMALIZED FREE ENERGY PREDICTED BY IDOCK:   -1.62 KCAL/MOL
REMARK 922        TOTAL FREE ENERGY PREDICTED BY IDOCK:   -2.08 KCAL/MOL
REMARK 923 INTER-LIGAND FREE ENERGY PREDICTED BY IDOCK:   -2.01 KCAL/MOL
REMARK 924 INTRA-LIGAND FREE ENERGY PREDICTED BY IDOCK:   -0.07 KCAL/MOL
REMARK 927      BINDING AFFINITY PREDICTED BY RF-SCORE:    0.00 PKD
ROOT
HETATM    1  N   UNL     1      -9.266  17.659  65.835  1.00  0.00    -0.518 NA 
HETATM    2  C   UNL     1      -8.541  17.224  67.021  1.00  0.00    -0.227 C  
HETATM    3  H1  UNL     1     -10.270  17.577  65.990  1.00  0.00     0.000 HD 
HETATM    4  H2  UNL     1      -8.965  17.158  64.999  1.00  0.00     0.000 HD 
ENDROOT
BRANCH   2   5
HETATM    5  C   UNL     1      -7.038  17.347  66.790  1.00  0.00    -0.245 C  
BRANCH   5   6
HETATM    6  C   UNL     1      -6.485  18.596  67.467  1.00  0.00    -0.197 C  
HETATM    7  C   UNL     1      -6.860  18.662  68.926  1.00  0.00    -0.283 C  
HETATM    8  O   UNL     1      -6.305  17.685  69.675  1.00  0.00    -0.244 OA 
HETATM    9  O   UNL     1      -7.571  19.531  69.404  1.00  0.00    -0.296 OA 
ENDBRANCH   5   6
ENDBRANCH   2   5
TORSDOF 2
ENDMDL
MODEL      136
REMARK 921   NORMALIZED FREE ENERGY PREDICTED BY IDOCK:   -1.61 KCAL/MOL
REMARK 922        TOTAL FREE ENERGY PREDICTED BY IDOCK:   -2.07 KCAL/MOL
REMARK 923 INTER-LIGAND FREE ENERGY PREDICTED BY IDOCK:   -2.10 KCAL/MOL
REMARK 924 INTRA-LIGAND FREE ENERGY PREDICTED BY IDOCK:    0.03 KCAL/MOL
REMARK 927      BINDING AFFINITY PREDICTED BY RF-SCORE:    0.00 PKD
ROOT
HETATM    1  N   UNL     1     -12.212  14.003  67.835  1.00  0.00    -0.520 NA 
HETATM    2  C   UNL     1     -11.372  13.246  68.752  1.00  0.00    -0.290 C  
HETATM    3  H1  UNL     1     -11.855  14.953  67.737  1.00  0.00     0.000 HD 
HETATM    4  H2  UNL     1     -13.192  13.990  68.116  1.00  0.00     0.000 HD 
ENDROOT
BRANCH   2   5
HETATM    5  C   UNL     1     -11.906  11.824  68.899  1.00  0.00    -0.381 C  
BRANCH   5   6
HETATM    6  C   UNL     1     -11.238  10.888  67.897  1.00  0.00    -0.387 C  
HETATM    7  C   UNL     1      -9.772  11.195  67.727  1.00  0.00    -0.171 C  
HETATM    8  O   UNL     1      -9.036  10.969  68.836  1.00  0.00    -0.175 OA 
HETATM    9  O   UNL     1      -9.279  11.582  66.679  1.00  0.00    -0.176 OA 
ENDBRANCH   5   6
ENDBRANCH   2   5
TORSDOF 2
ENDMDL
MODEL      137
REMARK 921   NORMALIZED FREE ENERGY PREDICTED BY IDOCK:   -1.60 KCAL/MOL
REMARK 922        TOTAL FREE ENERGY PREDICTED BY IDOCK:   -2.06 KCAL/MOL
REMARK 923 INTER-LIGAND FREE ENERGY PREDICTED BY IDOCK:   -1.99 KCAL/MOL
REMARK 924 INTRA-LIGAND FREE ENERGY PREDICTED BY IDOCK:   -0.07 KCAL/MOL
REMARK 927      BINDING AFFINITY PREDICTED BY RF-SCORE:    0.00 PKD
ROOT
HETATM    1  N   UNL     1     -10.848   9.011  71.415  1.00  0.00    -0.301 NA 
HETATM    2  C   UNL     1     -11.012   8.343  70.131  1.00  0.00    -0.215 C  
HETATM    3  H1  UNL     1     -11.425   8.556  72.122  1.00  0.00     0.000 HD 
HETATM    4  H2  UNL     1     -11.037  10.011  71.351  1.00  0.00     0.000 HD 
ENDROOT
BRANCH   2   5
HETATM    5  C   UNL     1     -10.148   9.023  69.073  1.00  0.00    -0.204 C  
BRANCH   5   6
HETATM    6  C   UNL     1     -10.146  10.536  69.265  1.00  0.00    -0.244 C  
HETATM    7  C   UNL     1     -10.946  11.242  68.201  1.00  0.00    -0.231 C  
HETATM    8  O   UNL     1     -12.268  10.970  68.244  1.00  0.00    -0.582 OA 
HETATM    9  O   UNL     1     -10.462  12.016  67.391  1.00  0.00    -0.211 OA 
ENDBRANCH   5   6
ENDBRANCH   2   5
TORSDOF 2
ENDMDL
MODEL      138
REMARK 921   NORMALIZED FREE ENERGY PREDICTED BY IDOCK:   -1.59 KCAL/MOL
REMARK 922        TOTAL FREE ENERGY PREDICTED BY IDOCK:   -2.05 KCAL/MOL
REMARK 923 INTER-LIGAND FREE ENERGY PREDICTED BY IDOCK:   -1.87 KCAL/MOL
REMARK 924 INTRA-LIGAND FREE ENERGY PREDICTED BY IDOCK:   -0.18 KCAL/MOL
REMARK 927      BINDING AFFINITY PREDICTED BY RF-SCORE:    0.00 PKD
ROOT
HETATM    1  N   UNL     1     -10.825  12.582  64.549  1.00  0.00    -0.308 NA 
HETATM    2  C   UNL     1     -10.830  13.281  65.827  1.00  0.00    -0.274 C  
HETATM    3  H1  UNL     1     -10.302  13.120  63.859  1.00  0.00     0.000 HD 
HETATM    4  H2  UNL     1     -11.769  12.365  64.230  1.00  0.00     0.000 HD 
ENDROOT
BRANCH   2   5
HETATM    5  C   UNL     1     -11.613  12.476  66.860  1.00  0.00    -0.436 C  
BRANCH   5   6
HETATM    6  C   UNL     1     -10.672  11.829  67.871  1.00  0.00    -0.241 C  
HETATM    7  C   UNL     1     -10.323  10.413  67.494  1.00  0.00    -0.224 C  
HETATM    8  O   UNL     1      -9.602  10.314  66.357  1.00  0.00    -0.171 OA 
HETATM    9  O   UNL     1     -10.630   9.438  68.162  1.00  0.00    -0.221 OA 
ENDBRANCH   5   6
ENDBRANCH   2   5
TORSDOF 2
ENDMDL
MODEL      139
REMARK 921   NORMALIZED FREE ENERGY PREDICTED BY IDOCK:   -1.58 KCAL/MOL
REMARK 922        TOTAL FREE ENERGY PREDICTED BY IDOCK:   -2.04 KCAL/MOL
REMARK 923 INTER-LIGAND FREE ENERGY PREDICTED BY IDOCK:   -1.98 KCAL/MOL
REMARK 924 INTRA-LIGAND FREE ENERGY PREDICTED BY IDOCK:   -0.07 KCAL/MOL
REMARK 927      BINDING AFFINITY PREDICTED BY RF-SCORE:    0.00 PKD
ROOT
HETATM    1  N   UNL     1      -8.655  10.051  66.331  1.00  0.00    -0.128 NA 
HETATM    2  C   UNL     1      -9.932   9.368  66.175  1.00  0.00    -0.281 C  
HETATM    3  H1  UNL     1      -8.312  10.362  65.422  1.00  0.00     0.000 HD 
HETATM    4  H2  UNL     1      -7.971   9.475  66.821  1.00  0.00     0.000 HD 
ENDROOT
BRANCH   2   5
HETATM    5  C   UNL     1     -10.445   8.902  67.534  1.00  0.00    -0.337 C  
BRANCH   5   6
HETATM    6  C   UNL     1     -10.170   9.951  68.607  1.00  0.00    -0.197 C  
HETATM    7  C   UNL     1     -10.926  11.230  68.354  1.00  0.00    -0.219 C  
HETATM    8  O   UNL     1     -12.266  11.098  68.449  1.00  0.00    -0.610 OA 
HETATM    9  O   UNL     1     -10.388  12.300  68.117  1.00  0.00    -0.203 OA 
ENDBRANCH   5   6
ENDBRANCH   2   5
TORSDOF 2
ENDMDL
MODEL      140
REMARK 921   NORMALIZED FREE ENERGY PREDICTED BY IDOCK:   -1.57 KCAL/MOL
REMARK 922        TOTAL FREE ENERGY PREDICTED BY IDOCK:   -2.03 KCAL/MOL
REMARK 923 INTER-LIGAND FREE ENERGY PREDICTED BY IDOCK:   -1.97 KCAL/MOL
REMARK 924 INTRA-LIGAND FREE ENERGY PREDICTED BY IDOCK:   -0.06 KCAL/MOL
REMARK 927      BINDING AFFINITY PREDICTED BY RF-SCORE:    0.00 PKD
ROOT
HETATM    1  N   UNL     1      -9.441  13.751  65.909  1.00  0.00    -0.506 NA 
HETATM    2  C   UNL     1      -8.692  13.135  66.995  1.00  0.00    -0.189 C  
HETATM    3  H1  UNL     1      -9.167  13.339  65.018  1.00  0.00     0.000 HD 
HETATM    4  H2  UNL     1      -9.345  14.766  65.907  1.00  0.00     0.000 HD 
ENDROOT
BRANCH   2   5
HETATM    5  C   UNL     1      -9.102  13.751  68.330  1.00  0.00    -0.195 C  
BRANCH   5   6
HETATM    6  C   UNL     1      -9.400  15.239  68.171  1.00  0.00    -0.198 C  
HETATM    7  C   UNL     1     -10.672  15.639  68.875  1.00  0.00    -0.238 C  
HETATM    8  O   UNL     1     -10.610  15.521  70.218  1.00  0.00    -0.306 OA 
HETATM    9  O   UNL     1     -11.661  16.063  68.298  1.00  0.00    -0.338 OA 
ENDBRANCH   5   6
ENDBRANCH   2   5
TORSDOF 2
ENDMDL
MODEL      141
REMARK 921   NORMALIZED FREE ENERGY PREDICTED BY IDOCK:   -1.56 KCAL/MOL
REMARK 922        TOTAL FREE ENERGY PREDICTED BY IDOCK:   -2.01 KCAL/MOL
REMARK 923 INTER-LIGAND FREE ENERGY PREDICTED BY IDOCK:   -1.98 KCAL/MOL
REMARK 924 INTRA-LIGAND FREE ENERGY PREDICTED BY IDOCK:   -0.03 KCAL/MOL
REMARK 927      BINDING AFFINITY PREDICTED BY RF-SCORE:    0.00 PKD
ROOT
HETATM    1  N   UNL     1     -11.117   7.169  67.214  1.00  0.00    -0.596 NA 
HETATM    2  C   UNL     1     -10.445   6.602  68.375  1.00  0.00    -0.211 C  
HETATM    3  H1  UNL     1     -11.459   6.422  66.610  1.00  0.00     0.000 HD 
HETATM    4  H2  UNL     1     -10.521   7.826  66.711  1.00  0.00     0.000 HD 
ENDROOT
BRANCH   2   5
HETATM    5  C   UNL     1      -9.933   7.720  69.280  1.00  0.00    -0.182 C  
BRANCH   5   6
HETATM    6  C   UNL     1     -11.093   8.523  69.859  1.00  0.00    -0.114 C  
HETATM    7  C   UNL     1     -11.102   8.498  71.366  1.00  0.00    -0.265 C  
HETATM    8  O   UNL     1     -10.042   9.117  71.927  1.00  0.00    -0.322 OA 
HETATM    9  O   UNL     1     -11.995   7.995  72.030  1.00  0.00    -0.294 OA 
ENDBRANCH   5   6
ENDBRANCH   2   5
TORSDOF 2
ENDMDL
MODEL      142
REMARK 921   NORMALIZED FREE ENERGY PREDICTED BY IDOCK:   -1.54 KCAL/MOL
REMARK 922        TOTAL FREE ENERGY PREDICTED BY IDOCK:   -1.99 KCAL/MOL
REMARK 923 INTER-LIGAND FREE ENERGY PREDICTED BY IDOCK:   -2.00 KCAL/MOL
REMARK 924 INTRA-LIGAND FREE ENERGY PREDICTED BY IDOCK:    0.01 KCAL/MOL
REMARK 927      BINDING AFFINITY PREDICTED BY RF-SCORE:    0.00 PKD
ROOT
HETATM    1  N   UNL     1      -9.745  16.912  65.711  1.00  0.00    -0.548 NA 
HETATM    2  C   UNL     1      -8.928  15.748  66.022  1.00  0.00    -0.287 C  
HETATM    3  H1  UNL     1      -9.230  17.549  65.104  1.00  0.00     0.000 HD 
HETATM    4  H2  UNL     1     -10.084  17.376  66.554  1.00  0.00     0.000 HD 
ENDROOT
BRANCH   2   5
HETATM    5  C   UNL     1      -9.700  14.794  66.930  1.00  0.00    -0.247 C  
BRANCH   5   6
HETATM    6  C   UNL     1      -9.292  14.984  68.388  1.00  0.00    -0.193 C  
HETATM    7  C   UNL     1      -9.249  16.439  68.778  1.00  0.00    -0.239 C  
HETATM    8  O   UNL     1     -10.455  17.045  68.757  1.00  0.00    -0.309 OA 
HETATM    9  O   UNL     1      -8.229  17.020  69.114  1.00  0.00    -0.174 OA 
ENDBRANCH   5   6
ENDBRANCH   2   5
TORSDOF 2
ENDMDL
MODEL      143
REMARK 921   NORMALIZED FREE ENERGY PREDICTED BY IDOCK:   -1.52 KCAL/MOL
REMARK 922        TOTAL FREE ENERGY PREDICTED BY IDOCK:   -1.97 KCAL/MOL
REMARK 923 INTER-LIGAND FREE ENERGY PREDICTED BY IDOCK:   -1.71 KCAL/MOL
REMARK 924 INTRA-LIGAND FREE ENERGY PREDICTED BY IDOCK:   -0.27 KCAL/MOL
REMARK 927      BINDING AFFINITY PREDICTED BY RF-SCORE:    0.00 PKD
ROOT
HETATM    1  N   UNL     1      -9.327   8.110  65.594  1.00  0.00    -0.426 NA 
HETATM    2  C   UNL     1      -9.848   9.438  65.888  1.00  0.00    -0.291 C  
HETATM    3  H1  UNL     1      -8.733   8.144  64.766  1.00  0.00     0.000 HD 
HETATM    4  H2  UNL     1     -10.072   7.419  65.503  1.00  0.00     0.000 HD 
ENDROOT
BRANCH   2   5
HETATM    5  C   UNL     1     -10.737   9.388  67.128  1.00  0.00    -0.234 C  
BRANCH   5   6
HETATM    6  C   UNL     1      -9.909   9.111  68.379  1.00  0.00    -0.181 C  
HETATM    7  C   UNL     1     -10.228   7.768  68.982  1.00  0.00    -0.208 C  
HETATM    8  O   UNL     1      -9.884   6.723  68.198  1.00  0.00    -0.134 OA 
HETATM    9  O   UNL     1     -10.721   7.622  70.089  1.00  0.00    -0.233 OA 
ENDBRANCH   5   6
ENDBRANCH   2   5
TORSDOF 2
ENDMDL
MODEL      144
REMARK 921   NORMALIZED FREE ENERGY PREDICTED BY IDOCK:   -1.52 KCAL/MOL
REMARK 922        TOTAL FREE ENERGY PREDICTED BY IDOCK:   -1.97 KCAL/MOL
REMARK 923 INTER-LIGAND FREE ENERGY PREDICTED BY IDOCK:   -1.93 KCAL/MOL
REMARK 924 INTRA-LIGAND FREE ENERGY PREDICTED BY IDOCK:   -0.04 KCAL/MOL
REMARK 927      BINDING AFFINITY PREDICTED BY RF-SCORE:    0.00 PKD
ROOT
HETATM    1  N   UNL     1      -8.291   8.627  72.226  1.00  0.00    -0.368 NA 
HETATM    2  C   UNL     1      -9.671   8.263  72.516  1.00  0.00    -0.298 C  
HETATM    3  H1  UNL     1      -8.140   9.615  72.430  1.00  0.00     0.000 HD 
HETATM    4  H2  UNL     1      -8.027   8.389  71.270  1.00  0.00     0.000 HD 
ENDROOT
BRANCH   2   5
HETATM    5  C   UNL     1      -9.897   6.785  72.211  1.00  0.00    -0.166 C  
BRANCH   5   6
HETATM    6  C   UNL     1      -9.369   6.430  70.825  1.00  0.00    -0.165 C  
HETATM    7  C   UNL     1     -10.317   5.535  70.070  1.00  0.00    -0.288 C  
HETATM    8  O   UNL     1     -11.494   6.122  69.765  1.00  0.00    -0.433 OA 
HETATM    9  O   UNL     1     -10.047   4.394  69.731  1.00  0.00    -0.214 OA 
ENDBRANCH   5   6
ENDBRANCH   2   5
TORSDOF 2
ENDMDL
MODEL      145
REMARK 921   NORMALIZED FREE ENERGY PREDICTED BY IDOCK:   -1.51 KCAL/MOL
REMARK 922        TOTAL FREE ENERGY PREDICTED BY IDOCK:   -1.96 KCAL/MOL
REMARK 923 INTER-LIGAND FREE ENERGY PREDICTED BY IDOCK:   -1.91 KCAL/MOL
REMARK 924 INTRA-LIGAND FREE ENERGY PREDICTED BY IDOCK:   -0.05 KCAL/MOL
REMARK 927      BINDING AFFINITY PREDICTED BY RF-SCORE:    0.00 PKD
ROOT
HETATM    1  N   UNL     1      -8.833  15.796  69.399  1.00  0.00    -0.260 NA 
HETATM    2  C   UNL     1      -7.671  16.456  68.820  1.00  0.00    -0.214 C  
HETATM    3  H1  UNL     1      -8.554  14.921  69.841  1.00  0.00     0.000 HD 
HETATM    4  H2  UNL     1      -9.575  15.658  68.713  1.00  0.00     0.000 HD 
ENDROOT
BRANCH   2   5
HETATM    5  C   UNL     1      -8.090  17.766  68.158  1.00  0.00    -0.265 C  
BRANCH   5   6
HETATM    6  C   UNL     1      -6.868  18.559  67.705  1.00  0.00    -0.206 C  
HETATM    7  C   UNL     1      -6.794  19.911  68.366  1.00  0.00    -0.300 C  
HETATM    8  O   UNL     1      -6.595  19.854  69.701  1.00  0.00    -0.345 OA 
HETATM    9  O   UNL     1      -6.872  20.967  67.760  1.00  0.00    -0.325 OA 
ENDBRANCH   5   6
ENDBRANCH   2   5
TORSDOF 2
ENDMDL
MODEL      146
REMARK 921   NORMALIZED FREE ENERGY PREDICTED BY IDOCK:   -1.50 KCAL/MOL
REMARK 922        TOTAL FREE ENERGY PREDICTED BY IDOCK:   -1.95 KCAL/MOL
REMARK 923 INTER-LIGAND FREE ENERGY PREDICTED BY IDOCK:   -1.94 KCAL/MOL
REMARK 924 INTRA-LIGAND FREE ENERGY PREDICTED BY IDOCK:   -0.01 KCAL/MOL
REMARK 927      BINDING AFFINITY PREDICTED BY RF-SCORE:    0.00 PKD
ROOT
HETATM    1  N   UNL     1     -10.781  18.465  65.288  1.00  0.00    -0.502 NA 
HETATM    2  C   UNL     1     -10.409  17.376  66.180  1.00  0.00    -0.327 C  
HETATM    3  H1  UNL     1     -11.089  18.091  64.390  1.00  0.00     0.000 HD 
HETATM    4  H2  UNL     1     -10.029  19.145  65.181  1.00  0.00     0.000 HD 
ENDROOT
BRANCH   2   5
HETATM    5  C   UNL     1      -9.948  17.936  67.523  1.00  0.00    -0.322 C  
BRANCH   5   6
HETATM    6  C   UNL     1      -8.427  18.049  67.571  1.00  0.00    -0.237 C  
HETATM    7  C   UNL     1      -7.804  16.947  68.389  1.00  0.00    -0.229 C  
HETATM    8  O   UNL     1      -7.963  15.717  67.856  1.00  0.00    -0.135 OA 
HETATM    9  O   UNL     1      -7.181  17.139  69.421  1.00  0.00    -0.190 OA 
ENDBRANCH   5   6
ENDBRANCH   2   5
TORSDOF 2
ENDMDL
MODEL      147
REMARK 921   NORMALIZED FREE ENERGY PREDICTED BY IDOCK:   -1.49 KCAL/MOL
REMARK 922        TOTAL FREE ENERGY PREDICTED BY IDOCK:   -1.94 KCAL/MOL
REMARK 923 INTER-LIGAND FREE ENERGY PREDICTED BY IDOCK:   -1.74 KCAL/MOL
REMARK 924 INTRA-LIGAND FREE ENERGY PREDICTED BY IDOCK:   -0.20 KCAL/MOL
REMARK 927      BINDING AFFINITY PREDICTED BY RF-SCORE:    0.00 PKD
ROOT
HETATM    1  N   UNL     1     -12.363   6.978  70.379  1.00  0.00    -0.618 NA 
HETATM    2  C   UNL     1     -11.481   6.236  71.268  1.00  0.00    -0.291 C  
HETATM    3  H1  UNL     1     -13.301   6.579  70.404  1.00  0.00     0.000 HD 
HETATM    4  H2  UNL     1     -11.994   7.027  69.429  1.00  0.00     0.000 HD 
ENDROOT
BRANCH   2   5
HETATM    5  C   UNL     1     -10.077   6.833  71.229  1.00  0.00    -0.203 C  
BRANCH   5   6
HETATM    6  C   UNL     1     -10.083   8.189  70.530  1.00  0.00    -0.201 C  
HETATM    7  C   UNL     1      -9.364   8.146  69.206  1.00  0.00    -0.151 C  
HETATM    8  O   UNL     1      -9.968   7.367  68.284  1.00  0.00    -0.154 OA 
HETATM    9  O   UNL     1      -8.347   8.777  68.967  1.00  0.00    -0.125 OA 
ENDBRANCH   5   6
ENDBRANCH   2   5
TORSDOF 2
ENDMDL
MODEL      148
REMARK 921   NORMALIZED FREE ENERGY PREDICTED BY IDOCK:   -1.49 KCAL/MOL
REMARK 922        TOTAL FREE ENERGY PREDICTED BY IDOCK:   -1.94 KCAL/MOL
REMARK 923 INTER-LIGAND FREE ENERGY PREDICTED BY IDOCK:   -1.85 KCAL/MOL
REMARK 924 INTRA-LIGAND FREE ENERGY PREDICTED BY IDOCK:   -0.09 KCAL/MOL
REMARK 927      BINDING AFFINITY PREDICTED BY RF-SCORE:    0.00 PKD
ROOT
HETATM    1  N   UNL     1     -10.442   7.264  66.545  1.00  0.00    -0.503 NA 
HETATM    2  C   UNL     1     -10.893   6.110  67.310  1.00  0.00    -0.352 C  
HETATM    3  H1  UNL     1     -11.012   8.078  66.773  1.00  0.00     0.000 HD 
HETATM    4  H2  UNL     1     -10.428   7.075  65.543  1.00  0.00     0.000 HD 
ENDROOT
BRANCH   2   5
HETATM    5  C   UNL     1     -10.041   4.891  66.969  1.00  0.00    -0.243 C  
BRANCH   5   6
HETATM    6  C   UNL     1      -9.491   4.993  65.550  1.00  0.00    -0.129 C  
HETATM    7  C   UNL     1     -10.047   3.919  64.650  1.00  0.00    -0.213 C  
HETATM    8  O   UNL     1     -11.375   4.026  64.430  1.00  0.00    -0.293 OA 
HETATM    9  O   UNL     1      -9.365   3.047  64.135  1.00  0.00    -0.117 OA 
ENDBRANCH   5   6
ENDBRANCH   2   5
TORSDOF 2
ENDMDL
MODEL      149
REMARK 921   NORMALIZED FREE ENERGY PREDICTED BY IDOCK:   -1.48 KCAL/MOL
REMARK 922        TOTAL FREE ENERGY PREDICTED BY IDOCK:   -1.93 KCAL/MOL
REMARK 923 INTER-LIGAND FREE ENERGY PREDICTED BY IDOCK:   -1.88 KCAL/MOL
REMARK 924 INTRA-LIGAND FREE ENERGY PREDICTED BY IDOCK:   -0.04 KCAL/MOL
REMARK 927      BINDING AFFINITY PREDICTED BY RF-SCORE:    0.00 PKD
ROOT
HETATM    1  N   UNL     1     -12.833  10.057  72.465  1.00  0.00    -0.293 NA 
HETATM    2  C   UNL     1     -13.535  10.045  71.189  1.00  0.00    -0.230 C  
HETATM    3  H1  UNL     1     -13.187   9.312  73.065  1.00  0.00     0.000 HD 
HETATM    4  H2  UNL     1     -12.882  10.969  72.919  1.00  0.00     0.000 HD 
ENDROOT
BRANCH   2   5
HETATM    5  C   UNL     1     -13.006  11.160  70.291  1.00  0.00    -0.008 C  
BRANCH   5   6
HETATM    6  C   UNL     1     -12.162  12.147  71.092  1.00  0.00    -0.119 C  
HETATM    7  C   UNL     1     -12.982  13.300  71.611  1.00  0.00    -0.349 C  
HETATM    8  O   UNL     1     -13.910  12.941  72.524  1.00  0.00    -0.579 OA 
HETATM    9  O   UNL     1     -12.811  14.460  71.272  1.00  0.00    -0.306 OA 
ENDBRANCH   5   6
ENDBRANCH   2   5
TORSDOF 2
ENDMDL
MODEL      150
REMARK 921   NORMALIZED FREE ENERGY PREDICTED BY IDOCK:   -1.47 KCAL/MOL
REMARK 922        TOTAL FREE ENERGY PREDICTED BY IDOCK:   -1.91 KCAL/MOL
REMARK 923 INTER-LIGAND FREE ENERGY PREDICTED BY IDOCK:   -1.90 KCAL/MOL
REMARK 924 INTRA-LIGAND FREE ENERGY PREDICTED BY IDOCK:   -0.02 KCAL/MOL
REMARK 927      BINDING AFFINITY PREDICTED BY RF-SCORE:    0.00 PKD
ROOT
HETATM    1  N   UNL     1     -11.406  14.934  71.357  1.00  0.00    -0.549 NA 
HETATM    2  C   UNL     1     -11.567  14.806  69.916  1.00  0.00    -0.286 C  
HETATM    3  H1  UNL     1     -12.098  14.359  71.839  1.00  0.00     0.000 HD 
HETATM    4  H2  UNL     1     -11.439  15.907  71.661  1.00  0.00     0.000 HD 
ENDROOT
BRANCH   2   5
HETATM    5  C   UNL     1     -10.532  15.666  69.196  1.00  0.00    -0.236 C  
BRANCH   5   6
HETATM    6  C   UNL     1      -9.620  14.804  68.328  1.00  0.00    -0.215 C  
HETATM    7  C   UNL     1      -8.617  15.632  67.566  1.00  0.00    -0.172 C  
HETATM    8  O   UNL     1      -7.719  16.261  68.354  1.00  0.00    -0.155 OA 
HETATM    9  O   UNL     1      -8.588  15.709  66.348  1.00  0.00    -0.285 OA 
ENDBRANCH   5   6
ENDBRANCH   2   5
TORSDOF 2
ENDMDL
MODEL      151
REMARK 921   NORMALIZED FREE ENERGY PREDICTED BY IDOCK:   -1.44 KCAL/MOL
REMARK 922        TOTAL FREE ENERGY PREDICTED BY IDOCK:   -1.89 KCAL/MOL
REMARK 923 INTER-LIGAND FREE ENERGY PREDICTED BY IDOCK:   -1.78 KCAL/MOL
REMARK 924 INTRA-LIGAND FREE ENERGY PREDICTED BY IDOCK:   -0.10 KCAL/MOL
REMARK 927      BINDING AFFINITY PREDICTED BY RF-SCORE:    0.00 PKD
ROOT
HETATM    1  N   UNL     1     -11.019   5.922  67.104  1.00  0.00    -0.494 NA 
HETATM    2  C   UNL     1     -10.610   6.375  68.427  1.00  0.00    -0.257 C  
HETATM    3  H1  UNL     1     -11.620   5.102  67.186  1.00  0.00     0.000 HD 
HETATM    4  H2  UNL     1     -10.219   5.750  66.495  1.00  0.00     0.000 HD 
ENDROOT
BRANCH   2   5
HETATM    5  C   UNL     1      -9.710   7.601  68.304  1.00  0.00    -0.166 C  
BRANCH   5   6
HETATM    6  C   UNL     1     -10.407   8.709  67.520  1.00  0.00    -0.336 C  
HETATM    7  C   UNL     1      -9.498   9.332  66.492  1.00  0.00    -0.202 C  
HETATM    8  O   UNL     1      -9.139   8.488  65.501  1.00  0.00    -0.175 OA 
HETATM    9  O   UNL     1      -9.138  10.498  66.523  1.00  0.00    -0.153 OA 
ENDBRANCH   5   6
ENDBRANCH   2   5
TORSDOF 2
ENDMDL
MODEL      152
REMARK 921   NORMALIZED FREE ENERGY PREDICTED BY IDOCK:   -1.44 KCAL/MOL
REMARK 922        TOTAL FREE ENERGY PREDICTED BY IDOCK:   -1.88 KCAL/MOL
REMARK 923 INTER-LIGAND FREE ENERGY PREDICTED BY IDOCK:   -1.77 KCAL/MOL
REMARK 924 INTRA-LIGAND FREE ENERGY PREDICTED BY IDOCK:   -0.12 KCAL/MOL
REMARK 927      BINDING AFFINITY PREDICTED BY RF-SCORE:    0.00 PKD
ROOT
HETATM    1  N   UNL     1      -8.245  15.037  66.783  1.00  0.00    -0.354 NA 
HETATM    2  C   UNL     1      -7.425  14.888  67.978  1.00  0.00    -0.126 C  
HETATM    3  H1  UNL     1      -7.889  14.438  66.038  1.00  0.00     0.000 HD 
HETATM    4  H2  UNL     1      -8.317  16.011  66.489  1.00  0.00     0.000 HD 
ENDROOT
BRANCH   2   5
HETATM    5  C   UNL     1      -7.958  15.784  69.092  1.00  0.00    -0.231 C  
BRANCH   5   6
HETATM    6  C   UNL     1      -8.917  16.831  68.535  1.00  0.00    -0.244 C  
HETATM    7  C   UNL     1      -8.252  18.172  68.359  1.00  0.00    -0.303 C  
HETATM    8  O   UNL     1      -7.278  18.178  67.424  1.00  0.00    -0.196 OA 
HETATM    9  O   UNL     1      -8.575  19.175  68.975  1.00  0.00    -0.313 OA 
ENDBRANCH   5   6
ENDBRANCH   2   5
TORSDOF 2
ENDMDL
MODEL      153
REMARK 921   NORMALIZED FREE ENERGY PREDICTED BY IDOCK:   -1.43 KCAL/MOL
REMARK 922        TOTAL FREE ENERGY PREDICTED BY IDOCK:   -1.87 KCAL/MOL
REMARK 923 INTER-LIGAND FREE ENERGY PREDICTED BY IDOCK:   -1.80 KCAL/MOL
REMARK 924 INTRA-LIGAND FREE ENERGY PREDICTED BY IDOCK:   -0.06 KCAL/MOL
REMARK 927      BINDING AFFINITY PREDICTED BY RF-SCORE:    0.00 PKD
ROOT
HETATM    1  N   UNL     1     -11.646   8.319  70.066  1.00  0.00    -0.450 NA 
HETATM    2  C   UNL     1     -11.745   6.963  70.587  1.00  0.00    -0.367 C  
HETATM    3  H1  UNL     1     -12.574   8.735  69.994  1.00  0.00     0.000 HD 
HETATM    4  H2  UNL     1     -11.142   8.352  69.179  1.00  0.00     0.000 HD 
ENDROOT
BRANCH   2   5
HETATM    5  C   UNL     1     -10.355   6.342  70.695  1.00  0.00    -0.254 C  
BRANCH   5   6
HETATM    6  C   UNL     1     -10.245   5.103  69.811  1.00  0.00    -0.357 C  
HETATM    7  C   UNL     1      -9.476   5.379  68.544  1.00  0.00    -0.123 C  
HETATM    8  O   UNL     1      -8.176   5.677  68.750  1.00  0.00    -0.102 OA 
HETATM    9  O   UNL     1      -9.965   5.311  67.427  1.00  0.00    -0.149 OA 
ENDBRANCH   5   6
ENDBRANCH   2   5
TORSDOF 2
ENDMDL
MODEL      154
REMARK 921   NORMALIZED FREE ENERGY PREDICTED BY IDOCK:   -1.43 KCAL/MOL
REMARK 922        TOTAL FREE ENERGY PREDICTED BY IDOCK:   -1.87 KCAL/MOL
REMARK 923 INTER-LIGAND FREE ENERGY PREDICTED BY IDOCK:   -1.80 KCAL/MOL
REMARK 924 INTRA-LIGAND FREE ENERGY PREDICTED BY IDOCK:   -0.07 KCAL/MOL
REMARK 927      BINDING AFFINITY PREDICTED BY RF-SCORE:    0.00 PKD
ROOT
HETATM    1  N   UNL     1     -11.008   7.647  67.086  1.00  0.00    -0.514 NA 
HETATM    2  C   UNL     1      -9.592   7.784  66.774  1.00  0.00    -0.212 C  
HETATM    3  H1  UNL     1     -11.251   6.661  67.182  1.00  0.00     0.000 HD 
HETATM    4  H2  UNL     1     -11.597   8.121  66.401  1.00  0.00     0.000 HD 
ENDROOT
BRANCH   2   5
HETATM    5  C   UNL     1      -9.229   9.260  66.630  1.00  0.00    -0.190 C  
BRANCH   5   6
HETATM    6  C   UNL     1     -10.315  10.014  65.870  1.00  0.00    -0.202 C  
HETATM    7  C   UNL     1      -9.795  10.617  64.590  1.00  0.00    -0.321 C  
HETATM    8  O   UNL     1      -9.414   9.702  63.673  1.00  0.00    -0.137 OA 
HETATM    9  O   UNL     1      -9.748  11.818  64.377  1.00  0.00    -0.223 OA 
ENDBRANCH   5   6
ENDBRANCH   2   5
TORSDOF 2
ENDMDL
MODEL      155
REMARK 921   NORMALIZED FREE ENERGY PREDICTED BY IDOCK:   -1.42 KCAL/MOL
REMARK 922        TOTAL FREE ENERGY PREDICTED BY IDOCK:   -1.85 KCAL/MOL
REMARK 923 INTER-LIGAND FREE ENERGY PREDICTED BY IDOCK:   -1.83 KCAL/MOL
REMARK 924 INTRA-LIGAND FREE ENERGY PREDICTED BY IDOCK:   -0.02 KCAL/MOL
REMARK 927      BINDING AFFINITY PREDICTED BY RF-SCORE:    0.00 PKD
ROOT
HETATM    1  N   UNL     1      -7.477   9.610  70.962  1.00  0.00    -0.320 NA 
HETATM    2  C   UNL     1      -8.835   9.580  70.437  1.00  0.00    -0.234 C  
HETATM    3  H1  UNL     1      -7.161  10.574  71.059  1.00  0.00     0.000 HD 
HETATM    4  H2  UNL     1      -6.837   9.053  70.397  1.00  0.00     0.000 HD 
ENDROOT
BRANCH   2   5
HETATM    5  C   UNL     1      -9.308   8.136  70.292  1.00  0.00    -0.155 C  
BRANCH   5   6
HETATM    6  C   UNL     1     -10.273   7.997  69.119  1.00  0.00    -0.221 C  
HETATM    7  C   UNL     1     -11.064   6.715  69.187  1.00  0.00    -0.275 C  
HETATM    8  O   UNL     1     -11.909   6.652  70.237  1.00  0.00    -0.395 OA 
HETATM    9  O   UNL     1     -10.981   5.823  68.357  1.00  0.00    -0.233 OA 
ENDBRANCH   5   6
ENDBRANCH   2   5
TORSDOF 2
ENDMDL
MODEL      156
REMARK 921   NORMALIZED FREE ENERGY PREDICTED BY IDOCK:   -1.41 KCAL/MOL
REMARK 922        TOTAL FREE ENERGY PREDICTED BY IDOCK:   -1.85 KCAL/MOL
REMARK 923 INTER-LIGAND FREE ENERGY PREDICTED BY IDOCK:   -1.83 KCAL/MOL
REMARK 924 INTRA-LIGAND FREE ENERGY PREDICTED BY IDOCK:   -0.02 KCAL/MOL
REMARK 927      BINDING AFFINITY PREDICTED BY RF-SCORE:    0.00 PKD
ROOT
HETATM    1  N   UNL     1     -11.993   6.758  69.722  1.00  0.00    -0.647 NA 
HETATM    2  C   UNL     1     -11.004   5.846  70.279  1.00  0.00    -0.320 C  
HETATM    3  H1  UNL     1     -12.697   6.235  69.201  1.00  0.00     0.000 HD 
HETATM    4  H2  UNL     1     -11.562   7.488  69.154  1.00  0.00     0.000 HD 
ENDROOT
BRANCH   2   5
HETATM    5  C   UNL     1      -9.950   6.629  71.058  1.00  0.00    -0.200 C  
BRANCH   5   6
HETATM    6  C   UNL     1      -9.572   5.899  72.343  1.00  0.00    -0.168 C  
HETATM    7  C   UNL     1      -8.762   6.769  73.269  1.00  0.00    -0.122 C  
HETATM    8  O   UNL     1      -9.443   7.829  73.755  1.00  0.00    -0.284 OA 
HETATM    9  O   UNL     1      -7.607   6.531  73.585  1.00  0.00    -0.088 OA 
ENDBRANCH   5   6
ENDBRANCH   2   5
TORSDOF 2
ENDMDL
MODEL      157
REMARK 921   NORMALIZED FREE ENERGY PREDICTED BY IDOCK:   -1.40 KCAL/MOL
REMARK 922        TOTAL FREE ENERGY PREDICTED BY IDOCK:   -1.84 KCAL/MOL
REMARK 923 INTER-LIGAND FREE ENERGY PREDICTED BY IDOCK:   -1.77 KCAL/MOL
REMARK 924 INTRA-LIGAND FREE ENERGY PREDICTED BY IDOCK:   -0.08 KCAL/MOL
REMARK 927      BINDING AFFINITY PREDICTED BY RF-SCORE:    0.00 PKD
ROOT
HETATM    1  N   UNL     1      -7.293  10.695  65.147  1.00  0.00    -0.342 NA 
HETATM    2  C   UNL     1      -8.051   9.492  65.463  1.00  0.00    -0.116 C  
HETATM    3  H1  UNL     1      -6.326  10.588  65.453  1.00  0.00     0.000 HD 
HETATM    4  H2  UNL     1      -7.727  11.533  65.534  1.00  0.00     0.000 HD 
ENDROOT
BRANCH   2   5
HETATM    5  C   UNL     1      -9.498   9.651  65.005  1.00  0.00    -0.312 C  
BRANCH   5   6
HETATM    6  C   UNL     1     -10.386  10.106  66.159  1.00  0.00    -0.237 C  
HETATM    7  C   UNL     1     -10.477  11.608  66.243  1.00  0.00    -0.246 C  
HETATM    8  O   UNL     1     -11.099  12.176  65.188  1.00  0.00    -0.305 OA 
HETATM    9  O   UNL     1     -10.061  12.260  67.188  1.00  0.00    -0.207 OA 
ENDBRANCH   5   6
ENDBRANCH   2   5
TORSDOF 2
ENDMDL
MODEL      158
REMARK 921   NORMALIZED FREE ENERGY PREDICTED BY IDOCK:   -1.39 KCAL/MOL
REMARK 922        TOTAL FREE ENERGY PREDICTED BY IDOCK:   -1.83 KCAL/MOL
REMARK 923 INTER-LIGAND FREE ENERGY PREDICTED BY IDOCK:   -1.80 KCAL/MOL
REMARK 924 INTRA-LIGAND FREE ENERGY PREDICTED BY IDOCK:   -0.03 KCAL/MOL
REMARK 927      BINDING AFFINITY PREDICTED BY RF-SCORE:    0.00 PKD
ROOT
HETATM    1  N   UNL     1     -11.442   6.412  68.023  1.00  0.00    -0.583 NA 
HETATM    2  C   UNL     1     -11.322   6.572  69.465  1.00  0.00    -0.357 C  
HETATM    3  H1  UNL     1     -11.921   7.217  67.620  1.00  0.00     0.000 HD 
HETATM    4  H2  UNL     1     -11.896   5.533  67.773  1.00  0.00     0.000 HD 
ENDROOT
BRANCH   2   5
HETATM    5  C   UNL     1     -10.605   5.367  70.067  1.00  0.00    -0.354 C  
BRANCH   5   6
HETATM    6  C   UNL     1      -9.877   4.573  68.987  1.00  0.00    -0.202 C  
HETATM    7  C   UNL     1      -8.920   3.567  69.573  1.00  0.00    -0.115 C  
HETATM    8  O   UNL     1      -9.526   2.579  70.267  1.00  0.00    -0.134 OA 
HETATM    9  O   UNL     1      -7.710   3.610  69.415  1.00  0.00    -0.052 OA 
ENDBRANCH   5   6
ENDBRANCH   2   5
TORSDOF 2
ENDMDL
MODEL      159
REMARK 921   NORMALIZED FREE ENERGY PREDICTED BY IDOCK:   -1.39 KCAL/MOL
REMARK 922        TOTAL FREE ENERGY PREDICTED BY IDOCK:   -1.82 KCAL/MOL
REMARK 923 INTER-LIGAND FREE ENERGY PREDICTED BY IDOCK:   -1.81 KCAL/MOL
REMARK 924 INTRA-LIGAND FREE ENERGY PREDICTED BY IDOCK:   -0.02 KCAL/MOL
REMARK 927      BINDING AFFINITY PREDICTED BY RF-SCORE:    0.00 PKD
ROOT
HETATM    1  N   UNL     1      -8.560   3.483  70.299  1.00  0.00    -0.056 NA 
HETATM    2  C   UNL     1      -9.137   4.479  69.408  1.00  0.00    -0.112 C  
HETATM    3  H1  UNL     1      -8.228   2.683  69.760  1.00  0.00     0.000 HD 
HETATM    4  H2  UNL     1      -9.210   3.206  71.034  1.00  0.00     0.000 HD 
ENDROOT
BRANCH   2   5
HETATM    5  C   UNL     1      -9.634   5.676  70.214  1.00  0.00    -0.216 C  
BRANCH   5   6
HETATM    6  C   UNL     1     -11.090   5.986  69.883  1.00  0.00    -0.469 C  
HETATM    7  C   UNL     1     -11.651   7.074  70.763  1.00  0.00    -0.338 C  
HETATM    8  O   UNL     1     -11.072   8.279  70.574  1.00  0.00    -0.250 OA 
HETATM    9  O   UNL     1     -12.565   6.903  71.553  1.00  0.00    -0.365 OA 
ENDBRANCH   5   6
ENDBRANCH   2   5
TORSDOF 2
ENDMDL
MODEL      160
REMARK 921   NORMALIZED FREE ENERGY PREDICTED BY IDOCK:   -1.37 KCAL/MOL
REMARK 922        TOTAL FREE ENERGY PREDICTED BY IDOCK:   -1.80 KCAL/MOL
REMARK 923 INTER-LIGAND FREE ENERGY PREDICTED BY IDOCK:   -1.58 KCAL/MOL
REMARK 924 INTRA-LIGAND FREE ENERGY PREDICTED BY IDOCK:   -0.22 KCAL/MOL
REMARK 927      BINDING AFFINITY PREDICTED BY RF-SCORE:    0.00 PKD
ROOT
HETATM    1  N   UNL     1      -5.806  14.054  67.365  1.00  0.00    -0.322 NA 
HETATM    2  C   UNL     1      -6.253  15.319  67.930  1.00  0.00    -0.153 C  
HETATM    3  H1  UNL     1      -4.992  13.711  67.876  1.00  0.00     0.000 HD 
HETATM    4  H2  UNL     1      -5.626  14.125  66.363  1.00  0.00     0.000 HD 
ENDROOT
BRANCH   2   5
HETATM    5  C   UNL     1      -7.470  15.832  67.166  1.00  0.00    -0.259 C  
BRANCH   5   6
HETATM    6  C   UNL     1      -8.746  15.626  67.976  1.00  0.00    -0.167 C  
HETATM    7  C   UNL     1      -9.551  14.455  67.475  1.00  0.00    -0.215 C  
HETATM    8  O   UNL     1      -8.937  13.263  67.635  1.00  0.00    -0.178 OA 
HETATM    9  O   UNL     1     -10.669  14.557  66.995  1.00  0.00    -0.283 OA 
ENDBRANCH   5   6
ENDBRANCH   2   5
TORSDOF 2
ENDMDL
MODEL      161
REMARK 921   NORMALIZED FREE ENERGY PREDICTED BY IDOCK:   -1.35 KCAL/MOL
REMARK 922        TOTAL FREE ENERGY PREDICTED BY IDOCK:   -1.78 KCAL/MOL
REMARK 923 INTER-LIGAND FREE ENERGY PREDICTED BY IDOCK:   -1.69 KCAL/MOL
REMARK 924 INTRA-LIGAND FREE ENERGY PREDICTED BY IDOCK:   -0.09 KCAL/MOL
REMARK 927      BINDING AFFINITY PREDICTED BY RF-SCORE:    0.00 PKD
ROOT
HETATM    1  N   UNL     1     -10.523   7.385  66.564  1.00  0.00    -0.501 NA 
HETATM    2  C   UNL     1     -10.890   6.109  67.163  1.00  0.00    -0.360 C  
HETATM    3  H1  UNL     1     -10.726   8.146  67.212  1.00  0.00     0.000 HD 
HETATM    4  H2  UNL     1     -10.971   7.524  65.658  1.00  0.00     0.000 HD 
ENDROOT
BRANCH   2   5
HETATM    5  C   UNL     1     -10.587   4.970  66.193  1.00  0.00    -0.321 C  
BRANCH   5   6
HETATM    6  C   UNL     1      -9.578   3.998  66.796  1.00  0.00    -0.234 C  
HETATM    7  C   UNL     1      -8.279   3.984  66.031  1.00  0.00    -0.105 C  
HETATM    8  O   UNL     1      -7.598   5.148  66.094  1.00  0.00    -0.085 OA 
HETATM    9  O   UNL     1      -7.855   3.008  65.434  1.00  0.00    -0.080 OA 
ENDBRANCH   5   6
ENDBRANCH   2   5
TORSDOF 2
ENDMDL
MODEL      162
REMARK 921   NORMALIZED FREE ENERGY PREDICTED BY IDOCK:   -1.34 KCAL/MOL
REMARK 922        TOTAL FREE ENERGY PREDICTED BY IDOCK:   -1.77 KCAL/MOL
REMARK 923 INTER-LIGAND FREE ENERGY PREDICTED BY IDOCK:   -1.70 KCAL/MOL
REMARK 924 INTRA-LIGAND FREE ENERGY PREDICTED BY IDOCK:   -0.07 KCAL/MOL
REMARK 927      BINDING AFFINITY PREDICTED BY RF-SCORE:    0.00 PKD
ROOT
HETATM    1  N   UNL     1     -11.218   5.513  66.310  1.00  0.00    -0.737 NA 
HETATM    2  C   UNL     1     -10.235   4.565  66.814  1.00  0.00    -0.132 C  
HETATM    3  H1  UNL     1     -12.065   5.021  66.027  1.00  0.00     0.000 HD 
HETATM    4  H2  UNL     1     -10.841   6.090  65.558  1.00  0.00     0.000 HD 
ENDROOT
BRANCH   2   5
HETATM    5  C   UNL     1      -8.967   5.301  67.238  1.00  0.00    -0.111 C  
BRANCH   5   6
HETATM    6  C   UNL     1      -9.233   6.185  68.452  1.00  0.00    -0.111 C  
HETATM    7  C   UNL     1      -9.911   5.428  69.565  1.00  0.00    -0.196 C  
HETATM    8  O   UNL     1      -9.147   4.456  70.106  1.00  0.00    -0.089 OA 
HETATM    9  O   UNL     1     -11.034   5.682  69.971  1.00  0.00    -0.328 OA 
ENDBRANCH   5   6
ENDBRANCH   2   5
TORSDOF 2
ENDMDL
MODEL      163
REMARK 921   NORMALIZED FREE ENERGY PREDICTED BY IDOCK:   -1.34 KCAL/MOL
REMARK 922        TOTAL FREE ENERGY PREDICTED BY IDOCK:   -1.77 KCAL/MOL
REMARK 923 INTER-LIGAND FREE ENERGY PREDICTED BY IDOCK:   -1.69 KCAL/MOL
REMARK 924 INTRA-LIGAND FREE ENERGY PREDICTED BY IDOCK:   -0.07 KCAL/MOL
REMARK 927      BINDING AFFINITY PREDICTED BY RF-SCORE:    0.00 PKD
ROOT
HETATM    1  N   UNL     1      -9.911   4.100  70.104  1.00  0.00    -0.209 NA 
HETATM    2  C   UNL     1     -10.370   5.480  70.030  1.00  0.00    -0.288 C  
HETATM    3  H1  UNL     1     -10.612   3.477  69.705  1.00  0.00     0.000 HD 
HETATM    4  H2  UNL     1      -9.658   3.832  71.055  1.00  0.00     0.000 HD 
ENDROOT
BRANCH   2   5
HETATM    5  C   UNL     1      -9.321   6.413  70.628  1.00  0.00    -0.169 C  
BRANCH   5   6
HETATM    6  C   UNL     1      -9.682   7.872  70.368  1.00  0.00    -0.179 C  
HETATM    7  C   UNL     1     -10.799   8.346  71.262  1.00  0.00    -0.239 C  
HETATM    8  O   UNL     1     -10.471   8.381  72.571  1.00  0.00    -0.324 OA 
HETATM    9  O   UNL     1     -11.892   8.699  70.851  1.00  0.00    -0.284 OA 
ENDBRANCH   5   6
ENDBRANCH   2   5
TORSDOF 2
ENDMDL
MODEL      164
REMARK 921   NORMALIZED FREE ENERGY PREDICTED BY IDOCK:   -1.34 KCAL/MOL
REMARK 922        TOTAL FREE ENERGY PREDICTED BY IDOCK:   -1.76 KCAL/MOL
REMARK 923 INTER-LIGAND FREE ENERGY PREDICTED BY IDOCK:   -1.74 KCAL/MOL
REMARK 924 INTRA-LIGAND FREE ENERGY PREDICTED BY IDOCK:   -0.02 KCAL/MOL
REMARK 927      BINDING AFFINITY PREDICTED BY RF-SCORE:    0.00 PKD
ROOT
HETATM    1  N   UNL     1      -9.745  16.912  65.711  1.00  0.00    -0.548 NA 
HETATM    2  C   UNL     1      -8.928  15.748  66.022  1.00  0.00    -0.287 C  
HETATM    3  H1  UNL     1      -9.230  17.549  65.104  1.00  0.00     0.000 HD 
HETATM    4  H2  UNL     1     -10.084  17.376  66.554  1.00  0.00     0.000 HD 
ENDROOT
BRANCH   2   5
HETATM    5  C   UNL     1      -9.700  14.794  66.930  1.00  0.00    -0.247 C  
BRANCH   5   6
HETATM    6  C   UNL     1      -8.753  13.819  67.623  1.00  0.00    -0.185 C  
HETATM    7  C   UNL     1      -7.549  14.515  68.203  1.00  0.00    -0.125 C  
HETATM    8  O   UNL     1      -7.844  15.363  69.211  1.00  0.00    -0.193 OA 
HETATM    9  O   UNL     1      -6.405  14.316  67.827  1.00  0.00    -0.155 OA 
ENDBRANCH   5   6
ENDBRANCH   2   5
TORSDOF 2
ENDMDL
MODEL      165
REMARK 921   NORMALIZED FREE ENERGY PREDICTED BY IDOCK:   -1.32 KCAL/MOL
REMARK 922        TOTAL FREE ENERGY PREDICTED BY IDOCK:   -1.75 KCAL/MOL
REMARK 923 INTER-LIGAND FREE ENERGY PREDICTED BY IDOCK:   -1.67 KCAL/MOL
REMARK 924 INTRA-LIGAND FREE ENERGY PREDICTED BY IDOCK:   -0.08 KCAL/MOL
REMARK 927      BINDING AFFINITY PREDICTED BY RF-SCORE:    0.00 PKD
ROOT
HETATM    1  N   UNL     1     -12.061   6.277  72.453  1.00  0.00    -0.529 NA 
HETATM    2  C   UNL     1     -10.958   6.869  73.198  1.00  0.00    -0.263 C  
HETATM    3  H1  UNL     1     -12.561   5.611  73.041  1.00  0.00     0.000 HD 
HETATM    4  H2  UNL     1     -11.748   5.857  71.578  1.00  0.00     0.000 HD 
ENDROOT
BRANCH   2   5
HETATM    5  C   UNL     1     -10.209   7.867  72.319  1.00  0.00    -0.302 C  
BRANCH   5   6
HETATM    6  C   UNL     1      -8.945   7.238  71.741  1.00  0.00    -0.136 C  
HETATM    7  C   UNL     1      -9.214   6.521  70.443  1.00  0.00    -0.155 C  
HETATM    8  O   UNL     1      -9.589   7.339  69.436  1.00  0.00    -0.154 OA 
HETATM    9  O   UNL     1      -9.076   5.317  70.293  1.00  0.00    -0.129 OA 
ENDBRANCH   5   6
ENDBRANCH   2   5
TORSDOF 2
ENDMDL
MODEL      166
REMARK 921   NORMALIZED FREE ENERGY PREDICTED BY IDOCK:   -1.32 KCAL/MOL
REMARK 922        TOTAL FREE ENERGY PREDICTED BY IDOCK:   -1.74 KCAL/MOL
REMARK 923 INTER-LIGAND FREE ENERGY PREDICTED BY IDOCK:   -1.64 KCAL/MOL
REMARK 924 INTRA-LIGAND FREE ENERGY PREDICTED BY IDOCK:   -0.10 KCAL/MOL
REMARK 927      BINDING AFFINITY PREDICTED BY RF-SCORE:    0.00 PKD
ROOT
HETATM    1  N   UNL     1      -7.916   7.665  68.616  1.00  0.00    -0.121 NA 
HETATM    2  C   UNL     1      -8.950   8.272  67.790  1.00  0.00    -0.136 C  
HETATM    3  H1  UNL     1      -7.033   7.639  68.107  1.00  0.00     0.000 HD 
HETATM    4  H2  UNL     1      -8.190   6.742  68.954  1.00  0.00     0.000 HD 
ENDROOT
BRANCH   2   5
HETATM    5  C   UNL     1     -10.272   8.312  68.552  1.00  0.00    -0.234 C  
BRANCH   5   6
HETATM    6  C   UNL     1     -10.089   7.811  69.981  1.00  0.00    -0.201 C  
HETATM    7  C   UNL     1     -10.921   6.586  70.262  1.00  0.00    -0.310 C  
HETATM    8  O   UNL     1     -10.551   5.501  69.549  1.00  0.00    -0.290 OA 
HETATM    9  O   UNL     1     -11.828   6.555  71.079  1.00  0.00    -0.349 OA 
ENDBRANCH   5   6
ENDBRANCH   2   5
TORSDOF 2
ENDMDL
MODEL      167
REMARK 921   NORMALIZED FREE ENERGY PREDICTED BY IDOCK:   -1.31 KCAL/MOL
REMARK 922        TOTAL FREE ENERGY PREDICTED BY IDOCK:   -1.73 KCAL/MOL
REMARK 923 INTER-LIGAND FREE ENERGY PREDICTED BY IDOCK:   -1.70 KCAL/MOL
REMARK 924 INTRA-LIGAND FREE ENERGY PREDICTED BY IDOCK:   -0.03 KCAL/MOL
REMARK 927      BINDING AFFINITY PREDICTED BY RF-SCORE:    0.00 PKD
ROOT
HETATM    1  N   UNL     1     -10.791   9.128  71.799  1.00  0.00    -0.365 NA 
HETATM    2  C   UNL     1     -11.315   7.909  71.198  1.00  0.00    -0.266 C  
HETATM    3  H1  UNL     1     -11.229   9.285  72.706  1.00  0.00     0.000 HD 
HETATM    4  H2  UNL     1     -10.893   9.933  71.180  1.00  0.00     0.000 HD 
ENDROOT
BRANCH   2   5
HETATM    5  C   UNL     1     -10.660   7.673  69.839  1.00  0.00    -0.237 C  
BRANCH   5   6
HETATM    6  C   UNL     1     -10.587   8.970  69.040  1.00  0.00    -0.209 C  
HETATM    7  C   UNL     1      -9.830   8.797  67.748  1.00  0.00    -0.174 C  
HETATM    8  O   UNL     1     -10.437   7.974  66.867  1.00  0.00    -0.330 OA 
HETATM    9  O   UNL     1      -8.780   9.367  67.497  1.00  0.00    -0.122 OA 
ENDBRANCH   5   6
ENDBRANCH   2   5
TORSDOF 2
ENDMDL
MODEL      168
REMARK 921   NORMALIZED FREE ENERGY PREDICTED BY IDOCK:   -1.24 KCAL/MOL
REMARK 922        TOTAL FREE ENERGY PREDICTED BY IDOCK:   -1.65 KCAL/MOL
REMARK 923 INTER-LIGAND FREE ENERGY PREDICTED BY IDOCK:   -1.59 KCAL/MOL
REMARK 924 INTRA-LIGAND FREE ENERGY PREDICTED BY IDOCK:   -0.07 KCAL/MOL
REMARK 927      BINDING AFFINITY PREDICTED BY RF-SCORE:    0.00 PKD
ROOT
HETATM    1  N   UNL     1      -9.780   5.838  70.531  1.00  0.00    -0.172 NA 
HETATM    2  C   UNL     1     -10.876   6.793  70.445  1.00  0.00    -0.262 C  
HETATM    3  H1  UNL     1      -9.870   5.136  69.797  1.00  0.00     0.000 HD 
HETATM    4  H2  UNL     1      -9.714   5.416  71.457  1.00  0.00     0.000 HD 
ENDROOT
BRANCH   2   5
HETATM    5  C   UNL     1     -10.741   7.844  71.544  1.00  0.00    -0.267 C  
BRANCH   5   6
HETATM    6  C   UNL     1      -9.635   8.839  71.210  1.00  0.00    -0.323 C  
HETATM    7  C   UNL     1      -9.750   9.361  69.800  1.00  0.00    -0.199 C  
HETATM    8  O   UNL     1     -10.854  10.107  69.584  1.00  0.00    -0.228 OA 
HETATM    9  O   UNL     1      -8.913   9.162  68.934  1.00  0.00    -0.137 OA 
ENDBRANCH   5   6
ENDBRANCH   2   5
TORSDOF 2
ENDMDL
MODEL      169
REMARK 921   NORMALIZED FREE ENERGY PREDICTED BY IDOCK:   -1.23 KCAL/MOL
REMARK 922        TOTAL FREE ENERGY PREDICTED BY IDOCK:   -1.65 KCAL/MOL
REMARK 923 INTER-LIGAND FREE ENERGY PREDICTED BY IDOCK:   -1.60 KCAL/MOL
REMARK 924 INTRA-LIGAND FREE ENERGY PREDICTED BY IDOCK:   -0.05 KCAL/MOL
REMARK 927      BINDING AFFINITY PREDICTED BY RF-SCORE:    0.00 PKD
ROOT
HETATM    1  N   UNL     1     -11.638   6.526  66.965  1.00  0.00    -0.627 NA 
HETATM    2  C   UNL     1     -10.318   6.855  67.483  1.00  0.00    -0.217 C  
HETATM    3  H1  UNL     1     -11.595   5.666  66.419  1.00  0.00     0.000 HD 
HETATM    4  H2  UNL     1     -12.043   7.296  66.434  1.00  0.00     0.000 HD 
ENDROOT
BRANCH   2   5
HETATM    5  C   UNL     1     -10.382   8.142  68.301  1.00  0.00    -0.241 C  
BRANCH   5   6
HETATM    6  C   UNL     1      -9.583   9.253  67.628  1.00  0.00    -0.172 C  
HETATM    7  C   UNL     1      -8.360   9.631  68.424  1.00  0.00    -0.117 C  
HETATM    8  O   UNL     1      -7.437   8.648  68.503  1.00  0.00    -0.090 OA 
HETATM    9  O   UNL     1      -8.192  10.730  68.927  1.00  0.00    -0.135 OA 
ENDBRANCH   5   6
ENDBRANCH   2   5
TORSDOF 2
ENDMDL
MODEL      170
REMARK 921   NORMALIZED FREE ENERGY PREDICTED BY IDOCK:   -1.23 KCAL/MOL
REMARK 922        TOTAL FREE ENERGY PREDICTED BY IDOCK:   -1.64 KCAL/MOL
REMARK 923 INTER-LIGAND FREE ENERGY PREDICTED BY IDOCK:   -1.46 KCAL/MOL
REMARK 924 INTRA-LIGAND FREE ENERGY PREDICTED BY IDOCK:   -0.18 KCAL/MOL
REMARK 927      BINDING AFFINITY PREDICTED BY RF-SCORE:    0.00 PKD
ROOT
HETATM    1  N   UNL     1      -9.006   9.788  70.723  1.00  0.00    -0.369 NA 
HETATM    2  C   UNL     1     -10.433   9.710  70.444  1.00  0.00    -0.293 C  
HETATM    3  H1  UNL     1      -8.720  10.762  70.816  1.00  0.00     0.000 HD 
HETATM    4  H2  UNL     1      -8.453   9.293  70.023  1.00  0.00     0.000 HD 
ENDROOT
BRANCH   2   5
HETATM    5  C   UNL     1     -10.860   8.251  70.305  1.00  0.00    -0.241 C  
BRANCH   5   6
HETATM    6  C   UNL     1      -9.699   7.314  70.621  1.00  0.00    -0.175 C  
HETATM    7  C   UNL     1      -9.220   6.575  69.397  1.00  0.00    -0.144 C  
HETATM    8  O   UNL     1      -8.669   7.375  68.459  1.00  0.00    -0.128 OA 
HETATM    9  O   UNL     1      -9.287   5.363  69.268  1.00  0.00    -0.113 OA 
ENDBRANCH   5   6
ENDBRANCH   2   5
TORSDOF 2
ENDMDL
MODEL      171
REMARK 921   NORMALIZED FREE ENERGY PREDICTED BY IDOCK:   -1.21 KCAL/MOL
REMARK 922        TOTAL FREE ENERGY PREDICTED BY IDOCK:   -1.62 KCAL/MOL
REMARK 923 INTER-LIGAND FREE ENERGY PREDICTED BY IDOCK:   -1.60 KCAL/MOL
REMARK 924 INTRA-LIGAND FREE ENERGY PREDICTED BY IDOCK:   -0.02 KCAL/MOL
REMARK 927      BINDING AFFINITY PREDICTED BY RF-SCORE:    0.00 PKD
ROOT
HETATM    1  N   UNL     1      -7.512   7.326  68.523  1.00  0.00    -0.103 NA 
HETATM    2  C   UNL     1      -8.362   8.507  68.475  1.00  0.00    -0.123 C  
HETATM    3  H1  UNL     1      -6.675   7.475  67.959  1.00  0.00     0.000 HD 
HETATM    4  H2  UNL     1      -8.014   6.483  68.246  1.00  0.00     0.000 HD 
ENDROOT
BRANCH   2   5
HETATM    5  C   UNL     1      -9.614   8.284  69.318  1.00  0.00    -0.164 C  
BRANCH   5   6
HETATM    6  C   UNL     1      -9.899   9.498  70.198  1.00  0.00    -0.288 C  
HETATM    7  C   UNL     1     -11.011   9.235  71.180  1.00  0.00    -0.339 C  
HETATM    8  O   UNL     1     -10.711   8.300  72.106  1.00  0.00    -0.269 OA 
HETATM    9  O   UNL     1     -12.078   9.830  71.171  1.00  0.00    -0.319 OA 
ENDBRANCH   5   6
ENDBRANCH   2   5
TORSDOF 2
ENDMDL
MODEL      172
REMARK 921   NORMALIZED FREE ENERGY PREDICTED BY IDOCK:   -1.20 KCAL/MOL
REMARK 922        TOTAL FREE ENERGY PREDICTED BY IDOCK:   -1.62 KCAL/MOL
REMARK 923 INTER-LIGAND FREE ENERGY PREDICTED BY IDOCK:   -1.54 KCAL/MOL
REMARK 924 INTRA-LIGAND FREE ENERGY PREDICTED BY IDOCK:   -0.07 KCAL/MOL
REMARK 927      BINDING AFFINITY PREDICTED BY RF-SCORE:    0.00 PKD
ROOT
HETATM    1  N   UNL     1     -10.452   7.331  66.474  1.00  0.00    -0.503 NA 
HETATM    2  C   UNL     1     -10.901   6.447  67.540  1.00  0.00    -0.354 C  
HETATM    3  H1  UNL     1     -11.172   8.023  66.267  1.00  0.00     0.000 HD 
HETATM    4  H2  UNL     1     -10.168   6.814  65.642  1.00  0.00     0.000 HD 
ENDROOT
BRANCH   2   5
HETATM    5  C   UNL     1      -9.823   5.412  67.850  1.00  0.00    -0.179 C  
BRANCH   5   6
HETATM    6  C   UNL     1      -9.579   5.316  69.352  1.00  0.00    -0.215 C  
HETATM    7  C   UNL     1      -8.215   5.829  69.737  1.00  0.00    -0.108 C  
HETATM    8  O   UNL     1      -8.051   7.152  69.524  1.00  0.00    -0.125 OA 
HETATM    9  O   UNL     1      -7.342   5.131  70.228  1.00  0.00    -0.059 OA 
ENDBRANCH   5   6
ENDBRANCH   2   5
TORSDOF 2
ENDMDL
MODEL      173
REMARK 921   NORMALIZED FREE ENERGY PREDICTED BY IDOCK:   -1.17 KCAL/MOL
REMARK 922        TOTAL FREE ENERGY PREDICTED BY IDOCK:   -1.58 KCAL/MOL
REMARK 923 INTER-LIGAND FREE ENERGY PREDICTED BY IDOCK:   -1.50 KCAL/MOL
REMARK 924 INTRA-LIGAND FREE ENERGY PREDICTED BY IDOCK:   -0.08 KCAL/MOL
REMARK 927      BINDING AFFINITY PREDICTED BY RF-SCORE:    0.00 PKD
ROOT
HETATM    1  N   UNL     1      -7.232   6.193  72.124  1.00  0.00    -0.090 NA 
HETATM    2  C   UNL     1      -8.311   6.641  71.255  1.00  0.00    -0.124 C  
HETATM    3  H1  UNL     1      -6.416   5.941  71.567  1.00  0.00     0.000 HD 
HETATM    4  H2  UNL     1      -7.526   5.433  72.738  1.00  0.00     0.000 HD 
ENDROOT
BRANCH   2   5
HETATM    5  C   UNL     1      -9.532   7.019  72.090  1.00  0.00    -0.150 C  
BRANCH   5   6
HETATM    6  C   UNL     1     -10.413   8.015  71.343  1.00  0.00    -0.257 C  
HETATM    7  C   UNL     1     -10.925   7.452  70.042  1.00  0.00    -0.248 C  
HETATM    8  O   UNL     1     -11.770   6.410  70.194  1.00  0.00    -0.422 OA 
HETATM    9  O   UNL     1     -10.636   7.906  68.946  1.00  0.00    -0.211 OA 
ENDBRANCH   5   6
ENDBRANCH   2   5
TORSDOF 2
ENDMDL
MODEL      174
REMARK 921   NORMALIZED FREE ENERGY PREDICTED BY IDOCK:   -1.15 KCAL/MOL
REMARK 922        TOTAL FREE ENERGY PREDICTED BY IDOCK:   -1.56 KCAL/MOL
REMARK 923 INTER-LIGAND FREE ENERGY PREDICTED BY IDOCK:   -1.53 KCAL/MOL
REMARK 924 INTRA-LIGAND FREE ENERGY PREDICTED BY IDOCK:   -0.03 KCAL/MOL
REMARK 927      BINDING AFFINITY PREDICTED BY RF-SCORE:    0.00 PKD
ROOT
HETATM    1  N   UNL     1     -12.374   6.075  72.544  1.00  0.00    -0.527 NA 
HETATM    2  C   UNL     1     -10.931   5.953  72.698  1.00  0.00    -0.264 C  
HETATM    3  H1  UNL     1     -12.833   5.967  73.448  1.00  0.00     0.000 HD 
HETATM    4  H2  UNL     1     -12.740   5.423  71.850  1.00  0.00     0.000 HD 
ENDROOT
BRANCH   2   5
HETATM    5  C   UNL     1     -10.245   6.114  71.345  1.00  0.00    -0.248 C  
BRANCH   5   6
HETATM    6  C   UNL     1     -10.185   4.782  70.605  1.00  0.00    -0.250 C  
HETATM    7  C   UNL     1      -8.924   4.643  69.791  1.00  0.00    -0.094 C  
HETATM    8  O   UNL     1      -7.799   4.586  70.535  1.00  0.00    -0.053 OA 
HETATM    9  O   UNL     1      -8.911   4.556  68.573  1.00  0.00    -0.097 OA 
ENDBRANCH   5   6
ENDBRANCH   2   5
TORSDOF 2
ENDMDL
MODEL      175
REMARK 921   NORMALIZED FREE ENERGY PREDICTED BY IDOCK:   -1.14 KCAL/MOL
REMARK 922        TOTAL FREE ENERGY PREDICTED BY IDOCK:   -1.55 KCAL/MOL
REMARK 923 INTER-LIGAND FREE ENERGY PREDICTED BY IDOCK:   -1.53 KCAL/MOL
REMARK 924 INTRA-LIGAND FREE ENERGY PREDICTED BY IDOCK:   -0.02 KCAL/MOL
REMARK 927      BINDING AFFINITY PREDICTED BY RF-SCORE:    0.00 PKD
ROOT
HETATM    1  N   UNL     1     -11.507  14.802  66.877  1.00  0.00    -0.358 NA 
HETATM    2  C   UNL     1     -10.435  15.496  67.577  1.00  0.00    -0.282 C  
HETATM    3  H1  UNL     1     -12.228  15.466  66.596  1.00  0.00     0.000 HD 
HETATM    4  H2  UNL     1     -11.889  14.034  67.429  1.00  0.00     0.000 HD 
ENDROOT
BRANCH   2   5
HETATM    5  C   UNL     1      -9.356  14.503  67.998  1.00  0.00    -0.201 C  
BRANCH   5   6
HETATM    6  C   UNL     1      -8.195  15.219  68.680  1.00  0.00    -0.159 C  
HETATM    7  C   UNL     1      -6.938  14.387  68.679  1.00  0.00    -0.102 C  
HETATM    8  O   UNL     1      -6.430  14.169  67.448  1.00  0.00    -0.306 OA 
HETATM    9  O   UNL     1      -6.401  13.971  69.693  1.00  0.00    -0.118 OA 
ENDBRANCH   5   6
ENDBRANCH   2   5
TORSDOF 2
ENDMDL
MODEL      176
REMARK 921   NORMALIZED FREE ENERGY PREDICTED BY IDOCK:   -1.14 KCAL/MOL
REMARK 922        TOTAL FREE ENERGY PREDICTED BY IDOCK:   -1.55 KCAL/MOL
REMARK 923 INTER-LIGAND FREE ENERGY PREDICTED BY IDOCK:   -1.49 KCAL/MOL
REMARK 924 INTRA-LIGAND FREE ENERGY PREDICTED BY IDOCK:   -0.05 KCAL/MOL
REMARK 927      BINDING AFFINITY PREDICTED BY RF-SCORE:    0.00 PKD
ROOT
HETATM    1  N   UNL     1     -10.567   5.388  70.817  1.00  0.00    -0.248 NA 
HETATM    2  C   UNL     1      -9.296   5.504  70.116  1.00  0.00    -0.146 C  
HETATM    3  H1  UNL     1     -10.591   4.525  71.358  1.00  0.00     0.000 HD 
HETATM    4  H2  UNL     1     -11.361   5.463  70.181  1.00  0.00     0.000 HD 
ENDROOT
BRANCH   2   5
HETATM    5  C   UNL     1      -9.261   6.796  69.305  1.00  0.00    -0.141 C  
BRANCH   5   6
HETATM    6  C   UNL     1      -9.110   6.499  67.817  1.00  0.00    -0.112 C  
HETATM    7  C   UNL     1     -10.377   6.784  67.052  1.00  0.00    -0.268 C  
HETATM    8  O   UNL     1     -10.718   8.090  67.030  1.00  0.00    -0.328 OA 
HETATM    9  O   UNL     1     -11.027   5.927  66.475  1.00  0.00    -0.250 OA 
ENDBRANCH   5   6
ENDBRANCH   2   5
TORSDOF 2
ENDMDL
MODEL      177
REMARK 921   NORMALIZED FREE ENERGY PREDICTED BY IDOCK:   -1.14 KCAL/MOL
REMARK 922        TOTAL FREE ENERGY PREDICTED BY IDOCK:   -1.55 KCAL/MOL
REMARK 923 INTER-LIGAND FREE ENERGY PREDICTED BY IDOCK:   -1.51 KCAL/MOL
REMARK 924 INTRA-LIGAND FREE ENERGY PREDICTED BY IDOCK:   -0.03 KCAL/MOL
REMARK 927      BINDING AFFINITY PREDICTED BY RF-SCORE:    0.00 PKD
ROOT
HETATM    1  N   UNL     1      -7.858   8.392  67.689  1.00  0.00    -0.106 NA 
HETATM    2  C   UNL     1      -8.861   8.797  66.713  1.00  0.00    -0.129 C  
HETATM    3  H1  UNL     1      -6.923   8.548  67.314  1.00  0.00     0.000 HD 
HETATM    4  H2  UNL     1      -7.991   7.428  67.995  1.00  0.00     0.000 HD 
ENDROOT
BRANCH   2   5
HETATM    5  C   UNL     1     -10.261   8.563  67.274  1.00  0.00    -0.346 C  
BRANCH   5   6
HETATM    6  C   UNL     1     -10.202   8.253  68.766  1.00  0.00    -0.226 C  
HETATM    7  C   UNL     1     -10.185   9.506  69.604  1.00  0.00    -0.218 C  
HETATM    8  O   UNL     1     -11.323  10.228  69.526  1.00  0.00    -0.243 OA 
HETATM    9  O   UNL     1      -9.249   9.832  70.317  1.00  0.00    -0.246 OA 
ENDBRANCH   5   6
ENDBRANCH   2   5
TORSDOF 2
ENDMDL
MODEL      178
REMARK 921   NORMALIZED FREE ENERGY PREDICTED BY IDOCK:   -1.14 KCAL/MOL
REMARK 922        TOTAL FREE ENERGY PREDICTED BY IDOCK:   -1.54 KCAL/MOL
REMARK 923 INTER-LIGAND FREE ENERGY PREDICTED BY IDOCK:   -1.42 KCAL/MOL
REMARK 924 INTRA-LIGAND FREE ENERGY PREDICTED BY IDOCK:   -0.12 KCAL/MOL
REMARK 927      BINDING AFFINITY PREDICTED BY RF-SCORE:    0.00 PKD
ROOT
HETATM    1  N   UNL     1      -9.184  12.659  67.070  1.00  0.00    -0.206 NA 
HETATM    2  C   UNL     1      -9.677  11.593  67.931  1.00  0.00    -0.179 C  
HETATM    3  H1  UNL     1      -8.507  13.230  67.574  1.00  0.00     0.000 HD 
HETATM    4  H2  UNL     1      -9.944  13.218  66.683  1.00  0.00     0.000 HD 
ENDROOT
BRANCH   2   5
HETATM    5  C   UNL     1     -10.691  10.737  67.177  1.00  0.00    -0.324 C  
BRANCH   5   6
HETATM    6  C   UNL     1     -10.029  10.014  66.009  1.00  0.00    -0.334 C  
HETATM    7  C   UNL     1      -8.912   9.111  66.463  1.00  0.00    -0.148 C  
HETATM    8  O   UNL     1      -9.324   8.072  67.221  1.00  0.00    -0.137 OA 
HETATM    9  O   UNL     1      -7.741   9.273  66.156  1.00  0.00    -0.095 OA 
ENDBRANCH   5   6
ENDBRANCH   2   5
TORSDOF 2
ENDMDL
MODEL      179
REMARK 921   NORMALIZED FREE ENERGY PREDICTED BY IDOCK:   -1.13 KCAL/MOL
REMARK 922        TOTAL FREE ENERGY PREDICTED BY IDOCK:   -1.54 KCAL/MOL
REMARK 923 INTER-LIGAND FREE ENERGY PREDICTED BY IDOCK:   -1.51 KCAL/MOL
REMARK 924 INTRA-LIGAND FREE ENERGY PREDICTED BY IDOCK:   -0.02 KCAL/MOL
REMARK 927      BINDING AFFINITY PREDICTED BY RF-SCORE:    0.00 PKD
ROOT
HETATM    1  N   UNL     1      -7.999  10.799  64.172  1.00  0.00    -0.356 NA 
HETATM    2  C   UNL     1      -7.923  10.145  65.471  1.00  0.00    -0.146 C  
HETATM    3  H1  UNL     1      -7.108  10.713  63.685  1.00  0.00     0.000 HD 
HETATM    4  H2  UNL     1      -8.301  11.770  64.250  1.00  0.00     0.000 HD 
ENDROOT
BRANCH   2   5
HETATM    5  C   UNL     1      -9.258  10.273  66.200  1.00  0.00    -0.192 C  
BRANCH   5   6
HETATM    6  C   UNL     1      -9.695   8.929  66.772  1.00  0.00    -0.282 C  
HETATM    7  C   UNL     1      -9.867   8.979  68.268  1.00  0.00    -0.166 C  
HETATM    8  O   UNL     1     -10.874   9.781  68.674  1.00  0.00    -0.222 OA 
HETATM    9  O   UNL     1      -9.187   8.334  69.050  1.00  0.00    -0.147 OA 
ENDBRANCH   5   6
ENDBRANCH   2   5
TORSDOF 2
ENDMDL
MODEL      180
REMARK 921   NORMALIZED FREE ENERGY PREDICTED BY IDOCK:   -1.09 KCAL/MOL
REMARK 922        TOTAL FREE ENERGY PREDICTED BY IDOCK:   -1.49 KCAL/MOL
REMARK 923 INTER-LIGAND FREE ENERGY PREDICTED BY IDOCK:   -1.46 KCAL/MOL
REMARK 924 INTRA-LIGAND FREE ENERGY PREDICTED BY IDOCK:   -0.03 KCAL/MOL
REMARK 927      BINDING AFFINITY PREDICTED BY RF-SCORE:    0.00 PKD
ROOT
HETATM    1  N   UNL     1      -8.051  11.203  65.793  1.00  0.00    -0.358 NA 
HETATM    2  C   UNL     1      -7.714  11.701  67.119  1.00  0.00    -0.159 C  
HETATM    3  H1  UNL     1      -7.285  11.389  65.145  1.00  0.00     0.000 HD 
HETATM    4  H2  UNL     1      -8.936  11.581  65.456  1.00  0.00     0.000 HD 
ENDROOT
BRANCH   2   5
HETATM    5  C   UNL     1      -8.860  11.423  68.088  1.00  0.00    -0.162 C  
BRANCH   5   6
HETATM    6  C   UNL     1      -8.398  10.528  69.233  1.00  0.00    -0.144 C  
HETATM    7  C   UNL     1      -9.485   9.591  69.693  1.00  0.00    -0.199 C  
HETATM    8  O   UNL     1      -9.842   8.676  68.767  1.00  0.00    -0.164 OA 
HETATM    9  O   UNL     1      -9.981   9.624  70.808  1.00  0.00    -0.270 OA 
ENDBRANCH   5   6
ENDBRANCH   2   5
TORSDOF 2
ENDMDL
MODEL      181
REMARK 921   NORMALIZED FREE ENERGY PREDICTED BY IDOCK:   -1.09 KCAL/MOL
REMARK 922        TOTAL FREE ENERGY PREDICTED BY IDOCK:   -1.49 KCAL/MOL
REMARK 923 INTER-LIGAND FREE ENERGY PREDICTED BY IDOCK:   -1.49 KCAL/MOL
REMARK 924 INTRA-LIGAND FREE ENERGY PREDICTED BY IDOCK:   -0.00 KCAL/MOL
REMARK 927      BINDING AFFINITY PREDICTED BY RF-SCORE:    0.00 PKD
ROOT
HETATM    1  N   UNL     1     -10.677   5.356  69.764  1.00  0.00    -0.284 NA 
HETATM    2  C   UNL     1     -10.432   6.507  70.622  1.00  0.00    -0.214 C  
HETATM    3  H1  UNL     1     -10.109   5.423  68.920  1.00  0.00     0.000 HD 
HETATM    4  H2  UNL     1     -11.668   5.243  69.550  1.00  0.00     0.000 HD 
ENDROOT
BRANCH   2   5
HETATM    5  C   UNL     1     -11.282   6.407  71.886  1.00  0.00    -0.325 C  
BRANCH   5   6
HETATM    6  C   UNL     1     -10.952   5.136  72.663  1.00  0.00    -0.303 C  
HETATM    7  C   UNL     1      -9.468   4.964  72.861  1.00  0.00    -0.134 C  
HETATM    8  O   UNL     1      -8.911   5.910  73.647  1.00  0.00    -0.125 OA 
HETATM    9  O   UNL     1      -8.824   4.042  72.388  1.00  0.00    -0.104 OA 
ENDBRANCH   5   6
ENDBRANCH   2   5
TORSDOF 2
ENDMDL
MODEL      182
REMARK 921   NORMALIZED FREE ENERGY PREDICTED BY IDOCK:   -1.08 KCAL/MOL
REMARK 922        TOTAL FREE ENERGY PREDICTED BY IDOCK:   -1.47 KCAL/MOL
REMARK 923 INTER-LIGAND FREE ENERGY PREDICTED BY IDOCK:   -1.45 KCAL/MOL
REMARK 924 INTRA-LIGAND FREE ENERGY PREDICTED BY IDOCK:   -0.02 KCAL/MOL
REMARK 927      BINDING AFFINITY PREDICTED BY RF-SCORE:    0.00 PKD
ROOT
HETATM    1  N   UNL     1      -7.752   9.957  66.116  1.00  0.00    -0.104 NA 
HETATM    2  C   UNL     1      -8.480   8.773  65.681  1.00  0.00    -0.160 C  
HETATM    3  H1  UNL     1      -7.401  10.468  65.307  1.00  0.00     0.000 HD 
HETATM    4  H2  UNL     1      -7.008   9.726  66.775  1.00  0.00     0.000 HD 
ENDROOT
BRANCH   2   5
HETATM    5  C   UNL     1      -9.006   8.008  66.892  1.00  0.00    -0.160 C  
BRANCH   5   6
HETATM    6  C   UNL     1     -10.475   7.643  66.708  1.00  0.00    -0.319 C  
HETATM    7  C   UNL     1     -10.754   6.212  67.089  1.00  0.00    -0.346 C  
HETATM    8  O   UNL     1     -10.578   5.953  68.402  1.00  0.00    -0.216 OA 
HETATM    9  O   UNL     1     -11.136   5.363  66.299  1.00  0.00    -0.149 OA 
ENDBRANCH   5   6
ENDBRANCH   2   5
TORSDOF 2
ENDMDL
MODEL      183
REMARK 921   NORMALIZED FREE ENERGY PREDICTED BY IDOCK:   -1.04 KCAL/MOL
REMARK 922        TOTAL FREE ENERGY PREDICTED BY IDOCK:   -1.44 KCAL/MOL
REMARK 923 INTER-LIGAND FREE ENERGY PREDICTED BY IDOCK:   -1.38 KCAL/MOL
REMARK 924 INTRA-LIGAND FREE ENERGY PREDICTED BY IDOCK:   -0.05 KCAL/MOL
REMARK 927      BINDING AFFINITY PREDICTED BY RF-SCORE:    0.00 PKD
ROOT
HETATM    1  N   UNL     1      -6.037  10.577  64.372  1.00  0.00    -0.334 NA 
HETATM    2  C   UNL     1      -6.040  10.529  65.828  1.00  0.00    -0.133 C  
HETATM    3  H1  UNL     1      -5.144  10.936  64.036  1.00  0.00     0.000 HD 
HETATM    4  H2  UNL     1      -6.825  11.112  64.006  1.00  0.00     0.000 HD 
ENDROOT
BRANCH   2   5
HETATM    5  C   UNL     1      -7.378   9.993  66.330  1.00  0.00    -0.106 C  
BRANCH   5   6
HETATM    6  C   UNL     1      -8.538  10.637  65.577  1.00  0.00    -0.191 C  
HETATM    7  C   UNL     1      -9.569  11.213  66.513  1.00  0.00    -0.197 C  
HETATM    8  O   UNL     1      -9.118  12.253  67.246  1.00  0.00    -0.172 OA 
HETATM    9  O   UNL     1     -10.718  10.809  66.587  1.00  0.00    -0.249 OA 
ENDBRANCH   5   6
ENDBRANCH   2   5
TORSDOF 2
ENDMDL
MODEL      184
REMARK 921   NORMALIZED FREE ENERGY PREDICTED BY IDOCK:   -1.02 KCAL/MOL
REMARK 922        TOTAL FREE ENERGY PREDICTED BY IDOCK:   -1.41 KCAL/MOL
REMARK 923 INTER-LIGAND FREE ENERGY PREDICTED BY IDOCK:   -1.36 KCAL/MOL
REMARK 924 INTRA-LIGAND FREE ENERGY PREDICTED BY IDOCK:   -0.05 KCAL/MOL
REMARK 927      BINDING AFFINITY PREDICTED BY RF-SCORE:    0.00 PKD
ROOT
HETATM    1  N   UNL     1     -10.147   8.021  66.206  1.00  0.00    -0.481 NA 
HETATM    2  C   UNL     1      -9.818   9.310  66.800  1.00  0.00    -0.225 C  
HETATM    3  H1  UNL     1     -10.274   8.123  65.199  1.00  0.00     0.000 HD 
HETATM    4  H2  UNL     1     -10.956   7.591  66.653  1.00  0.00     0.000 HD 
ENDROOT
BRANCH   2   5
HETATM    5  C   UNL     1      -9.627   9.158  68.306  1.00  0.00    -0.161 C  
BRANCH   5   6
HETATM    6  C   UNL     1      -9.600   7.685  68.704  1.00  0.00    -0.152 C  
HETATM    7  C   UNL     1      -8.430   7.361  69.596  1.00  0.00    -0.133 C  
HETATM    8  O   UNL     1      -8.482   7.963  70.803  1.00  0.00    -0.119 OA 
HETATM    9  O   UNL     1      -7.528   6.602  69.280  1.00  0.00    -0.090 OA 
ENDBRANCH   5   6
ENDBRANCH   2   5
TORSDOF 2
ENDMDL
MODEL      185
REMARK 921   NORMALIZED FREE ENERGY PREDICTED BY IDOCK:   -1.01 KCAL/MOL
REMARK 922        TOTAL FREE ENERGY PREDICTED BY IDOCK:   -1.40 KCAL/MOL
REMARK 923 INTER-LIGAND FREE ENERGY PREDICTED BY IDOCK:   -1.35 KCAL/MOL
REMARK 924 INTRA-LIGAND FREE ENERGY PREDICTED BY IDOCK:   -0.05 KCAL/MOL
REMARK 927      BINDING AFFINITY PREDICTED BY RF-SCORE:    0.00 PKD
ROOT
HETATM    1  N   UNL     1      -8.848  11.269  64.478  1.00  0.00    -0.379 NA 
HETATM    2  C   UNL     1      -9.597  10.036  64.677  1.00  0.00    -0.297 C  
HETATM    3  H1  UNL     1      -8.997  11.619  63.532  1.00  0.00     0.000 HD 
HETATM    4  H2  UNL     1      -7.858  11.153  64.692  1.00  0.00     0.000 HD 
ENDROOT
BRANCH   2   5
HETATM    5  C   UNL     1      -9.375   9.511  66.093  1.00  0.00    -0.254 C  
BRANCH   5   6
HETATM    6  C   UNL     1      -7.924   9.083  66.291  1.00  0.00    -0.103 C  
HETATM    7  C   UNL     1      -7.808   7.619  66.629  1.00  0.00    -0.106 C  
HETATM    8  O   UNL     1      -8.193   6.798  65.630  1.00  0.00    -0.122 OA 
HETATM    9  O   UNL     1      -7.375   7.201  67.691  1.00  0.00    -0.088 OA 
ENDBRANCH   5   6
ENDBRANCH   2   5
TORSDOF 2
ENDMDL
MODEL      186
REMARK 921   NORMALIZED FREE ENERGY PREDICTED BY IDOCK:   -0.98 KCAL/MOL
REMARK 922        TOTAL FREE ENERGY PREDICTED BY IDOCK:   -1.37 KCAL/MOL
REMARK 923 INTER-LIGAND FREE ENERGY PREDICTED BY IDOCK:   -1.34 KCAL/MOL
REMARK 924 INTRA-LIGAND FREE ENERGY PREDICTED BY IDOCK:   -0.02 KCAL/MOL
REMARK 927      BINDING AFFINITY PREDICTED BY RF-SCORE:    0.00 PKD
ROOT
HETATM    1  N   UNL     1      -8.812  11.377  65.512  1.00  0.00    -0.382 NA 
HETATM    2  C   UNL     1      -9.568  10.136  65.406  1.00  0.00    -0.264 C  
HETATM    3  H1  UNL     1      -8.717  11.807  64.593  1.00  0.00     0.000 HD 
HETATM    4  H2  UNL     1      -7.909  11.236  65.964  1.00  0.00     0.000 HD 
ENDROOT
BRANCH   2   5
HETATM    5  C   UNL     1      -9.710   9.491  66.782  1.00  0.00    -0.254 C  
BRANCH   5   6
HETATM    6  C   UNL     1      -8.384   8.895  67.242  1.00  0.00    -0.104 C  
HETATM    7  C   UNL     1      -8.355   8.660  68.730  1.00  0.00    -0.121 C  
HETATM    8  O   UNL     1      -9.229   7.720  69.150  1.00  0.00    -0.145 OA 
HETATM    9  O   UNL     1      -7.594   9.234  69.493  1.00  0.00    -0.074 OA 
ENDBRANCH   5   6
ENDBRANCH   2   5
TORSDOF 2
ENDMDL
MODEL      187
REMARK 921   NORMALIZED FREE ENERGY PREDICTED BY IDOCK:   -0.98 KCAL/MOL
REMARK 922        TOTAL FREE ENERGY PREDICTED BY IDOCK:   -1.36 KCAL/MOL
REMARK 923 INTER-LIGAND FREE ENERGY PREDICTED BY IDOCK:   -1.32 KCAL/MOL
REMARK 924 INTRA-LIGAND FREE ENERGY PREDICTED BY IDOCK:   -0.05 KCAL/MOL
REMARK 927      BINDING AFFINITY PREDICTED BY RF-SCORE:    0.00 PKD
ROOT
HETATM    1  N   UNL     1     -11.132   7.666  67.067  1.00  0.00    -0.427 NA 
HETATM    2  C   UNL     1      -9.750   8.024  66.779  1.00  0.00    -0.237 C  
HETATM    3  H1  UNL     1     -11.214   6.657  67.186  1.00  0.00     0.000 HD 
HETATM    4  H2  UNL     1     -11.774   8.021  66.359  1.00  0.00     0.000 HD 
ENDROOT
BRANCH   2   5
HETATM    5  C   UNL     1      -9.628   9.535  66.600  1.00  0.00    -0.243 C  
BRANCH   5   6
HETATM    6  C   UNL     1      -8.227   9.913  66.130  1.00  0.00    -0.118 C  
HETATM    7  C   UNL     1      -7.565  10.898  67.059  1.00  0.00    -0.122 C  
HETATM    8  O   UNL     1      -7.308  10.401  68.287  1.00  0.00    -0.085 OA 
HETATM    9  O   UNL     1      -7.255  12.033  66.733  1.00  0.00    -0.086 OA 
ENDBRANCH   5   6
ENDBRANCH   2   5
TORSDOF 2
ENDMDL
MODEL      188
REMARK 921   NORMALIZED FREE ENERGY PREDICTED BY IDOCK:   -0.96 KCAL/MOL
REMARK 922        TOTAL FREE ENERGY PREDICTED BY IDOCK:   -1.34 KCAL/MOL
REMARK 923 INTER-LIGAND FREE ENERGY PREDICTED BY IDOCK:   -1.31 KCAL/MOL
REMARK 924 INTRA-LIGAND FREE ENERGY PREDICTED BY IDOCK:   -0.03 KCAL/MOL
REMARK 927      BINDING AFFINITY PREDICTED BY RF-SCORE:    0.00 PKD
ROOT
HETATM    1  N   UNL     1      -6.711   5.934  72.015  1.00  0.00    -0.062 NA 
HETATM    2  C   UNL     1      -7.146   6.522  70.756  1.00  0.00    -0.069 C  
HETATM    3  H1  UNL     1      -5.720   5.697  71.965  1.00  0.00     0.000 HD 
HETATM    4  H2  UNL     1      -7.283   5.132  72.280  1.00  0.00     0.000 HD 
ENDROOT
BRANCH   2   5
HETATM    5  C   UNL     1      -8.629   6.877  70.830  1.00  0.00    -0.136 C  
BRANCH   5   6
HETATM    6  C   UNL     1      -9.256   6.323  72.105  1.00  0.00    -0.144 C  
HETATM    7  C   UNL     1     -10.639   6.874  72.341  1.00  0.00    -0.211 C  
HETATM    8  O   UNL     1     -11.542   6.494  71.413  1.00  0.00    -0.292 OA 
HETATM    9  O   UNL     1     -10.935   7.574  73.297  1.00  0.00    -0.393 OA 
ENDBRANCH   5   6
ENDBRANCH   2   5
TORSDOF 2
ENDMDL
MODEL      189
REMARK 921   NORMALIZED FREE ENERGY PREDICTED BY IDOCK:   -0.93 KCAL/MOL
REMARK 922        TOTAL FREE ENERGY PREDICTED BY IDOCK:   -1.31 KCAL/MOL
REMARK 923 INTER-LIGAND FREE ENERGY PREDICTED BY IDOCK:   -1.29 KCAL/MOL
REMARK 924 INTRA-LIGAND FREE ENERGY PREDICTED BY IDOCK:   -0.03 KCAL/MOL
REMARK 927      BINDING AFFINITY PREDICTED BY RF-SCORE:    0.00 PKD
ROOT
HETATM    1  N   UNL     1      -6.928   7.056  67.869  1.00  0.00    -0.080 NA 
HETATM    2  C   UNL     1      -7.183   7.699  66.588  1.00  0.00    -0.087 C  
HETATM    3  H1  UNL     1      -6.426   6.179  67.726  1.00  0.00     0.000 HD 
HETATM    4  H2  UNL     1      -7.784   6.922  68.406  1.00  0.00     0.000 HD 
ENDROOT
BRANCH   2   5
HETATM    5  C   UNL     1      -7.933   9.011  66.802  1.00  0.00    -0.107 C  
BRANCH   5   6
HETATM    6  C   UNL     1      -9.420   8.754  67.027  1.00  0.00    -0.218 C  
HETATM    7  C   UNL     1     -10.276   9.863  66.471  1.00  0.00    -0.222 C  
HETATM    8  O   UNL     1     -10.224   9.969  65.126  1.00  0.00    -0.288 OA 
HETATM    9  O   UNL     1     -10.980  10.585  67.158  1.00  0.00    -0.282 OA 
ENDBRANCH   5   6
ENDBRANCH   2   5
TORSDOF 2
ENDMDL
MODEL      190
REMARK 921   NORMALIZED FREE ENERGY PREDICTED BY IDOCK:   -0.93 KCAL/MOL
REMARK 922        TOTAL FREE ENERGY PREDICTED BY IDOCK:   -1.31 KCAL/MOL
REMARK 923 INTER-LIGAND FREE ENERGY PREDICTED BY IDOCK:   -1.14 KCAL/MOL
REMARK 924 INTRA-LIGAND FREE ENERGY PREDICTED BY IDOCK:   -0.17 KCAL/MOL
REMARK 927      BINDING AFFINITY PREDICTED BY RF-SCORE:    0.00 PKD
ROOT
HETATM    1  N   UNL     1     -10.871   5.475  69.612  1.00  0.00    -0.292 NA 
HETATM    2  C   UNL     1      -9.569   5.441  68.960  1.00  0.00    -0.141 C  
HETATM    3  H1  UNL     1     -11.155   4.531  69.874  1.00  0.00     0.000 HD 
HETATM    4  H2  UNL     1     -11.574   5.940  69.037  1.00  0.00     0.000 HD 
ENDROOT
BRANCH   2   5
HETATM    5  C   UNL     1      -9.144   6.853  68.567  1.00  0.00    -0.127 C  
BRANCH   5   6
HETATM    6  C   UNL     1      -7.996   7.338  69.446  1.00  0.00    -0.125 C  
HETATM    7  C   UNL     1      -8.485   8.164  70.609  1.00  0.00    -0.128 C  
HETATM    8  O   UNL     1      -9.226   7.468  71.497  1.00  0.00    -0.136 OA 
HETATM    9  O   UNL     1      -8.216   9.345  70.762  1.00  0.00    -0.193 OA 
ENDBRANCH   5   6
ENDBRANCH   2   5
TORSDOF 2
ENDMDL
MODEL      191
REMARK 921   NORMALIZED FREE ENERGY PREDICTED BY IDOCK:   -0.85 KCAL/MOL
REMARK 922        TOTAL FREE ENERGY PREDICTED BY IDOCK:   -1.22 KCAL/MOL
REMARK 923 INTER-LIGAND FREE ENERGY PREDICTED BY IDOCK:   -0.96 KCAL/MOL
REMARK 924 INTRA-LIGAND FREE ENERGY PREDICTED BY IDOCK:   -0.26 KCAL/MOL
REMARK 927      BINDING AFFINITY PREDICTED BY RF-SCORE:    0.00 PKD
ROOT
HETATM    1  N   UNL     1      -8.176   9.446  70.832  1.00  0.00    -0.298 NA 
HETATM    2  C   UNL     1      -9.150   9.484  69.750  1.00  0.00    -0.205 C  
HETATM    3  H1  UNL     1      -8.411  10.142  71.539  1.00  0.00     0.000 HD 
HETATM    4  H2  UNL     1      -7.221   9.556  70.490  1.00  0.00     0.000 HD 
ENDROOT
BRANCH   2   5
HETATM    5  C   UNL     1      -8.798   8.442  68.692  1.00  0.00    -0.136 C  
BRANCH   5   6
HETATM    6  C   UNL     1      -8.637   7.062  69.322  1.00  0.00    -0.136 C  
HETATM    7  C   UNL     1      -7.258   6.496  69.101  1.00  0.00    -0.091 C  
HETATM    8  O   UNL     1      -6.279   7.188  69.722  1.00  0.00    -0.029 OA 
HETATM    9  O   UNL     1      -7.036   5.488  68.449  1.00  0.00    -0.061 OA 
ENDBRANCH   5   6
ENDBRANCH   2   5
TORSDOF 2
ENDMDL
MODEL      192
REMARK 921   NORMALIZED FREE ENERGY PREDICTED BY IDOCK:   -0.80 KCAL/MOL
REMARK 922        TOTAL FREE ENERGY PREDICTED BY IDOCK:   -1.16 KCAL/MOL
REMARK 923 INTER-LIGAND FREE ENERGY PREDICTED BY IDOCK:   -0.88 KCAL/MOL
REMARK 924 INTRA-LIGAND FREE ENERGY PREDICTED BY IDOCK:   -0.29 KCAL/MOL
REMARK 927      BINDING AFFINITY PREDICTED BY RF-SCORE:    0.00 PKD
ROOT
HETATM    1  N   UNL     1      -9.928   4.897  70.632  1.00  0.00    -0.220 NA 
HETATM    2  C   UNL     1      -9.554   3.490  70.591  1.00  0.00    -0.177 C  
HETATM    3  H1  UNL     1      -9.873   5.246  71.589  1.00  0.00     0.000 HD 
HETATM    4  H2  UNL     1     -10.846   5.060  70.219  1.00  0.00     0.000 HD 
ENDROOT
BRANCH   2   5
HETATM    5  C   UNL     1      -9.637   2.969  69.160  1.00  0.00    -0.069 C  
BRANCH   5   6
HETATM    6  C   UNL     1      -8.336   3.235  68.409  1.00  0.00    -0.094 C  
HETATM    7  C   UNL     1      -8.514   4.256  67.314  1.00  0.00    -0.100 C  
HETATM    8  O   UNL     1      -8.819   5.491  67.766  1.00  0.00    -0.108 OA 
HETATM    9  O   UNL     1      -8.367   4.010  66.128  1.00  0.00    -0.107 OA 
ENDBRANCH   5   6
ENDBRANCH   2   5
TORSDOF 2
ENDMDL
MODEL      193
REMARK 921   NORMALIZED FREE ENERGY PREDICTED BY IDOCK:   -0.79 KCAL/MOL
REMARK 922        TOTAL FREE ENERGY PREDICTED BY IDOCK:   -1.16 KCAL/MOL
REMARK 923 INTER-LIGAND FREE ENERGY PREDICTED BY IDOCK:   -1.09 KCAL/MOL
REMARK 924 INTRA-LIGAND FREE ENERGY PREDICTED BY IDOCK:   -0.07 KCAL/MOL
REMARK 927      BINDING AFFINITY PREDICTED BY RF-SCORE:    0.00 PKD
ROOT
HETATM    1  N   UNL     1     -10.739   4.660  66.050  1.00  0.00    -0.559 NA 
HETATM    2  C   UNL     1      -9.662   4.149  66.886  1.00  0.00    -0.205 C  
HETATM    3  H1  UNL     1     -11.318   3.890  65.717  1.00  0.00     0.000 HD 
HETATM    4  H2  UNL     1     -10.387   5.233  65.283  1.00  0.00     0.000 HD 
ENDROOT
BRANCH   2   5
HETATM    5  C   UNL     1      -8.794   5.302  67.384  1.00  0.00    -0.105 C  
BRANCH   5   6
HETATM    6  C   UNL     1      -8.637   5.246  68.900  1.00  0.00    -0.091 C  
HETATM    7  C   UNL     1      -7.590   4.248  69.324  1.00  0.00    -0.054 C  
HETATM    8  O   UNL     1      -6.338   4.574  68.937  1.00  0.00    -0.030 OA 
HETATM    9  O   UNL     1      -7.833   3.250  69.983  1.00  0.00    -0.046 OA 
ENDBRANCH   5   6
ENDBRANCH   2   5
TORSDOF 2
ENDMDL
MODEL      194
REMARK 921   NORMALIZED FREE ENERGY PREDICTED BY IDOCK:   -0.79 KCAL/MOL
REMARK 922        TOTAL FREE ENERGY PREDICTED BY IDOCK:   -1.16 KCAL/MOL
REMARK 923 INTER-LIGAND FREE ENERGY PREDICTED BY IDOCK:   -1.10 KCAL/MOL
REMARK 924 INTRA-LIGAND FREE ENERGY PREDICTED BY IDOCK:   -0.06 KCAL/MOL
REMARK 927      BINDING AFFINITY PREDICTED BY RF-SCORE:    0.00 PKD
ROOT
HETATM    1  N   UNL     1      -9.344   3.398  71.436  1.00  0.00    -0.125 NA 
HETATM    2  C   UNL     1      -9.269   4.608  70.629  1.00  0.00    -0.136 C  
HETATM    3  H1  UNL     1      -8.701   2.695  71.072  1.00  0.00     0.000 HD 
HETATM    4  H2  UNL     1     -10.298   3.045  71.507  1.00  0.00     0.000 HD 
ENDROOT
BRANCH   2   5
HETATM    5  C   UNL     1     -10.231   5.661  71.173  1.00  0.00    -0.280 C  
BRANCH   5   6
HETATM    6  C   UNL     1      -9.551   7.023  71.259  1.00  0.00    -0.164 C  
HETATM    7  C   UNL     1      -8.929   7.429  69.948  1.00  0.00    -0.141 C  
HETATM    8  O   UNL     1      -9.826   7.640  68.961  1.00  0.00    -0.162 OA 
HETATM    9  O   UNL     1      -7.729   7.586  69.787  1.00  0.00    -0.092 OA 
ENDBRANCH   5   6
ENDBRANCH   2   5
TORSDOF 2
ENDMDL
MODEL      195
REMARK 921   NORMALIZED FREE ENERGY PREDICTED BY IDOCK:   -0.79 KCAL/MOL
REMARK 922        TOTAL FREE ENERGY PREDICTED BY IDOCK:   -1.15 KCAL/MOL
REMARK 923 INTER-LIGAND FREE ENERGY PREDICTED BY IDOCK:   -1.11 KCAL/MOL
REMARK 924 INTRA-LIGAND FREE ENERGY PREDICTED BY IDOCK:   -0.04 KCAL/MOL
REMARK 927      BINDING AFFINITY PREDICTED BY RF-SCORE:    0.00 PKD
ROOT
HETATM    1  N   UNL     1      -6.995   2.397  70.482  1.00  0.00    -0.033 NA 
HETATM    2  C   UNL     1      -7.878   3.281  69.734  1.00  0.00    -0.046 C  
HETATM    3  H1  UNL     1      -6.123   2.260  69.971  1.00  0.00     0.000 HD 
HETATM    4  H2  UNL     1      -7.447   1.512  70.711  1.00  0.00     0.000 HD 
ENDROOT
BRANCH   2   5
HETATM    5  C   UNL     1      -9.183   3.486  70.498  1.00  0.00    -0.213 C  
BRANCH   5   6
HETATM    6  C   UNL     1      -9.578   4.959  70.513  1.00  0.00    -0.253 C  
HETATM    7  C   UNL     1      -9.951   5.431  71.895  1.00  0.00    -0.184 C  
HETATM    8  O   UNL     1      -8.922   5.421  72.769  1.00  0.00    -0.122 OA 
HETATM    9  O   UNL     1     -11.067   5.818  72.200  1.00  0.00    -0.255 OA 
ENDBRANCH   5   6
ENDBRANCH   2   5
TORSDOF 2
ENDMDL
MODEL      196
REMARK 921   NORMALIZED FREE ENERGY PREDICTED BY IDOCK:   -0.77 KCAL/MOL
REMARK 922        TOTAL FREE ENERGY PREDICTED BY IDOCK:   -1.13 KCAL/MOL
REMARK 923 INTER-LIGAND FREE ENERGY PREDICTED BY IDOCK:   -1.01 KCAL/MOL
REMARK 924 INTRA-LIGAND FREE ENERGY PREDICTED BY IDOCK:   -0.12 KCAL/MOL
REMARK 927      BINDING AFFINITY PREDICTED BY RF-SCORE:    0.00 PKD
ROOT
HETATM    1  N   UNL     1      -8.789   4.718  70.536  1.00  0.00    -0.105 NA 
HETATM    2  C   UNL     1      -8.069   5.673  69.705  1.00  0.00    -0.102 C  
HETATM    3  H1  UNL     1      -8.851   3.818  70.060  1.00  0.00     0.000 HD 
HETATM    4  H2  UNL     1      -9.706   5.068  70.814  1.00  0.00     0.000 HD 
ENDROOT
BRANCH   2   5
HETATM    5  C   UNL     1      -7.975   7.019  70.417  1.00  0.00    -0.113 C  
BRANCH   5   6
HETATM    6  C   UNL     1      -8.576   8.129  69.560  1.00  0.00    -0.134 C  
HETATM    7  C   UNL     1     -10.079   8.047  69.501  1.00  0.00    -0.196 C  
HETATM    8  O   UNL     1     -10.684   8.269  70.687  1.00  0.00    -0.212 OA 
HETATM    9  O   UNL     1     -10.706   7.832  68.475  1.00  0.00    -0.150 OA 
ENDBRANCH   5   6
ENDBRANCH   2   5
TORSDOF 2
ENDMDL
MODEL      197
REMARK 921   NORMALIZED FREE ENERGY PREDICTED BY IDOCK:   -0.74 KCAL/MOL
REMARK 922        TOTAL FREE ENERGY PREDICTED BY IDOCK:   -1.10 KCAL/MOL
REMARK 923 INTER-LIGAND FREE ENERGY PREDICTED BY IDOCK:   -1.07 KCAL/MOL
REMARK 924 INTRA-LIGAND FREE ENERGY PREDICTED BY IDOCK:   -0.03 KCAL/MOL
REMARK 927      BINDING AFFINITY PREDICTED BY RF-SCORE:    0.00 PKD
ROOT
HETATM    1  N   UNL     1      -9.502   5.387  68.484  1.00  0.00    -0.118 NA 
HETATM    2  C   UNL     1      -8.506   6.395  68.821  1.00  0.00    -0.121 C  
HETATM    3  H1  UNL     1      -9.043   4.550  68.124  1.00  0.00     0.000 HD 
HETATM    4  H2  UNL     1     -10.204   5.746  67.837  1.00  0.00     0.000 HD 
ENDROOT
BRANCH   2   5
HETATM    5  C   UNL     1      -9.192   7.648  69.359  1.00  0.00    -0.149 C  
BRANCH   5   6
HETATM    6  C   UNL     1      -9.014   8.819  68.397  1.00  0.00    -0.141 C  
HETATM    7  C   UNL     1      -8.973  10.141  69.118  1.00  0.00    -0.175 C  
HETATM    8  O   UNL     1      -7.898  10.290  69.921  1.00  0.00    -0.166 OA 
HETATM    9  O   UNL     1      -9.810  11.018  68.974  1.00  0.00    -0.200 OA 
ENDBRANCH   5   6
ENDBRANCH   2   5
TORSDOF 2
ENDMDL
MODEL      198
REMARK 921   NORMALIZED FREE ENERGY PREDICTED BY IDOCK:   -0.69 KCAL/MOL
REMARK 922        TOTAL FREE ENERGY PREDICTED BY IDOCK:   -1.04 KCAL/MOL
REMARK 923 INTER-LIGAND FREE ENERGY PREDICTED BY IDOCK:   -1.51 KCAL/MOL
REMARK 924 INTRA-LIGAND FREE ENERGY PREDICTED BY IDOCK:    0.47 KCAL/MOL
REMARK 927      BINDING AFFINITY PREDICTED BY RF-SCORE:    0.00 PKD
ROOT
HETATM    1  N   UNL     1     -12.061   6.277  72.453  1.00  0.00    -0.529 NA 
HETATM    2  C   UNL     1     -10.954   6.878  73.186  1.00  0.00    -0.263 C  
HETATM    3  H1  UNL     1     -12.552   5.610  73.047  1.00  0.00     0.000 HD 
HETATM    4  H2  UNL     1     -11.754   5.855  71.577  1.00  0.00     0.000 HD 
ENDROOT
BRANCH   2   5
HETATM    5  C   UNL     1     -10.219   7.876  72.297  1.00  0.00    -0.302 C  
BRANCH   5   6
HETATM    6  C   UNL     1      -8.957   7.253  71.709  1.00  0.00    -0.136 C  
HETATM    7  C   UNL     1      -7.937   6.934  72.771  1.00  0.00    -0.104 C  
HETATM    8  O   UNL     1      -8.331   5.973  73.634  1.00  0.00    -0.115 OA 
HETATM    9  O   UNL     1      -6.839   7.463  72.836  1.00  0.00    -0.063 OA 
ENDBRANCH   5   6
ENDBRANCH   2   5
TORSDOF 2
ENDMDL
MODEL      199
REMARK 921   NORMALIZED FREE ENERGY PREDICTED BY IDOCK:   -0.65 KCAL/MOL
REMARK 922        TOTAL FREE ENERGY PREDICTED BY IDOCK:   -1.00 KCAL/MOL
REMARK 923 INTER-LIGAND FREE ENERGY PREDICTED BY IDOCK:   -0.95 KCAL/MOL
REMARK 924 INTRA-LIGAND FREE ENERGY PREDICTED BY IDOCK:   -0.05 KCAL/MOL
REMARK 927      BINDING AFFINITY PREDICTED BY RF-SCORE:    0.00 PKD
ROOT
HETATM    1  N   UNL     1      -8.760  10.761  64.623  1.00  0.00    -0.307 NA 
HETATM    2  C   UNL     1      -7.815  10.421  65.678  1.00  0.00    -0.154 C  
HETATM    3  H1  UNL     1      -8.459  10.351  63.739  1.00  0.00     0.000 HD 
HETATM    4  H2  UNL     1      -8.903  11.768  64.549  1.00  0.00     0.000 HD 
ENDROOT
BRANCH   2   5
HETATM    5  C   UNL     1      -8.266  11.034  67.001  1.00  0.00    -0.138 C  
BRANCH   5   6
HETATM    6  C   UNL     1      -7.839  12.495  67.095  1.00  0.00    -0.123 C  
HETATM    7  C   UNL     1      -6.876  12.730  68.230  1.00  0.00    -0.090 C  
HETATM    8  O   UNL     1      -5.685  12.114  68.070  1.00  0.00    -0.050 OA 
HETATM    9  O   UNL     1      -7.124  13.437  69.194  1.00  0.00    -0.092 OA 
ENDBRANCH   5   6
ENDBRANCH   2   5
TORSDOF 2
ENDMDL
MODEL      200
REMARK 921   NORMALIZED FREE ENERGY PREDICTED BY IDOCK:   -0.65 KCAL/MOL
REMARK 922        TOTAL FREE ENERGY PREDICTED BY IDOCK:   -1.00 KCAL/MOL
REMARK 923 INTER-LIGAND FREE ENERGY PREDICTED BY IDOCK:   -0.98 KCAL/MOL
REMARK 924 INTRA-LIGAND FREE ENERGY PREDICTED BY IDOCK:   -0.02 KCAL/MOL
REMARK 927      BINDING AFFINITY PREDICTED BY RF-SCORE:    0.00 PKD
ROOT
HETATM    1  N   UNL     1      -6.467   7.519  70.076  1.00  0.00    -0.034 NA 
HETATM    2  C   UNL     1      -6.420   8.117  68.749  1.00  0.00    -0.053 C  
HETATM    3  H1  UNL     1      -5.658   7.814  70.621  1.00  0.00     0.000 HD 
HETATM    4  H2  UNL     1      -6.550   6.503  70.034  1.00  0.00     0.000 HD 
ENDROOT
BRANCH   2   5
HETATM    5  C   UNL     1      -7.631   7.676  67.932  1.00  0.00    -0.117 C  
BRANCH   5   6
HETATM    6  C   UNL     1      -8.907   8.324  68.460  1.00  0.00    -0.137 C  
HETATM    7  C   UNL     1     -10.107   7.980  67.617  1.00  0.00    -0.209 C  
HETATM    8  O   UNL     1     -10.440   6.672  67.651  1.00  0.00    -0.173 OA 
HETATM    9  O   UNL     1     -10.749   8.803  66.983  1.00  0.00    -0.262 OA 
ENDBRANCH   5   6
ENDBRANCH   2   5
TORSDOF 2
ENDMDL
MODEL      201
REMARK 921   NORMALIZED FREE ENERGY PREDICTED BY IDOCK:   -0.59 KCAL/MOL
REMARK 922        TOTAL FREE ENERGY PREDICTED BY IDOCK:   -0.93 KCAL/MOL
REMARK 923 INTER-LIGAND FREE ENERGY PREDICTED BY IDOCK:   -0.88 KCAL/MOL
REMARK 924 INTRA-LIGAND FREE ENERGY PREDICTED BY IDOCK:   -0.05 KCAL/MOL
REMARK 927      BINDING AFFINITY PREDICTED BY RF-SCORE:    0.00 PKD
ROOT
HETATM    1  N   UNL     1      -9.192   9.435  65.305  1.00  0.00    -0.255 NA 
HETATM    2  C   UNL     1      -7.958  10.114  64.935  1.00  0.00    -0.150 C  
HETATM    3  H1  UNL     1      -9.660   9.081  64.471  1.00  0.00     0.000 HD 
HETATM    4  H2  UNL     1      -9.804  10.032  65.862  1.00  0.00     0.000 HD 
ENDROOT
BRANCH   2   5
HETATM    5  C   UNL     1      -7.258  10.644  66.184  1.00  0.00    -0.138 C  
BRANCH   5   6
HETATM    6  C   UNL     1      -8.181  10.569  67.396  1.00  0.00    -0.118 C  
HETATM    7  C   UNL     1      -7.449  10.128  68.637  1.00  0.00    -0.084 C  
HETATM    8  O   UNL     1      -6.520  11.009  69.064  1.00  0.00    -0.047 OA 
HETATM    9  O   UNL     1      -7.688   9.088  69.231  1.00  0.00    -0.086 OA 
ENDBRANCH   5   6
ENDBRANCH   2   5
TORSDOF 2
ENDMDL
MODEL      202
REMARK 921   NORMALIZED FREE ENERGY PREDICTED BY IDOCK:   -0.41 KCAL/MOL
REMARK 922        TOTAL FREE ENERGY PREDICTED BY IDOCK:   -0.73 KCAL/MOL
REMARK 923 INTER-LIGAND FREE ENERGY PREDICTED BY IDOCK:   -0.65 KCAL/MOL
REMARK 924 INTRA-LIGAND FREE ENERGY PREDICTED BY IDOCK:   -0.08 KCAL/MOL
REMARK 927      BINDING AFFINITY PREDICTED BY RF-SCORE:    0.00 PKD
ROOT
HETATM    1  N   UNL     1      -7.822   9.833  64.349  1.00  0.00    -0.130 NA 
HETATM    2  C   UNL     1      -7.395   8.692  65.147  1.00  0.00    -0.088 C  
HETATM    3  H1  UNL     1      -7.008  10.331  63.989  1.00  0.00     0.000 HD 
HETATM    4  H2  UNL     1      -8.449  10.448  64.867  1.00  0.00     0.000 HD 
ENDROOT
BRANCH   2   5
HETATM    5  C   UNL     1      -8.613   7.946  65.686  1.00  0.00    -0.159 C  
BRANCH   5   6
HETATM    6  C   UNL     1      -8.542   6.464  65.333  1.00  0.00    -0.088 C  
HETATM    7  C   UNL     1      -7.326   5.799  65.927  1.00  0.00    -0.073 C  
HETATM    8  O   UNL     1      -7.337   5.752  67.276  1.00  0.00    -0.074 OA 
HETATM    9  O   UNL     1      -6.425   5.315  65.261  1.00  0.00    -0.037 OA 
ENDBRANCH   5   6
ENDBRANCH   2   5
TORSDOF 2
ENDMDL
MODEL      203
REMARK 921   NORMALIZED FREE ENERGY PREDICTED BY IDOCK:   -0.37 KCAL/MOL
REMARK 922        TOTAL FREE ENERGY PREDICTED BY IDOCK:   -0.68 KCAL/MOL
REMARK 923 INTER-LIGAND FREE ENERGY PREDICTED BY IDOCK:   -0.66 KCAL/MOL
REMARK 924 INTRA-LIGAND FREE ENERGY PREDICTED BY IDOCK:   -0.02 KCAL/MOL
REMARK 927      BINDING AFFINITY PREDICTED BY RF-SCORE:    0.00 PKD
ROOT
HETATM    1  N   UNL     1      -9.417  11.735  66.432  1.00  0.00    -0.216 NA 
HETATM    2  C   UNL     1      -8.449  12.821  66.379  1.00  0.00     0.293 C  
HETATM    3  H1  UNL     1      -9.221  11.056  65.697  1.00  0.00     0.000 HD 
HETATM    4  H2  UNL     1     -10.377  12.077  66.390  1.00  0.00     0.000 HD 
ENDROOT
BRANCH   2   5
HETATM    5  C   UNL     1      -8.742  13.838  67.479  1.00  0.00    -0.194 C  
BRANCH   5   6
HETATM    6  C   UNL     1      -7.802  13.641  68.664  1.00  0.00    -0.096 C  
HETATM    7  C   UNL     1      -7.363  14.954  69.261  1.00  0.00    -0.175 C  
HETATM    8  O   UNL     1      -8.366  15.656  69.829  1.00  0.00    -0.162 OA 
HETATM    9  O   UNL     1      -6.206  15.343  69.265  1.00  0.00    -0.113 OA 
ENDBRANCH   5   6
ENDBRANCH   2   5
TORSDOF 2
ENDMDL
MODEL      204
REMARK 921   NORMALIZED FREE ENERGY PREDICTED BY IDOCK:   -0.29 KCAL/MOL
REMARK 922        TOTAL FREE ENERGY PREDICTED BY IDOCK:   -0.60 KCAL/MOL
REMARK 923 INTER-LIGAND FREE ENERGY PREDICTED BY IDOCK:   -1.37 KCAL/MOL
REMARK 924 INTRA-LIGAND FREE ENERGY PREDICTED BY IDOCK:    0.77 KCAL/MOL
REMARK 927      BINDING AFFINITY PREDICTED BY RF-SCORE:    0.00 PKD
ROOT
HETATM    1  N   UNL     1      -8.950  15.265  65.862  1.00  0.00    -0.430 NA 
HETATM    2  C   UNL     1      -8.841  14.413  67.038  1.00  0.00    -0.237 C  
HETATM    3  H1  UNL     1      -9.931  15.439  65.646  1.00  0.00     0.000 HD 
HETATM    4  H2  UNL     1      -8.446  14.880  65.063  1.00  0.00     0.000 HD 
ENDROOT
BRANCH   2   5
HETATM    5  C   UNL     1      -7.372  14.152  67.360  1.00  0.00    -0.143 C  
BRANCH   5   6
HETATM    6  C   UNL     1      -7.061  12.659  67.302  1.00  0.00    -0.101 C  
HETATM    7  C   UNL     1      -8.140  11.831  67.952  1.00  0.00    -0.144 C  
HETATM    8  O   UNL     1      -9.326  11.882  67.310  1.00  0.00    -0.172 OA 
HETATM    9  O   UNL     1      -7.962  11.148  68.948  1.00  0.00    -0.141 OA 
ENDBRANCH   5   6
ENDBRANCH   2   5
TORSDOF 2
ENDMDL
